MODEL 1
REMARK VINA RESULT:     -11.3      0.000      0.000
REMARK SMILES CC(C)(C)N(CC(=O)NCCCNC(=O)c1ccc(-c2c3nc(c(-c4ccccc4)c4ccc([nH]4)c(-c4ccccc4)c4nc(c(-c5ccccc5)c5ccc2[nH]5)C=C4)C=C3)cc1)C(=O)Nc1ccc([N+](=O)[O-])cc1
REMARK SMILES IDX 10 1 9 2 7 3 8 4 6 6 5 7 2 8 1 9 3 10 4 11 64 12 65 13 66 14
REMARK SMILES IDX 67 16 68 17 75 18 69 19 74 20 70 21 71 22 72 23 73 24 11 25
REMARK SMILES IDX 12 26 13 27 14 28 15 30 16 31 17 32 63 33 18 34 62 35 19 36
REMARK SMILES IDX 20 37 21 38 56 39 22 40 61 41 55 42 57 43 23 44 60 45 54 46
REMARK SMILES IDX 53 47 24 49 46 50 31 51 45 52 32 53 35 54 44 55 58 56 33 57
REMARK SMILES IDX 34 58 43 60 59 61 36 62 25 63 26 64 30 65 27 66 29 67 28 68
REMARK SMILES IDX 47 69 48 70 52 71 49 72 51 73 50 74 37 75 38 76 42 77 39 78
REMARK SMILES IDX 41 79 40 80
REMARK H PARENT 9 5 66 15 13 29 57 48 35 59
REMARK Flexibility Score: inf
ROOT
ATOM      1  C   UNL A   1      32.148  26.708  26.226  1.00  0.00     0.117 C 
ENDROOT
BRANCH   1   2
ATOM      2  N   UNL A   1      31.203  25.722  26.695  1.00  0.00    -0.354 N 
ATOM      3  C   UNL A   1      31.025  24.431  26.308  1.00  0.00     0.239 C 
ATOM      4  O   UNL A   1      30.553  23.678  27.170  1.00  0.00    -0.273 OA
ATOM      5  H   UNL A   1      30.594  26.032  27.403  1.00  0.00     0.163 HD
BRANCH   3   6
ATOM      6  C   UNL A   1      31.471  23.850  24.950  1.00  0.00     0.221 C 
BRANCH   6   7
ATOM      7  N   UNL A   1      32.847  23.354  24.739  1.00  0.00    -0.310 N 
BRANCH   7   8
ATOM      8  C   UNL A   1      33.549  23.711  23.424  1.00  0.00     0.037 C 
ATOM      9  C   UNL A   1      32.933  23.055  22.154  1.00  0.00     0.034 C 
ATOM     10  C   UNL A   1      35.050  23.331  23.406  1.00  0.00     0.034 C 
ATOM     11  C   UNL A   1      33.424  25.238  23.176  1.00  0.00     0.034 C 
ENDBRANCH   7   8
BRANCH   7  12
ATOM     12  C   UNL A   1      33.675  22.915  25.778  1.00  0.00     0.322 C 
ATOM     13  O   UNL A   1      34.132  23.692  26.624  1.00  0.00    -0.248 OA
ATOM     14  N   UNL A   1      33.801  21.605  26.120  1.00  0.00    -0.308 N 
ATOM     15  H   UNL A   1      33.865  21.489  27.096  1.00  0.00     0.171 HD
BRANCH  14  16
ATOM     16  C   UNL A   1      33.862  20.382  25.454  1.00  0.00     0.043 A 
ATOM     17  C   UNL A   1      35.125  19.909  25.075  1.00  0.00     0.033 A 
ATOM     18  C   UNL A   1      32.726  19.661  25.105  1.00  0.00     0.033 A 
ATOM     19  C   UNL A   1      35.262  18.633  24.520  1.00  0.00     0.088 A 
ATOM     20  C   UNL A   1      32.848  18.380  24.554  1.00  0.00     0.088 A 
ATOM     21  C   UNL A   1      34.120  17.853  24.306  1.00  0.00     0.269 A 
BRANCH  21  22
ATOM     22  N   UNL A   1      34.260  16.467  23.847  1.00  0.00     0.062 N 
ATOM     23  O   UNL A   1      34.128  16.249  22.634  1.00  0.00    -0.258 OA
ATOM     24  O   UNL A   1      34.510  15.600  24.695  1.00  0.00    -0.258 OA
ENDBRANCH  21  22
ENDBRANCH  14  16
ENDBRANCH   7  12
ENDBRANCH   6   7
ENDBRANCH   3   6
ENDBRANCH   1   2
BRANCH   1  25
ATOM     25  C   UNL A   1      32.221  27.969  27.074  1.00  0.00     0.042 C 
BRANCH  25  26
ATOM     26  C   UNL A   1      33.621  28.546  27.233  1.00  0.00     0.118 C 
BRANCH  26  27
ATOM     27  N   UNL A   1      33.617  29.958  27.589  1.00  0.00    -0.352 N 
ATOM     28  C   UNL A   1      34.530  30.744  28.245  1.00  0.00     0.251 C 
ATOM     29  H   UNL A   1      32.805  30.438  27.307  1.00  0.00     0.163 HD
ATOM     30  O   UNL A   1      34.181  31.856  28.631  1.00  0.00    -0.269 OA
BRANCH  28  31
ATOM     31  C   UNL A   1      35.915  30.290  28.498  1.00  0.00     0.039 A 
ATOM     32  C   UNL A   1      36.851  30.384  27.461  1.00  0.00     0.014 A 
ATOM     33  C   UNL A   1      36.286  29.691  29.703  1.00  0.00     0.014 A 
ATOM     34  C   UNL A   1      38.155  29.918  27.647  1.00  0.00     0.010 A 
ATOM     35  C   UNL A   1      37.609  29.316  29.922  1.00  0.00     0.010 A 
ATOM     36  C   UNL A   1      38.552  29.401  28.889  1.00  0.00    -0.014 A 
BRANCH  36  37
ATOM     37  C   UNL A   1      39.932  28.900  29.111  1.00  0.00     0.031 A 
ATOM     38  C   UNL A   1      40.970  29.792  29.740  1.00  0.00     0.074 A 
ATOM     39  C   UNL A   1      40.268  27.661  28.701  1.00  0.00     0.049 A 
ATOM     40  N   UNL A   1      42.237  29.554  29.968  1.00  0.00    -0.248 NA
ATOM     41  C   UNL A   1      40.535  31.143  30.136  1.00  0.00     0.031 C 
ATOM     42  C   UNL A   1      39.371  26.714  28.037  1.00  0.00     0.029 A 
ATOM     43  N   UNL A   1      41.461  26.988  28.783  1.00  0.00    -0.354 N 
ATOM     44  C   UNL A   1      42.752  30.730  30.505  1.00  0.00     0.074 A 
ATOM     45  C   UNL A   1      41.676  31.695  30.519  1.00  0.00     0.031 C 
ATOM     46  C   UNL A   1      40.035  25.570  27.804  1.00  0.00     0.029 A 
ATOM     47  C   UNL A   1      41.411  25.715  28.268  1.00  0.00     0.049 A 
ATOM     48  H   UNL A   1      42.276  27.379  29.174  1.00  0.00     0.167 HD
ATOM     49  C   UNL A   1      44.001  30.979  30.965  1.00  0.00     0.031 A 
ATOM     50  C   UNL A   1      42.364  24.770  28.182  1.00  0.00     0.031 A 
ATOM     51  C   UNL A   1      45.063  30.010  30.980  1.00  0.00     0.049 A 
ATOM     52  C   UNL A   1      43.737  25.063  28.720  1.00  0.00     0.074 A 
ATOM     53  C   UNL A   1      46.345  30.141  31.486  1.00  0.00     0.029 A 
ATOM     54  N   UNL A   1      44.963  28.726  30.468  1.00  0.00    -0.354 N 
ATOM     55  N   UNL A   1      44.187  26.157  29.284  1.00  0.00    -0.248 NA
ATOM     56  C   UNL A   1      44.728  23.982  28.620  1.00  0.00     0.031 C 
ATOM     57  C   UNL A   1      47.034  28.948  31.244  1.00  0.00     0.029 A 
ATOM     58  C   UNL A   1      46.166  28.059  30.631  1.00  0.00     0.049 A 
ATOM     59  H   UNL A   1      44.157  28.345  30.050  1.00  0.00     0.167 HD
ATOM     60  C   UNL A   1      45.506  25.890  29.627  1.00  0.00     0.074 A 
ATOM     61  C   UNL A   1      45.775  24.524  29.226  1.00  0.00     0.031 C 
ATOM     62  C   UNL A   1      46.414  26.702  30.221  1.00  0.00     0.031 A 
BRANCH  49  63
ATOM     63  C   UNL A   1      44.280  32.359  31.493  1.00  0.00    -0.014 A 
ATOM     64  C   UNL A   1      44.086  32.674  32.848  1.00  0.00     0.009 A 
ATOM     65  C   UNL A   1      44.764  33.353  30.629  1.00  0.00     0.009 A 
ATOM     66  C   UNL A   1      44.329  33.966  33.317  1.00  0.00     0.001 A 
ATOM     67  C   UNL A   1      45.035  34.637  31.108  1.00  0.00     0.001 A 
ATOM     68  C   UNL A   1      44.808  34.945  32.448  1.00  0.00     0.000 A 
ENDBRANCH  49  63
BRANCH  50  69
ATOM     69  C   UNL A   1      42.047  23.445  27.590  1.00  0.00    -0.014 A 
ATOM     70  C   UNL A   1      41.517  22.421  28.390  1.00  0.00     0.009 A 
ATOM     71  C   UNL A   1      42.270  23.196  26.228  1.00  0.00     0.009 A 
ATOM     72  C   UNL A   1      41.241  21.167  27.843  1.00  0.00     0.001 A 
ATOM     73  C   UNL A   1      41.968  21.948  25.677  1.00  0.00     0.001 A 
ATOM     74  C   UNL A   1      41.463  20.932  26.487  1.00  0.00     0.000 A 
ENDBRANCH  50  69
BRANCH  62  75
ATOM     75  C   UNL A   1      47.772  26.122  30.495  1.00  0.00    -0.014 A 
ATOM     76  C   UNL A   1      48.721  25.980  29.470  1.00  0.00     0.009 A 
ATOM     77  C   UNL A   1      48.116  25.744  31.802  1.00  0.00     0.009 A 
ATOM     78  C   UNL A   1      49.977  25.437  29.746  1.00  0.00     0.001 A 
ATOM     79  C   UNL A   1      49.382  25.227  32.078  1.00  0.00     0.001 A 
ATOM     80  C   UNL A   1      50.308  25.066  31.049  1.00  0.00     0.000 A 
ENDBRANCH  62  75
ENDBRANCH  36  37
ENDBRANCH  28  31
ENDBRANCH  26  27
ENDBRANCH  25  26
ENDBRANCH   1  25
TORSDOF 15
ENDMDL
MODEL 2
REMARK VINA RESULT:     -11.3      1.807      6.953
REMARK SMILES CC(C)(C)N(CC(=O)NCCCNC(=O)c1ccc(-c2c3nc(c(-c4ccccc4)c4ccc([nH]4)c(-c4ccccc4)c4nc(c(-c5ccccc5)c5ccc2[nH]5)C=C4)C=C3)cc1)C(=O)Nc1ccc([N+](=O)[O-])cc1
REMARK SMILES IDX 10 1 9 2 7 3 8 4 6 6 5 7 2 8 1 9 3 10 4 11 64 12 65 13 66 14
REMARK SMILES IDX 67 16 68 17 75 18 69 19 74 20 70 21 71 22 72 23 73 24 11 25
REMARK SMILES IDX 12 26 13 27 14 28 15 30 16 31 17 32 63 33 18 34 62 35 19 36
REMARK SMILES IDX 20 37 21 38 56 39 22 40 61 41 55 42 57 43 23 44 60 45 54 46
REMARK SMILES IDX 53 47 24 49 46 50 31 51 45 52 32 53 35 54 44 55 58 56 33 57
REMARK SMILES IDX 34 58 43 60 59 61 36 62 25 63 26 64 30 65 27 66 29 67 28 68
REMARK SMILES IDX 47 69 48 70 52 71 49 72 51 73 50 74 37 75 38 76 42 77 39 78
REMARK SMILES IDX 41 79 40 80
REMARK H PARENT 9 5 66 15 13 29 57 48 35 59
REMARK Flexibility Score: inf
ROOT
ATOM      1  C   UNL A   1      36.119  20.408  24.923  1.00  0.00     0.117 C 
ENDROOT
BRANCH   1   2
ATOM      2  N   UNL A   1      35.960  21.315  26.034  1.00  0.00    -0.354 N 
ATOM      3  C   UNL A   1      35.119  22.372  26.184  1.00  0.00     0.239 C 
ATOM      4  O   UNL A   1      34.807  22.642  27.352  1.00  0.00    -0.273 OA
ATOM      5  H   UNL A   1      36.551  21.141  26.802  1.00  0.00     0.163 HD
BRANCH   3   6
ATOM      6  C   UNL A   1      34.465  23.147  25.022  1.00  0.00     0.221 C 
BRANCH   6   7
ATOM      7  N   UNL A   1      32.998  23.312  24.935  1.00  0.00    -0.310 N 
BRANCH   7   8
ATOM      8  C   UNL A   1      32.415  23.916  23.653  1.00  0.00     0.037 C 
ATOM      9  C   UNL A   1      32.593  25.457  23.516  1.00  0.00     0.034 C 
ATOM     10  C   UNL A   1      30.898  23.653  23.484  1.00  0.00     0.034 C 
ATOM     11  C   UNL A   1      33.157  23.326  22.425  1.00  0.00     0.034 C 
ENDBRANCH   7   8
BRANCH   7  12
ATOM     12  C   UNL A   1      32.097  22.627  25.758  1.00  0.00     0.322 C 
ATOM     13  O   UNL A   1      31.407  23.210  26.601  1.00  0.00    -0.248 OA
ATOM     14  N   UNL A   1      31.691  21.354  25.508  1.00  0.00    -0.308 N 
ATOM     15  H   UNL A   1      30.737  21.230  25.719  1.00  0.00     0.171 HD
BRANCH  14  16
ATOM     16  C   UNL A   1      32.266  20.177  25.032  1.00  0.00     0.043 A 
ATOM     17  C   UNL A   1      32.814  19.293  25.969  1.00  0.00     0.033 A 
ATOM     18  C   UNL A   1      32.368  19.889  23.675  1.00  0.00     0.033 A 
ATOM     19  C   UNL A   1      33.290  18.042  25.565  1.00  0.00     0.088 A 
ATOM     20  C   UNL A   1      32.836  18.638  23.256  1.00  0.00     0.088 A 
ATOM     21  C   UNL A   1      33.254  17.702  24.208  1.00  0.00     0.269 A 
BRANCH  21  22
ATOM     22  N   UNL A   1      33.627  16.348  23.786  1.00  0.00     0.062 N 
ATOM     23  O   UNL A   1      33.360  15.414  24.556  1.00  0.00    -0.258 OA
ATOM     24  O   UNL A   1      34.178  16.217  22.685  1.00  0.00    -0.258 OA
ENDBRANCH  21  22
ENDBRANCH  14  16
ENDBRANCH   7  12
ENDBRANCH   6   7
ENDBRANCH   3   6
ENDBRANCH   1   2
BRANCH   1  25
ATOM     25  C   UNL A   1      37.384  19.563  24.970  1.00  0.00     0.042 C 
BRANCH  25  26
ATOM     26  C   UNL A   1      38.592  20.263  25.578  1.00  0.00     0.118 C 
BRANCH  26  27
ATOM     27  N   UNL A   1      39.732  19.376  25.758  1.00  0.00    -0.352 N 
ATOM     28  C   UNL A   1      41.043  19.617  26.081  1.00  0.00     0.251 C 
ATOM     29  H   UNL A   1      39.523  18.424  25.622  1.00  0.00     0.163 HD
ATOM     30  O   UNL A   1      41.862  18.713  25.936  1.00  0.00    -0.269 OA
BRANCH  28  31
ATOM     31  C   UNL A   1      41.495  20.928  26.596  1.00  0.00     0.039 A 
ATOM     32  C   UNL A   1      41.390  21.182  27.969  1.00  0.00     0.014 A 
ATOM     33  C   UNL A   1      41.932  21.944  25.743  1.00  0.00     0.014 A 
ATOM     34  C   UNL A   1      41.759  22.427  28.483  1.00  0.00     0.010 A 
ATOM     35  C   UNL A   1      42.390  23.150  26.266  1.00  0.00     0.010 A 
ATOM     36  C   UNL A   1      42.285  23.416  27.638  1.00  0.00    -0.014 A 
BRANCH  36  37
ATOM     37  C   UNL A   1      42.684  24.747  28.161  1.00  0.00     0.031 A 
ATOM     38  C   UNL A   1      41.646  25.817  28.379  1.00  0.00     0.074 A 
ATOM     39  C   UNL A   1      43.985  25.013  28.393  1.00  0.00     0.049 A 
ATOM     40  N   UNL A   1      41.805  27.054  28.779  1.00  0.00    -0.248 NA
ATOM     41  C   UNL A   1      40.250  25.461  28.077  1.00  0.00     0.031 C 
ATOM     42  C   UNL A   1      45.093  24.081  28.178  1.00  0.00     0.029 A 
ATOM     43  N   UNL A   1      44.593  26.151  28.858  1.00  0.00    -0.354 N 
ATOM     44  C   UNL A   1      40.538  27.626  28.748  1.00  0.00     0.074 A 
ATOM     45  C   UNL A   1      39.632  26.620  28.241  1.00  0.00     0.031 C 
ATOM     46  C   UNL A   1      46.241  24.672  28.546  1.00  0.00     0.029 A 
ATOM     47  C   UNL A   1      45.956  26.034  28.986  1.00  0.00     0.049 A 
ATOM     48  H   UNL A   1      44.099  26.974  29.081  1.00  0.00     0.167 HD
ATOM     49  C   UNL A   1      40.156  28.869  29.128  1.00  0.00     0.031 A 
ATOM     50  C   UNL A   1      46.872  26.922  29.412  1.00  0.00     0.031 A 
ATOM     51  C   UNL A   1      41.052  29.860  29.661  1.00  0.00     0.049 A 
ATOM     52  C   UNL A   1      46.422  28.287  29.848  1.00  0.00     0.074 A 
ATOM     53  C   UNL A   1      40.755  31.125  30.138  1.00  0.00     0.029 A 
ATOM     54  N   UNL A   1      42.421  29.692  29.793  1.00  0.00    -0.354 N 
ATOM     55  N   UNL A   1      45.211  28.789  29.875  1.00  0.00    -0.248 NA
ATOM     56  C   UNL A   1      47.466  29.204  30.327  1.00  0.00     0.031 C 
ATOM     57  C   UNL A   1      41.952  31.738  30.522  1.00  0.00     0.029 A 
ATOM     58  C   UNL A   1      42.987  30.837  30.328  1.00  0.00     0.049 A 
ATOM     59  H   UNL A   1      42.918  28.880  29.542  1.00  0.00     0.167 HD
ATOM     60  C   UNL A   1      45.344  30.070  30.394  1.00  0.00     0.074 A 
ATOM     61  C   UNL A   1      46.750  30.260  30.687  1.00  0.00     0.031 C 
ATOM     62  C   UNL A   1      44.388  31.007  30.608  1.00  0.00     0.031 A 
BRANCH  49  63
ATOM     63  C   UNL A   1      38.702  29.221  28.978  1.00  0.00    -0.014 A 
ATOM     64  C   UNL A   1      38.191  29.708  27.764  1.00  0.00     0.009 A 
ATOM     65  C   UNL A   1      37.825  29.043  30.059  1.00  0.00     0.009 A 
ATOM     66  C   UNL A   1      36.842  30.050  27.649  1.00  0.00     0.001 A 
ATOM     67  C   UNL A   1      36.470  29.357  29.932  1.00  0.00     0.001 A 
ATOM     68  C   UNL A   1      35.982  29.871  28.732  1.00  0.00     0.000 A 
ENDBRANCH  49  63
BRANCH  50  69
ATOM     69  C   UNL A   1      48.305  26.538  29.476  1.00  0.00    -0.014 A 
ATOM     70  C   UNL A   1      49.162  26.813  28.399  1.00  0.00     0.009 A 
ATOM     71  C   UNL A   1      48.825  25.897  30.610  1.00  0.00     0.009 A 
ATOM     72  C   UNL A   1      50.504  26.431  28.446  1.00  0.00     0.001 A 
ATOM     73  C   UNL A   1      50.175  25.540  30.666  1.00  0.00     0.001 A 
ATOM     74  C   UNL A   1      51.010  25.798  29.581  1.00  0.00     0.000 A 
ENDBRANCH  50  69
BRANCH  62  75
ATOM     75  C   UNL A   1      44.831  32.308  31.213  1.00  0.00    -0.014 A 
ATOM     76  C   UNL A   1      45.159  33.409  30.406  1.00  0.00     0.009 A 
ATOM     77  C   UNL A   1      44.890  32.443  32.608  1.00  0.00     0.009 A 
ATOM     78  C   UNL A   1      45.570  34.609  30.987  1.00  0.00     0.001 A 
ATOM     79  C   UNL A   1      45.276  33.652  33.186  1.00  0.00     0.001 A 
ATOM     80  C   UNL A   1      45.624  34.732  32.375  1.00  0.00     0.000 A 
ENDBRANCH  62  75
ENDBRANCH  36  37
ENDBRANCH  28  31
ENDBRANCH  26  27
ENDBRANCH  25  26
ENDBRANCH   1  25
TORSDOF 15
ENDMDL
MODEL 3
REMARK VINA RESULT:     -11.1      2.069      7.179
REMARK SMILES CC(C)(C)N(CC(=O)NCCCNC(=O)c1ccc(-c2c3nc(c(-c4ccccc4)c4ccc([nH]4)c(-c4ccccc4)c4nc(c(-c5ccccc5)c5ccc2[nH]5)C=C4)C=C3)cc1)C(=O)Nc1ccc([N+](=O)[O-])cc1
REMARK SMILES IDX 10 1 9 2 7 3 8 4 6 6 5 7 2 8 1 9 3 10 4 11 64 12 65 13 66 14
REMARK SMILES IDX 67 16 68 17 75 18 69 19 74 20 70 21 71 22 72 23 73 24 11 25
REMARK SMILES IDX 12 26 13 27 14 28 15 30 16 31 17 32 63 33 18 34 62 35 19 36
REMARK SMILES IDX 20 37 21 38 56 39 22 40 61 41 55 42 57 43 23 44 60 45 54 46
REMARK SMILES IDX 53 47 24 49 46 50 31 51 45 52 32 53 35 54 44 55 58 56 33 57
REMARK SMILES IDX 34 58 43 60 59 61 36 62 25 63 26 64 30 65 27 66 29 67 28 68
REMARK SMILES IDX 47 69 48 70 52 71 49 72 51 73 50 74 37 75 38 76 42 77 39 78
REMARK SMILES IDX 41 79 40 80
REMARK H PARENT 9 5 66 15 13 29 57 48 35 59
REMARK Flexibility Score: inf
ROOT
ATOM      1  C   UNL A   1      36.601  20.210  24.614  1.00  0.00     0.117 C 
ENDROOT
BRANCH   1   2
ATOM      2  N   UNL A   1      36.911  21.620  24.592  1.00  0.00    -0.354 N 
ATOM      3  C   UNL A   1      36.097  22.688  24.382  1.00  0.00     0.239 C 
ATOM      4  O   UNL A   1      36.461  23.746  24.913  1.00  0.00    -0.273 OA
ATOM      5  H   UNL A   1      37.856  21.842  24.753  1.00  0.00     0.163 HD
BRANCH   3   6
ATOM      6  C   UNL A   1      34.739  22.631  23.651  1.00  0.00     0.221 C 
BRANCH   6   7
ATOM      7  N   UNL A   1      33.524  22.124  24.322  1.00  0.00    -0.310 N 
BRANCH   7   8
ATOM      8  C   UNL A   1      33.284  22.526  25.781  1.00  0.00     0.037 C 
ATOM      9  C   UNL A   1      33.532  24.031  26.094  1.00  0.00     0.034 C 
ATOM     10  C   UNL A   1      34.160  21.739  26.788  1.00  0.00     0.034 C 
ATOM     11  C   UNL A   1      31.793  22.292  26.138  1.00  0.00     0.034 C 
ENDBRANCH   7   8
BRANCH   7  12
ATOM     12  C   UNL A   1      32.413  21.629  23.630  1.00  0.00     0.322 C 
ATOM     13  O   UNL A   1      31.588  22.378  23.094  1.00  0.00    -0.248 OA
ATOM     14  N   UNL A   1      32.305  20.332  23.236  1.00  0.00    -0.308 N 
ATOM     15  H   UNL A   1      31.885  20.256  22.349  1.00  0.00     0.171 HD
BRANCH  14  16
ATOM     16  C   UNL A   1      32.632  19.082  23.757  1.00  0.00     0.043 A 
ATOM     17  C   UNL A   1      33.046  18.090  22.859  1.00  0.00     0.033 A 
ATOM     18  C   UNL A   1      32.503  18.774  25.107  1.00  0.00     0.033 A 
ATOM     19  C   UNL A   1      33.509  16.858  23.332  1.00  0.00     0.088 A 
ATOM     20  C   UNL A   1      32.968  17.548  25.596  1.00  0.00     0.088 A 
ATOM     21  C   UNL A   1      33.511  16.611  24.709  1.00  0.00     0.269 A 
BRANCH  21  22
ATOM     22  N   UNL A   1      34.113  15.378  25.227  1.00  0.00     0.062 N 
ATOM     23  O   UNL A   1      35.346  15.350  25.350  1.00  0.00    -0.258 OA
ATOM     24  O   UNL A   1      33.354  14.443  25.520  1.00  0.00    -0.258 OA
ENDBRANCH  21  22
ENDBRANCH  14  16
ENDBRANCH   7  12
ENDBRANCH   6   7
ENDBRANCH   3   6
ENDBRANCH   1   2
BRANCH   1  25
ATOM     25  C   UNL A   1      37.774  19.310  24.973  1.00  0.00     0.042 C 
BRANCH  25  26
ATOM     26  C   UNL A   1      38.868  19.987  25.789  1.00  0.00     0.118 C 
BRANCH  26  27
ATOM     27  N   UNL A   1      40.115  19.237  25.800  1.00  0.00    -0.352 N 
ATOM     28  C   UNL A   1      41.417  19.620  25.995  1.00  0.00     0.251 C 
ATOM     29  H   UNL A   1      40.003  18.272  25.638  1.00  0.00     0.163 HD
ATOM     30  O   UNL A   1      42.313  18.828  25.717  1.00  0.00    -0.269 OA
BRANCH  28  31
ATOM     31  C   UNL A   1      41.770  20.955  26.526  1.00  0.00     0.039 A 
ATOM     32  C   UNL A   1      41.642  21.184  27.901  1.00  0.00     0.014 A 
ATOM     33  C   UNL A   1      42.134  22.010  25.687  1.00  0.00     0.014 A 
ATOM     34  C   UNL A   1      41.917  22.447  28.432  1.00  0.00     0.010 A 
ATOM     35  C   UNL A   1      42.500  23.240  26.226  1.00  0.00     0.010 A 
ATOM     36  C   UNL A   1      42.372  23.482  27.600  1.00  0.00    -0.014 A 
BRANCH  36  37
ATOM     37  C   UNL A   1      42.670  24.832  28.140  1.00  0.00     0.031 A 
ATOM     38  C   UNL A   1      44.076  25.194  28.539  1.00  0.00     0.074 A 
ATOM     39  C   UNL A   1      41.669  25.716  28.322  1.00  0.00     0.049 A 
ATOM     40  N   UNL A   1      44.525  26.302  29.077  1.00  0.00    -0.248 NA
ATOM     41  C   UNL A   1      45.112  24.167  28.338  1.00  0.00     0.031 C 
ATOM     42  C   UNL A   1      40.257  25.473  28.021  1.00  0.00     0.029 A 
ATOM     43  N   UNL A   1      41.690  26.999  28.807  1.00  0.00    -0.354 N 
ATOM     44  C   UNL A   1      45.881  26.090  29.302  1.00  0.00     0.074 A 
ATOM     45  C   UNL A   1      46.171  24.734  28.893  1.00  0.00     0.031 C 
ATOM     46  C   UNL A   1      39.553  26.584  28.294  1.00  0.00     0.029 A 
ATOM     47  C   UNL A   1      40.456  27.601  28.823  1.00  0.00     0.049 A 
ATOM     48  H   UNL A   1      42.512  27.446  29.115  1.00  0.00     0.167 HD
ATOM     49  C   UNL A   1      46.807  26.952  29.784  1.00  0.00     0.031 A 
ATOM     50  C   UNL A   1      40.091  28.836  29.216  1.00  0.00     0.031 A 
ATOM     51  C   UNL A   1      46.526  28.311  30.161  1.00  0.00     0.049 A 
ATOM     52  C   UNL A   1      41.141  29.781  29.727  1.00  0.00     0.074 A 
ATOM     53  C   UNL A   1      47.406  29.286  30.597  1.00  0.00     0.029 A 
ATOM     54  N   UNL A   1      45.265  28.887  30.141  1.00  0.00    -0.354 N 
ATOM     55  N   UNL A   1      42.430  29.587  29.871  1.00  0.00    -0.248 NA
ATOM     56  C   UNL A   1      40.686  31.124  30.117  1.00  0.00     0.031 C 
ATOM     57  C   UNL A   1      46.671  30.442  30.880  1.00  0.00     0.029 A 
ATOM     58  C   UNL A   1      45.341  30.200  30.574  1.00  0.00     0.049 A 
ATOM     59  H   UNL A   1      44.439  28.430  29.862  1.00  0.00     0.167 HD
ATOM     60  C   UNL A   1      42.943  30.787  30.345  1.00  0.00     0.074 A 
ATOM     61  C   UNL A   1      41.829  31.709  30.445  1.00  0.00     0.031 C 
ATOM     62  C   UNL A   1      44.221  31.099  30.670  1.00  0.00     0.031 A 
BRANCH  49  63
ATOM     63  C   UNL A   1      48.216  26.444  29.926  1.00  0.00    -0.014 A 
ATOM     64  C   UNL A   1      49.150  26.586  28.887  1.00  0.00     0.009 A 
ATOM     65  C   UNL A   1      48.621  25.834  31.123  1.00  0.00     0.009 A 
ATOM     66  C   UNL A   1      50.447  26.089  29.028  1.00  0.00     0.001 A 
ATOM     67  C   UNL A   1      49.929  25.366  31.272  1.00  0.00     0.001 A 
ATOM     68  C   UNL A   1      50.836  25.483  30.222  1.00  0.00     0.000 A 
ENDBRANCH  49  63
BRANCH  50  69
ATOM     69  C   UNL A   1      38.672  29.260  29.112  1.00  0.00    -0.014 A 
ATOM     70  C   UNL A   1      38.180  29.800  27.914  1.00  0.00     0.009 A 
ATOM     71  C   UNL A   1      37.803  29.130  30.206  1.00  0.00     0.009 A 
ATOM     72  C   UNL A   1      36.853  30.224  27.821  1.00  0.00     0.001 A 
ATOM     73  C   UNL A   1      36.468  29.530  30.101  1.00  0.00     0.001 A 
ATOM     74  C   UNL A   1      35.997  30.085  28.913  1.00  0.00     0.000 A 
ENDBRANCH  50  69
BRANCH  62  75
ATOM     75  C   UNL A   1      44.484  32.502  31.137  1.00  0.00    -0.014 A 
ATOM     76  C   UNL A   1      44.780  33.527  30.225  1.00  0.00     0.009 A 
ATOM     77  C   UNL A   1      44.401  32.807  32.504  1.00  0.00     0.009 A 
ATOM     78  C   UNL A   1      45.022  34.824  30.679  1.00  0.00     0.001 A 
ATOM     79  C   UNL A   1      44.618  34.110  32.951  1.00  0.00     0.001 A 
ATOM     80  C   UNL A   1      44.937  35.115  32.040  1.00  0.00     0.000 A 
ENDBRANCH  62  75
ENDBRANCH  36  37
ENDBRANCH  28  31
ENDBRANCH  26  27
ENDBRANCH  25  26
ENDBRANCH   1  25
TORSDOF 15
ENDMDL
