MODEL 1
REMARK VINA RESULT:     -10.9      0.000      0.000
REMARK SMILES CC(C)(C[NH2+]Cc1ccc2c(c1)OCO2)C(=O)NCCCNC(=O)c1ccc(-c2c3nc(c(-c4ccccc4)c4ccc([nH]4)c(-c4ccccc4)c4nc(c(-c5ccccc5)c5ccc2[nH]5)C=C4)C=C3)cc1
REMARK SMILES IDX 19 1 18 2 16 3 17 4 2 6 1 7 3 8 4 9 5 10 6 13 7 14 8 15
REMARK SMILES IDX 12 16 9 17 11 18 10 19 13 20 15 21 14 22 20 23 21 24 22 25
REMARK SMILES IDX 23 26 24 28 25 29 26 30 72 31 27 32 71 33 28 34 29 35 30 36
REMARK SMILES IDX 65 37 31 38 70 39 64 40 66 41 32 42 69 43 63 44 62 45 33 47
REMARK SMILES IDX 55 48 40 49 54 50 41 51 44 52 53 53 67 54 42 55 43 56 52 58
REMARK SMILES IDX 68 59 45 60 34 61 35 62 39 63 36 64 38 65 37 66 56 67 57 68
REMARK SMILES IDX 61 69 58 70 60 71 59 72 46 73 47 74 51 75 48 76 50 77 49 78
REMARK H PARENT 18 5 5 11 5 12 22 27 66 46 44 57
REMARK Flexibility Score: inf
ROOT
ATOM      1  C   UNL A   1      36.446  20.283  25.004  1.00  0.00     0.117 C 
ENDROOT
BRANCH   1   2
ATOM      2  N   UNL A   1      36.438  21.490  25.809  1.00  0.00    -0.355 N 
ATOM      3  C   UNL A   1      36.014  22.760  25.574  1.00  0.00     0.231 C 
ATOM      4  O   UNL A   1      36.179  23.554  26.509  1.00  0.00    -0.274 OA
ATOM      5  H   UNL A   1      36.816  21.363  26.709  1.00  0.00     0.163 HD
BRANCH   3   6
ATOM      6  C   UNL A   1      35.307  23.187  24.277  1.00  0.00     0.092 C 
ATOM      7  C   UNL A   1      36.311  23.098  23.104  1.00  0.00     0.027 C 
ATOM      8  C   UNL A   1      34.899  24.675  24.379  1.00  0.00     0.027 C 
BRANCH   6   9
ATOM      9  C   UNL A   1      34.063  22.333  23.944  1.00  0.00     0.277 C 
BRANCH   9  10
ATOM     10  N   UNL A   1      33.107  22.070  25.028  1.00  0.00    -0.342 N 
ATOM     11  H   UNL A   1      32.682  22.955  25.305  1.00  0.00     0.346 HD
ATOM     12  H   UNL A   1      33.630  21.637  25.791  1.00  0.00     0.346 HD
BRANCH  10  13
ATOM     13  C   UNL A   1      32.032  21.130  24.652  1.00  0.00     0.297 C 
BRANCH  13  14
ATOM     14  C   UNL A   1      32.495  19.713  24.380  1.00  0.00     0.010 A 
ATOM     15  C   UNL A   1      32.475  19.180  23.070  1.00  0.00     0.013 A 
ATOM     16  C   UNL A   1      32.898  18.885  25.442  1.00  0.00     0.060 A 
ATOM     17  C   UNL A   1      32.763  17.828  22.838  1.00  0.00     0.051 A 
ATOM     18  C   UNL A   1      33.086  17.546  25.198  1.00  0.00     0.166 A 
ATOM     19  C   UNL A   1      33.014  17.028  23.930  1.00  0.00     0.165 A 
ATOM     20  O   UNL A   1      33.298  16.595  26.145  1.00  0.00    -0.454 OA
ATOM     21  O   UNL A   1      33.190  15.679  23.920  1.00  0.00    -0.454 OA
ATOM     22  C   UNL A   1      33.190  15.404  25.338  1.00  0.00     0.468 C 
ENDBRANCH  13  14
ENDBRANCH  10  13
ENDBRANCH   9  10
ENDBRANCH   6   9
ENDBRANCH   3   6
ENDBRANCH   1   2
BRANCH   1  23
ATOM     23  C   UNL A   1      37.860  19.787  24.730  1.00  0.00     0.042 C 
BRANCH  23  24
ATOM     24  C   UNL A   1      38.871  20.196  25.793  1.00  0.00     0.118 C 
BRANCH  24  25
ATOM     25  N   UNL A   1      40.008  19.288  25.867  1.00  0.00    -0.352 N 
ATOM     26  C   UNL A   1      41.332  19.536  26.135  1.00  0.00     0.251 C 
ATOM     27  H   UNL A   1      39.792  18.342  25.696  1.00  0.00     0.163 HD
ATOM     28  O   UNL A   1      42.165  18.655  25.951  1.00  0.00    -0.269 OA
BRANCH  26  29
ATOM     29  C   UNL A   1      41.760  20.863  26.626  1.00  0.00     0.039 A 
ATOM     30  C   UNL A   1      42.230  21.804  25.705  1.00  0.00     0.014 A 
ATOM     31  C   UNL A   1      41.726  21.175  27.987  1.00  0.00     0.014 A 
ATOM     32  C   UNL A   1      42.598  23.077  26.142  1.00  0.00     0.010 A 
ATOM     33  C   UNL A   1      42.005  22.471  28.409  1.00  0.00     0.010 A 
ATOM     34  C   UNL A   1      42.451  23.433  27.492  1.00  0.00    -0.014 A 
BRANCH  34  35
ATOM     35  C   UNL A   1      42.757  24.806  27.967  1.00  0.00     0.031 A 
ATOM     36  C   UNL A   1      44.170  25.190  28.313  1.00  0.00     0.074 A 
ATOM     37  C   UNL A   1      41.754  25.686  28.151  1.00  0.00     0.049 A 
ATOM     38  N   UNL A   1      44.623  26.317  28.803  1.00  0.00    -0.248 NA
ATOM     39  C   UNL A   1      45.208  24.166  28.108  1.00  0.00     0.031 C 
ATOM     40  C   UNL A   1      40.336  25.425  27.890  1.00  0.00     0.029 A 
ATOM     41  N   UNL A   1      41.773  26.980  28.608  1.00  0.00    -0.354 N 
ATOM     42  C   UNL A   1      45.988  26.129  28.980  1.00  0.00     0.074 A 
ATOM     43  C   UNL A   1      46.282  24.767  28.597  1.00  0.00     0.031 C 
ATOM     44  C   UNL A   1      39.628  26.533  28.162  1.00  0.00     0.029 A 
ATOM     45  C   UNL A   1      40.531  27.564  28.659  1.00  0.00     0.049 A 
ATOM     46  H   UNL A   1      42.599  27.446  28.873  1.00  0.00     0.167 HD
ATOM     47  C   UNL A   1      46.918  27.017  29.405  1.00  0.00     0.031 A 
ATOM     48  C   UNL A   1      40.158  28.791  29.069  1.00  0.00     0.031 A 
ATOM     49  C   UNL A   1      46.626  28.376  29.779  1.00  0.00     0.049 A 
ATOM     50  C   UNL A   1      41.206  29.752  29.557  1.00  0.00     0.074 A 
ATOM     51  C   UNL A   1      47.506  29.370  30.168  1.00  0.00     0.029 A 
ATOM     52  N   UNL A   1      45.355  28.929  29.813  1.00  0.00    -0.354 N 
ATOM     53  N   UNL A   1      42.504  29.582  29.651  1.00  0.00    -0.248 NA
ATOM     54  C   UNL A   1      40.740  31.079  29.983  1.00  0.00     0.031 C 
ATOM     55  C   UNL A   1      46.762  30.507  30.496  1.00  0.00     0.029 A 
ATOM     56  C   UNL A   1      45.425  30.243  30.246  1.00  0.00     0.049 A 
ATOM     57  H   UNL A   1      44.527  28.457  29.568  1.00  0.00     0.167 HD
ATOM     58  C   UNL A   1      43.011  30.788  30.118  1.00  0.00     0.074 A 
ATOM     59  C   UNL A   1      41.884  31.685  30.271  1.00  0.00     0.031 C 
ATOM     60  C   UNL A   1      44.294  31.123  30.393  1.00  0.00     0.031 A 
BRANCH  47  61
ATOM     61  C   UNL A   1      48.342  26.540  29.498  1.00  0.00    -0.014 A 
ATOM     62  C   UNL A   1      49.242  26.721  28.434  1.00  0.00     0.009 A 
ATOM     63  C   UNL A   1      48.800  25.933  30.677  1.00  0.00     0.009 A 
ATOM     64  C   UNL A   1      50.559  26.267  28.537  1.00  0.00     0.001 A 
ATOM     65  C   UNL A   1      50.126  25.510  30.788  1.00  0.00     0.001 A 
ATOM     66  C   UNL A   1      51.000  25.667  29.714  1.00  0.00     0.000 A 
ENDBRANCH  47  61
BRANCH  48  67
ATOM     67  C   UNL A   1      38.726  29.190  29.026  1.00  0.00    -0.014 A 
ATOM     68  C   UNL A   1      37.908  29.029  30.154  1.00  0.00     0.009 A 
ATOM     69  C   UNL A   1      38.167  29.727  27.855  1.00  0.00     0.009 A 
ATOM     70  C   UNL A   1      36.553  29.368  30.101  1.00  0.00     0.001 A 
ATOM     71  C   UNL A   1      36.821  30.094  27.815  1.00  0.00     0.001 A 
ATOM     72  C   UNL A   1      36.013  29.904  28.934  1.00  0.00     0.000 A 
ENDBRANCH  48  67
BRANCH  60  73
ATOM     73  C   UNL A   1      44.556  32.531  30.851  1.00  0.00    -0.014 A 
ATOM     74  C   UNL A   1      44.572  32.868  32.213  1.00  0.00     0.009 A 
ATOM     75  C   UNL A   1      44.829  33.528  29.900  1.00  0.00     0.009 A 
ATOM     76  C   UNL A   1      44.823  34.182  32.611  1.00  0.00     0.001 A 
ATOM     77  C   UNL A   1      45.111  34.833  30.303  1.00  0.00     0.001 A 
ATOM     78  C   UNL A   1      45.098  35.162  31.657  1.00  0.00     0.000 A 
ENDBRANCH  60  73
ENDBRANCH  34  35
ENDBRANCH  26  29
ENDBRANCH  24  25
ENDBRANCH  23  24
ENDBRANCH   1  23
TORSDOF 14
ENDMDL
MODEL 2
REMARK VINA RESULT:     -10.6      5.760     10.419
REMARK SMILES CC(C)(C[NH2+]Cc1ccc2c(c1)OCO2)C(=O)NCCCNC(=O)c1ccc(-c2c3nc(c(-c4ccccc4)c4ccc([nH]4)c(-c4ccccc4)c4nc(c(-c5ccccc5)c5ccc2[nH]5)C=C4)C=C3)cc1
REMARK SMILES IDX 19 1 18 2 16 3 17 4 2 6 1 7 3 8 4 9 5 10 6 13 7 14 8 15
REMARK SMILES IDX 12 16 9 17 11 18 10 19 13 20 15 21 14 22 20 23 21 24 22 25
REMARK SMILES IDX 23 26 24 28 25 29 26 30 72 31 27 32 71 33 28 34 29 35 30 36
REMARK SMILES IDX 65 37 31 38 70 39 64 40 66 41 32 42 69 43 63 44 62 45 33 47
REMARK SMILES IDX 55 48 40 49 54 50 41 51 44 52 53 53 67 54 42 55 43 56 52 58
REMARK SMILES IDX 68 59 45 60 34 61 35 62 39 63 36 64 38 65 37 66 56 67 57 68
REMARK SMILES IDX 61 69 58 70 60 71 59 72 46 73 47 74 51 75 48 76 50 77 49 78
REMARK H PARENT 18 5 5 11 5 12 22 27 66 46 44 57
REMARK Flexibility Score: inf
ROOT
ATOM      1  C   UNL A   1      31.648  30.697  25.766  1.00  0.00     0.117 C 
ENDROOT
BRANCH   1   2
ATOM      2  N   UNL A   1      32.794  29.896  26.153  1.00  0.00    -0.355 N 
ATOM      3  C   UNL A   1      33.377  28.788  25.620  1.00  0.00     0.231 C 
ATOM      4  O   UNL A   1      34.357  28.357  26.239  1.00  0.00    -0.274 OA
ATOM      5  H   UNL A   1      33.243  30.221  26.967  1.00  0.00     0.163 HD
BRANCH   3   6
ATOM      6  C   UNL A   1      32.916  28.144  24.302  1.00  0.00     0.092 C 
ATOM      7  C   UNL A   1      33.714  26.839  24.073  1.00  0.00     0.027 C 
ATOM      8  C   UNL A   1      33.271  29.076  23.121  1.00  0.00     0.027 C 
BRANCH   6   9
ATOM      9  C   UNL A   1      31.404  27.824  24.270  1.00  0.00     0.277 C 
BRANCH   9  10
ATOM     10  N   UNL A   1      30.737  27.820  22.960  1.00  0.00    -0.342 N 
ATOM     11  H   UNL A   1      30.772  26.873  22.584  1.00  0.00     0.346 HD
ATOM     12  H   UNL A   1      31.233  28.489  22.370  1.00  0.00     0.346 HD
BRANCH  10  13
ATOM     13  C   UNL A   1      29.326  28.251  23.015  1.00  0.00     0.297 C 
BRANCH  13  14
ATOM     14  C   UNL A   1      29.097  29.713  22.689  1.00  0.00     0.010 A 
ATOM     15  C   UNL A   1      29.062  30.689  23.713  1.00  0.00     0.013 A 
ATOM     16  C   UNL A   1      28.857  30.113  21.364  1.00  0.00     0.060 A 
ATOM     17  C   UNL A   1      28.706  32.015  23.432  1.00  0.00     0.051 A 
ATOM     18  C   UNL A   1      28.424  31.396  21.132  1.00  0.00     0.166 A 
ATOM     19  C   UNL A   1      28.344  32.323  22.140  1.00  0.00     0.165 A 
ATOM     20  O   UNL A   1      27.981  31.875  19.939  1.00  0.00    -0.454 OA
ATOM     21  O   UNL A   1      27.853  33.513  21.701  1.00  0.00    -0.454 OA
ATOM     22  C   UNL A   1      27.466  33.156  20.355  1.00  0.00     0.468 C 
ENDBRANCH  13  14
ENDBRANCH  10  13
ENDBRANCH   9  10
ENDBRANCH   6   9
ENDBRANCH   3   6
ENDBRANCH   1   2
BRANCH   1  23
ATOM     23  C   UNL A   1      31.404  31.850  26.731  1.00  0.00     0.042 C 
BRANCH  23  24
ATOM     24  C   UNL A   1      32.681  32.513  27.230  1.00  0.00     0.118 C 
BRANCH  24  25
ATOM     25  N   UNL A   1      32.474  33.897  27.638  1.00  0.00    -0.352 N 
ATOM     26  C   UNL A   1      33.138  34.663  28.565  1.00  0.00     0.251 C 
ATOM     27  H   UNL A   1      31.737  34.358  27.174  1.00  0.00     0.163 HD
ATOM     28  O   UNL A   1      32.674  35.747  28.901  1.00  0.00    -0.269 OA
BRANCH  26  29
ATOM     29  C   UNL A   1      34.396  34.180  29.171  1.00  0.00     0.039 A 
ATOM     30  C   UNL A   1      34.334  33.437  30.354  1.00  0.00     0.014 A 
ATOM     31  C   UNL A   1      35.634  34.476  28.598  1.00  0.00     0.014 A 
ATOM     32  C   UNL A   1      35.506  32.935  30.920  1.00  0.00     0.010 A 
ATOM     33  C   UNL A   1      36.792  33.899  29.110  1.00  0.00     0.010 A 
ATOM     34  C   UNL A   1      36.741  33.128  30.280  1.00  0.00    -0.014 A 
BRANCH  34  35
ATOM     35  C   UNL A   1      37.990  32.534  30.817  1.00  0.00     0.031 A 
ATOM     36  C   UNL A   1      38.566  31.291  30.197  1.00  0.00     0.074 A 
ATOM     37  C   UNL A   1      38.570  33.074  31.907  1.00  0.00     0.049 A 
ATOM     38  N   UNL A   1      39.609  30.590  30.565  1.00  0.00    -0.248 NA
ATOM     39  C   UNL A   1      37.862  30.746  29.024  1.00  0.00     0.031 C 
ATOM     40  C   UNL A   1      38.090  34.257  32.626  1.00  0.00     0.029 A 
ATOM     41  N   UNL A   1      39.690  32.695  32.605  1.00  0.00    -0.354 N 
ATOM     42  C   UNL A   1      39.674  29.518  29.684  1.00  0.00     0.074 A 
ATOM     43  C   UNL A   1      38.538  29.629  28.798  1.00  0.00     0.031 C 
ATOM     44  C   UNL A   1      38.925  34.522  33.644  1.00  0.00     0.029 A 
ATOM     45  C   UNL A   1      39.971  33.507  33.677  1.00  0.00     0.049 A 
ATOM     46  H   UNL A   1      40.239  31.916  32.360  1.00  0.00     0.167 HD
ATOM     47  C   UNL A   1      40.606  28.539  29.606  1.00  0.00     0.031 A 
ATOM     48  C   UNL A   1      40.956  33.435  34.592  1.00  0.00     0.031 A 
ATOM     49  C   UNL A   1      41.742  28.434  30.484  1.00  0.00     0.049 A 
ATOM     50  C   UNL A   1      41.967  32.327  34.497  1.00  0.00     0.074 A 
ATOM     51  C   UNL A   1      42.774  27.512  30.451  1.00  0.00     0.029 A 
ATOM     52  N   UNL A   1      41.992  29.278  31.555  1.00  0.00    -0.354 N 
ATOM     53  N   UNL A   1      42.054  31.361  33.614  1.00  0.00    -0.248 NA
ATOM     54  C   UNL A   1      43.023  32.307  35.519  1.00  0.00     0.031 C 
ATOM     55  C   UNL A   1      43.616  27.762  31.538  1.00  0.00     0.029 A 
ATOM     56  C   UNL A   1      43.147  28.880  32.208  1.00  0.00     0.049 A 
ATOM     57  H   UNL A   1      41.432  30.045  31.813  1.00  0.00     0.167 HD
ATOM     58  C   UNL A   1      43.189  30.637  33.955  1.00  0.00     0.074 A 
ATOM     59  C   UNL A   1      43.766  31.286  35.115  1.00  0.00     0.031 C 
ATOM     60  C   UNL A   1      43.709  29.536  33.361  1.00  0.00     0.031 A 
BRANCH  47  61
ATOM     61  C   UNL A   1      40.430  27.496  28.537  1.00  0.00    -0.014 A 
ATOM     62  C   UNL A   1      39.669  26.336  28.767  1.00  0.00     0.009 A 
ATOM     63  C   UNL A   1      41.002  27.689  27.270  1.00  0.00     0.009 A 
ATOM     64  C   UNL A   1      39.521  25.376  27.764  1.00  0.00     0.001 A 
ATOM     65  C   UNL A   1      40.824  26.743  26.259  1.00  0.00     0.001 A 
ATOM     66  C   UNL A   1      40.094  25.583  26.511  1.00  0.00     0.000 A 
ENDBRANCH  47  61
BRANCH  48  67
ATOM     67  C   UNL A   1      41.045  34.452  35.674  1.00  0.00    -0.014 A 
ATOM     68  C   UNL A   1      40.401  34.242  36.903  1.00  0.00     0.009 A 
ATOM     69  C   UNL A   1      41.767  35.640  35.482  1.00  0.00     0.009 A 
ATOM     70  C   UNL A   1      40.454  35.214  37.905  1.00  0.00     0.001 A 
ATOM     71  C   UNL A   1      41.844  36.596  36.498  1.00  0.00     0.001 A 
ATOM     72  C   UNL A   1      41.178  36.387  37.703  1.00  0.00     0.000 A 
ENDBRANCH  48  67
BRANCH  60  73
ATOM     73  C   UNL A   1      44.987  28.984  33.929  1.00  0.00    -0.014 A 
ATOM     74  C   UNL A   1      44.979  27.992  34.922  1.00  0.00     0.009 A 
ATOM     75  C   UNL A   1      46.218  29.439  33.431  1.00  0.00     0.009 A 
ATOM     76  C   UNL A   1      46.180  27.492  35.429  1.00  0.00     0.001 A 
ATOM     77  C   UNL A   1      47.416  28.914  33.917  1.00  0.00     0.001 A 
ATOM     78  C   UNL A   1      47.396  27.949  34.922  1.00  0.00     0.000 A 
ENDBRANCH  60  73
ENDBRANCH  34  35
ENDBRANCH  26  29
ENDBRANCH  24  25
ENDBRANCH  23  24
ENDBRANCH   1  23
TORSDOF 14
ENDMDL
MODEL 3
REMARK VINA RESULT:     -10.6      0.805      6.084
REMARK SMILES CC(C)(C[NH2+]Cc1ccc2c(c1)OCO2)C(=O)NCCCNC(=O)c1ccc(-c2c3nc(c(-c4ccccc4)c4ccc([nH]4)c(-c4ccccc4)c4nc(c(-c5ccccc5)c5ccc2[nH]5)C=C4)C=C3)cc1
REMARK SMILES IDX 19 1 18 2 16 3 17 4 2 6 1 7 3 8 4 9 5 10 6 13 7 14 8 15
REMARK SMILES IDX 12 16 9 17 11 18 10 19 13 20 15 21 14 22 20 23 21 24 22 25
REMARK SMILES IDX 23 26 24 28 25 29 26 30 72 31 27 32 71 33 28 34 29 35 30 36
REMARK SMILES IDX 65 37 31 38 70 39 64 40 66 41 32 42 69 43 63 44 62 45 33 47
REMARK SMILES IDX 55 48 40 49 54 50 41 51 44 52 53 53 67 54 42 55 43 56 52 58
REMARK SMILES IDX 68 59 45 60 34 61 35 62 39 63 36 64 38 65 37 66 56 67 57 68
REMARK SMILES IDX 61 69 58 70 60 71 59 72 46 73 47 74 51 75 48 76 50 77 49 78
REMARK H PARENT 18 5 5 11 5 12 22 27 66 46 44 57
REMARK Flexibility Score: inf
ROOT
ATOM      1  C   UNL A   1      36.319  20.711  25.164  1.00  0.00     0.117 C 
ENDROOT
BRANCH   1   2
ATOM      2  N   UNL A   1      36.547  21.935  25.909  1.00  0.00    -0.355 N 
ATOM      3  C   UNL A   1      35.998  23.178  25.844  1.00  0.00     0.231 C 
ATOM      4  O   UNL A   1      36.457  24.000  26.646  1.00  0.00    -0.274 OA
ATOM      5  H   UNL A   1      37.239  21.848  26.604  1.00  0.00     0.163 HD
BRANCH   3   6
ATOM      6  C   UNL A   1      34.838  23.540  24.903  1.00  0.00     0.092 C 
ATOM      7  C   UNL A   1      35.239  23.189  23.451  1.00  0.00     0.027 C 
ATOM      8  C   UNL A   1      34.613  25.069  24.927  1.00  0.00     0.027 C 
BRANCH   6   9
ATOM      9  C   UNL A   1      33.516  22.818  25.250  1.00  0.00     0.277 C 
BRANCH   9  10
ATOM     10  N   UNL A   1      32.850  22.065  24.178  1.00  0.00    -0.342 N 
ATOM     11  H   UNL A   1      33.567  21.645  23.586  1.00  0.00     0.346 HD
ATOM     12  H   UNL A   1      32.265  22.726  23.666  1.00  0.00     0.346 HD
BRANCH  10  13
ATOM     13  C   UNL A   1      31.964  20.993  24.673  1.00  0.00     0.297 C 
BRANCH  13  14
ATOM     14  C   UNL A   1      32.464  19.586  24.413  1.00  0.00     0.010 A 
ATOM     15  C   UNL A   1      32.529  19.070  23.097  1.00  0.00     0.013 A 
ATOM     16  C   UNL A   1      32.816  18.750  25.486  1.00  0.00     0.060 A 
ATOM     17  C   UNL A   1      32.850  17.725  22.865  1.00  0.00     0.051 A 
ATOM     18  C   UNL A   1      33.039  17.418  25.237  1.00  0.00     0.166 A 
ATOM     19  C   UNL A   1      33.050  16.915  23.960  1.00  0.00     0.165 A 
ATOM     20  O   UNL A   1      33.209  16.457  26.183  1.00  0.00    -0.454 OA
ATOM     21  O   UNL A   1      33.246  15.569  23.944  1.00  0.00    -0.454 OA
ATOM     22  C   UNL A   1      33.167  15.276  25.357  1.00  0.00     0.468 C 
ENDBRANCH  13  14
ENDBRANCH  10  13
ENDBRANCH   9  10
ENDBRANCH   6   9
ENDBRANCH   3   6
ENDBRANCH   1   2
BRANCH   1  23
ATOM     23  C   UNL A   1      37.615  19.960  24.887  1.00  0.00     0.042 C 
BRANCH  23  24
ATOM     24  C   UNL A   1      38.776  20.393  25.773  1.00  0.00     0.118 C 
BRANCH  24  25
ATOM     25  N   UNL A   1      39.830  19.389  25.850  1.00  0.00    -0.352 N 
ATOM     26  C   UNL A   1      41.175  19.525  26.089  1.00  0.00     0.251 C 
ATOM     27  H   UNL A   1      39.528  18.463  25.706  1.00  0.00     0.163 HD
ATOM     28  O   UNL A   1      41.923  18.569  25.913  1.00  0.00    -0.269 OA
BRANCH  26  29
ATOM     29  C   UNL A   1      41.728  20.819  26.542  1.00  0.00     0.039 A 
ATOM     30  C   UNL A   1      42.296  21.677  25.596  1.00  0.00     0.014 A 
ATOM     31  C   UNL A   1      41.714  21.179  27.891  1.00  0.00     0.014 A 
ATOM     32  C   UNL A   1      42.785  22.922  25.994  1.00  0.00     0.010 A 
ATOM     33  C   UNL A   1      42.116  22.454  28.273  1.00  0.00     0.010 A 
ATOM     34  C   UNL A   1      42.663  23.337  27.330  1.00  0.00    -0.014 A 
BRANCH  34  35
ATOM     35  C   UNL A   1      43.099  24.688  27.762  1.00  0.00     0.031 A 
ATOM     36  C   UNL A   1      42.079  25.745  28.090  1.00  0.00     0.074 A 
ATOM     37  C   UNL A   1      44.412  24.986  27.794  1.00  0.00     0.049 A 
ATOM     38  N   UNL A   1      42.265  26.997  28.422  1.00  0.00    -0.248 NA
ATOM     39  C   UNL A   1      40.663  25.350  28.009  1.00  0.00     0.031 C 
ATOM     40  C   UNL A   1      45.500  24.062  27.461  1.00  0.00     0.029 A 
ATOM     41  N   UNL A   1      45.057  26.153  28.117  1.00  0.00    -0.354 N 
ATOM     42  C   UNL A   1      40.996  27.541  28.569  1.00  0.00     0.074 A 
ATOM     43  C   UNL A   1      40.048  26.500  28.241  1.00  0.00     0.031 C 
ATOM     44  C   UNL A   1      46.675  24.690  27.627  1.00  0.00     0.029 A 
ATOM     45  C   UNL A   1      46.425  26.069  28.031  1.00  0.00     0.049 A 
ATOM     46  H   UNL A   1      44.584  26.973  28.386  1.00  0.00     0.167 HD
ATOM     47  C   UNL A   1      40.648  28.789  28.963  1.00  0.00     0.031 A 
ATOM     48  C   UNL A   1      47.374  27.000  28.245  1.00  0.00     0.031 A 
ATOM     49  C   UNL A   1      41.591  29.823  29.298  1.00  0.00     0.049 A 
ATOM     50  C   UNL A   1      46.962  28.385  28.660  1.00  0.00     0.074 A 
ATOM     51  C   UNL A   1      41.340  31.102  29.762  1.00  0.00     0.029 A 
ATOM     52  N   UNL A   1      42.969  29.695  29.201  1.00  0.00    -0.354 N 
ATOM     53  N   UNL A   1      45.757  28.863  28.864  1.00  0.00    -0.248 NA
ATOM     54  C   UNL A   1      48.042  29.356  28.887  1.00  0.00     0.031 C 
ATOM     55  C   UNL A   1      42.562  31.768  29.889  1.00  0.00     0.029 A 
ATOM     56  C   UNL A   1      43.579  30.883  29.568  1.00  0.00     0.049 A 
ATOM     57  H   UNL A   1      43.442  28.881  28.913  1.00  0.00     0.167 HD
ATOM     58  C   UNL A   1      45.936  30.178  29.272  1.00  0.00     0.074 A 
ATOM     59  C   UNL A   1      47.364  30.417  29.302  1.00  0.00     0.031 C 
ATOM     60  C   UNL A   1      45.001  31.106  29.594  1.00  0.00     0.031 A 
BRANCH  47  61
ATOM     61  C   UNL A   1      39.180  29.108  29.043  1.00  0.00    -0.014 A 
ATOM     62  C   UNL A   1      38.483  29.620  27.934  1.00  0.00     0.009 A 
ATOM     63  C   UNL A   1      38.475  28.863  30.231  1.00  0.00     0.009 A 
ATOM     64  C   UNL A   1      37.121  29.914  28.029  1.00  0.00     0.001 A 
ATOM     65  C   UNL A   1      37.106  29.128  30.312  1.00  0.00     0.001 A 
ATOM     66  C   UNL A   1      36.434  29.664  29.215  1.00  0.00     0.000 A 
ENDBRANCH  47  61
BRANCH  48  67
ATOM     67  C   UNL A   1      48.810  26.654  28.082  1.00  0.00    -0.014 A 
ATOM     68  C   UNL A   1      49.428  26.748  26.826  1.00  0.00     0.009 A 
ATOM     69  C   UNL A   1      49.571  26.219  29.180  1.00  0.00     0.009 A 
ATOM     70  C   UNL A   1      50.769  26.387  26.666  1.00  0.00     0.001 A 
ATOM     71  C   UNL A   1      50.919  25.888  29.023  1.00  0.00     0.001 A 
ATOM     72  C   UNL A   1      51.513  25.961  27.765  1.00  0.00     0.000 A 
ENDBRANCH  48  67
BRANCH  60  73
ATOM     73  C   UNL A   1      45.494  32.452  30.046  1.00  0.00    -0.014 A 
ATOM     74  C   UNL A   1      45.679  33.507  29.138  1.00  0.00     0.009 A 
ATOM     75  C   UNL A   1      45.738  32.677  31.410  1.00  0.00     0.009 A 
ATOM     76  C   UNL A   1      46.132  34.750  29.585  1.00  0.00     0.001 A 
ATOM     77  C   UNL A   1      46.159  33.930  31.857  1.00  0.00     0.001 A 
ATOM     78  C   UNL A   1      46.365  34.961  30.944  1.00  0.00     0.000 A 
ENDBRANCH  60  73
ENDBRANCH  34  35
ENDBRANCH  26  29
ENDBRANCH  24  25
ENDBRANCH  23  24
ENDBRANCH   1  23
TORSDOF 14
ENDMDL
