MODEL 1
REMARK VINA RESULT:     -11.5      0.000      0.000
REMARK SMILES O=C(C[NH+]1CCN(c2nccc(N3CCCCC3)n2)CC1)NCCCNC(=O)c1ccc(-c2c3nc(c(-c4ccccc4)c4ccc([nH]4)c(-c4ccccc4)c4nc(c(-c5ccccc5)c5ccc2[nH]5)C=C4)C=C3)cc1
REMARK SMILES IDX 23 1 22 2 1 3 2 4 3 6 4 7 5 8 21 9 6 11 20 12 7 13 8 14 9 15
REMARK SMILES IDX 19 16 10 17 12 18 11 19 13 20 14 21 18 22 15 23 17 24 16 25
REMARK SMILES IDX 24 26 25 27 26 28 27 29 28 31 29 32 30 33 76 34 31 35 75 36
REMARK SMILES IDX 32 37 33 38 34 39 69 40 35 41 74 42 68 43 70 44 36 45 73 46
REMARK SMILES IDX 67 47 66 48 37 50 59 51 44 52 58 53 45 54 48 55 57 56 71 57
REMARK SMILES IDX 46 58 47 59 56 61 72 62 49 63 38 64 39 65 43 66 40 67 42 68
REMARK SMILES IDX 41 69 60 70 61 71 65 72 62 73 64 74 63 75 50 76 51 77 55 78
REMARK SMILES IDX 52 79 54 80 53 81
REMARK H PARENT 22 5 4 10 26 30 70 49 48 60
REMARK Flexibility Score: inf
ROOT
ATOM      1  C   UNL A   1      36.487  19.702  24.936  1.00  0.00     0.118 C 
ENDROOT
BRANCH   1   2
ATOM      2  N   UNL A   1      35.185  20.221  25.309  1.00  0.00    -0.351 N 
ATOM      3  O   UNL A   1      33.982  18.802  23.955  1.00  0.00    -0.269 OA
ATOM      4  C   UNL A   1      34.011  19.659  24.832  1.00  0.00     0.275 C 
ATOM      5  H   UNL A   1      35.134  20.993  25.918  1.00  0.00     0.163 HD
BRANCH   4   6
ATOM      6  C   UNL A   1      32.757  20.165  25.549  1.00  0.00     0.363 C 
BRANCH   6   7
ATOM      7  N   UNL A   1      32.219  21.449  25.059  1.00  0.00    -0.324 N 
ATOM      8  C   UNL A   1      32.466  22.603  25.957  1.00  0.00     0.284 C 
ATOM      9  C   UNL A   1      32.534  21.810  23.661  1.00  0.00     0.284 C 
ATOM     10  H   UNL A   1      31.220  21.244  25.072  1.00  0.00     0.348 HD
ATOM     11  C   UNL A   1      33.788  23.396  25.764  1.00  0.00     0.181 C 
ATOM     12  C   UNL A   1      33.892  22.514  23.450  1.00  0.00     0.181 C 
ATOM     13  N   UNL A   1      34.020  23.643  24.349  1.00  0.00    -0.329 N 
BRANCH  13  14
ATOM     14  C   UNL A   1      33.920  24.905  23.829  1.00  0.00     0.227 A 
ATOM     15  N   UNL A   1      33.809  25.033  22.500  1.00  0.00    -0.221 NA
ATOM     16  N   UNL A   1      33.813  25.938  24.681  1.00  0.00    -0.196 NA
ATOM     17  C   UNL A   1      33.451  26.243  22.045  1.00  0.00     0.119 A 
ATOM     18  C   UNL A   1      33.489  27.146  24.198  1.00  0.00     0.134 A 
ATOM     19  C   UNL A   1      33.248  27.332  22.857  1.00  0.00     0.067 A 
BRANCH  18  20
ATOM     20  N   UNL A   1      33.435  28.209  25.075  1.00  0.00    -0.356 N 
ATOM     21  C   UNL A   1      33.722  27.969  26.480  1.00  0.00     0.118 C 
ATOM     22  C   UNL A   1      32.889  29.492  24.666  1.00  0.00     0.118 C 
ATOM     23  C   UNL A   1      32.524  28.330  27.351  1.00  0.00     0.022 C 
ATOM     24  C   UNL A   1      31.681  29.847  25.537  1.00  0.00     0.022 C 
ATOM     25  C   UNL A   1      32.007  29.729  27.025  1.00  0.00     0.004 C 
ENDBRANCH  18  20
ENDBRANCH  13  14
ENDBRANCH   6   7
ENDBRANCH   4   6
ENDBRANCH   1   2
BRANCH   1  26
ATOM     26  C   UNL A   1      37.515  20.795  24.669  1.00  0.00     0.042 C 
BRANCH  26  27
ATOM     27  C   UNL A   1      38.629  20.907  25.707  1.00  0.00     0.118 C 
BRANCH  27  28
ATOM     28  N   UNL A   1      39.620  19.845  25.635  1.00  0.00    -0.352 N 
ATOM     29  C   UNL A   1      40.952  19.871  25.995  1.00  0.00     0.251 C 
ATOM     30  H   UNL A   1      39.295  18.985  25.281  1.00  0.00     0.163 HD
ATOM     31  O   UNL A   1      41.668  18.901  25.786  1.00  0.00    -0.269 OA
BRANCH  29  32
ATOM     32  C   UNL A   1      41.532  21.094  26.598  1.00  0.00     0.039 A 
ATOM     33  C   UNL A   1      42.046  22.084  25.754  1.00  0.00     0.014 A 
ATOM     34  C   UNL A   1      41.559  21.275  27.982  1.00  0.00     0.014 A 
ATOM     35  C   UNL A   1      42.502  23.292  26.292  1.00  0.00     0.010 A 
ATOM     36  C   UNL A   1      41.948  22.503  28.512  1.00  0.00     0.010 A 
ATOM     37  C   UNL A   1      42.413  23.530  27.673  1.00  0.00    -0.014 A 
BRANCH  37  38
ATOM     38  C   UNL A   1      42.786  24.840  28.269  1.00  0.00     0.031 A 
ATOM     39  C   UNL A   1      41.741  25.901  28.474  1.00  0.00     0.074 A 
ATOM     40  C   UNL A   1      44.078  25.114  28.538  1.00  0.00     0.049 A 
ATOM     41  N   UNL A   1      41.889  27.149  28.839  1.00  0.00    -0.248 NA
ATOM     42  C   UNL A   1      40.346  25.513  28.207  1.00  0.00     0.031 C 
ATOM     43  C   UNL A   1      45.200  24.187  28.370  1.00  0.00     0.029 A 
ATOM     44  N   UNL A   1      44.670  26.267  28.996  1.00  0.00    -0.354 N 
ATOM     45  C   UNL A   1      40.614  27.702  28.819  1.00  0.00     0.074 A 
ATOM     46  C   UNL A   1      39.711  26.665  28.370  1.00  0.00     0.031 C 
ATOM     47  C   UNL A   1      46.338  24.803  28.730  1.00  0.00     0.029 A 
ATOM     48  C   UNL A   1      46.036  26.180  29.108  1.00  0.00     0.049 A 
ATOM     49  H   UNL A   1      44.161  27.079  29.223  1.00  0.00     0.167 HD
ATOM     50  C   UNL A   1      40.226  28.955  29.155  1.00  0.00     0.031 A 
ATOM     51  C   UNL A   1      46.950  27.107  29.457  1.00  0.00     0.031 A 
ATOM     52  C   UNL A   1      41.117  29.986  29.618  1.00  0.00     0.049 A 
ATOM     53  C   UNL A   1      46.496  28.498  29.804  1.00  0.00     0.074 A 
ATOM     54  C   UNL A   1      40.808  31.272  30.027  1.00  0.00     0.029 A 
ATOM     55  N   UNL A   1      42.491  29.847  29.733  1.00  0.00    -0.354 N 
ATOM     56  N   UNL A   1      45.282  28.992  29.821  1.00  0.00    -0.248 NA
ATOM     57  C   UNL A   1      47.542  29.459  30.187  1.00  0.00     0.031 C 
ATOM     58  C   UNL A   1      42.002  31.927  30.347  1.00  0.00     0.029 A 
ATOM     59  C   UNL A   1      43.048  31.031  30.189  1.00  0.00     0.049 A 
ATOM     60  H   UNL A   1      42.997  29.030  29.521  1.00  0.00     0.167 HD
ATOM     61  C   UNL A   1      45.414  30.306  30.250  1.00  0.00     0.074 A 
ATOM     62  C   UNL A   1      46.825  30.532  30.489  1.00  0.00     0.031 C 
ATOM     63  C   UNL A   1      44.450  31.241  30.434  1.00  0.00     0.031 A 
BRANCH  50  64
ATOM     64  C   UNL A   1      38.765  29.286  29.022  1.00  0.00    -0.014 A 
ATOM     65  C   UNL A   1      38.222  29.704  27.797  1.00  0.00     0.009 A 
ATOM     66  C   UNL A   1      37.914  29.145  30.130  1.00  0.00     0.009 A 
ATOM     67  C   UNL A   1      36.863  30.013  27.695  1.00  0.00     0.001 A 
ATOM     68  C   UNL A   1      36.552  29.427  30.017  1.00  0.00     0.001 A 
ATOM     69  C   UNL A   1      36.030  29.869  28.803  1.00  0.00     0.000 A 
ENDBRANCH  50  64
BRANCH  51  70
ATOM     70  C   UNL A   1      48.392  26.752  29.502  1.00  0.00    -0.014 A 
ATOM     71  C   UNL A   1      48.975  26.301  30.696  1.00  0.00     0.009 A 
ATOM     72  C   UNL A   1      49.197  26.875  28.359  1.00  0.00     0.009 A 
ATOM     73  C   UNL A   1      50.340  26.005  30.752  1.00  0.00     0.001 A 
ATOM     74  C   UNL A   1      50.555  26.552  28.409  1.00  0.00     0.001 A 
ATOM     75  C   UNL A   1      51.126  26.127  29.608  1.00  0.00     0.000 A 
ENDBRANCH  51  70
BRANCH  63  76
ATOM     76  C   UNL A   1      44.876  32.578  30.971  1.00  0.00    -0.014 A 
ATOM     77  C   UNL A   1      45.215  33.637  30.116  1.00  0.00     0.009 A 
ATOM     78  C   UNL A   1      44.886  32.792  32.358  1.00  0.00     0.009 A 
ATOM     79  C   UNL A   1      45.583  34.877  30.642  1.00  0.00     0.001 A 
ATOM     80  C   UNL A   1      45.226  34.041  32.880  1.00  0.00     0.001 A 
ATOM     81  C   UNL A   1      45.582  35.079  32.023  1.00  0.00     0.000 A 
ENDBRANCH  63  76
ENDBRANCH  37  38
ENDBRANCH  29  32
ENDBRANCH  27  28
ENDBRANCH  26  27
ENDBRANCH   1  26
TORSDOF 13
ENDMDL
MODEL 2
REMARK VINA RESULT:     -11.5      1.527      2.208
REMARK SMILES O=C(C[NH+]1CCN(c2nccc(N3CCCCC3)n2)CC1)NCCCNC(=O)c1ccc(-c2c3nc(c(-c4ccccc4)c4ccc([nH]4)c(-c4ccccc4)c4nc(c(-c5ccccc5)c5ccc2[nH]5)C=C4)C=C3)cc1
REMARK SMILES IDX 23 1 22 2 1 3 2 4 3 6 4 7 5 8 21 9 6 11 20 12 7 13 8 14 9 15
REMARK SMILES IDX 19 16 10 17 12 18 11 19 13 20 14 21 18 22 15 23 17 24 16 25
REMARK SMILES IDX 24 26 25 27 26 28 27 29 28 31 29 32 30 33 76 34 31 35 75 36
REMARK SMILES IDX 32 37 33 38 34 39 69 40 35 41 74 42 68 43 70 44 36 45 73 46
REMARK SMILES IDX 67 47 66 48 37 50 59 51 44 52 58 53 45 54 48 55 57 56 71 57
REMARK SMILES IDX 46 58 47 59 56 61 72 62 49 63 38 64 39 65 43 66 40 67 42 68
REMARK SMILES IDX 41 69 60 70 61 71 65 72 62 73 64 74 63 75 50 76 51 77 55 78
REMARK SMILES IDX 52 79 54 80 53 81
REMARK H PARENT 22 5 4 10 26 30 70 49 48 60
REMARK Flexibility Score: inf
ROOT
ATOM      1  C   UNL A   1      36.136  20.173  25.000  1.00  0.00     0.118 C 
ENDROOT
BRANCH   1   2
ATOM      2  N   UNL A   1      35.085  21.115  25.333  1.00  0.00    -0.351 N 
ATOM      3  O   UNL A   1      33.420  20.003  24.199  1.00  0.00    -0.269 OA
ATOM      4  C   UNL A   1      33.767  20.901  24.958  1.00  0.00     0.275 C 
ATOM      5  H   UNL A   1      35.313  21.928  25.839  1.00  0.00     0.163 HD
BRANCH   4   6
ATOM      6  C   UNL A   1      32.779  21.856  25.632  1.00  0.00     0.363 C 
BRANCH   6   7
ATOM      7  N   UNL A   1      32.423  23.057  24.853  1.00  0.00    -0.324 N 
ATOM      8  C   UNL A   1      31.032  23.531  25.050  1.00  0.00     0.284 C 
ATOM      9  C   UNL A   1      33.366  24.194  24.920  1.00  0.00     0.284 C 
ATOM     10  H   UNL A   1      32.503  22.689  23.905  1.00  0.00     0.348 HD
ATOM     11  C   UNL A   1      30.770  24.536  26.206  1.00  0.00     0.181 C 
ATOM     12  C   UNL A   1      33.172  25.145  26.121  1.00  0.00     0.181 C 
ATOM     13  N   UNL A   1      31.790  25.574  26.205  1.00  0.00    -0.329 N 
BRANCH  13  14
ATOM     14  C   UNL A   1      31.485  26.861  25.855  1.00  0.00     0.227 A 
ATOM     15  N   UNL A   1      32.035  27.855  26.563  1.00  0.00    -0.221 NA
ATOM     16  N   UNL A   1      30.752  27.062  24.746  1.00  0.00    -0.196 NA
ATOM     17  C   UNL A   1      31.934  29.087  26.041  1.00  0.00     0.119 A 
ATOM     18  C   UNL A   1      30.635  28.308  24.264  1.00  0.00     0.134 A 
ATOM     19  C   UNL A   1      31.267  29.366  24.874  1.00  0.00     0.067 A 
BRANCH  18  20
ATOM     20  N   UNL A   1      29.837  28.508  23.158  1.00  0.00    -0.356 N 
ATOM     21  C   UNL A   1      30.330  29.361  22.087  1.00  0.00     0.118 C 
ATOM     22  C   UNL A   1      28.451  28.073  23.143  1.00  0.00     0.118 C 
ATOM     23  C   UNL A   1      29.408  30.557  21.874  1.00  0.00     0.022 C 
ATOM     24  C   UNL A   1      27.527  29.277  22.937  1.00  0.00     0.022 C 
ATOM     25  C   UNL A   1      27.954  30.112  21.731  1.00  0.00     0.004 C 
ENDBRANCH  18  20
ENDBRANCH  13  14
ENDBRANCH   6   7
ENDBRANCH   4   6
ENDBRANCH   1   2
BRANCH   1  26
ATOM     26  C   UNL A   1      37.438  20.848  24.588  1.00  0.00     0.042 C 
BRANCH  26  27
ATOM     27  C   UNL A   1      38.515  20.897  25.671  1.00  0.00     0.118 C 
BRANCH  27  28
ATOM     28  N   UNL A   1      39.494  19.825  25.587  1.00  0.00    -0.352 N 
ATOM     29  C   UNL A   1      40.826  19.832  25.945  1.00  0.00     0.251 C 
ATOM     30  H   UNL A   1      39.158  18.972  25.225  1.00  0.00     0.163 HD
ATOM     31  O   UNL A   1      41.531  18.855  25.726  1.00  0.00    -0.269 OA
BRANCH  29  32
ATOM     32  C   UNL A   1      41.422  21.042  26.558  1.00  0.00     0.039 A 
ATOM     33  C   UNL A   1      41.967  22.023  25.723  1.00  0.00     0.014 A 
ATOM     34  C   UNL A   1      41.432  21.221  27.943  1.00  0.00     0.014 A 
ATOM     35  C   UNL A   1      42.439  23.221  26.270  1.00  0.00     0.010 A 
ATOM     36  C   UNL A   1      41.837  22.441  28.480  1.00  0.00     0.010 A 
ATOM     37  C   UNL A   1      42.335  23.459  27.650  1.00  0.00    -0.014 A 
BRANCH  37  38
ATOM     38  C   UNL A   1      42.725  24.760  28.254  1.00  0.00     0.031 A 
ATOM     39  C   UNL A   1      41.691  25.830  28.475  1.00  0.00     0.074 A 
ATOM     40  C   UNL A   1      44.021  25.020  28.516  1.00  0.00     0.049 A 
ATOM     41  N   UNL A   1      41.853  27.074  28.849  1.00  0.00    -0.248 NA
ATOM     42  C   UNL A   1      40.291  25.457  28.215  1.00  0.00     0.031 C 
ATOM     43  C   UNL A   1      45.132  24.084  28.332  1.00  0.00     0.029 A 
ATOM     44  N   UNL A   1      44.627  26.164  28.978  1.00  0.00    -0.354 N 
ATOM     45  C   UNL A   1      40.584  27.639  28.843  1.00  0.00     0.074 A 
ATOM     46  C   UNL A   1      39.668  26.614  28.391  1.00  0.00     0.031 C 
ATOM     47  C   UNL A   1      46.279  24.686  28.688  1.00  0.00     0.029 A 
ATOM     48  C   UNL A   1      45.993  26.063  29.080  1.00  0.00     0.049 A 
ATOM     49  H   UNL A   1      44.128  26.979  29.215  1.00  0.00     0.167 HD
ATOM     50  C   UNL A   1      40.210  28.893  29.191  1.00  0.00     0.031 A 
ATOM     51  C   UNL A   1      46.918  26.978  29.429  1.00  0.00     0.031 A 
ATOM     52  C   UNL A   1      41.115  29.911  29.655  1.00  0.00     0.049 A 
ATOM     53  C   UNL A   1      46.481  28.371  29.790  1.00  0.00     0.074 A 
ATOM     54  C   UNL A   1      40.821  31.197  30.077  1.00  0.00     0.029 A 
ATOM     55  N   UNL A   1      42.488  29.759  29.759  1.00  0.00    -0.354 N 
ATOM     56  N   UNL A   1      45.271  28.876  29.820  1.00  0.00    -0.248 NA
ATOM     57  C   UNL A   1      47.538  29.318  30.173  1.00  0.00     0.031 C 
ATOM     58  C   UNL A   1      42.024  31.838  30.393  1.00  0.00     0.029 A 
ATOM     59  C   UNL A   1      43.059  30.934  30.220  1.00  0.00     0.049 A 
ATOM     60  H   UNL A   1      42.985  28.939  29.537  1.00  0.00     0.167 HD
ATOM     61  C   UNL A   1      45.419  30.186  30.258  1.00  0.00     0.074 A 
ATOM     62  C   UNL A   1      46.833  30.396  30.489  1.00  0.00     0.031 C 
ATOM     63  C   UNL A   1      44.465  31.128  30.457  1.00  0.00     0.031 A 
BRANCH  50  64
ATOM     64  C   UNL A   1      38.752  29.238  29.071  1.00  0.00    -0.014 A 
ATOM     65  C   UNL A   1      37.884  29.125  30.169  1.00  0.00     0.009 A 
ATOM     66  C   UNL A   1      38.246  29.716  27.852  1.00  0.00     0.009 A 
ATOM     67  C   UNL A   1      36.531  29.445  30.036  1.00  0.00     0.001 A 
ATOM     68  C   UNL A   1      36.900  30.063  27.730  1.00  0.00     0.001 A 
ATOM     69  C   UNL A   1      36.042  29.918  28.819  1.00  0.00     0.000 A 
ENDBRANCH  50  64
BRANCH  51  70
ATOM     70  C   UNL A   1      48.358  26.609  29.461  1.00  0.00    -0.014 A 
ATOM     71  C   UNL A   1      48.918  26.036  30.612  1.00  0.00     0.009 A 
ATOM     72  C   UNL A   1      49.182  26.840  28.348  1.00  0.00     0.009 A 
ATOM     73  C   UNL A   1      50.279  25.726  30.659  1.00  0.00     0.001 A 
ATOM     74  C   UNL A   1      50.536  26.503  28.387  1.00  0.00     0.001 A 
ATOM     75  C   UNL A   1      51.086  25.955  29.546  1.00  0.00     0.000 A 
ENDBRANCH  51  70
BRANCH  63  76
ATOM     76  C   UNL A   1      44.908  32.457  31.001  1.00  0.00    -0.014 A 
ATOM     77  C   UNL A   1      45.245  33.521  30.152  1.00  0.00     0.009 A 
ATOM     78  C   UNL A   1      44.936  32.658  32.390  1.00  0.00     0.009 A 
ATOM     79  C   UNL A   1      45.629  34.753  30.685  1.00  0.00     0.001 A 
ATOM     80  C   UNL A   1      45.292  33.899  32.920  1.00  0.00     0.001 A 
ATOM     81  C   UNL A   1      45.646  34.943  32.068  1.00  0.00     0.000 A 
ENDBRANCH  63  76
ENDBRANCH  37  38
ENDBRANCH  29  32
ENDBRANCH  27  28
ENDBRANCH  26  27
ENDBRANCH   1  26
TORSDOF 13
ENDMDL
MODEL 3
REMARK VINA RESULT:     -11.5      5.837     10.435
REMARK SMILES O=C(C[NH+]1CCN(c2nccc(N3CCCCC3)n2)CC1)NCCCNC(=O)c1ccc(-c2c3nc(c(-c4ccccc4)c4ccc([nH]4)c(-c4ccccc4)c4nc(c(-c5ccccc5)c5ccc2[nH]5)C=C4)C=C3)cc1
REMARK SMILES IDX 23 1 22 2 1 3 2 4 3 6 4 7 5 8 21 9 6 11 20 12 7 13 8 14 9 15
REMARK SMILES IDX 19 16 10 17 12 18 11 19 13 20 14 21 18 22 15 23 17 24 16 25
REMARK SMILES IDX 24 26 25 27 26 28 27 29 28 31 29 32 30 33 76 34 31 35 75 36
REMARK SMILES IDX 32 37 33 38 34 39 69 40 35 41 74 42 68 43 70 44 36 45 73 46
REMARK SMILES IDX 67 47 66 48 37 50 59 51 44 52 58 53 45 54 48 55 57 56 71 57
REMARK SMILES IDX 46 58 47 59 56 61 72 62 49 63 38 64 39 65 43 66 40 67 42 68
REMARK SMILES IDX 41 69 60 70 61 71 65 72 62 73 64 74 63 75 50 76 51 77 55 78
REMARK SMILES IDX 52 79 54 80 53 81
REMARK H PARENT 22 5 4 10 26 30 70 49 48 60
REMARK Flexibility Score: inf
ROOT
ATOM      1  C   UNL A   1      34.857  34.785  28.162  1.00  0.00     0.118 C 
ENDROOT
BRANCH   1   2
ATOM      2  N   UNL A   1      34.386  33.431  27.946  1.00  0.00    -0.351 N 
ATOM      3  O   UNL A   1      36.466  32.451  28.057  1.00  0.00    -0.269 OA
ATOM      4  C   UNL A   1      35.246  32.344  27.991  1.00  0.00     0.275 C 
ATOM      5  H   UNL A   1      33.431  33.279  27.763  1.00  0.00     0.163 HD
BRANCH   4   6
ATOM      6  C   UNL A   1      34.523  30.995  28.012  1.00  0.00     0.363 C 
BRANCH   6   7
ATOM      7  N   UNL A   1      33.875  30.601  26.747  1.00  0.00    -0.324 N 
ATOM      8  C   UNL A   1      34.442  29.385  26.116  1.00  0.00     0.284 C 
ATOM      9  C   UNL A   1      32.398  30.535  26.750  1.00  0.00     0.284 C 
ATOM     10  H   UNL A   1      34.113  31.403  26.163  1.00  0.00     0.348 HD
ATOM     11  C   UNL A   1      33.846  28.012  26.532  1.00  0.00     0.181 C 
ATOM     12  C   UNL A   1      31.796  29.206  27.254  1.00  0.00     0.181 C 
ATOM     13  N   UNL A   1      32.393  28.085  26.554  1.00  0.00    -0.329 N 
BRANCH  13  14
ATOM     14  C   UNL A   1      31.640  27.424  25.622  1.00  0.00     0.227 A 
ATOM     15  N   UNL A   1      31.577  26.088  25.693  1.00  0.00    -0.221 NA
ATOM     16  N   UNL A   1      30.905  28.153  24.765  1.00  0.00    -0.196 NA
ATOM     17  C   UNL A   1      30.635  25.494  24.945  1.00  0.00     0.119 A 
ATOM     18  C   UNL A   1      29.994  27.531  24.001  1.00  0.00     0.134 A 
ATOM     19  C   UNL A   1      29.794  26.174  24.100  1.00  0.00     0.067 A 
BRANCH  18  20
ATOM     20  N   UNL A   1      29.285  28.281  23.088  1.00  0.00    -0.356 N 
ATOM     21  C   UNL A   1      30.008  29.213  22.237  1.00  0.00     0.118 C 
ATOM     22  C   UNL A   1      27.832  28.318  23.114  1.00  0.00     0.118 C 
ATOM     23  C   UNL A   1      29.525  30.642  22.459  1.00  0.00     0.022 C 
ATOM     24  C   UNL A   1      27.350  29.753  23.345  1.00  0.00     0.022 C 
ATOM     25  C   UNL A   1      28.003  30.729  22.368  1.00  0.00     0.004 C 
ENDBRANCH  18  20
ENDBRANCH  13  14
ENDBRANCH   6   7
ENDBRANCH   4   6
ENDBRANCH   1   2
BRANCH   1  26
ATOM     26  C   UNL A   1      33.817  35.683  28.822  1.00  0.00     0.042 C 
BRANCH  26  27
ATOM     27  C   UNL A   1      32.873  34.980  29.795  1.00  0.00     0.118 C 
BRANCH  27  28
ATOM     28  N   UNL A   1      32.325  35.847  30.825  1.00  0.00    -0.352 N 
ATOM     29  C   UNL A   1      32.713  35.989  32.142  1.00  0.00     0.251 C 
ATOM     30  H   UNL A   1      31.570  36.414  30.544  1.00  0.00     0.163 HD
ATOM     31  O   UNL A   1      32.079  36.712  32.899  1.00  0.00    -0.269 OA
BRANCH  29  32
ATOM     32  C   UNL A   1      33.877  35.231  32.656  1.00  0.00     0.039 A 
ATOM     33  C   UNL A   1      33.666  33.966  33.213  1.00  0.00     0.014 A 
ATOM     34  C   UNL A   1      35.171  35.752  32.579  1.00  0.00     0.014 A 
ATOM     35  C   UNL A   1      34.759  33.187  33.609  1.00  0.00     0.010 A 
ATOM     36  C   UNL A   1      36.261  34.949  32.908  1.00  0.00     0.010 A 
ATOM     37  C   UNL A   1      36.069  33.654  33.416  1.00  0.00    -0.014 A 
BRANCH  37  38
ATOM     38  C   UNL A   1      37.255  32.812  33.723  1.00  0.00     0.031 A 
ATOM     39  C   UNL A   1      38.043  33.048  34.983  1.00  0.00     0.074 A 
ATOM     40  C   UNL A   1      37.686  31.901  32.827  1.00  0.00     0.049 A 
ATOM     41  N   UNL A   1      39.183  32.525  35.357  1.00  0.00    -0.248 NA
ATOM     42  C   UNL A   1      37.485  34.021  35.936  1.00  0.00     0.031 C 
ATOM     43  C   UNL A   1      37.033  31.582  31.555  1.00  0.00     0.029 A 
ATOM     44  N   UNL A   1      38.792  31.086  32.844  1.00  0.00    -0.354 N 
ATOM     45  C   UNL A   1      39.492  33.124  36.571  1.00  0.00     0.074 A 
ATOM     46  C   UNL A   1      38.440  34.077  36.852  1.00  0.00     0.031 C 
ATOM     47  C   UNL A   1      37.743  30.634  30.922  1.00  0.00     0.029 A 
ATOM     48  C   UNL A   1      38.924  30.311  31.717  1.00  0.00     0.049 A 
ATOM     49  H   UNL A   1      39.430  31.060  33.593  1.00  0.00     0.167 HD
ATOM     50  C   UNL A   1      40.549  32.895  37.386  1.00  0.00     0.031 A 
ATOM     51  C   UNL A   1      39.895  29.452  31.351  1.00  0.00     0.031 A 
ATOM     52  C   UNL A   1      41.590  31.939  37.119  1.00  0.00     0.049 A 
ATOM     53  C   UNL A   1      41.070  29.232  32.263  1.00  0.00     0.074 A 
ATOM     54  C   UNL A   1      42.676  31.604  37.910  1.00  0.00     0.029 A 
ATOM     55  N   UNL A   1      41.673  31.163  35.974  1.00  0.00    -0.354 N 
ATOM     56  N   UNL A   1      41.325  29.775  33.428  1.00  0.00    -0.248 NA
ATOM     57  C   UNL A   1      42.089  28.273  31.810  1.00  0.00     0.031 C 
ATOM     58  C   UNL A   1      43.442  30.657  37.221  1.00  0.00     0.029 A 
ATOM     59  C   UNL A   1      42.803  30.364  36.027  1.00  0.00     0.049 A 
ATOM     60  H   UNL A   1      41.027  31.179  35.232  1.00  0.00     0.167 HD
ATOM     61  C   UNL A   1      42.512  29.198  33.862  1.00  0.00     0.074 A 
ATOM     62  C   UNL A   1      42.922  28.258  32.840  1.00  0.00     0.031 C 
ATOM     63  C   UNL A   1      43.196  29.424  35.010  1.00  0.00     0.031 A 
BRANCH  50  64
ATOM     64  C   UNL A   1      40.638  33.709  38.648  1.00  0.00    -0.014 A 
ATOM     65  C   UNL A   1      41.307  34.943  38.672  1.00  0.00     0.009 A 
ATOM     66  C   UNL A   1      40.017  33.250  39.820  1.00  0.00     0.009 A 
ATOM     67  C   UNL A   1      41.385  35.681  39.856  1.00  0.00     0.001 A 
ATOM     68  C   UNL A   1      40.071  34.004  40.993  1.00  0.00     0.001 A 
ATOM     69  C   UNL A   1      40.763  35.214  41.012  1.00  0.00     0.000 A 
ENDBRANCH  50  64
BRANCH  51  70
ATOM     70  C   UNL A   1      39.798  28.725  30.058  1.00  0.00    -0.014 A 
ATOM     71  C   UNL A   1      39.194  27.461  29.997  1.00  0.00     0.009 A 
ATOM     72  C   UNL A   1      40.322  29.284  28.881  1.00  0.00     0.009 A 
ATOM     73  C   UNL A   1      39.139  26.758  28.791  1.00  0.00     0.001 A 
ATOM     74  C   UNL A   1      40.240  28.592  27.670  1.00  0.00     0.001 A 
ATOM     75  C   UNL A   1      39.658  27.326  27.629  1.00  0.00     0.000 A 
ENDBRANCH  51  70
BRANCH  63  76
ATOM     76  C   UNL A   1      44.432  28.605  35.253  1.00  0.00    -0.014 A 
ATOM     77  C   UNL A   1      45.692  29.028  34.804  1.00  0.00     0.009 A 
ATOM     78  C   UNL A   1      44.336  27.413  35.988  1.00  0.00     0.009 A 
ATOM     79  C   UNL A   1      46.828  28.259  35.065  1.00  0.00     0.001 A 
ATOM     80  C   UNL A   1      45.476  26.661  36.272  1.00  0.00     0.001 A 
ATOM     81  C   UNL A   1      46.719  27.080  35.804  1.00  0.00     0.000 A 
ENDBRANCH  63  76
ENDBRANCH  37  38
ENDBRANCH  29  32
ENDBRANCH  27  28
ENDBRANCH  26  27
ENDBRANCH   1  26
TORSDOF 13
ENDMDL
