MODEL 1
REMARK VINA RESULT:     -11.4      0.000      0.000
REMARK SMILES C[C@H](Nc1ccc2c(c1)Cc1ccccc1-2)[C@@H](C)C(=O)NCCCNC(=O)c1ccc(-c2c3nc(c(-c4ccccc4)c4ccc([nH]4)c(-c4ccccc4)c4nc(c(-c5ccccc5)c5ccc2[nH]5)C=C4)C=C3)cc1
REMARK SMILES IDX 22 1 21 2 19 3 20 4 17 6 18 7 2 8 1 9 3 10 4 12 5 13 9 14
REMARK SMILES IDX 6 15 8 16 7 17 10 18 16 19 11 20 15 21 12 22 14 23 13 24
REMARK SMILES IDX 23 25 24 26 25 27 26 28 27 30 28 31 29 32 75 33 30 34 74 35
REMARK SMILES IDX 31 36 32 37 33 38 68 39 34 40 73 41 67 42 69 43 35 44 72 45
REMARK SMILES IDX 66 46 65 47 36 49 58 50 43 51 57 52 44 53 47 54 56 55 70 56
REMARK SMILES IDX 45 57 46 58 55 60 71 61 48 62 37 63 38 64 42 65 39 66 41 67
REMARK SMILES IDX 40 68 59 69 60 70 64 71 61 72 63 73 62 74 49 75 50 76 54 77
REMARK SMILES IDX 51 78 53 79 52 80
REMARK H PARENT 21 5 3 11 25 29 69 48 47 59
REMARK Flexibility Score: inf
ROOT
ATOM      1  C   UNL A   1      31.734  27.960  26.900  1.00  0.00     0.117 C 
ENDROOT
BRANCH   1   2
ATOM      2  N   UNL A   1      31.016  26.698  26.860  1.00  0.00    -0.356 N 
ATOM      3  C   UNL A   1      30.254  26.104  25.903  1.00  0.00     0.224 C 
ATOM      4  O   UNL A   1      29.774  25.001  26.184  1.00  0.00    -0.275 OA
ATOM      5  H   UNL A   1      31.098  26.168  27.687  1.00  0.00     0.163 HD
BRANCH   3   6
ATOM      6  C   UNL A   1      29.986  26.732  24.536  1.00  0.00     0.097 C 
ATOM      7  C   UNL A   1      28.574  26.369  24.065  1.00  0.00     0.020 C 
BRANCH   6   8
ATOM      8  C   UNL A   1      31.116  26.455  23.518  1.00  0.00     0.088 C 
ATOM      9  C   UNL A   1      30.898  27.251  22.230  1.00  0.00     0.031 C 
BRANCH   8  10
ATOM     10  N   UNL A   1      31.318  25.006  23.335  1.00  0.00    -0.382 N 
ATOM     11  H   UNL A   1      30.556  24.524  22.938  1.00  0.00     0.160 HD
BRANCH  10  12
ATOM     12  C   UNL A   1      32.417  24.228  23.638  1.00  0.00     0.035 A 
ATOM     13  C   UNL A   1      32.530  22.876  23.266  1.00  0.00     0.026 A 
ATOM     14  C   UNL A   1      33.486  24.811  24.340  1.00  0.00     0.030 A 
ATOM     15  C   UNL A   1      33.648  22.095  23.588  1.00  0.00     0.011 A 
ATOM     16  C   UNL A   1      34.602  24.044  24.646  1.00  0.00    -0.034 A 
ATOM     17  C   UNL A   1      34.681  22.688  24.283  1.00  0.00    -0.014 A 
ATOM     18  C   UNL A   1      35.869  24.468  25.363  1.00  0.00     0.072 C 
ATOM     19  C   UNL A   1      35.946  22.151  24.732  1.00  0.00    -0.015 A 
ATOM     20  C   UNL A   1      36.672  23.182  25.367  1.00  0.00    -0.036 A 
ATOM     21  C   UNL A   1      36.475  20.876  24.627  1.00  0.00     0.009 A 
ATOM     22  C   UNL A   1      37.934  22.956  25.891  1.00  0.00     0.005 A 
ATOM     23  C   UNL A   1      37.746  20.638  25.157  1.00  0.00     0.001 A 
ATOM     24  C   UNL A   1      38.470  21.670  25.780  1.00  0.00     0.000 A 
ENDBRANCH  10  12
ENDBRANCH   8  10
ENDBRANCH   6   8
ENDBRANCH   3   6
ENDBRANCH   1   2
BRANCH   1  25
ATOM     25  C   UNL A   1      33.237  27.790  26.697  1.00  0.00     0.042 C 
BRANCH  25  26
ATOM     26  C   UNL A   1      33.905  28.928  25.934  1.00  0.00     0.118 C 
BRANCH  26  27
ATOM     27  N   UNL A   1      33.744  30.216  26.594  1.00  0.00    -0.352 N 
ATOM     28  C   UNL A   1      34.459  30.794  27.610  1.00  0.00     0.251 C 
ATOM     29  H   UNL A   1      32.997  30.761  26.255  1.00  0.00     0.163 HD
ATOM     30  O   UNL A   1      34.019  31.813  28.150  1.00  0.00    -0.269 OA
BRANCH  28  31
ATOM     31  C   UNL A   1      35.737  30.217  28.079  1.00  0.00     0.039 A 
ATOM     32  C   UNL A   1      36.852  30.274  27.236  1.00  0.00     0.014 A 
ATOM     33  C   UNL A   1      35.838  29.576  29.317  1.00  0.00     0.014 A 
ATOM     34  C   UNL A   1      38.075  29.745  27.656  1.00  0.00     0.010 A 
ATOM     35  C   UNL A   1      37.075  29.117  29.766  1.00  0.00     0.010 A 
ATOM     36  C   UNL A   1      38.204  29.191  28.938  1.00  0.00    -0.014 A 
BRANCH  36  37
ATOM     37  C   UNL A   1      39.508  28.677  29.430  1.00  0.00     0.031 A 
ATOM     38  C   UNL A   1      40.337  29.495  30.383  1.00  0.00     0.074 A 
ATOM     39  C   UNL A   1      39.981  27.504  28.966  1.00  0.00     0.049 A 
ATOM     40  N   UNL A   1      41.530  29.247  30.861  1.00  0.00    -0.248 NA
ATOM     41  C   UNL A   1      39.759  30.769  30.839  1.00  0.00     0.031 C 
ATOM     42  C   UNL A   1      39.295  26.630  28.012  1.00  0.00     0.029 A 
ATOM     43  N   UNL A   1      41.157  26.848  29.232  1.00  0.00    -0.354 N 
ATOM     44  C   UNL A   1      41.854  30.344  31.651  1.00  0.00     0.074 A 
ATOM     45  C   UNL A   1      40.751  31.275  31.555  1.00  0.00     0.031 C 
ATOM     46  C   UNL A   1      40.050  25.543  27.791  1.00  0.00     0.029 A 
ATOM     47  C   UNL A   1      41.288  25.659  28.556  1.00  0.00     0.049 A 
ATOM     48  H   UNL A   1      41.841  27.197  29.848  1.00  0.00     0.167 HD
ATOM     49  C   UNL A   1      42.962  30.551  32.402  1.00  0.00     0.031 A 
ATOM     50  C   UNL A   1      42.294  24.765  28.548  1.00  0.00     0.031 A 
ATOM     51  C   UNL A   1      44.053  29.620  32.514  1.00  0.00     0.049 A 
ATOM     52  C   UNL A   1      43.513  25.017  29.388  1.00  0.00     0.074 A 
ATOM     53  C   UNL A   1      45.191  29.714  33.298  1.00  0.00     0.029 A 
ATOM     54  N   UNL A   1      44.140  28.421  31.824  1.00  0.00    -0.354 N 
ATOM     55  N   UNL A   1      43.777  26.032  30.175  1.00  0.00    -0.248 NA
ATOM     56  C   UNL A   1      44.567  23.995  29.346  1.00  0.00     0.031 C 
ATOM     57  C   UNL A   1      45.986  28.590  33.049  1.00  0.00     0.029 A 
ATOM     58  C   UNL A   1      45.321  27.775  32.147  1.00  0.00     0.049 A 
ATOM     59  H   UNL A   1      43.462  28.080  31.197  1.00  0.00     0.167 HD
ATOM     60  C   UNL A   1      45.016  25.759  30.741  1.00  0.00     0.074 A 
ATOM     61  C   UNL A   1      45.443  24.478  30.217  1.00  0.00     0.031 C 
ATOM     62  C   UNL A   1      45.733  26.502  31.617  1.00  0.00     0.031 A 
BRANCH  49  63
ATOM     63  C   UNL A   1      43.049  31.848  33.158  1.00  0.00    -0.014 A 
ATOM     64  C   UNL A   1      42.470  31.989  34.429  1.00  0.00     0.009 A 
ATOM     65  C   UNL A   1      43.742  32.935  32.603  1.00  0.00     0.009 A 
ATOM     66  C   UNL A   1      42.547  33.205  35.111  1.00  0.00     0.001 A 
ATOM     67  C   UNL A   1      43.841  34.141  33.299  1.00  0.00     0.001 A 
ATOM     68  C   UNL A   1      43.236  34.279  34.547  1.00  0.00     0.000 A 
ENDBRANCH  49  63
BRANCH  50  69
ATOM     69  C   UNL A   1      42.181  23.532  27.728  1.00  0.00    -0.014 A 
ATOM     70  C   UNL A   1      41.581  22.381  28.260  1.00  0.00     0.009 A 
ATOM     71  C   UNL A   1      42.668  23.499  26.412  1.00  0.00     0.009 A 
ATOM     72  C   UNL A   1      41.489  21.214  27.498  1.00  0.00     0.001 A 
ATOM     73  C   UNL A   1      42.552  22.339  25.643  1.00  0.00     0.001 A 
ATOM     74  C   UNL A   1      41.971  21.195  26.190  1.00  0.00     0.000 A 
ENDBRANCH  50  69
BRANCH  62  75
ATOM     75  C   UNL A   1      47.040  25.933  32.089  1.00  0.00    -0.014 A 
ATOM     76  C   UNL A   1      48.231  26.165  31.384  1.00  0.00     0.009 A 
ATOM     77  C   UNL A   1      47.083  25.185  33.276  1.00  0.00     0.009 A 
ATOM     78  C   UNL A   1      49.437  25.632  31.844  1.00  0.00     0.001 A 
ATOM     79  C   UNL A   1      48.294  24.675  33.746  1.00  0.00     0.001 A 
ATOM     80  C   UNL A   1      49.467  24.892  33.026  1.00  0.00     0.000 A 
ENDBRANCH  62  75
ENDBRANCH  36  37
ENDBRANCH  28  31
ENDBRANCH  26  27
ENDBRANCH  25  26
ENDBRANCH   1  25
TORSDOF 13
ENDMDL
MODEL 2
REMARK VINA RESULT:     -11.3      1.293      1.904
REMARK SMILES C[C@H](Nc1ccc2c(c1)Cc1ccccc1-2)[C@@H](C)C(=O)NCCCNC(=O)c1ccc(-c2c3nc(c(-c4ccccc4)c4ccc([nH]4)c(-c4ccccc4)c4nc(c(-c5ccccc5)c5ccc2[nH]5)C=C4)C=C3)cc1
REMARK SMILES IDX 22 1 21 2 19 3 20 4 17 6 18 7 2 8 1 9 3 10 4 12 5 13 9 14
REMARK SMILES IDX 6 15 8 16 7 17 10 18 16 19 11 20 15 21 12 22 14 23 13 24
REMARK SMILES IDX 23 25 24 26 25 27 26 28 27 30 28 31 29 32 75 33 30 34 74 35
REMARK SMILES IDX 31 36 32 37 33 38 68 39 34 40 73 41 67 42 69 43 35 44 72 45
REMARK SMILES IDX 66 46 65 47 36 49 58 50 43 51 57 52 44 53 47 54 56 55 70 56
REMARK SMILES IDX 45 57 46 58 55 60 71 61 48 62 37 63 38 64 42 65 39 66 41 67
REMARK SMILES IDX 40 68 59 69 60 70 64 71 61 72 63 73 62 74 49 75 50 76 54 77
REMARK SMILES IDX 51 78 53 79 52 80
REMARK H PARENT 21 5 3 11 25 29 69 48 47 59
REMARK Flexibility Score: inf
ROOT
ATOM      1  C   UNL A   1      31.550  29.044  25.198  1.00  0.00     0.117 C 
ENDROOT
BRANCH   1   2
ATOM      2  N   UNL A   1      30.872  29.106  23.915  1.00  0.00    -0.356 N 
ATOM      3  C   UNL A   1      30.660  28.179  22.942  1.00  0.00     0.224 C 
ATOM      4  O   UNL A   1      30.028  28.555  21.950  1.00  0.00    -0.275 OA
ATOM      5  H   UNL A   1      30.490  29.991  23.710  1.00  0.00     0.163 HD
BRANCH   3   6
ATOM      6  C   UNL A   1      31.154  26.736  23.037  1.00  0.00     0.097 C 
ATOM      7  C   UNL A   1      31.690  26.280  21.676  1.00  0.00     0.020 C 
BRANCH   6   8
ATOM      8  C   UNL A   1      30.121  25.792  23.693  1.00  0.00     0.088 C 
ATOM      9  C   UNL A   1      28.827  26.541  24.018  1.00  0.00     0.031 C 
BRANCH   8  10
ATOM     10  N   UNL A   1      30.721  25.056  24.821  1.00  0.00    -0.382 N 
ATOM     11  H   UNL A   1      30.090  24.779  25.524  1.00  0.00     0.160 HD
BRANCH  10  12
ATOM     12  C   UNL A   1      32.037  24.700  25.035  1.00  0.00     0.035 A 
ATOM     13  C   UNL A   1      32.953  25.513  25.727  1.00  0.00     0.026 A 
ATOM     14  C   UNL A   1      32.489  23.460  24.552  1.00  0.00     0.030 A 
ATOM     15  C   UNL A   1      34.289  25.143  25.929  1.00  0.00     0.011 A 
ATOM     16  C   UNL A   1      33.809  23.083  24.765  1.00  0.00    -0.034 A 
ATOM     17  C   UNL A   1      34.711  23.924  25.440  1.00  0.00    -0.014 A 
ATOM     18  C   UNL A   1      34.497  21.793  24.362  1.00  0.00     0.072 C 
ATOM     19  C   UNL A   1      36.001  23.275  25.508  1.00  0.00    -0.015 A 
ATOM     20  C   UNL A   1      35.903  22.012  24.887  1.00  0.00    -0.036 A 
ATOM     21  C   UNL A   1      37.199  23.704  26.054  1.00  0.00     0.009 A 
ATOM     22  C   UNL A   1      36.991  21.159  24.813  1.00  0.00     0.005 A 
ATOM     23  C   UNL A   1      38.305  22.851  25.979  1.00  0.00     0.001 A 
ATOM     24  C   UNL A   1      38.200  21.590  25.368  1.00  0.00     0.000 A 
ENDBRANCH  10  12
ENDBRANCH   8  10
ENDBRANCH   6   8
ENDBRANCH   3   6
ENDBRANCH   1   2
BRANCH   1  25
ATOM     25  C   UNL A   1      33.070  29.108  25.065  1.00  0.00     0.042 C 
BRANCH  25  26
ATOM     26  C   UNL A   1      33.822  29.077  26.390  1.00  0.00     0.118 C 
BRANCH  26  27
ATOM     27  N   UNL A   1      33.713  30.328  27.127  1.00  0.00    -0.352 N 
ATOM     28  C   UNL A   1      34.535  30.880  28.074  1.00  0.00     0.251 C 
ATOM     29  H   UNL A   1      32.917  30.864  26.910  1.00  0.00     0.163 HD
ATOM     30  O   UNL A   1      34.140  31.860  28.714  1.00  0.00    -0.269 OA
BRANCH  28  31
ATOM     31  C   UNL A   1      35.876  30.322  28.354  1.00  0.00     0.039 A 
ATOM     32  C   UNL A   1      36.854  30.389  27.357  1.00  0.00     0.014 A 
ATOM     33  C   UNL A   1      36.163  29.686  29.565  1.00  0.00     0.014 A 
ATOM     34  C   UNL A   1      38.132  29.878  27.595  1.00  0.00     0.010 A 
ATOM     35  C   UNL A   1      37.459  29.245  29.830  1.00  0.00     0.010 A 
ATOM     36  C   UNL A   1      38.454  29.330  28.846  1.00  0.00    -0.014 A 
BRANCH  36  37
ATOM     37  C   UNL A   1      39.823  28.835  29.143  1.00  0.00     0.031 A 
ATOM     38  C   UNL A   1      40.827  29.733  29.815  1.00  0.00     0.074 A 
ATOM     39  C   UNL A   1      40.186  27.599  28.749  1.00  0.00     0.049 A 
ATOM     40  N   UNL A   1      42.087  29.503  30.086  1.00  0.00    -0.248 NA
ATOM     41  C   UNL A   1      40.360  31.071  30.210  1.00  0.00     0.031 C 
ATOM     42  C   UNL A   1      39.321  26.641  28.056  1.00  0.00     0.029 A 
ATOM     43  N   UNL A   1      41.383  26.940  28.867  1.00  0.00    -0.354 N 
ATOM     44  C   UNL A   1      42.567  30.675  30.658  1.00  0.00     0.074 A 
ATOM     45  C   UNL A   1      41.476  31.625  30.657  1.00  0.00     0.031 C 
ATOM     46  C   UNL A   1      40.009  25.510  27.834  1.00  0.00     0.029 A 
ATOM     47  C   UNL A   1      41.370  25.675  28.332  1.00  0.00     0.049 A 
ATOM     48  H   UNL A   1      42.177  27.337  29.296  1.00  0.00     0.167 HD
ATOM     49  C   UNL A   1      43.800  30.933  31.156  1.00  0.00     0.031 A 
ATOM     50  C   UNL A   1      42.347  24.753  28.246  1.00  0.00     0.031 A 
ATOM     51  C   UNL A   1      44.883  29.985  31.176  1.00  0.00     0.049 A 
ATOM     52  C   UNL A   1      43.706  25.062  28.804  1.00  0.00     0.074 A 
ATOM     53  C   UNL A   1      46.150  30.134  31.714  1.00  0.00     0.029 A 
ATOM     54  N   UNL A   1      44.823  28.710  30.636  1.00  0.00    -0.354 N 
ATOM     55  N   UNL A   1      44.127  26.154  29.395  1.00  0.00    -0.248 NA
ATOM     56  C   UNL A   1      44.723  24.006  28.691  1.00  0.00     0.031 C 
ATOM     57  C   UNL A   1      46.871  28.962  31.461  1.00  0.00     0.029 A 
ATOM     58  C   UNL A   1      46.037  28.068  30.809  1.00  0.00     0.049 A 
ATOM     59  H   UNL A   1      44.035  28.320  30.195  1.00  0.00     0.167 HD
ATOM     60  C   UNL A   1      45.448  25.909  29.747  1.00  0.00     0.074 A 
ATOM     61  C   UNL A   1      45.754  24.560  29.315  1.00  0.00     0.031 C 
ATOM     62  C   UNL A   1      46.327  26.727  30.373  1.00  0.00     0.031 A 
BRANCH  49  63
ATOM     63  C   UNL A   1      44.044  32.307  31.716  1.00  0.00    -0.014 A 
ATOM     64  C   UNL A   1      43.816  32.592  33.071  1.00  0.00     0.009 A 
ATOM     65  C   UNL A   1      44.532  33.324  30.881  1.00  0.00     0.009 A 
ATOM     66  C   UNL A   1      44.033  33.878  33.570  1.00  0.00     0.001 A 
ATOM     67  C   UNL A   1      44.774  34.602  31.389  1.00  0.00     0.001 A 
ATOM     68  C   UNL A   1      44.516  34.881  32.730  1.00  0.00     0.000 A 
ENDBRANCH  49  63
BRANCH  50  69
ATOM     69  C   UNL A   1      42.067  23.435  27.622  1.00  0.00    -0.014 A 
ATOM     70  C   UNL A   1      42.398  23.203  26.278  1.00  0.00     0.009 A 
ATOM     71  C   UNL A   1      41.471  22.402  28.363  1.00  0.00     0.009 A 
ATOM     72  C   UNL A   1      42.120  21.970  25.683  1.00  0.00     0.001 A 
ATOM     73  C   UNL A   1      41.217  21.163  27.773  1.00  0.00     0.001 A 
ATOM     74  C   UNL A   1      41.534  20.951  26.432  1.00  0.00     0.000 A 
ENDBRANCH  50  69
BRANCH  62  75
ATOM     75  C   UNL A   1      47.694  26.174  30.657  1.00  0.00    -0.014 A 
ATOM     76  C   UNL A   1      48.687  26.144  29.666  1.00  0.00     0.009 A 
ATOM     77  C   UNL A   1      48.001  25.712  31.947  1.00  0.00     0.009 A 
ATOM     78  C   UNL A   1      49.953  25.632  29.954  1.00  0.00     0.001 A 
ATOM     79  C   UNL A   1      49.276  25.225  32.238  1.00  0.00     0.001 A 
ATOM     80  C   UNL A   1      50.248  25.177  31.240  1.00  0.00     0.000 A 
ENDBRANCH  62  75
ENDBRANCH  36  37
ENDBRANCH  28  31
ENDBRANCH  26  27
ENDBRANCH  25  26
ENDBRANCH   1  25
TORSDOF 13
ENDMDL
MODEL 3
REMARK VINA RESULT:     -10.9      1.614      2.441
REMARK SMILES C[C@H](Nc1ccc2c(c1)Cc1ccccc1-2)[C@@H](C)C(=O)NCCCNC(=O)c1ccc(-c2c3nc(c(-c4ccccc4)c4ccc([nH]4)c(-c4ccccc4)c4nc(c(-c5ccccc5)c5ccc2[nH]5)C=C4)C=C3)cc1
REMARK SMILES IDX 22 1 21 2 19 3 20 4 17 6 18 7 2 8 1 9 3 10 4 12 5 13 9 14
REMARK SMILES IDX 6 15 8 16 7 17 10 18 16 19 11 20 15 21 12 22 14 23 13 24
REMARK SMILES IDX 23 25 24 26 25 27 26 28 27 30 28 31 29 32 75 33 30 34 74 35
REMARK SMILES IDX 31 36 32 37 33 38 68 39 34 40 73 41 67 42 69 43 35 44 72 45
REMARK SMILES IDX 66 46 65 47 36 49 58 50 43 51 57 52 44 53 47 54 56 55 70 56
REMARK SMILES IDX 45 57 46 58 55 60 71 61 48 62 37 63 38 64 42 65 39 66 41 67
REMARK SMILES IDX 40 68 59 69 60 70 64 71 61 72 63 73 62 74 49 75 50 76 54 77
REMARK SMILES IDX 51 78 53 79 52 80
REMARK H PARENT 21 5 3 11 25 29 69 48 47 59
REMARK Flexibility Score: inf
ROOT
ATOM      1  C   UNL A   1      31.731  28.457  27.063  1.00  0.00     0.117 C 
ENDROOT
BRANCH   1   2
ATOM      2  N   UNL A   1      31.101  27.148  27.069  1.00  0.00    -0.356 N 
ATOM      3  C   UNL A   1      31.066  26.141  26.156  1.00  0.00     0.224 C 
ATOM      4  O   UNL A   1      30.432  25.130  26.472  1.00  0.00    -0.275 OA
ATOM      5  H   UNL A   1      30.603  26.951  27.896  1.00  0.00     0.163 HD
BRANCH   3   6
ATOM      6  C   UNL A   1      31.768  26.214  24.800  1.00  0.00     0.097 C 
ATOM      7  C   UNL A   1      30.898  25.551  23.728  1.00  0.00     0.020 C 
BRANCH   6   8
ATOM      8  C   UNL A   1      33.234  25.726  24.859  1.00  0.00     0.088 C 
ATOM      9  C   UNL A   1      33.787  25.491  23.452  1.00  0.00     0.031 C 
BRANCH   8  10
ATOM     10  N   UNL A   1      33.376  24.590  25.788  1.00  0.00    -0.382 N 
ATOM     11  H   UNL A   1      33.253  24.809  26.740  1.00  0.00     0.160 HD
BRANCH  10  12
ATOM     12  C   UNL A   1      33.654  23.265  25.517  1.00  0.00     0.035 A 
ATOM     13  C   UNL A   1      34.776  22.592  26.034  1.00  0.00     0.026 A 
ATOM     14  C   UNL A   1      32.771  22.543  24.696  1.00  0.00     0.030 A 
ATOM     15  C   UNL A   1      35.050  21.249  25.744  1.00  0.00     0.011 A 
ATOM     16  C   UNL A   1      33.033  21.207  24.420  1.00  0.00    -0.034 A 
ATOM     17  C   UNL A   1      34.173  20.563  24.931  1.00  0.00    -0.014 A 
ATOM     18  C   UNL A   1      32.212  20.238  23.592  1.00  0.00     0.072 C 
ATOM     19  C   UNL A   1      34.183  19.190  24.478  1.00  0.00    -0.015 A 
ATOM     20  C   UNL A   1      33.033  18.967  23.691  1.00  0.00    -0.036 A 
ATOM     21  C   UNL A   1      35.096  18.173  24.700  1.00  0.00     0.009 A 
ATOM     22  C   UNL A   1      32.774  17.728  23.130  1.00  0.00     0.005 A 
ATOM     23  C   UNL A   1      34.845  16.921  24.132  1.00  0.00     0.001 A 
ATOM     24  C   UNL A   1      33.693  16.700  23.357  1.00  0.00     0.000 A 
ENDBRANCH  10  12
ENDBRANCH   8  10
ENDBRANCH   6   8
ENDBRANCH   3   6
ENDBRANCH   1   2
BRANCH   1  25
ATOM     25  C   UNL A   1      33.244  28.384  27.256  1.00  0.00     0.042 C 
BRANCH  25  26
ATOM     26  C   UNL A   1      34.030  29.441  26.490  1.00  0.00     0.118 C 
BRANCH  26  27
ATOM     27  N   UNL A   1      33.869  30.775  27.049  1.00  0.00    -0.352 N 
ATOM     28  C   UNL A   1      34.565  31.418  28.039  1.00  0.00     0.251 C 
ATOM     29  H   UNL A   1      33.138  31.302  26.651  1.00  0.00     0.163 HD
ATOM     30  O   UNL A   1      34.123  32.479  28.491  1.00  0.00    -0.269 OA
BRANCH  28  31
ATOM     31  C   UNL A   1      35.822  30.864  28.584  1.00  0.00     0.039 A 
ATOM     32  C   UNL A   1      35.753  29.785  29.471  1.00  0.00     0.014 A 
ATOM     33  C   UNL A   1      37.063  31.427  28.275  1.00  0.00     0.014 A 
ATOM     34  C   UNL A   1      36.925  29.234  29.997  1.00  0.00     0.010 A 
ATOM     35  C   UNL A   1      38.235  30.831  28.738  1.00  0.00     0.010 A 
ATOM     36  C   UNL A   1      38.178  29.733  29.608  1.00  0.00    -0.014 A 
BRANCH  36  37
ATOM     37  C   UNL A   1      39.439  29.126  30.106  1.00  0.00     0.031 A 
ATOM     38  C   UNL A   1      40.122  29.685  31.325  1.00  0.00     0.074 A 
ATOM     39  C   UNL A   1      40.008  28.114  29.423  1.00  0.00     0.049 A 
ATOM     40  N   UNL A   1      41.264  29.338  31.863  1.00  0.00    -0.248 NA
ATOM     41  C   UNL A   1      39.444  30.795  32.014  1.00  0.00     0.031 C 
ATOM     42  C   UNL A   1      39.469  27.504  28.206  1.00  0.00     0.029 A 
ATOM     43  N   UNL A   1      41.172  27.426  29.653  1.00  0.00    -0.354 N 
ATOM     44  C   UNL A   1      41.452  30.202  32.935  1.00  0.00     0.074 A 
ATOM     45  C   UNL A   1      40.330  31.114  32.946  1.00  0.00     0.031 C 
ATOM     46  C   UNL A   1      40.288  26.516  27.810  1.00  0.00     0.029 A 
ATOM     47  C   UNL A   1      41.427  26.449  28.722  1.00  0.00     0.049 A 
ATOM     48  H   UNL A   1      41.769  27.615  30.414  1.00  0.00     0.167 HD
ATOM     49  C   UNL A   1      42.460  30.225  33.840  1.00  0.00     0.031 A 
ATOM     50  C   UNL A   1      42.463  25.598  28.609  1.00  0.00     0.031 A 
ATOM     51  C   UNL A   1      43.568  29.307  33.844  1.00  0.00     0.049 A 
ATOM     52  C   UNL A   1      43.569  25.642  29.624  1.00  0.00     0.074 A 
ATOM     53  C   UNL A   1      44.607  29.213  34.755  1.00  0.00     0.029 A 
ATOM     54  N   UNL A   1      43.781  28.324  32.891  1.00  0.00    -0.354 N 
ATOM     55  N   UNL A   1      43.702  26.427  30.665  1.00  0.00    -0.248 NA
ATOM     56  C   UNL A   1      44.663  24.676  29.452  1.00  0.00     0.031 C 
ATOM     57  C   UNL A   1      45.470  28.198  34.329  1.00  0.00     0.029 A 
ATOM     58  C   UNL A   1      44.944  27.631  33.179  1.00  0.00     0.049 A 
ATOM     59  H   UNL A   1      43.192  28.146  32.122  1.00  0.00     0.167 HD
ATOM     60  C   UNL A   1      44.880  26.033  31.287  1.00  0.00     0.074 A 
ATOM     61  C   UNL A   1      45.416  24.932  30.513  1.00  0.00     0.031 C 
ATOM     62  C   UNL A   1      45.464  26.539  32.399  1.00  0.00     0.031 A 
BRANCH  49  63
ATOM     63  C   UNL A   1      42.409  31.288  34.902  1.00  0.00    -0.014 A 
ATOM     64  C   UNL A   1      41.782  31.054  36.136  1.00  0.00     0.009 A 
ATOM     65  C   UNL A   1      43.017  32.531  34.674  1.00  0.00     0.009 A 
ATOM     66  C   UNL A   1      41.731  32.058  37.105  1.00  0.00     0.001 A 
ATOM     67  C   UNL A   1      42.988  33.525  35.655  1.00  0.00     0.001 A 
ATOM     68  C   UNL A   1      42.337  33.291  36.866  1.00  0.00     0.000 A 
ENDBRANCH  49  63
BRANCH  50  69
ATOM     69  C   UNL A   1      42.493  24.611  27.499  1.00  0.00    -0.014 A 
ATOM     70  C   UNL A   1      41.882  23.357  27.650  1.00  0.00     0.009 A 
ATOM     71  C   UNL A   1      43.128  24.917  26.285  1.00  0.00     0.009 A 
ATOM     72  C   UNL A   1      41.924  22.421  26.614  1.00  0.00     0.001 A 
ATOM     73  C   UNL A   1      43.146  23.989  25.242  1.00  0.00     0.001 A 
ATOM     74  C   UNL A   1      42.552  22.739  25.411  1.00  0.00     0.000 A 
ENDBRANCH  50  69
BRANCH  62  75
ATOM     75  C   UNL A   1      46.733  25.883  32.865  1.00  0.00    -0.014 A 
ATOM     76  C   UNL A   1      46.711  24.844  33.808  1.00  0.00     0.009 A 
ATOM     77  C   UNL A   1      47.963  26.289  32.324  1.00  0.00     0.009 A 
ATOM     78  C   UNL A   1      47.901  24.244  34.222  1.00  0.00     0.001 A 
ATOM     79  C   UNL A   1      49.148  25.669  32.721  1.00  0.00     0.001 A 
ATOM     80  C   UNL A   1      49.117  24.654  33.676  1.00  0.00     0.000 A 
ENDBRANCH  62  75
ENDBRANCH  36  37
ENDBRANCH  28  31
ENDBRANCH  26  27
ENDBRANCH  25  26
ENDBRANCH   1  25
TORSDOF 13
ENDMDL
