MODEL 1
REMARK VINA RESULT:      -9.6      0.000      0.000
REMARK SMILES CC/C(C)=N/[NH+]=C1/NC(=O)[C@H](CC(=O)NCCCNC(=O)c2ccc(-c3c4nc(c(-c5ccccc5)c5ccc([nH]5)c(-c5ccccc5)c5nc(c(-c6ccccc6)c6ccc3[nH]6)C=C5)C=C4)cc2)S1
REMARK SMILES IDX 16 1 15 2 13 3 14 4 12 6 11 7 6 8 7 9 8 11 70 12 9 13 10 15
REMARK SMILES IDX 5 16 3 17 4 18 2 19 1 20 17 21 18 22 19 23 20 24 21 26 22 27
REMARK SMILES IDX 23 28 69 29 24 30 68 31 25 32 26 33 27 34 62 35 28 36 67 37
REMARK SMILES IDX 61 38 63 39 29 40 66 41 60 42 59 43 30 45 52 46 37 47 51 48
REMARK SMILES IDX 38 49 41 50 50 51 64 52 39 53 40 54 49 56 65 57 42 58 31 59
REMARK SMILES IDX 32 60 36 61 33 62 35 63 34 64 53 65 54 66 58 67 55 68 57 69
REMARK SMILES IDX 56 70 43 71 44 72 48 73 45 74 47 75 46 76
REMARK H PARENT 15 5 6 10 8 14 19 25 63 44 41 55
REMARK Flexibility Score: inf
ROOT
ATOM      1  C   UNL A   1      45.258  20.044  25.303  1.00  0.00     0.117 C 
ENDROOT
BRANCH   1   2
ATOM      2  N   UNL A   1      44.572  20.877  24.324  1.00  0.00    -0.356 N 
ATOM      3  C   UNL A   1      44.856  22.130  23.872  1.00  0.00     0.221 C 
ATOM      4  O   UNL A   1      44.089  22.670  23.078  1.00  0.00    -0.275 OA
ATOM      5  H   UNL A   1      43.772  20.466  23.923  1.00  0.00     0.163 HD
BRANCH   3   6
ATOM      6  C   UNL A   1      46.097  22.833  24.353  1.00  0.00     0.127 C 
BRANCH   6   7
ATOM      7  C   UNL A   1      45.800  23.771  25.508  1.00  0.00     0.183 C 
ATOM      8  N   UNL A   1      45.520  27.589  25.616  1.00  0.00    -0.142 N 
ATOM      9  C   UNL A   1      45.754  26.341  25.391  1.00  0.00     0.337 C 
ATOM     10  H   UNL A   1      46.238  28.247  25.763  1.00  0.00     0.343 HD
ATOM     11  N   UNL A   1      46.973  25.848  25.679  1.00  0.00    -0.202 N 
ATOM     12  S   UNL A   1      44.646  25.071  24.956  1.00  0.00    -0.020 SA
ATOM     13  C   UNL A   1      47.002  24.534  26.022  1.00  0.00     0.322 C 
ATOM     14  H   UNL A   1      47.787  26.401  25.644  1.00  0.00     0.316 HD
ATOM     15  O   UNL A   1      47.867  24.063  26.753  1.00  0.00    -0.246 OA
BRANCH   8  16
ATOM     16  N   UNL A   1      44.170  27.932  25.636  1.00  0.00    -0.095 NA
ATOM     17  C   UNL A   1      43.897  28.906  26.461  1.00  0.00     0.058 C 
ATOM     18  C   UNL A   1      44.926  29.603  27.333  1.00  0.00     0.066 C 
BRANCH  17  19
ATOM     19  C   UNL A   1      42.464  29.364  26.575  1.00  0.00     0.052 C 
ATOM     20  C   UNL A   1      41.599  28.540  25.642  1.00  0.00     0.010 C 
ENDBRANCH  17  19
ENDBRANCH   8  16
ENDBRANCH   6   7
ENDBRANCH   3   6
ENDBRANCH   1   2
BRANCH   1  21
ATOM     21  C   UNL A   1      44.607  18.673  25.464  1.00  0.00     0.042 C 
BRANCH  21  22
ATOM     22  C   UNL A   1      43.528  18.622  26.533  1.00  0.00     0.118 C 
BRANCH  22  23
ATOM     23  N   UNL A   1      42.200  18.597  25.947  1.00  0.00    -0.352 N 
ATOM     24  C   UNL A   1      41.178  19.505  26.080  1.00  0.00     0.251 C 
ATOM     25  H   UNL A   1      42.004  17.821  25.374  1.00  0.00     0.163 HD
ATOM     26  O   UNL A   1      40.041  19.194  25.743  1.00  0.00    -0.269 OA
BRANCH  24  27
ATOM     27  C   UNL A   1      41.443  20.850  26.643  1.00  0.00     0.039 A 
ATOM     28  C   UNL A   1      41.361  21.029  28.026  1.00  0.00     0.014 A 
ATOM     29  C   UNL A   1      41.734  21.938  25.816  1.00  0.00     0.014 A 
ATOM     30  C   UNL A   1      41.613  22.287  28.579  1.00  0.00     0.010 A 
ATOM     31  C   UNL A   1      42.075  23.167  26.374  1.00  0.00     0.010 A 
ATOM     32  C   UNL A   1      42.000  23.362  27.760  1.00  0.00    -0.014 A 
BRANCH  32  33
ATOM     33  C   UNL A   1      42.305  24.697  28.337  1.00  0.00     0.031 A 
ATOM     34  C   UNL A   1      43.681  24.998  28.867  1.00  0.00     0.074 A 
ATOM     35  C   UNL A   1      41.332  25.625  28.428  1.00  0.00     0.049 A 
ATOM     36  N   UNL A   1      44.126  26.088  29.439  1.00  0.00    -0.248 NA
ATOM     37  C   UNL A   1      44.685  23.926  28.764  1.00  0.00     0.031 C 
ATOM     38  C   UNL A   1      39.948  25.448  27.985  1.00  0.00     0.029 A 
ATOM     39  N   UNL A   1      41.361  26.904  28.926  1.00  0.00    -0.354 N 
ATOM     40  C   UNL A   1      45.449  25.828  29.776  1.00  0.00     0.074 A 
ATOM     41  C   UNL A   1      45.720  24.460  29.395  1.00  0.00     0.031 C 
ATOM     42  C   UNL A   1      39.269  26.587  28.202  1.00  0.00     0.029 A 
ATOM     43  C   UNL A   1      40.155  27.555  28.839  1.00  0.00     0.049 A 
ATOM     44  H   UNL A   1      42.170  27.315  29.307  1.00  0.00     0.167 HD
ATOM     45  C   UNL A   1      46.363  26.656  30.335  1.00  0.00     0.031 A 
ATOM     46  C   UNL A   1      39.797  28.792  29.237  1.00  0.00     0.031 A 
ATOM     47  C   UNL A   1      46.097  28.020  30.707  1.00  0.00     0.049 A 
ATOM     48  C   UNL A   1      40.825  29.686  29.874  1.00  0.00     0.074 A 
ATOM     49  C   UNL A   1      46.973  28.957  31.227  1.00  0.00     0.029 A 
ATOM     50  N   UNL A   1      44.861  28.639  30.606  1.00  0.00    -0.354 N 
ATOM     51  N   UNL A   1      42.090  29.445  30.120  1.00  0.00    -0.248 NA
ATOM     52  C   UNL A   1      40.376  31.024  30.279  1.00  0.00     0.031 C 
ATOM     53  C   UNL A   1      46.253  30.124  31.498  1.00  0.00     0.029 A 
ATOM     54  C   UNL A   1      44.944  29.937  31.082  1.00  0.00     0.049 A 
ATOM     55  H   UNL A   1      44.046  28.220  30.247  1.00  0.00     0.167 HD
ATOM     56  C   UNL A   1      42.595  30.612  30.679  1.00  0.00     0.074 A 
ATOM     57  C   UNL A   1      41.504  31.564  30.719  1.00  0.00     0.031 C 
ATOM     58  C   UNL A   1      43.850  30.873  31.120  1.00  0.00     0.031 A 
BRANCH  45  59
ATOM     59  C   UNL A   1      47.740  26.104  30.588  1.00  0.00    -0.014 A 
ATOM     60  C   UNL A   1      48.127  25.661  31.864  1.00  0.00     0.009 A 
ATOM     61  C   UNL A   1      48.650  25.986  29.526  1.00  0.00     0.009 A 
ATOM     62  C   UNL A   1      49.408  25.147  32.076  1.00  0.00     0.001 A 
ATOM     63  C   UNL A   1      49.918  25.441  29.734  1.00  0.00     0.001 A 
ATOM     64  C   UNL A   1      50.300  25.032  31.011  1.00  0.00     0.000 A 
ENDBRANCH  45  59
BRANCH  46  65
ATOM     65  C   UNL A   1      38.401  29.264  29.037  1.00  0.00    -0.014 A 
ATOM     66  C   UNL A   1      37.987  29.772  27.795  1.00  0.00     0.009 A 
ATOM     67  C   UNL A   1      37.475  29.217  30.091  1.00  0.00     0.009 A 
ATOM     68  C   UNL A   1      36.686  30.250  27.624  1.00  0.00     0.001 A 
ATOM     69  C   UNL A   1      36.165  29.664  29.907  1.00  0.00     0.001 A 
ATOM     70  C   UNL A   1      35.775  30.191  28.677  1.00  0.00     0.000 A 
ENDBRANCH  46  65
BRANCH  58  71
ATOM     71  C   UNL A   1      44.124  32.254  31.648  1.00  0.00    -0.014 A 
ATOM     72  C   UNL A   1      44.530  33.295  30.800  1.00  0.00     0.009 A 
ATOM     73  C   UNL A   1      43.932  32.524  33.013  1.00  0.00     0.009 A 
ATOM     74  C   UNL A   1      44.772  34.571  31.314  1.00  0.00     0.001 A 
ATOM     75  C   UNL A   1      44.142  33.808  33.518  1.00  0.00     0.001 A 
ATOM     76  C   UNL A   1      44.572  34.827  32.671  1.00  0.00     0.000 A 
ENDBRANCH  58  71
ENDBRANCH  32  33
ENDBRANCH  24  27
ENDBRANCH  22  23
ENDBRANCH  21  22
ENDBRANCH   1  21
TORSDOF 13
ENDMDL
MODEL 2
REMARK VINA RESULT:      -9.4      0.284      6.141
REMARK SMILES CC/C(C)=N/[NH+]=C1/NC(=O)[C@H](CC(=O)NCCCNC(=O)c2ccc(-c3c4nc(c(-c5ccccc5)c5ccc([nH]5)c(-c5ccccc5)c5nc(c(-c6ccccc6)c6ccc3[nH]6)C=C5)C=C4)cc2)S1
REMARK SMILES IDX 16 1 15 2 13 3 14 4 12 6 11 7 6 8 7 9 8 11 70 12 9 13 10 15
REMARK SMILES IDX 5 16 3 17 4 18 2 19 1 20 17 21 18 22 19 23 20 24 21 26 22 27
REMARK SMILES IDX 23 28 69 29 24 30 68 31 25 32 26 33 27 34 62 35 28 36 67 37
REMARK SMILES IDX 61 38 63 39 29 40 66 41 60 42 59 43 30 45 52 46 37 47 51 48
REMARK SMILES IDX 38 49 41 50 50 51 64 52 39 53 40 54 49 56 65 57 42 58 31 59
REMARK SMILES IDX 32 60 36 61 33 62 35 63 34 64 53 65 54 66 58 67 55 68 57 69
REMARK SMILES IDX 56 70 43 71 44 72 48 73 45 74 47 75 46 76
REMARK H PARENT 15 5 6 10 8 14 19 25 63 44 41 55
REMARK Flexibility Score: inf
ROOT
ATOM      1  C   UNL A   1      45.050  19.939  25.346  1.00  0.00     0.117 C 
ENDROOT
BRANCH   1   2
ATOM      2  N   UNL A   1      44.431  20.840  24.382  1.00  0.00    -0.356 N 
ATOM      3  C   UNL A   1      44.801  22.083  23.966  1.00  0.00     0.221 C 
ATOM      4  O   UNL A   1      44.080  22.692  23.179  1.00  0.00    -0.275 OA
ATOM      5  H   UNL A   1      43.611  20.493  23.963  1.00  0.00     0.163 HD
BRANCH   3   6
ATOM      6  C   UNL A   1      46.079  22.690  24.479  1.00  0.00     0.127 C 
BRANCH   6   7
ATOM      7  C   UNL A   1      45.820  23.709  25.572  1.00  0.00     0.183 C 
ATOM      8  N   UNL A   1      45.531  27.525  25.415  1.00  0.00    -0.142 N 
ATOM      9  C   UNL A   1      45.761  26.264  25.272  1.00  0.00     0.337 C 
ATOM     10  H   UNL A   1      46.252  28.192  25.489  1.00  0.00     0.343 HD
ATOM     11  N   UNL A   1      46.991  25.794  25.553  1.00  0.00    -0.202 N 
ATOM     12  S   UNL A   1      44.643  24.965  24.968  1.00  0.00    -0.020 SA
ATOM     13  C   UNL A   1      47.036  24.508  25.988  1.00  0.00     0.322 C 
ATOM     14  H   UNL A   1      47.801  26.343  25.449  1.00  0.00     0.316 HD
ATOM     15  O   UNL A   1      47.928  24.091  26.720  1.00  0.00    -0.246 OA
BRANCH   8  16
ATOM     16  N   UNL A   1      44.182  27.867  25.457  1.00  0.00    -0.095 NA
ATOM     17  C   UNL A   1      43.899  28.741  26.384  1.00  0.00     0.058 C 
ATOM     18  C   UNL A   1      44.918  29.331  27.343  1.00  0.00     0.066 C 
BRANCH  17  19
ATOM     19  C   UNL A   1      42.466  29.187  26.532  1.00  0.00     0.052 C 
ATOM     20  C   UNL A   1      41.575  28.295  25.692  1.00  0.00     0.010 C 
ENDBRANCH  17  19
ENDBRANCH   8  16
ENDBRANCH   6   7
ENDBRANCH   3   6
ENDBRANCH   1   2
BRANCH   1  21
ATOM     21  C   UNL A   1      44.325  18.598  25.443  1.00  0.00     0.042 C 
BRANCH  21  22
ATOM     22  C   UNL A   1      43.229  18.562  26.495  1.00  0.00     0.118 C 
BRANCH  22  23
ATOM     23  N   UNL A   1      41.911  18.631  25.890  1.00  0.00    -0.352 N 
ATOM     24  C   UNL A   1      40.939  19.588  26.041  1.00  0.00     0.251 C 
ATOM     25  H   UNL A   1      41.682  17.886  25.288  1.00  0.00     0.163 HD
ATOM     26  O   UNL A   1      39.791  19.353  25.678  1.00  0.00    -0.269 OA
BRANCH  24  27
ATOM     27  C   UNL A   1      41.267  20.897  26.653  1.00  0.00     0.039 A 
ATOM     28  C   UNL A   1      41.204  21.025  28.043  1.00  0.00     0.014 A 
ATOM     29  C   UNL A   1      41.601  22.003  25.867  1.00  0.00     0.014 A 
ATOM     30  C   UNL A   1      41.517  22.248  28.643  1.00  0.00     0.010 A 
ATOM     31  C   UNL A   1      42.000  23.193  26.469  1.00  0.00     0.010 A 
ATOM     32  C   UNL A   1      41.945  23.336  27.863  1.00  0.00    -0.014 A 
BRANCH  32  33
ATOM     33  C   UNL A   1      42.314  24.631  28.489  1.00  0.00     0.031 A 
ATOM     34  C   UNL A   1      41.295  25.732  28.612  1.00  0.00     0.074 A 
ATOM     35  C   UNL A   1      43.579  24.838  28.904  1.00  0.00     0.049 A 
ATOM     36  N   UNL A   1      41.438  26.941  29.094  1.00  0.00    -0.248 NA
ATOM     37  C   UNL A   1      39.941  25.447  28.108  1.00  0.00     0.031 C 
ATOM     38  C   UNL A   1      44.672  23.868  28.809  1.00  0.00     0.029 A 
ATOM     39  N   UNL A   1      44.159  25.936  29.491  1.00  0.00    -0.354 N 
ATOM     40  C   UNL A   1      40.205  27.562  28.935  1.00  0.00     0.074 A 
ATOM     41  C   UNL A   1      39.340  26.617  28.265  1.00  0.00     0.031 C 
ATOM     42  C   UNL A   1      45.781  24.401  29.348  1.00  0.00     0.029 A 
ATOM     43  C   UNL A   1      45.491  25.764  29.783  1.00  0.00     0.049 A 
ATOM     44  H   UNL A   1      43.668  26.766  29.684  1.00  0.00     0.167 HD
ATOM     45  C   UNL A   1      39.819  28.799  29.328  1.00  0.00     0.031 A 
ATOM     46  C   UNL A   1      46.383  26.611  30.331  1.00  0.00     0.031 A 
ATOM     47  C   UNL A   1      40.676  29.737  30.002  1.00  0.00     0.049 A 
ATOM     48  C   UNL A   1      45.935  27.987  30.740  1.00  0.00     0.074 A 
ATOM     49  C   UNL A   1      40.362  30.994  30.491  1.00  0.00     0.029 A 
ATOM     50  N   UNL A   1      42.019  29.525  30.276  1.00  0.00    -0.354 N 
ATOM     51  N   UNL A   1      44.746  28.531  30.646  1.00  0.00    -0.248 NA
ATOM     52  C   UNL A   1      46.952  28.862  31.339  1.00  0.00     0.031 C 
ATOM     53  C   UNL A   1      41.529  31.566  31.005  1.00  0.00     0.029 A 
ATOM     54  C   UNL A   1      42.554  30.640  30.899  1.00  0.00     0.049 A 
ATOM     55  H   UNL A   1      42.517  28.704  30.060  1.00  0.00     0.167 HD
ATOM     56  C   UNL A   1      44.865  29.799  31.202  1.00  0.00     0.074 A 
ATOM     57  C   UNL A   1      46.237  29.935  31.646  1.00  0.00     0.031 C 
ATOM     58  C   UNL A   1      43.922  30.764  31.334  1.00  0.00     0.031 A 
BRANCH  45  59
ATOM     59  C   UNL A   1      38.404  29.215  29.028  1.00  0.00    -0.014 A 
ATOM     60  C   UNL A   1      37.403  29.168  30.013  1.00  0.00     0.009 A 
ATOM     61  C   UNL A   1      38.076  29.701  27.753  1.00  0.00     0.009 A 
ATOM     62  C   UNL A   1      36.098  29.563  29.715  1.00  0.00     0.001 A 
ATOM     63  C   UNL A   1      36.778  30.127  27.467  1.00  0.00     0.001 A 
ATOM     64  C   UNL A   1      35.787  30.047  28.445  1.00  0.00     0.000 A 
ENDBRANCH  45  59
BRANCH  46  65
ATOM     65  C   UNL A   1      47.792  26.180  30.535  1.00  0.00    -0.014 A 
ATOM     66  C   UNL A   1      48.224  25.713  31.786  1.00  0.00     0.009 A 
ATOM     67  C   UNL A   1      48.716  26.241  29.479  1.00  0.00     0.009 A 
ATOM     68  C   UNL A   1      49.557  25.346  31.982  1.00  0.00     0.001 A 
ATOM     69  C   UNL A   1      50.040  25.842  29.670  1.00  0.00     0.001 A 
ATOM     70  C   UNL A   1      50.462  25.406  30.924  1.00  0.00     0.000 A 
ENDBRANCH  46  65
BRANCH  58  71
ATOM     71  C   UNL A   1      44.329  32.038  32.018  1.00  0.00    -0.014 A 
ATOM     72  C   UNL A   1      44.233  32.184  33.411  1.00  0.00     0.009 A 
ATOM     73  C   UNL A   1      44.855  33.096  31.259  1.00  0.00     0.009 A 
ATOM     74  C   UNL A   1      44.624  33.377  34.025  1.00  0.00     0.001 A 
ATOM     75  C   UNL A   1      45.276  34.273  31.878  1.00  0.00     0.001 A 
ATOM     76  C   UNL A   1      45.151  34.417  33.258  1.00  0.00     0.000 A 
ENDBRANCH  58  71
ENDBRANCH  32  33
ENDBRANCH  24  27
ENDBRANCH  22  23
ENDBRANCH  21  22
ENDBRANCH   1  21
TORSDOF 13
ENDMDL
MODEL 3
REMARK VINA RESULT:      -9.1      4.190      8.977
REMARK SMILES CC/C(C)=N/[NH+]=C1/NC(=O)[C@H](CC(=O)NCCCNC(=O)c2ccc(-c3c4nc(c(-c5ccccc5)c5ccc([nH]5)c(-c5ccccc5)c5nc(c(-c6ccccc6)c6ccc3[nH]6)C=C5)C=C4)cc2)S1
REMARK SMILES IDX 16 1 15 2 13 3 14 4 12 6 11 7 6 8 7 9 8 11 70 12 9 13 10 15
REMARK SMILES IDX 5 16 3 17 4 18 2 19 1 20 17 21 18 22 19 23 20 24 21 26 22 27
REMARK SMILES IDX 23 28 69 29 24 30 68 31 25 32 26 33 27 34 62 35 28 36 67 37
REMARK SMILES IDX 61 38 63 39 29 40 66 41 60 42 59 43 30 45 52 46 37 47 51 48
REMARK SMILES IDX 38 49 41 50 50 51 64 52 39 53 40 54 49 56 65 57 42 58 31 59
REMARK SMILES IDX 32 60 36 61 33 62 35 63 34 64 53 65 54 66 58 67 55 68 57 69
REMARK SMILES IDX 56 70 43 71 44 72 48 73 45 74 47 75 46 76
REMARK H PARENT 15 5 6 10 8 14 19 25 63 44 41 55
REMARK Flexibility Score: inf
ROOT
ATOM      1  C   UNL A   1      35.915  20.769  25.020  1.00  0.00     0.117 C 
ENDROOT
BRANCH   1   2
ATOM      2  N   UNL A   1      34.646  20.053  25.032  1.00  0.00    -0.356 N 
ATOM      3  C   UNL A   1      33.442  20.392  25.571  1.00  0.00     0.221 C 
ATOM      4  O   UNL A   1      32.511  19.591  25.514  1.00  0.00    -0.275 OA
ATOM      5  H   UNL A   1      34.660  19.182  24.574  1.00  0.00     0.163 HD
BRANCH   3   6
ATOM      6  C   UNL A   1      33.272  21.734  26.232  1.00  0.00     0.127 C 
BRANCH   6   7
ATOM      7  C   UNL A   1      32.249  22.590  25.511  1.00  0.00     0.183 C 
ATOM      8  N   UNL A   1      30.880  26.071  26.334  1.00  0.00    -0.142 N 
ATOM      9  C   UNL A   1      31.383  24.885  26.291  1.00  0.00     0.337 C 
ATOM     10  H   UNL A   1      30.111  26.302  26.904  1.00  0.00     0.343 HD
ATOM     11  N   UNL A   1      30.662  23.856  26.774  1.00  0.00    -0.202 N 
ATOM     12  S   UNL A   1      32.818  24.323  25.480  1.00  0.00    -0.020 SA
ATOM     13  C   UNL A   1      30.896  22.655  26.187  1.00  0.00     0.322 C 
ATOM     14  H   UNL A   1      30.010  23.968  27.504  1.00  0.00     0.316 HD
ATOM     15  O   UNL A   1      30.048  21.769  26.137  1.00  0.00    -0.246 OA
BRANCH   8  16
ATOM     16  N   UNL A   1      31.510  26.999  25.509  1.00  0.00    -0.095 NA
ATOM     17  C   UNL A   1      31.862  28.090  26.133  1.00  0.00     0.058 C 
ATOM     18  C   UNL A   1      31.609  28.352  27.607  1.00  0.00     0.066 C 
BRANCH  17  19
ATOM     19  C   UNL A   1      32.550  29.175  25.342  1.00  0.00     0.052 C 
ATOM     20  C   UNL A   1      33.859  28.643  24.795  1.00  0.00     0.010 C 
ENDBRANCH  17  19
ENDBRANCH   8  16
ENDBRANCH   6   7
ENDBRANCH   3   6
ENDBRANCH   1   2
BRANCH   1  21
ATOM     21  C   UNL A   1      37.116  19.828  24.957  1.00  0.00     0.042 C 
BRANCH  21  22
ATOM     22  C   UNL A   1      38.419  20.458  25.422  1.00  0.00     0.118 C 
BRANCH  22  23
ATOM     23  N   UNL A   1      39.453  19.458  25.614  1.00  0.00    -0.352 N 
ATOM     24  C   UNL A   1      40.763  19.628  25.988  1.00  0.00     0.251 C 
ATOM     25  H   UNL A   1      39.177  18.526  25.453  1.00  0.00     0.163 HD
ATOM     26  O   UNL A   1      41.564  18.712  25.836  1.00  0.00    -0.269 OA
BRANCH  24  27
ATOM     27  C   UNL A   1      41.214  20.919  26.560  1.00  0.00     0.039 A 
ATOM     28  C   UNL A   1      41.747  21.885  25.704  1.00  0.00     0.014 A 
ATOM     29  C   UNL A   1      41.149  21.166  27.934  1.00  0.00     0.014 A 
ATOM     30  C   UNL A   1      42.172  23.112  26.221  1.00  0.00     0.010 A 
ATOM     31  C   UNL A   1      41.487  22.420  28.435  1.00  0.00     0.010 A 
ATOM     32  C   UNL A   1      42.021  23.402  27.587  1.00  0.00    -0.014 A 
BRANCH  32  33
ATOM     33  C   UNL A   1      42.436  24.714  28.145  1.00  0.00     0.031 A 
ATOM     34  C   UNL A   1      41.420  25.805  28.357  1.00  0.00     0.074 A 
ATOM     35  C   UNL A   1      43.735  24.944  28.419  1.00  0.00     0.049 A 
ATOM     36  N   UNL A   1      41.597  27.025  28.798  1.00  0.00    -0.248 NA
ATOM     37  C   UNL A   1      40.024  25.493  28.006  1.00  0.00     0.031 C 
ATOM     38  C   UNL A   1      44.825  23.985  28.226  1.00  0.00     0.029 A 
ATOM     39  N   UNL A   1      44.359  26.060  28.920  1.00  0.00    -0.354 N 
ATOM     40  C   UNL A   1      40.345  27.627  28.761  1.00  0.00     0.074 A 
ATOM     41  C   UNL A   1      39.427  26.659  28.204  1.00  0.00     0.031 C 
ATOM     42  C   UNL A   1      45.977  24.543  28.633  1.00  0.00     0.029 A 
ATOM     43  C   UNL A   1      45.716  25.910  29.071  1.00  0.00     0.049 A 
ATOM     44  H   UNL A   1      43.880  26.888  29.149  1.00  0.00     0.167 HD
ATOM     45  C   UNL A   1      39.987  28.868  29.170  1.00  0.00     0.031 A 
ATOM     46  C   UNL A   1      46.650  26.779  29.504  1.00  0.00     0.031 A 
ATOM     47  C   UNL A   1      40.898  29.829  29.731  1.00  0.00     0.049 A 
ATOM     48  C   UNL A   1      46.229  28.157  29.933  1.00  0.00     0.074 A 
ATOM     49  C   UNL A   1      40.619  31.091  30.227  1.00  0.00     0.029 A 
ATOM     50  N   UNL A   1      42.264  29.638  29.863  1.00  0.00    -0.354 N 
ATOM     51  N   UNL A   1      45.029  28.685  29.957  1.00  0.00    -0.248 NA
ATOM     52  C   UNL A   1      47.292  29.056  30.403  1.00  0.00     0.031 C 
ATOM     53  C   UNL A   1      41.827  31.687  30.602  1.00  0.00     0.029 A 
ATOM     54  C   UNL A   1      42.847  30.772  30.404  1.00  0.00     0.049 A 
ATOM     55  H   UNL A   1      42.748  28.819  29.610  1.00  0.00     0.167 HD
ATOM     56  C   UNL A   1      45.189  29.965  30.473  1.00  0.00     0.074 A 
ATOM     57  C   UNL A   1      46.598  30.126  30.765  1.00  0.00     0.031 C 
ATOM     58  C   UNL A   1      44.252  30.921  30.687  1.00  0.00     0.031 A 
BRANCH  45  59
ATOM     59  C   UNL A   1      38.542  29.260  29.015  1.00  0.00    -0.014 A 
ATOM     60  C   UNL A   1      37.649  29.204  30.098  1.00  0.00     0.009 A 
ATOM     61  C   UNL A   1      38.077  29.734  27.779  1.00  0.00     0.009 A 
ATOM     62  C   UNL A   1      36.313  29.578  29.934  1.00  0.00     0.001 A 
ATOM     63  C   UNL A   1      36.749  30.138  27.626  1.00  0.00     0.001 A 
ATOM     64  C   UNL A   1      35.866  30.050  28.701  1.00  0.00     0.000 A 
ENDBRANCH  45  59
BRANCH  46  65
ATOM     65  C   UNL A   1      48.079  26.369  29.564  1.00  0.00    -0.014 A 
ATOM     66  C   UNL A   1      48.607  25.779  30.723  1.00  0.00     0.009 A 
ATOM     67  C   UNL A   1      48.925  26.574  28.463  1.00  0.00     0.009 A 
ATOM     68  C   UNL A   1      49.958  25.431  30.787  1.00  0.00     0.001 A 
ATOM     69  C   UNL A   1      50.268  26.195  28.519  1.00  0.00     0.001 A 
ATOM     70  C   UNL A   1      50.786  25.634  29.685  1.00  0.00     0.000 A 
ENDBRANCH  46  65
BRANCH  58  71
ATOM     71  C   UNL A   1      44.712  32.214  31.301  1.00  0.00    -0.014 A 
ATOM     72  C   UNL A   1      45.106  33.302  30.507  1.00  0.00     0.009 A 
ATOM     73  C   UNL A   1      44.710  32.357  32.698  1.00  0.00     0.009 A 
ATOM     74  C   UNL A   1      45.523  34.495  31.101  1.00  0.00     0.001 A 
ATOM     75  C   UNL A   1      45.095  33.561  33.288  1.00  0.00     0.001 A 
ATOM     76  C   UNL A   1      45.511  34.625  32.490  1.00  0.00     0.000 A 
ENDBRANCH  58  71
ENDBRANCH  32  33
ENDBRANCH  24  27
ENDBRANCH  22  23
ENDBRANCH  21  22
ENDBRANCH   1  21
TORSDOF 13
ENDMDL
