MODEL 1
REMARK VINA RESULT:     -11.9      0.000      0.000
REMARK SMILES Cc1c(Cl)cc2c(c1C)O[C@H](C(F)(F)F)C(C(=O)NCCCNC(=O)c1ccc(-c3c4nc(c(-c5ccccc5)c5ccc([nH]5)c(-c5ccccc5)c5nc(c(-c6ccccc6)c6ccc3[nH]6)C=C5)C=C4)cc1)=C2
REMARK SMILES IDX 21 1 20 2 19 3 17 4 18 5 16 7 1 8 2 9 3 10 8 11 4 12 5 13
REMARK SMILES IDX 7 14 9 15 6 16 10 17 74 18 11 19 12 20 13 21 14 22 15 23
REMARK SMILES IDX 22 24 23 25 24 26 25 28 26 29 27 30 73 31 28 32 72 33 29 34
REMARK SMILES IDX 30 35 31 36 66 37 32 38 71 39 65 40 67 41 33 42 70 43 64 44
REMARK SMILES IDX 63 45 34 47 56 48 41 49 55 50 42 51 45 52 54 53 68 54 43 55
REMARK SMILES IDX 44 56 53 58 69 59 46 60 35 61 36 62 40 63 37 64 39 65 38 66
REMARK SMILES IDX 57 67 58 68 62 69 59 70 61 71 60 72 47 73 48 74 52 75 49 76
REMARK SMILES IDX 51 77 50 78
REMARK H PARENT 19 6 23 27 67 46 45 57
REMARK Flexibility Score: inf
ROOT
ATOM      1  C   UNL A   1      33.936  28.125  25.898  1.00  0.00     0.042 C 
ENDROOT
BRANCH   1   2
ATOM      2  C   UNL A   1      32.797  27.672  24.998  1.00  0.00     0.118 C 
BRANCH   2   3
ATOM      3  N   UNL A   1      31.765  26.969  25.744  1.00  0.00    -0.352 N 
ATOM      4  C   UNL A   1      31.501  25.693  26.110  1.00  0.00     0.251 C 
ATOM      5  O   UNL A   1      30.468  25.538  26.770  1.00  0.00    -0.270 OA
ATOM      6  H   UNL A   1      31.073  27.588  26.071  1.00  0.00     0.163 HD
BRANCH   4   7
ATOM      7  C   UNL A   1      32.349  24.515  25.771  1.00  0.00     0.067 C 
ATOM      8  C   UNL A   1      37.020  20.017  24.968  1.00  0.00     0.046 C 
ATOM      9  C   UNL A   1      36.159  21.218  25.265  1.00  0.00    -0.026 A 
ATOM     10  C   UNL A   1      36.710  22.440  25.706  1.00  0.00     0.045 A 
ATOM     11  C   UNL A   1      34.759  21.137  25.082  1.00  0.00    -0.004 A 
ATOM     12  Cl  UNL A   1      38.411  22.659  25.932  1.00  0.00    -0.084 Cl
ATOM     13  C   UNL A   1      35.896  23.546  25.984  1.00  0.00     0.032 A 
ATOM     14  C   UNL A   1      33.963  22.260  25.372  1.00  0.00     0.131 A 
ATOM     15  C   UNL A   1      34.064  19.896  24.574  1.00  0.00     0.049 C 
ATOM     16  C   UNL A   1      34.517  23.459  25.823  1.00  0.00     0.019 A 
ATOM     17  O   UNL A   1      32.611  22.102  25.241  1.00  0.00    -0.475 OA
ATOM     18  C   UNL A   1      33.640  24.581  26.142  1.00  0.00     0.025 C 
ATOM     19  C   UNL A   1      31.842  23.311  25.037  1.00  0.00     0.314 C 
BRANCH  19  20
ATOM     20  C   UNL A   1      31.667  23.560  23.526  1.00  0.00     0.429 C 
ATOM     21  F   UNL A   1      31.992  22.443  22.826  1.00  0.00    -0.167 F 
ATOM     22  F   UNL A   1      30.390  23.862  23.191  1.00  0.00    -0.167 F 
ATOM     23  F   UNL A   1      32.440  24.567  23.066  1.00  0.00    -0.167 F 
ENDBRANCH  19  20
ENDBRANCH   4   7
ENDBRANCH   2   3
ENDBRANCH   1   2
BRANCH   1  24
ATOM     24  C   UNL A   1      33.448  28.474  27.296  1.00  0.00     0.118 C 
BRANCH  24  25
ATOM     25  N   UNL A   1      33.472  29.917  27.532  1.00  0.00    -0.352 N 
ATOM     26  C   UNL A   1      34.413  30.696  28.153  1.00  0.00     0.251 C 
ATOM     27  H   UNL A   1      32.688  30.405  27.192  1.00  0.00     0.163 HD
ATOM     28  O   UNL A   1      34.126  31.836  28.513  1.00  0.00    -0.269 OA
BRANCH  26  29
ATOM     29  C   UNL A   1      35.768  30.166  28.387  1.00  0.00     0.039 A 
ATOM     30  C   UNL A   1      36.713  30.216  27.360  1.00  0.00     0.014 A 
ATOM     31  C   UNL A   1      36.093  29.598  29.620  1.00  0.00     0.014 A 
ATOM     32  C   UNL A   1      38.007  29.750  27.597  1.00  0.00     0.010 A 
ATOM     33  C   UNL A   1      37.404  29.236  29.888  1.00  0.00     0.010 A 
ATOM     34  C   UNL A   1      38.368  29.289  28.873  1.00  0.00    -0.014 A 
BRANCH  34  35
ATOM     35  C   UNL A   1      39.741  28.819  29.166  1.00  0.00     0.031 A 
ATOM     36  C   UNL A   1      40.699  29.725  29.889  1.00  0.00     0.074 A 
ATOM     37  C   UNL A   1      40.136  27.607  28.735  1.00  0.00     0.049 A 
ATOM     38  N   UNL A   1      41.957  29.523  30.188  1.00  0.00    -0.248 NA
ATOM     39  C   UNL A   1      40.188  31.043  30.307  1.00  0.00     0.031 C 
ATOM     40  C   UNL A   1      39.303  26.656  27.996  1.00  0.00     0.029 A 
ATOM     41  N   UNL A   1      41.342  26.966  28.860  1.00  0.00    -0.354 N 
ATOM     42  C   UNL A   1      42.383  30.687  30.816  1.00  0.00     0.074 A 
ATOM     43  C   UNL A   1      41.276  31.614  30.797  1.00  0.00     0.031 C 
ATOM     44  C   UNL A   1      40.009  25.536  27.773  1.00  0.00     0.029 A 
ATOM     45  C   UNL A   1      41.354  25.707  28.312  1.00  0.00     0.049 A 
ATOM     46  H   UNL A   1      42.124  27.370  29.301  1.00  0.00     0.167 HD
ATOM     47  C   UNL A   1      43.580  30.946  31.389  1.00  0.00     0.031 A 
ATOM     48  C   UNL A   1      42.341  24.793  28.251  1.00  0.00     0.031 A 
ATOM     49  C   UNL A   1      44.672  30.013  31.420  1.00  0.00     0.049 A 
ATOM     50  C   UNL A   1      43.674  25.120  28.864  1.00  0.00     0.074 A 
ATOM     51  C   UNL A   1      45.913  30.161  32.011  1.00  0.00     0.029 A 
ATOM     52  N   UNL A   1      44.650  28.756  30.836  1.00  0.00    -0.354 N 
ATOM     53  N   UNL A   1      44.046  26.203  29.503  1.00  0.00    -0.248 NA
ATOM     54  C   UNL A   1      44.722  24.095  28.754  1.00  0.00     0.031 C 
ATOM     55  C   UNL A   1      46.663  29.015  31.738  1.00  0.00     0.029 A 
ATOM     56  C   UNL A   1      45.867  28.127  31.031  1.00  0.00     0.049 A 
ATOM     57  H   UNL A   1      43.884  28.368  30.356  1.00  0.00     0.167 HD
ATOM     58  C   UNL A   1      45.361  25.983  29.890  1.00  0.00     0.074 A 
ATOM     59  C   UNL A   1      45.716  24.655  29.432  1.00  0.00     0.031 C 
ATOM     60  C   UNL A   1      46.200  26.806  30.564  1.00  0.00     0.031 A 
BRANCH  47  61
ATOM     61  C   UNL A   1      43.766  32.288  32.039  1.00  0.00    -0.014 A 
ATOM     62  C   UNL A   1      43.408  32.499  33.381  1.00  0.00     0.009 A 
ATOM     63  C   UNL A   1      44.352  33.341  31.319  1.00  0.00     0.009 A 
ATOM     64  C   UNL A   1      43.607  33.744  33.980  1.00  0.00     0.001 A 
ATOM     65  C   UNL A   1      44.579  34.576  31.931  1.00  0.00     0.001 A 
ATOM     66  C   UNL A   1      44.200  34.778  33.257  1.00  0.00     0.000 A 
ENDBRANCH  47  61
BRANCH  48  67
ATOM     67  C   UNL A   1      42.090  23.473  27.616  1.00  0.00    -0.014 A 
ATOM     68  C   UNL A   1      42.432  23.257  26.272  1.00  0.00     0.009 A 
ATOM     69  C   UNL A   1      41.530  22.416  28.350  1.00  0.00     0.009 A 
ATOM     70  C   UNL A   1      42.203  22.016  25.673  1.00  0.00     0.001 A 
ATOM     71  C   UNL A   1      41.330  21.167  27.757  1.00  0.00     0.001 A 
ATOM     72  C   UNL A   1      41.660  20.970  26.418  1.00  0.00     0.000 A 
ENDBRANCH  48  67
BRANCH  60  73
ATOM     73  C   UNL A   1      47.581  26.297  30.863  1.00  0.00    -0.014 A 
ATOM     74  C   UNL A   1      47.892  25.739  32.111  1.00  0.00     0.009 A 
ATOM     75  C   UNL A   1      48.556  26.296  29.852  1.00  0.00     0.009 A 
ATOM     76  C   UNL A   1      49.162  25.208  32.348  1.00  0.00     0.001 A 
ATOM     77  C   UNL A   1      49.813  25.737  30.083  1.00  0.00     0.001 A 
ATOM     78  C   UNL A   1      50.117  25.200  31.332  1.00  0.00     0.000 A 
ENDBRANCH  60  73
ENDBRANCH  34  35
ENDBRANCH  26  29
ENDBRANCH  24  25
ENDBRANCH   1  24
TORSDOF 11
ENDMDL
MODEL 2
REMARK VINA RESULT:     -11.7      2.320      7.428
REMARK SMILES Cc1c(Cl)cc2c(c1C)O[C@H](C(F)(F)F)C(C(=O)NCCCNC(=O)c1ccc(-c3c4nc(c(-c5ccccc5)c5ccc([nH]5)c(-c5ccccc5)c5nc(c(-c6ccccc6)c6ccc3[nH]6)C=C5)C=C4)cc1)=C2
REMARK SMILES IDX 21 1 20 2 19 3 17 4 18 5 16 7 1 8 2 9 3 10 8 11 4 12 5 13
REMARK SMILES IDX 7 14 9 15 6 16 10 17 74 18 11 19 12 20 13 21 14 22 15 23
REMARK SMILES IDX 22 24 23 25 24 26 25 28 26 29 27 30 73 31 28 32 72 33 29 34
REMARK SMILES IDX 30 35 31 36 66 37 32 38 71 39 65 40 67 41 33 42 70 43 64 44
REMARK SMILES IDX 63 45 34 47 56 48 41 49 55 50 42 51 45 52 54 53 68 54 43 55
REMARK SMILES IDX 44 56 53 58 69 59 46 60 35 61 36 62 40 63 37 64 39 65 38 66
REMARK SMILES IDX 57 67 58 68 62 69 59 70 61 71 60 72 47 73 48 74 52 75 49 76
REMARK SMILES IDX 51 77 50 78
REMARK H PARENT 19 6 23 27 67 46 45 57
REMARK Flexibility Score: inf
ROOT
ATOM      1  C   UNL A   1      37.704  19.558  24.923  1.00  0.00     0.042 C 
ENDROOT
BRANCH   1   2
ATOM      2  C   UNL A   1      36.597  20.553  24.609  1.00  0.00     0.118 C 
BRANCH   2   3
ATOM      3  N   UNL A   1      35.708  20.748  25.744  1.00  0.00    -0.352 N 
ATOM      4  C   UNL A   1      34.755  21.634  26.116  1.00  0.00     0.251 C 
ATOM      5  O   UNL A   1      34.228  21.411  27.210  1.00  0.00    -0.270 OA
ATOM      6  H   UNL A   1      35.832  20.046  26.423  1.00  0.00     0.163 HD
BRANCH   4   7
ATOM      7  C   UNL A   1      34.330  22.817  25.315  1.00  0.00     0.067 C 
ATOM      8  C   UNL A   1      32.975  28.708  22.835  1.00  0.00     0.046 C 
ATOM      9  C   UNL A   1      33.360  27.500  23.648  1.00  0.00    -0.026 A 
ATOM     10  C   UNL A   1      33.674  27.593  25.021  1.00  0.00     0.045 A 
ATOM     11  C   UNL A   1      33.392  26.225  23.035  1.00  0.00    -0.004 A 
ATOM     12  Cl  UNL A   1      33.635  29.096  25.878  1.00  0.00    -0.084 Cl
ATOM     13  C   UNL A   1      34.037  26.462  25.763  1.00  0.00     0.032 A 
ATOM     14  C   UNL A   1      33.763  25.105  23.801  1.00  0.00     0.131 A 
ATOM     15  C   UNL A   1      33.034  25.998  21.586  1.00  0.00     0.049 C 
ATOM     16  C   UNL A   1      34.088  25.211  25.154  1.00  0.00     0.019 A 
ATOM     17  O   UNL A   1      33.843  23.911  23.138  1.00  0.00    -0.475 OA
ATOM     18  C   UNL A   1      34.500  24.021  25.890  1.00  0.00     0.025 C 
ATOM     19  C   UNL A   1      33.719  22.719  23.951  1.00  0.00     0.314 C 
BRANCH  19  20
ATOM     20  C   UNL A   1      32.244  22.272  23.985  1.00  0.00     0.429 C 
ATOM     21  F   UNL A   1      31.590  22.725  22.885  1.00  0.00    -0.167 F 
ATOM     22  F   UNL A   1      32.107  20.925  23.982  1.00  0.00    -0.167 F 
ATOM     23  F   UNL A   1      31.581  22.729  25.069  1.00  0.00    -0.167 F 
ENDBRANCH  19  20
ENDBRANCH   4   7
ENDBRANCH   2   3
ENDBRANCH   1   2
BRANCH   1  24
ATOM     24  C   UNL A   1      38.830  20.198  25.723  1.00  0.00     0.118 C 
BRANCH  24  25
ATOM     25  N   UNL A   1      39.993  19.317  25.819  1.00  0.00    -0.352 N 
ATOM     26  C   UNL A   1      41.312  19.615  26.036  1.00  0.00     0.251 C 
ATOM     27  H   UNL A   1      39.796  18.359  25.711  1.00  0.00     0.163 HD
ATOM     28  O   UNL A   1      42.179  18.776  25.794  1.00  0.00    -0.269 OA
BRANCH  26  29
ATOM     29  C   UNL A   1      41.691  20.940  26.558  1.00  0.00     0.039 A 
ATOM     30  C   UNL A   1      42.139  21.924  25.675  1.00  0.00     0.014 A 
ATOM     31  C   UNL A   1      41.622  21.198  27.928  1.00  0.00     0.014 A 
ATOM     32  C   UNL A   1      42.459  23.191  26.166  1.00  0.00     0.010 A 
ATOM     33  C   UNL A   1      41.835  22.484  28.400  1.00  0.00     0.010 A 
ATOM     34  C   UNL A   1      42.275  23.486  27.527  1.00  0.00    -0.014 A 
BRANCH  34  35
ATOM     35  C   UNL A   1      42.574  24.829  28.074  1.00  0.00     0.031 A 
ATOM     36  C   UNL A   1      43.982  25.174  28.475  1.00  0.00     0.074 A 
ATOM     37  C   UNL A   1      41.573  25.711  28.258  1.00  0.00     0.049 A 
ATOM     38  N   UNL A   1      44.436  26.270  29.025  1.00  0.00    -0.248 NA
ATOM     39  C   UNL A   1      45.010  24.141  28.257  1.00  0.00     0.031 C 
ATOM     40  C   UNL A   1      40.164  25.476  27.935  1.00  0.00     0.029 A 
ATOM     41  N   UNL A   1      41.590  26.987  28.759  1.00  0.00    -0.354 N 
ATOM     42  C   UNL A   1      45.793  26.053  29.225  1.00  0.00     0.074 A 
ATOM     43  C   UNL A   1      46.078  24.702  28.803  1.00  0.00     0.031 C 
ATOM     44  C   UNL A   1      39.461  26.587  28.204  1.00  0.00     0.029 A 
ATOM     45  C   UNL A   1      40.359  27.594  28.760  1.00  0.00     0.049 A 
ATOM     46  H   UNL A   1      42.409  27.427  29.087  1.00  0.00     0.167 HD
ATOM     47  C   UNL A   1      46.727  26.915  29.688  1.00  0.00     0.031 A 
ATOM     48  C   UNL A   1      39.995  28.826  29.164  1.00  0.00     0.031 A 
ATOM     49  C   UNL A   1      46.440  28.265  30.090  1.00  0.00     0.049 A 
ATOM     50  C   UNL A   1      41.045  29.754  29.707  1.00  0.00     0.074 A 
ATOM     51  C   UNL A   1      47.321  29.234  30.534  1.00  0.00     0.029 A 
ATOM     52  N   UNL A   1      45.177  28.834  30.094  1.00  0.00    -0.354 N 
ATOM     53  N   UNL A   1      42.334  29.554  29.839  1.00  0.00    -0.248 NA
ATOM     54  C   UNL A   1      40.592  31.080  30.150  1.00  0.00     0.031 C 
ATOM     55  C   UNL A   1      46.582  30.374  30.859  1.00  0.00     0.029 A 
ATOM     56  C   UNL A   1      45.250  30.136  30.558  1.00  0.00     0.049 A 
ATOM     57  H   UNL A   1      44.351  28.381  29.809  1.00  0.00     0.167 HD
ATOM     58  C   UNL A   1      42.850  30.733  30.359  1.00  0.00     0.074 A 
ATOM     59  C   UNL A   1      41.737  31.651  30.500  1.00  0.00     0.031 C 
ATOM     60  C   UNL A   1      44.130  31.030  30.693  1.00  0.00     0.031 A 
BRANCH  47  61
ATOM     61  C   UNL A   1      48.145  26.428  29.770  1.00  0.00    -0.014 A 
ATOM     62  C   UNL A   1      49.045  26.633  28.711  1.00  0.00     0.009 A 
ATOM     63  C   UNL A   1      48.606  25.803  30.940  1.00  0.00     0.009 A 
ATOM     64  C   UNL A   1      50.367  26.197  28.810  1.00  0.00     0.001 A 
ATOM     65  C   UNL A   1      49.937  25.396  31.048  1.00  0.00     0.001 A 
ATOM     66  C   UNL A   1      50.814  25.587  29.981  1.00  0.00     0.000 A 
ENDBRANCH  47  61
BRANCH  48  67
ATOM     67  C   UNL A   1      38.579  29.259  29.034  1.00  0.00    -0.014 A 
ATOM     68  C   UNL A   1      37.715  29.194  30.138  1.00  0.00     0.009 A 
ATOM     69  C   UNL A   1      38.088  29.762  27.819  1.00  0.00     0.009 A 
ATOM     70  C   UNL A   1      36.385  29.606  30.023  1.00  0.00     0.001 A 
ATOM     71  C   UNL A   1      36.766  30.201  27.714  1.00  0.00     0.001 A 
ATOM     72  C   UNL A   1      35.914  30.116  28.813  1.00  0.00     0.000 A 
ENDBRANCH  48  67
BRANCH  60  73
ATOM     73  C   UNL A   1      44.406  32.406  31.228  1.00  0.00    -0.014 A 
ATOM     74  C   UNL A   1      44.641  33.485  30.364  1.00  0.00     0.009 A 
ATOM     75  C   UNL A   1      44.344  32.640  32.611  1.00  0.00     0.009 A 
ATOM     76  C   UNL A   1      44.829  34.770  30.877  1.00  0.00     0.001 A 
ATOM     77  C   UNL A   1      44.501  33.930  33.118  1.00  0.00     0.001 A 
ATOM     78  C   UNL A   1      44.749  34.992  32.251  1.00  0.00     0.000 A 
ENDBRANCH  60  73
ENDBRANCH  34  35
ENDBRANCH  26  29
ENDBRANCH  24  25
ENDBRANCH   1  24
TORSDOF 11
ENDMDL
MODEL 3
REMARK VINA RESULT:     -11.7      2.447      7.277
REMARK SMILES Cc1c(Cl)cc2c(c1C)O[C@H](C(F)(F)F)C(C(=O)NCCCNC(=O)c1ccc(-c3c4nc(c(-c5ccccc5)c5ccc([nH]5)c(-c5ccccc5)c5nc(c(-c6ccccc6)c6ccc3[nH]6)C=C5)C=C4)cc1)=C2
REMARK SMILES IDX 21 1 20 2 19 3 17 4 18 5 16 7 1 8 2 9 3 10 8 11 4 12 5 13
REMARK SMILES IDX 7 14 9 15 6 16 10 17 74 18 11 19 12 20 13 21 14 22 15 23
REMARK SMILES IDX 22 24 23 25 24 26 25 28 26 29 27 30 73 31 28 32 72 33 29 34
REMARK SMILES IDX 30 35 31 36 66 37 32 38 71 39 65 40 67 41 33 42 70 43 64 44
REMARK SMILES IDX 63 45 34 47 56 48 41 49 55 50 42 51 45 52 54 53 68 54 43 55
REMARK SMILES IDX 44 56 53 58 69 59 46 60 35 61 36 62 40 63 37 64 39 65 38 66
REMARK SMILES IDX 57 67 58 68 62 69 59 70 61 71 60 72 47 73 48 74 52 75 49 76
REMARK SMILES IDX 51 77 50 78
REMARK H PARENT 19 6 23 27 67 46 45 57
REMARK Flexibility Score: inf
ROOT
ATOM      1  C   UNL A   1      37.770  19.704  24.966  1.00  0.00     0.042 C 
ENDROOT
BRANCH   1   2
ATOM      2  C   UNL A   1      36.693  20.734  24.663  1.00  0.00     0.118 C 
BRANCH   2   3
ATOM      3  N   UNL A   1      35.740  20.857  25.755  1.00  0.00    -0.352 N 
ATOM      4  C   UNL A   1      34.728  21.686  26.100  1.00  0.00     0.251 C 
ATOM      5  O   UNL A   1      34.158  21.409  27.159  1.00  0.00    -0.270 OA
ATOM      6  H   UNL A   1      35.864  20.143  26.422  1.00  0.00     0.163 HD
BRANCH   4   7
ATOM      7  C   UNL A   1      34.287  22.869  25.307  1.00  0.00     0.067 C 
ATOM      8  C   UNL A   1      32.896  28.761  22.847  1.00  0.00     0.046 C 
ATOM      9  C   UNL A   1      33.297  27.553  23.653  1.00  0.00    -0.026 A 
ATOM     10  C   UNL A   1      33.651  27.648  25.016  1.00  0.00     0.045 A 
ATOM     11  C   UNL A   1      33.304  26.276  23.043  1.00  0.00    -0.004 A 
ATOM     12  Cl  UNL A   1      33.645  29.153  25.868  1.00  0.00    -0.084 Cl
ATOM     13  C   UNL A   1      34.028  26.517  25.751  1.00  0.00     0.032 A 
ATOM     14  C   UNL A   1      33.691  25.156  23.802  1.00  0.00     0.131 A 
ATOM     15  C   UNL A   1      32.904  26.046  21.606  1.00  0.00     0.049 C 
ATOM     16  C   UNL A   1      34.054  25.264  25.145  1.00  0.00     0.019 A 
ATOM     17  O   UNL A   1      33.744  23.959  23.141  1.00  0.00    -0.475 OA
ATOM     18  C   UNL A   1      34.480  24.074  25.873  1.00  0.00     0.025 C 
ATOM     19  C   UNL A   1      33.636  22.770  23.961  1.00  0.00     0.314 C 
BRANCH  19  20
ATOM     20  C   UNL A   1      32.161  22.332  24.039  1.00  0.00     0.429 C 
ATOM     21  F   UNL A   1      31.479  22.784  22.956  1.00  0.00    -0.167 F 
ATOM     22  F   UNL A   1      32.016  20.986  24.046  1.00  0.00    -0.167 F 
ATOM     23  F   UNL A   1      31.531  22.798  25.139  1.00  0.00    -0.167 F 
ENDBRANCH  19  20
ENDBRANCH   4   7
ENDBRANCH   2   3
ENDBRANCH   1   2
BRANCH   1  24
ATOM     24  C   UNL A   1      38.925  20.307  25.751  1.00  0.00     0.118 C 
BRANCH  24  25
ATOM     25  N   UNL A   1      40.029  19.359  25.902  1.00  0.00    -0.352 N 
ATOM     26  C   UNL A   1      41.362  19.583  26.126  1.00  0.00     0.251 C 
ATOM     27  H   UNL A   1      39.773  18.411  25.832  1.00  0.00     0.163 HD
ATOM     28  O   UNL A   1      42.176  18.682  25.933  1.00  0.00    -0.269 OA
BRANCH  26  29
ATOM     29  C   UNL A   1      41.817  20.902  26.597  1.00  0.00     0.039 A 
ATOM     30  C   UNL A   1      42.240  21.856  25.669  1.00  0.00     0.014 A 
ATOM     31  C   UNL A   1      41.846  21.186  27.964  1.00  0.00     0.014 A 
ATOM     32  C   UNL A   1      42.633  23.119  26.114  1.00  0.00     0.010 A 
ATOM     33  C   UNL A   1      42.132  22.472  28.396  1.00  0.00     0.010 A 
ATOM     34  C   UNL A   1      42.548  23.443  27.478  1.00  0.00    -0.014 A 
BRANCH  34  35
ATOM     35  C   UNL A   1      42.925  24.785  27.978  1.00  0.00     0.031 A 
ATOM     36  C   UNL A   1      41.861  25.826  28.192  1.00  0.00     0.074 A 
ATOM     37  C   UNL A   1      44.223  25.078  28.186  1.00  0.00     0.049 A 
ATOM     38  N   UNL A   1      41.993  27.072  28.568  1.00  0.00    -0.248 NA
ATOM     39  C   UNL A   1      40.469  25.425  27.920  1.00  0.00     0.031 C 
ATOM     40  C   UNL A   1      45.344  24.157  27.982  1.00  0.00     0.029 A 
ATOM     41  N   UNL A   1      44.817  26.235  28.619  1.00  0.00    -0.354 N 
ATOM     42  C   UNL A   1      40.708  27.600  28.567  1.00  0.00     0.074 A 
ATOM     43  C   UNL A   1      39.820  26.566  28.091  1.00  0.00     0.031 C 
ATOM     44  C   UNL A   1      46.485  24.772  28.333  1.00  0.00     0.029 A 
ATOM     45  C   UNL A   1      46.181  26.139  28.741  1.00  0.00     0.049 A 
ATOM     46  H   UNL A   1      44.313  27.056  28.823  1.00  0.00     0.167 HD
ATOM     47  C   UNL A   1      40.299  28.827  28.961  1.00  0.00     0.031 A 
ATOM     48  C   UNL A   1      47.086  27.053  29.139  1.00  0.00     0.031 A 
ATOM     49  C   UNL A   1      41.186  29.847  29.450  1.00  0.00     0.049 A 
ATOM     50  C   UNL A   1      46.611  28.422  29.538  1.00  0.00     0.074 A 
ATOM     51  C   UNL A   1      40.869  31.111  29.915  1.00  0.00     0.029 A 
ATOM     52  N   UNL A   1      42.563  29.716  29.540  1.00  0.00    -0.354 N 
ATOM     53  N   UNL A   1      45.387  28.889  29.585  1.00  0.00    -0.248 NA
ATOM     54  C   UNL A   1      47.641  29.387  29.947  1.00  0.00     0.031 C 
ATOM     55  C   UNL A   1      42.061  31.765  30.235  1.00  0.00     0.029 A 
ATOM     56  C   UNL A   1      43.114  30.888  30.029  1.00  0.00     0.049 A 
ATOM     57  H   UNL A   1      43.072  28.912  29.294  1.00  0.00     0.167 HD
ATOM     58  C   UNL A   1      45.496  30.194  30.048  1.00  0.00     0.074 A 
ATOM     59  C   UNL A   1      46.905  30.437  30.287  1.00  0.00     0.031 C 
ATOM     60  C   UNL A   1      44.519  31.109  30.256  1.00  0.00     0.031 A 
BRANCH  47  61
ATOM     61  C   UNL A   1      38.829  29.129  28.891  1.00  0.00    -0.014 A 
ATOM     62  C   UNL A   1      38.012  29.022  30.029  1.00  0.00     0.009 A 
ATOM     63  C   UNL A   1      38.261  29.575  27.688  1.00  0.00     0.009 A 
ATOM     64  C   UNL A   1      36.653  29.328  29.957  1.00  0.00     0.001 A 
ATOM     65  C   UNL A   1      36.907  29.910  27.626  1.00  0.00     0.001 A 
ATOM     66  C   UNL A   1      36.104  29.780  28.758  1.00  0.00     0.000 A 
ENDBRANCH  47  61
BRANCH  48  67
ATOM     67  C   UNL A   1      48.526  26.688  29.210  1.00  0.00    -0.014 A 
ATOM     68  C   UNL A   1      49.049  26.095  30.370  1.00  0.00     0.009 A 
ATOM     69  C   UNL A   1      49.379  26.905  28.117  1.00  0.00     0.009 A 
ATOM     70  C   UNL A   1      50.399  25.744  30.439  1.00  0.00     0.001 A 
ATOM     71  C   UNL A   1      50.721  26.526  28.178  1.00  0.00     0.001 A 
ATOM     72  C   UNL A   1      51.232  25.953  29.341  1.00  0.00     0.000 A 
ENDBRANCH  48  67
BRANCH  60  73
ATOM     73  C   UNL A   1      44.929  32.456  30.781  1.00  0.00    -0.014 A 
ATOM     74  C   UNL A   1      45.048  32.690  32.158  1.00  0.00     0.009 A 
ATOM     75  C   UNL A   1      45.284  33.474  29.882  1.00  0.00     0.009 A 
ATOM     76  C   UNL A   1      45.496  33.927  32.626  1.00  0.00     0.001 A 
ATOM     77  C   UNL A   1      45.761  34.698  30.352  1.00  0.00     0.001 A 
ATOM     78  C   UNL A   1      45.860  34.925  31.724  1.00  0.00     0.000 A 
ENDBRANCH  60  73
ENDBRANCH  34  35
ENDBRANCH  26  29
ENDBRANCH  24  25
ENDBRANCH   1  24
TORSDOF 11
ENDMDL
