MODEL 1
REMARK VINA RESULT:     -11.1      0.000      0.000
REMARK SMILES O=C(CS[C@H](C(=O)Nc1ccc(C(F)(F)F)cc1)c1ccccc1)NCCCNC(=O)c1ccc(-c2c3nc(c(-c4ccccc4)c4ccc([nH]4)c(-c4ccccc4)c4nc(c(-c5ccccc5)c5ccc2[nH]5)C=C4)C=C3)cc1
REMARK SMILES IDX 1 1 2 2 25 3 3 5 4 6 5 7 19 8 20 9 24 10 21 11 23 12 22 13
REMARK SMILES IDX 6 14 7 15 8 16 9 18 10 19 18 20 11 21 17 22 12 23 13 24
REMARK SMILES IDX 14 25 15 26 16 27 26 28 27 29 28 30 29 31 30 32 31 34 32 35
REMARK SMILES IDX 33 36 79 37 34 38 78 39 35 40 36 41 37 42 72 43 38 44 77 45
REMARK SMILES IDX 71 46 73 47 39 48 76 49 70 50 69 51 40 53 62 54 47 55 61 56
REMARK SMILES IDX 48 57 51 58 60 59 74 60 49 61 50 62 59 64 75 65 52 66 41 67
REMARK SMILES IDX 42 68 46 69 43 70 45 71 44 72 63 73 64 74 68 75 65 76 67 77
REMARK SMILES IDX 66 78 53 79 54 80 58 81 55 82 57 83 56 84
REMARK H PARENT 25 4 8 17 29 33 73 52 51 63
REMARK Flexibility Score: inf
ROOT
ATOM      1  O   UNL A   1      33.394  27.529  26.123  1.00  0.00    -0.274 OA
ATOM      2  C   UNL A   1      32.187  27.590  26.351  1.00  0.00     0.230 C 
ATOM      3  N   UNL A   1      31.470  28.766  26.200  1.00  0.00    -0.355 N 
ATOM      4  H   UNL A   1      30.493  28.771  26.325  1.00  0.00     0.163 HD
ENDROOT
BRANCH   2   5
ATOM      5  C   UNL A   1      31.397  26.399  26.853  1.00  0.00     0.170 C 
BRANCH   5   6
ATOM      6  S   UNL A   1      30.241  25.713  25.603  1.00  0.00    -0.134 SA
BRANCH   6   7
ATOM      7  C   UNL A   1      30.758  23.940  25.311  1.00  0.00     0.166 C 
BRANCH   7   8
ATOM      8  C   UNL A   1      31.640  23.772  24.074  1.00  0.00    -0.026 A 
ATOM      9  C   UNL A   1      31.638  22.554  23.368  1.00  0.00     0.005 A 
ATOM     10  C   UNL A   1      32.483  24.778  23.585  1.00  0.00     0.005 A 
ATOM     11  C   UNL A   1      32.522  22.326  22.304  1.00  0.00     0.000 A 
ATOM     12  C   UNL A   1      33.369  24.558  22.527  1.00  0.00     0.000 A 
ATOM     13  C   UNL A   1      33.406  23.321  21.901  1.00  0.00     0.000 A 
ENDBRANCH   7   8
BRANCH   7  14
ATOM     14  C   UNL A   1      31.059  23.143  26.617  1.00  0.00     0.242 C 
ATOM     15  O   UNL A   1      30.271  23.089  27.571  1.00  0.00    -0.273 OA
ATOM     16  N   UNL A   1      32.060  22.206  26.676  1.00  0.00    -0.325 N 
ATOM     17  H   UNL A   1      31.772  21.319  26.992  1.00  0.00     0.169 HD
BRANCH  16  18
ATOM     18  C   UNL A   1      33.420  22.297  26.365  1.00  0.00     0.041 A 
ATOM     19  C   UNL A   1      34.070  23.516  26.569  1.00  0.00     0.027 A 
ATOM     20  C   UNL A   1      34.121  21.253  25.780  1.00  0.00     0.027 A 
ATOM     21  C   UNL A   1      35.442  23.636  26.322  1.00  0.00     0.015 A 
ATOM     22  C   UNL A   1      35.495  21.359  25.561  1.00  0.00     0.015 A 
ATOM     23  C   UNL A   1      36.179  22.539  25.856  1.00  0.00     0.056 A 
BRANCH  23  24
ATOM     24  C   UNL A   1      37.671  22.619  25.653  1.00  0.00     0.416 C 
ATOM     25  F   UNL A   1      38.100  21.836  24.626  1.00  0.00    -0.166 F 
ATOM     26  F   UNL A   1      38.093  23.882  25.364  1.00  0.00    -0.166 F 
ATOM     27  F   UNL A   1      38.385  22.236  26.747  1.00  0.00    -0.166 F 
ENDBRANCH  23  24
ENDBRANCH  16  18
ENDBRANCH   7  14
ENDBRANCH   6   7
ENDBRANCH   5   6
ENDBRANCH   2   5
BRANCH   3  28
ATOM     28  C   UNL A   1      32.171  29.993  25.857  1.00  0.00     0.117 C 
BRANCH  28  29
ATOM     29  C   UNL A   1      32.593  30.852  27.038  1.00  0.00     0.042 C 
BRANCH  29  30
ATOM     30  C   UNL A   1      34.044  30.711  27.479  1.00  0.00     0.118 C 
BRANCH  30  31
ATOM     31  N   UNL A   1      34.374  31.384  28.725  1.00  0.00    -0.352 N 
ATOM     32  C   UNL A   1      35.442  31.200  29.579  1.00  0.00     0.251 C 
ATOM     33  H   UNL A   1      33.734  32.080  29.002  1.00  0.00     0.163 HD
ATOM     34  O   UNL A   1      35.469  31.835  30.630  1.00  0.00    -0.269 OA
BRANCH  32  35
ATOM     35  C   UNL A   1      36.523  30.214  29.296  1.00  0.00     0.039 A 
ATOM     36  C   UNL A   1      37.061  30.195  28.003  1.00  0.00     0.014 A 
ATOM     37  C   UNL A   1      37.055  29.359  30.262  1.00  0.00     0.014 A 
ATOM     38  C   UNL A   1      38.221  29.465  27.735  1.00  0.00     0.010 A 
ATOM     39  C   UNL A   1      38.265  28.704  30.025  1.00  0.00     0.010 A 
ATOM     40  C   UNL A   1      38.889  28.799  28.774  1.00  0.00    -0.014 A 
BRANCH  40  41
ATOM     41  C   UNL A   1      40.293  28.344  28.602  1.00  0.00     0.031 A 
ATOM     42  C   UNL A   1      40.628  26.927  28.239  1.00  0.00     0.074 A 
ATOM     43  C   UNL A   1      41.286  29.218  28.868  1.00  0.00     0.049 A 
ATOM     44  N   UNL A   1      41.806  26.375  28.085  1.00  0.00    -0.248 NA
ATOM     45  C   UNL A   1      39.501  26.003  28.050  1.00  0.00     0.031 C 
ATOM     46  C   UNL A   1      41.099  30.606  29.305  1.00  0.00     0.029 A 
ATOM     47  N   UNL A   1      42.650  29.073  28.815  1.00  0.00    -0.354 N 
ATOM     48  C   UNL A   1      41.564  25.040  27.793  1.00  0.00     0.074 A 
ATOM     49  C   UNL A   1      40.128  24.855  27.831  1.00  0.00     0.031 C 
ATOM     50  C   UNL A   1      42.298  31.195  29.435  1.00  0.00     0.029 A 
ATOM     51  C   UNL A   1      43.337  30.220  29.134  1.00  0.00     0.049 A 
ATOM     52  H   UNL A   1      43.093  28.229  28.572  1.00  0.00     0.167 HD
ATOM     53  C   UNL A   1      42.455  24.060  27.506  1.00  0.00     0.031 A 
ATOM     54  C   UNL A   1      44.659  30.468  29.179  1.00  0.00     0.031 A 
ATOM     55  C   UNL A   1      43.883  24.241  27.465  1.00  0.00     0.049 A 
ATOM     56  C   UNL A   1      45.623  29.371  28.834  1.00  0.00     0.074 A 
ATOM     57  C   UNL A   1      44.862  23.318  27.132  1.00  0.00     0.029 A 
ATOM     58  N   UNL A   1      44.538  25.424  27.768  1.00  0.00    -0.354 N 
ATOM     59  N   UNL A   1      45.371  28.133  28.488  1.00  0.00    -0.248 NA
ATOM     60  C   UNL A   1      47.051  29.711  28.873  1.00  0.00     0.031 C 
ATOM     61  C   UNL A   1      46.110  23.934  27.270  1.00  0.00     0.029 A 
ATOM     62  C   UNL A   1      45.907  25.252  27.645  1.00  0.00     0.049 A 
ATOM     63  H   UNL A   1      44.096  26.264  28.031  1.00  0.00     0.167 HD
ATOM     64  C   UNL A   1      46.607  27.552  28.246  1.00  0.00     0.074 A 
ATOM     65  C   UNL A   1      47.606  28.577  28.469  1.00  0.00     0.031 C 
ATOM     66  C   UNL A   1      46.889  26.280  27.873  1.00  0.00     0.031 A 
BRANCH  53  67
ATOM     67  C   UNL A   1      41.902  22.693  27.216  1.00  0.00    -0.014 A 
ATOM     68  C   UNL A   1      41.649  22.280  25.898  1.00  0.00     0.009 A 
ATOM     69  C   UNL A   1      41.663  21.794  28.267  1.00  0.00     0.009 A 
ATOM     70  C   UNL A   1      41.133  21.008  25.642  1.00  0.00     0.001 A 
ATOM     71  C   UNL A   1      41.170  20.514  28.006  1.00  0.00     0.001 A 
ATOM     72  C   UNL A   1      40.896  20.126  26.696  1.00  0.00     0.000 A 
ENDBRANCH  53  67
BRANCH  54  73
ATOM     73  C   UNL A   1      45.148  31.824  29.536  1.00  0.00    -0.014 A 
ATOM     74  C   UNL A   1      45.314  32.800  28.542  1.00  0.00     0.009 A 
ATOM     75  C   UNL A   1      45.443  32.151  30.868  1.00  0.00     0.009 A 
ATOM     76  C   UNL A   1      45.787  34.072  28.872  1.00  0.00     0.001 A 
ATOM     77  C   UNL A   1      45.893  33.431  31.198  1.00  0.00     0.001 A 
ATOM     78  C   UNL A   1      46.072  34.387  30.200  1.00  0.00     0.000 A 
ENDBRANCH  54  73
BRANCH  66  79
ATOM     79  C   UNL A   1      48.336  25.942  27.656  1.00  0.00    -0.014 A 
ATOM     80  C   UNL A   1      49.143  25.491  28.711  1.00  0.00     0.009 A 
ATOM     81  C   UNL A   1      48.892  26.062  26.373  1.00  0.00     0.009 A 
ATOM     82  C   UNL A   1      50.491  25.198  28.492  1.00  0.00     0.001 A 
ATOM     83  C   UNL A   1      50.232  25.745  26.152  1.00  0.00     0.001 A 
ATOM     84  C   UNL A   1      51.033  25.323  27.213  1.00  0.00     0.000 A 
ENDBRANCH  66  79
ENDBRANCH  40  41
ENDBRANCH  32  35
ENDBRANCH  30  31
ENDBRANCH  29  30
ENDBRANCH  28  29
ENDBRANCH   3  28
TORSDOF 16
ENDMDL
MODEL 2
REMARK VINA RESULT:     -11.1      2.052      2.845
REMARK SMILES O=C(CS[C@H](C(=O)Nc1ccc(C(F)(F)F)cc1)c1ccccc1)NCCCNC(=O)c1ccc(-c2c3nc(c(-c4ccccc4)c4ccc([nH]4)c(-c4ccccc4)c4nc(c(-c5ccccc5)c5ccc2[nH]5)C=C4)C=C3)cc1
REMARK SMILES IDX 1 1 2 2 25 3 3 5 4 6 5 7 19 8 20 9 24 10 21 11 23 12 22 13
REMARK SMILES IDX 6 14 7 15 8 16 9 18 10 19 18 20 11 21 17 22 12 23 13 24
REMARK SMILES IDX 14 25 15 26 16 27 26 28 27 29 28 30 29 31 30 32 31 34 32 35
REMARK SMILES IDX 33 36 79 37 34 38 78 39 35 40 36 41 37 42 72 43 38 44 77 45
REMARK SMILES IDX 71 46 73 47 39 48 76 49 70 50 69 51 40 53 62 54 47 55 61 56
REMARK SMILES IDX 48 57 51 58 60 59 74 60 49 61 50 62 59 64 75 65 52 66 41 67
REMARK SMILES IDX 42 68 46 69 43 70 45 71 44 72 63 73 64 74 68 75 65 76 67 77
REMARK SMILES IDX 66 78 53 79 54 80 58 81 55 82 57 83 56 84
REMARK H PARENT 25 4 8 17 29 33 73 52 51 63
REMARK Flexibility Score: inf
ROOT
ATOM      1  O   UNL A   1      30.582  28.004  24.508  1.00  0.00    -0.274 OA
ATOM      2  C   UNL A   1      31.588  27.375  24.833  1.00  0.00     0.230 C 
ATOM      3  N   UNL A   1      32.096  27.418  26.121  1.00  0.00    -0.355 N 
ATOM      4  H   UNL A   1      32.863  26.853  26.371  1.00  0.00     0.163 HD
ENDROOT
BRANCH   2   5
ATOM      5  C   UNL A   1      32.374  26.540  23.844  1.00  0.00     0.170 C 
BRANCH   5   6
ATOM      6  S   UNL A   1      34.026  26.036  24.468  1.00  0.00    -0.134 SA
BRANCH   6   7
ATOM      7  C   UNL A   1      33.967  24.183  24.706  1.00  0.00     0.166 C 
BRANCH   7   8
ATOM      8  C   UNL A   1      35.353  23.557  24.856  1.00  0.00    -0.026 A 
ATOM      9  C   UNL A   1      35.681  22.391  24.137  1.00  0.00     0.005 A 
ATOM     10  C   UNL A   1      36.348  24.076  25.694  1.00  0.00     0.005 A 
ATOM     11  C   UNL A   1      36.897  21.725  24.342  1.00  0.00     0.000 A 
ATOM     12  C   UNL A   1      37.561  23.416  25.907  1.00  0.00     0.000 A 
ATOM     13  C   UNL A   1      37.827  22.225  25.248  1.00  0.00     0.000 A 
ENDBRANCH   7   8
BRANCH   7  14
ATOM     14  C   UNL A   1      32.773  23.694  25.582  1.00  0.00     0.242 C 
ATOM     15  O   UNL A   1      32.293  24.365  26.504  1.00  0.00    -0.273 OA
ATOM     16  N   UNL A   1      31.981  22.641  25.197  1.00  0.00    -0.325 N 
ATOM     17  H   UNL A   1      31.017  22.841  25.174  1.00  0.00     0.169 HD
BRANCH  16  18
ATOM     18  C   UNL A   1      32.308  21.332  24.833  1.00  0.00     0.041 A 
ATOM     19  C   UNL A   1      32.124  20.945  23.504  1.00  0.00     0.027 A 
ATOM     20  C   UNL A   1      32.722  20.383  25.756  1.00  0.00     0.027 A 
ATOM     21  C   UNL A   1      32.490  19.661  23.084  1.00  0.00     0.015 A 
ATOM     22  C   UNL A   1      33.116  19.112  25.337  1.00  0.00     0.015 A 
ATOM     23  C   UNL A   1      33.033  18.743  23.993  1.00  0.00     0.056 A 
BRANCH  23  24
ATOM     24  C   UNL A   1      33.505  17.380  23.552  1.00  0.00     0.416 C 
ATOM     25  F   UNL A   1      32.926  16.375  24.262  1.00  0.00    -0.166 F 
ATOM     26  F   UNL A   1      33.224  17.127  22.243  1.00  0.00    -0.166 F 
ATOM     27  F   UNL A   1      34.850  17.209  23.678  1.00  0.00    -0.166 F 
ENDBRANCH  23  24
ENDBRANCH  16  18
ENDBRANCH   7  14
ENDBRANCH   6   7
ENDBRANCH   5   6
ENDBRANCH   2   5
BRANCH   3  28
ATOM     28  C   UNL A   1      31.489  28.303  27.102  1.00  0.00     0.117 C 
BRANCH  28  29
ATOM     29  C   UNL A   1      31.938  29.753  27.034  1.00  0.00     0.042 C 
BRANCH  29  30
ATOM     30  C   UNL A   1      33.434  29.995  27.184  1.00  0.00     0.118 C 
BRANCH  30  31
ATOM     31  N   UNL A   1      33.793  31.090  28.070  1.00  0.00    -0.352 N 
ATOM     32  C   UNL A   1      34.932  31.290  28.822  1.00  0.00     0.251 C 
ATOM     33  H   UNL A   1      33.115  31.801  28.146  1.00  0.00     0.163 HD
ATOM     34  O   UNL A   1      34.979  32.261  29.571  1.00  0.00    -0.269 OA
BRANCH  32  35
ATOM     35  C   UNL A   1      36.074  30.333  28.801  1.00  0.00     0.039 A 
ATOM     36  C   UNL A   1      36.825  30.245  27.621  1.00  0.00     0.014 A 
ATOM     37  C   UNL A   1      36.460  29.571  29.904  1.00  0.00     0.014 A 
ATOM     38  C   UNL A   1      38.034  29.548  27.607  1.00  0.00     0.010 A 
ATOM     39  C   UNL A   1      37.712  28.953  29.923  1.00  0.00     0.010 A 
ATOM     40  C   UNL A   1      38.535  28.985  28.791  1.00  0.00    -0.014 A 
BRANCH  40  41
ATOM     41  C   UNL A   1      39.962  28.579  28.891  1.00  0.00     0.031 A 
ATOM     42  C   UNL A   1      40.424  27.206  28.497  1.00  0.00     0.074 A 
ATOM     43  C   UNL A   1      40.838  29.450  29.434  1.00  0.00     0.049 A 
ATOM     44  N   UNL A   1      41.629  26.698  28.558  1.00  0.00    -0.248 NA
ATOM     45  C   UNL A   1      39.402  26.277  27.996  1.00  0.00     0.031 C 
ATOM     46  C   UNL A   1      40.505  30.790  29.929  1.00  0.00     0.029 A 
ATOM     47  N   UNL A   1      42.186  29.340  29.666  1.00  0.00    -0.354 N 
ATOM     48  C   UNL A   1      41.510  25.387  28.115  1.00  0.00     0.074 A 
ATOM     49  C   UNL A   1      40.108  25.167  27.828  1.00  0.00     0.031 C 
ATOM     50  C   UNL A   1      41.624  31.392  30.361  1.00  0.00     0.029 A 
ATOM     51  C   UNL A   1      42.742  30.471  30.216  1.00  0.00     0.049 A 
ATOM     52  H   UNL A   1      42.706  28.531  29.458  1.00  0.00     0.167 HD
ATOM     53  C   UNL A   1      42.481  24.456  27.951  1.00  0.00     0.031 A 
ATOM     54  C   UNL A   1      44.013  30.744  30.565  1.00  0.00     0.031 A 
ATOM     55  C   UNL A   1      43.876  24.673  28.234  1.00  0.00     0.049 A 
ATOM     56  C   UNL A   1      45.073  29.704  30.350  1.00  0.00     0.074 A 
ATOM     57  C   UNL A   1      44.940  23.805  28.049  1.00  0.00     0.029 A 
ATOM     58  N   UNL A   1      44.402  25.840  28.764  1.00  0.00    -0.354 N 
ATOM     59  N   UNL A   1      44.951  28.494  29.861  1.00  0.00    -0.248 NA
ATOM     60  C   UNL A   1      46.444  30.071  30.725  1.00  0.00     0.031 C 
ATOM     61  C   UNL A   1      46.104  24.435  28.501  1.00  0.00     0.029 A 
ATOM     62  C   UNL A   1      45.772  25.710  28.927  1.00  0.00     0.049 A 
ATOM     63  H   UNL A   1      43.880  26.644  28.992  1.00  0.00     0.167 HD
ATOM     64  C   UNL A   1      46.233  27.965  29.847  1.00  0.00     0.074 A 
ATOM     65  C   UNL A   1      47.118  28.990  30.361  1.00  0.00     0.031 C 
ATOM     66  C   UNL A   1      46.640  26.736  29.443  1.00  0.00     0.031 A 
BRANCH  53  67
ATOM     67  C   UNL A   1      42.059  23.107  27.440  1.00  0.00    -0.014 A 
ATOM     68  C   UNL A   1      42.203  22.770  26.085  1.00  0.00     0.009 A 
ATOM     69  C   UNL A   1      41.543  22.150  28.328  1.00  0.00     0.009 A 
ATOM     70  C   UNL A   1      41.804  21.513  25.623  1.00  0.00     0.001 A 
ATOM     71  C   UNL A   1      41.169  20.886  27.867  1.00  0.00     0.001 A 
ATOM     72  C   UNL A   1      41.290  20.572  26.514  1.00  0.00     0.000 A 
ENDBRANCH  53  67
BRANCH  54  73
ATOM     73  C   UNL A   1      44.359  32.074  31.127  1.00  0.00    -0.014 A 
ATOM     74  C   UNL A   1      44.468  33.191  30.283  1.00  0.00     0.009 A 
ATOM     75  C   UNL A   1      44.572  32.238  32.503  1.00  0.00     0.009 A 
ATOM     76  C   UNL A   1      44.808  34.441  30.805  1.00  0.00     0.001 A 
ATOM     77  C   UNL A   1      44.886  33.494  33.026  1.00  0.00     0.001 A 
ATOM     78  C   UNL A   1      45.012  34.592  32.176  1.00  0.00     0.000 A 
ENDBRANCH  54  73
BRANCH  66  79
ATOM     79  C   UNL A   1      48.112  26.451  29.518  1.00  0.00    -0.014 A 
ATOM     80  C   UNL A   1      48.687  25.897  30.672  1.00  0.00     0.009 A 
ATOM     81  C   UNL A   1      48.930  26.728  28.412  1.00  0.00     0.009 A 
ATOM     82  C   UNL A   1      50.061  25.656  30.727  1.00  0.00     0.001 A 
ATOM     83  C   UNL A   1      50.298  26.462  28.462  1.00  0.00     0.001 A 
ATOM     84  C   UNL A   1      50.865  25.936  29.621  1.00  0.00     0.000 A 
ENDBRANCH  66  79
ENDBRANCH  40  41
ENDBRANCH  32  35
ENDBRANCH  30  31
ENDBRANCH  29  30
ENDBRANCH  28  29
ENDBRANCH   3  28
TORSDOF 16
ENDMDL
MODEL 3
REMARK VINA RESULT:     -11.1      3.068      7.674
REMARK SMILES O=C(CS[C@H](C(=O)Nc1ccc(C(F)(F)F)cc1)c1ccccc1)NCCCNC(=O)c1ccc(-c2c3nc(c(-c4ccccc4)c4ccc([nH]4)c(-c4ccccc4)c4nc(c(-c5ccccc5)c5ccc2[nH]5)C=C4)C=C3)cc1
REMARK SMILES IDX 1 1 2 2 25 3 3 5 4 6 5 7 19 8 20 9 24 10 21 11 23 12 22 13
REMARK SMILES IDX 6 14 7 15 8 16 9 18 10 19 18 20 11 21 17 22 12 23 13 24
REMARK SMILES IDX 14 25 15 26 16 27 26 28 27 29 28 30 29 31 30 32 31 34 32 35
REMARK SMILES IDX 33 36 79 37 34 38 78 39 35 40 36 41 37 42 72 43 38 44 77 45
REMARK SMILES IDX 71 46 73 47 39 48 76 49 70 50 69 51 40 53 62 54 47 55 61 56
REMARK SMILES IDX 48 57 51 58 60 59 74 60 49 61 50 62 59 64 75 65 52 66 41 67
REMARK SMILES IDX 42 68 46 69 43 70 45 71 44 72 63 73 64 74 68 75 65 76 67 77
REMARK SMILES IDX 66 78 53 79 54 80 58 81 55 82 57 83 56 84
REMARK H PARENT 25 4 8 17 29 33 73 52 51 63
REMARK Flexibility Score: inf
ROOT
ATOM      1  O   UNL A   1      33.316  20.709  25.448  1.00  0.00    -0.274 OA
ATOM      2  C   UNL A   1      33.561  21.505  24.543  1.00  0.00     0.230 C 
ATOM      3  N   UNL A   1      34.831  22.024  24.347  1.00  0.00    -0.355 N 
ATOM      4  H   UNL A   1      35.014  22.608  23.574  1.00  0.00     0.163 HD
ENDROOT
BRANCH   2   5
ATOM      5  C   UNL A   1      32.491  22.014  23.601  1.00  0.00     0.170 C 
BRANCH   5   6
ATOM      6  S   UNL A   1      33.130  23.176  22.332  1.00  0.00    -0.134 SA
BRANCH   6   7
ATOM      7  C   UNL A   1      32.149  24.757  22.509  1.00  0.00     0.166 C 
BRANCH   7   8
ATOM      8  C   UNL A   1      31.731  25.042  23.950  1.00  0.00    -0.026 A 
ATOM      9  C   UNL A   1      30.369  25.210  24.268  1.00  0.00     0.005 A 
ATOM     10  C   UNL A   1      32.640  25.158  25.009  1.00  0.00     0.005 A 
ATOM     11  C   UNL A   1      29.962  25.591  25.555  1.00  0.00     0.000 A 
ATOM     12  C   UNL A   1      32.243  25.540  26.293  1.00  0.00     0.000 A 
ATOM     13  C   UNL A   1      30.903  25.781  26.561  1.00  0.00     0.000 A 
ENDBRANCH   7   8
BRANCH   7  14
ATOM     14  C   UNL A   1      32.633  25.911  21.577  1.00  0.00     0.242 C 
ATOM     15  O   UNL A   1      33.150  25.713  20.470  1.00  0.00    -0.273 OA
ATOM     16  N   UNL A   1      32.241  27.212  21.777  1.00  0.00    -0.325 N 
ATOM     17  H   UNL A   1      31.834  27.642  20.990  1.00  0.00     0.169 HD
BRANCH  16  18
ATOM     18  C   UNL A   1      32.321  28.030  22.907  1.00  0.00     0.041 A 
ATOM     19  C   UNL A   1      31.155  28.649  23.364  1.00  0.00     0.027 A 
ATOM     20  C   UNL A   1      33.524  28.320  23.533  1.00  0.00     0.027 A 
ATOM     21  C   UNL A   1      31.179  29.433  24.523  1.00  0.00     0.015 A 
ATOM     22  C   UNL A   1      33.548  29.076  24.705  1.00  0.00     0.015 A 
ATOM     23  C   UNL A   1      32.374  29.618  25.232  1.00  0.00     0.056 A 
BRANCH  23  24
ATOM     24  C   UNL A   1      32.413  30.395  26.524  1.00  0.00     0.416 C 
ATOM     25  F   UNL A   1      31.487  31.390  26.561  1.00  0.00    -0.166 F 
ATOM     26  F   UNL A   1      32.169  29.613  27.613  1.00  0.00    -0.166 F 
ATOM     27  F   UNL A   1      33.616  30.986  26.761  1.00  0.00    -0.166 F 
ENDBRANCH  23  24
ENDBRANCH  16  18
ENDBRANCH   7  14
ENDBRANCH   6   7
ENDBRANCH   5   6
ENDBRANCH   2   5
BRANCH   3  28
ATOM     28  C   UNL A   1      35.891  21.701  25.288  1.00  0.00     0.117 C 
BRANCH  28  29
ATOM     29  C   UNL A   1      37.295  21.685  24.706  1.00  0.00     0.042 C 
BRANCH  29  30
ATOM     30  C   UNL A   1      38.433  21.599  25.715  1.00  0.00     0.118 C 
BRANCH  30  31
ATOM     31  N   UNL A   1      39.215  20.375  25.653  1.00  0.00    -0.352 N 
ATOM     32  C   UNL A   1      40.518  20.131  26.036  1.00  0.00     0.251 C 
ATOM     33  H   UNL A   1      38.739  19.597  25.279  1.00  0.00     0.163 HD
ATOM     34  O   UNL A   1      41.000  19.025  25.809  1.00  0.00    -0.269 OA
BRANCH  32  35
ATOM     35  C   UNL A   1      41.372  21.184  26.654  1.00  0.00     0.039 A 
ATOM     36  C   UNL A   1      41.967  22.121  25.799  1.00  0.00     0.014 A 
ATOM     37  C   UNL A   1      41.558  21.313  28.031  1.00  0.00     0.014 A 
ATOM     38  C   UNL A   1      42.585  23.258  26.323  1.00  0.00     0.010 A 
ATOM     39  C   UNL A   1      42.090  22.492  28.557  1.00  0.00     0.010 A 
ATOM     40  C   UNL A   1      42.556  23.501  27.705  1.00  0.00    -0.014 A 
BRANCH  40  41
ATOM     41  C   UNL A   1      42.860  24.853  28.243  1.00  0.00     0.031 A 
ATOM     42  C   UNL A   1      41.792  25.893  28.423  1.00  0.00     0.074 A 
ATOM     43  C   UNL A   1      44.149  25.169  28.488  1.00  0.00     0.049 A 
ATOM     44  N   UNL A   1      41.910  27.125  28.851  1.00  0.00    -0.248 NA
ATOM     45  C   UNL A   1      40.422  25.512  28.052  1.00  0.00     0.031 C 
ATOM     46  C   UNL A   1      45.294  24.276  28.283  1.00  0.00     0.029 A 
ATOM     47  N   UNL A   1      44.716  26.326  28.960  1.00  0.00    -0.354 N 
ATOM     48  C   UNL A   1      40.635  27.670  28.790  1.00  0.00     0.074 A 
ATOM     49  C   UNL A   1      39.766  26.648  28.246  1.00  0.00     0.031 C 
ATOM     50  C   UNL A   1      46.417  24.901  28.669  1.00  0.00     0.029 A 
ATOM     51  C   UNL A   1      46.080  26.249  29.107  1.00  0.00     0.049 A 
ATOM     52  H   UNL A   1      44.196  27.134  29.173  1.00  0.00     0.167 HD
ATOM     53  C   UNL A   1      40.223  28.905  29.166  1.00  0.00     0.031 A 
ATOM     54  C   UNL A   1      46.969  27.158  29.549  1.00  0.00     0.031 A 
ATOM     55  C   UNL A   1      41.084  29.924  29.709  1.00  0.00     0.049 A 
ATOM     56  C   UNL A   1      46.483  28.510  29.981  1.00  0.00     0.074 A 
ATOM     57  C   UNL A   1      40.746  31.187  30.166  1.00  0.00     0.029 A 
ATOM     58  N   UNL A   1      42.455  29.796  29.867  1.00  0.00    -0.354 N 
ATOM     59  N   UNL A   1      45.260  28.981  29.984  1.00  0.00    -0.248 NA
ATOM     60  C   UNL A   1      47.497  29.448  30.479  1.00  0.00     0.031 C 
ATOM     61  C   UNL A   1      41.919  31.837  30.567  1.00  0.00     0.029 A 
ATOM     62  C   UNL A   1      42.980  30.963  30.401  1.00  0.00     0.049 A 
ATOM     63  H   UNL A   1      42.979  28.995  29.636  1.00  0.00     0.167 HD
ATOM     64  C   UNL A   1      45.355  30.263  30.507  1.00  0.00     0.074 A 
ATOM     65  C   UNL A   1      46.751  30.488  30.823  1.00  0.00     0.031 C 
ATOM     66  C   UNL A   1      44.371  31.174  30.706  1.00  0.00     0.031 A 
BRANCH  53  67
ATOM     67  C   UNL A   1      38.764  29.224  28.995  1.00  0.00    -0.014 A 
ATOM     68  C   UNL A   1      38.259  29.659  27.759  1.00  0.00     0.009 A 
ATOM     69  C   UNL A   1      37.878  29.057  30.071  1.00  0.00     0.009 A 
ATOM     70  C   UNL A   1      36.901  29.955  27.615  1.00  0.00     0.001 A 
ATOM     71  C   UNL A   1      36.517  29.330  29.916  1.00  0.00     0.001 A 
ATOM     72  C   UNL A   1      36.032  29.788  28.693  1.00  0.00     0.000 A 
ENDBRANCH  53  67
BRANCH  54  73
ATOM     73  C   UNL A   1      48.410  26.807  29.634  1.00  0.00    -0.014 A 
ATOM     74  C   UNL A   1      49.274  27.104  28.569  1.00  0.00     0.009 A 
ATOM     75  C   UNL A   1      48.928  26.183  30.779  1.00  0.00     0.009 A 
ATOM     76  C   UNL A   1      50.626  26.761  28.640  1.00  0.00     0.001 A 
ATOM     77  C   UNL A   1      50.285  25.865  30.857  1.00  0.00     0.001 A 
ATOM     78  C   UNL A   1      51.131  26.146  29.785  1.00  0.00     0.000 A 
ENDBRANCH  54  73
BRANCH  66  79
ATOM     79  C   UNL A   1      44.773  32.483  31.321  1.00  0.00    -0.014 A 
ATOM     80  C   UNL A   1      44.936  32.615  32.708  1.00  0.00     0.009 A 
ATOM     81  C   UNL A   1      45.006  33.594  30.496  1.00  0.00     0.009 A 
ATOM     82  C   UNL A   1      45.294  33.846  33.261  1.00  0.00     0.001 A 
ATOM     83  C   UNL A   1      45.387  34.817  31.050  1.00  0.00     0.001 A 
ATOM     84  C   UNL A   1      45.522  34.944  32.432  1.00  0.00     0.000 A 
ENDBRANCH  66  79
ENDBRANCH  40  41
ENDBRANCH  32  35
ENDBRANCH  30  31
ENDBRANCH  29  30
ENDBRANCH  28  29
ENDBRANCH   3  28
TORSDOF 16
ENDMDL
