MODEL 1
REMARK VINA RESULT:     -11.9      0.000      0.000
REMARK SMILES CCc1cc2c(=O)c(-c3nc(C)cs3)coc2cc1O[C@H](C)C(=O)NCCCNC(=O)c1ccc(-c2c3nc(c(-c4ccccc4)c4ccc([nH]4)c(-c4ccccc4)c4nc(c(-c5ccccc5)c5ccc2[nH]5)C=C4)C=C3)cc1
REMARK SMILES IDX 26 1 25 2 23 3 24 4 21 6 22 7 20 8 19 9 3 10 4 11 5 12 18 13
REMARK SMILES IDX 6 14 17 15 7 16 8 17 16 18 15 19 2 20 1 21 9 22 10 23 14 24
REMARK SMILES IDX 11 25 13 26 12 27 27 28 28 29 29 30 30 31 31 33 32 34 33 35
REMARK SMILES IDX 79 36 34 37 78 38 35 39 36 40 37 41 72 42 38 43 77 44 71 45
REMARK SMILES IDX 73 46 39 47 76 48 70 49 69 50 40 52 62 53 47 54 61 55 48 56
REMARK SMILES IDX 51 57 60 58 74 59 49 60 50 61 59 63 75 64 52 65 41 66 42 67
REMARK SMILES IDX 46 68 43 69 45 70 44 71 63 72 64 73 68 74 65 75 67 76 66 77
REMARK SMILES IDX 53 78 54 79 58 80 55 81 57 82 56 83
REMARK H PARENT 25 5 29 32 73 51 51 62
REMARK Flexibility Score: inf
ROOT
ATOM      1  C   UNL A   1      36.166  20.186  25.073  1.00  0.00     0.118 C 
ENDROOT
BRANCH   1   2
ATOM      2  N   UNL A   1      35.066  19.246  25.085  1.00  0.00    -0.353 N 
ATOM      3  C   UNL A   1      33.726  19.482  25.048  1.00  0.00     0.260 C 
ATOM      4  O   UNL A   1      32.981  18.495  25.060  1.00  0.00    -0.271 OA
ATOM      5  H   UNL A   1      35.325  18.297  25.125  1.00  0.00     0.163 HD
BRANCH   3   6
ATOM      6  C   UNL A   1      33.143  20.906  25.046  1.00  0.00     0.258 C 
ATOM      7  C   UNL A   1      33.458  21.622  26.356  1.00  0.00     0.064 C 
BRANCH   6   8
ATOM      8  O   UNL A   1      33.608  21.673  23.932  1.00  0.00    -0.480 OA
BRANCH   8   9
ATOM      9  C   UNL A   1      33.200  22.972  23.768  1.00  0.00     0.127 A 
ATOM     10  C   UNL A   1      34.195  23.956  23.573  1.00  0.00    -0.005 A 
ATOM     11  C   UNL A   1      33.788  25.290  23.341  1.00  0.00     0.023 A 
ATOM     12  C   UNL A   1      32.441  25.647  23.321  1.00  0.00     0.066 A 
ATOM     13  C   UNL A   1      31.850  23.362  23.789  1.00  0.00     0.094 A 
ATOM     14  C   UNL A   1      32.034  27.038  23.070  1.00  0.00     0.202 A 
ATOM     15  C   UNL A   1      31.475  24.685  23.555  1.00  0.00     0.141 A 
ATOM     16  O   UNL A   1      32.879  27.908  22.878  1.00  0.00    -0.288 OA
ATOM     17  C   UNL A   1      30.578  27.303  23.095  1.00  0.00     0.094 A 
ATOM     18  O   UNL A   1      30.133  24.968  23.570  1.00  0.00    -0.463 OA
ATOM     19  C   UNL A   1      29.759  26.273  23.354  1.00  0.00     0.211 A 
BRANCH  10  20
ATOM     20  C   UNL A   1      35.700  23.771  23.570  1.00  0.00     0.036 C 
ATOM     21  C   UNL A   1      36.469  23.692  24.871  1.00  0.00     0.009 C 
ENDBRANCH  10  20
BRANCH  17  22
ATOM     22  C   UNL A   1      30.041  28.607  22.938  1.00  0.00     0.130 A 
ATOM     23  N   UNL A   1      29.373  29.036  21.879  1.00  0.00    -0.241 NA
ATOM     24  S   UNL A   1      30.302  29.828  24.140  1.00  0.00    -0.122 S 
ATOM     25  C   UNL A   1      28.960  30.345  22.049  1.00  0.00     0.049 A 
ATOM     26  C   UNL A   1      29.388  30.939  23.217  1.00  0.00     0.090 A 
ATOM     27  C   UNL A   1      28.117  30.957  20.992  1.00  0.00     0.067 C 
ENDBRANCH  17  22
ENDBRANCH   8   9
ENDBRANCH   6   8
ENDBRANCH   3   6
ENDBRANCH   1   2
BRANCH   1  28
ATOM     28  C   UNL A   1      37.502  19.520  24.793  1.00  0.00     0.042 C 
BRANCH  28  29
ATOM     29  C   UNL A   1      38.682  20.179  25.490  1.00  0.00     0.118 C 
BRANCH  29  30
ATOM     30  N   UNL A   1      39.820  19.286  25.647  1.00  0.00    -0.352 N 
ATOM     31  C   UNL A   1      41.100  19.551  26.059  1.00  0.00     0.251 C 
ATOM     32  H   UNL A   1      39.642  18.344  25.423  1.00  0.00     0.163 HD
ATOM     33  O   UNL A   1      41.956  18.671  25.972  1.00  0.00    -0.269 OA
BRANCH  31  34
ATOM     34  C   UNL A   1      41.470  20.880  26.592  1.00  0.00     0.039 A 
ATOM     35  C   UNL A   1      41.267  21.135  27.952  1.00  0.00     0.014 A 
ATOM     36  C   UNL A   1      41.963  21.891  25.762  1.00  0.00     0.014 A 
ATOM     37  C   UNL A   1      41.587  22.387  28.482  1.00  0.00     0.010 A 
ATOM     38  C   UNL A   1      42.364  23.107  26.306  1.00  0.00     0.010 A 
ATOM     39  C   UNL A   1      42.152  23.378  27.665  1.00  0.00    -0.014 A 
BRANCH  39  40
ATOM     40  C   UNL A   1      42.459  24.727  28.199  1.00  0.00     0.031 A 
ATOM     41  C   UNL A   1      43.869  25.069  28.601  1.00  0.00     0.074 A 
ATOM     42  C   UNL A   1      41.473  25.629  28.359  1.00  0.00     0.049 A 
ATOM     43  N   UNL A   1      44.334  26.178  29.118  1.00  0.00    -0.248 NA
ATOM     44  C   UNL A   1      44.884  24.016  28.427  1.00  0.00     0.031 C 
ATOM     45  C   UNL A   1      40.059  25.409  28.048  1.00  0.00     0.029 A 
ATOM     46  N   UNL A   1      41.515  26.919  28.824  1.00  0.00    -0.354 N 
ATOM     47  C   UNL A   1      45.683  25.945  29.355  1.00  0.00     0.074 A 
ATOM     48  C   UNL A   1      45.952  24.577  28.972  1.00  0.00     0.031 C 
ATOM     49  C   UNL A   1      39.375  26.536  28.302  1.00  0.00     0.029 A 
ATOM     50  C   UNL A   1      40.293  27.547  28.815  1.00  0.00     0.049 A 
ATOM     51  H   UNL A   1      42.342  27.353  29.136  1.00  0.00     0.167 HD
ATOM     52  C   UNL A   1      46.623  26.797  29.828  1.00  0.00     0.031 A 
ATOM     53  C   UNL A   1      39.957  28.800  29.171  1.00  0.00     0.031 A 
ATOM     54  C   UNL A   1      46.369  28.168  30.176  1.00  0.00     0.049 A 
ATOM     55  C   UNL A   1      41.025  29.741  29.650  1.00  0.00     0.074 A 
ATOM     56  C   UNL A   1      47.263  29.128  30.616  1.00  0.00     0.029 A 
ATOM     57  N   UNL A   1      45.125  28.775  30.112  1.00  0.00    -0.354 N 
ATOM     58  N   UNL A   1      42.307  29.522  29.817  1.00  0.00    -0.248 NA
ATOM     59  C   UNL A   1      40.601  31.113  29.968  1.00  0.00     0.031 C 
ATOM     60  C   UNL A   1      46.554  30.313  30.841  1.00  0.00     0.029 A 
ATOM     61  C   UNL A   1      45.227  30.098  30.505  1.00  0.00     0.049 A 
ATOM     62  H   UNL A   1      44.293  28.331  29.828  1.00  0.00     0.167 HD
ATOM     63  C   UNL A   1      42.848  30.733  30.227  1.00  0.00     0.074 A 
ATOM     64  C   UNL A   1      41.756  31.686  30.274  1.00  0.00     0.031 C 
ATOM     65  C   UNL A   1      44.133  31.032  30.533  1.00  0.00     0.031 A 
BRANCH  52  66
ATOM     66  C   UNL A   1      48.018  26.261  29.990  1.00  0.00    -0.014 A 
ATOM     67  C   UNL A   1      48.910  26.217  28.905  1.00  0.00     0.009 A 
ATOM     68  C   UNL A   1      48.450  25.803  31.243  1.00  0.00     0.009 A 
ATOM     69  C   UNL A   1      50.192  25.689  29.065  1.00  0.00     0.001 A 
ATOM     70  C   UNL A   1      49.742  25.302  31.407  1.00  0.00     0.001 A 
ATOM     71  C   UNL A   1      50.608  25.235  30.316  1.00  0.00     0.000 A 
ENDBRANCH  52  66
BRANCH  53  72
ATOM     72  C   UNL A   1      38.550  29.255  29.040  1.00  0.00    -0.014 A 
ATOM     73  C   UNL A   1      37.685  29.207  30.144  1.00  0.00     0.009 A 
ATOM     74  C   UNL A   1      38.064  29.735  27.815  1.00  0.00     0.009 A 
ATOM     75  C   UNL A   1      36.353  29.607  30.016  1.00  0.00     0.001 A 
ATOM     76  C   UNL A   1      36.737  30.156  27.697  1.00  0.00     0.001 A 
ATOM     77  C   UNL A   1      35.882  30.082  28.795  1.00  0.00     0.000 A 
ENDBRANCH  53  72
BRANCH  65  78
ATOM     78  C   UNL A   1      44.437  32.456  30.897  1.00  0.00    -0.014 A 
ATOM     79  C   UNL A   1      44.408  32.890  32.230  1.00  0.00     0.009 A 
ATOM     80  C   UNL A   1      44.790  33.367  29.889  1.00  0.00     0.009 A 
ATOM     81  C   UNL A   1      44.694  34.220  32.544  1.00  0.00     0.001 A 
ATOM     82  C   UNL A   1      45.098  34.689  30.208  1.00  0.00     0.001 A 
ATOM     83  C   UNL A   1      45.041  35.117  31.533  1.00  0.00     0.000 A 
ENDBRANCH  65  78
ENDBRANCH  39  40
ENDBRANCH  31  34
ENDBRANCH  29  30
ENDBRANCH  28  29
ENDBRANCH   1  28
TORSDOF 14
ENDMDL
MODEL 2
REMARK VINA RESULT:     -11.8      4.852      8.882
REMARK SMILES CCc1cc2c(=O)c(-c3nc(C)cs3)coc2cc1O[C@H](C)C(=O)NCCCNC(=O)c1ccc(-c2c3nc(c(-c4ccccc4)c4ccc([nH]4)c(-c4ccccc4)c4nc(c(-c5ccccc5)c5ccc2[nH]5)C=C4)C=C3)cc1
REMARK SMILES IDX 26 1 25 2 23 3 24 4 21 6 22 7 20 8 19 9 3 10 4 11 5 12 18 13
REMARK SMILES IDX 6 14 17 15 7 16 8 17 16 18 15 19 2 20 1 21 9 22 10 23 14 24
REMARK SMILES IDX 11 25 13 26 12 27 27 28 28 29 29 30 30 31 31 33 32 34 33 35
REMARK SMILES IDX 79 36 34 37 78 38 35 39 36 40 37 41 72 42 38 43 77 44 71 45
REMARK SMILES IDX 73 46 39 47 76 48 70 49 69 50 40 52 62 53 47 54 61 55 48 56
REMARK SMILES IDX 51 57 60 58 74 59 49 60 50 61 59 63 75 64 52 65 41 66 42 67
REMARK SMILES IDX 46 68 43 69 45 70 44 71 63 72 64 73 68 74 65 75 67 76 66 77
REMARK SMILES IDX 53 78 54 79 58 80 55 81 57 82 56 83
REMARK H PARENT 25 5 29 32 73 51 51 62
REMARK Flexibility Score: inf
ROOT
ATOM      1  C   UNL A   1      42.771  22.509  26.155  1.00  0.00     0.118 C 
ENDROOT
BRANCH   1   2
ATOM      2  N   UNL A   1      43.529  22.431  24.925  1.00  0.00    -0.353 N 
ATOM      3  C   UNL A   1      44.633  23.130  24.544  1.00  0.00     0.260 C 
ATOM      4  O   UNL A   1      45.106  22.871  23.432  1.00  0.00    -0.271 OA
ATOM      5  H   UNL A   1      43.198  21.777  24.268  1.00  0.00     0.163 HD
BRANCH   3   6
ATOM      6  C   UNL A   1      45.248  24.236  25.420  1.00  0.00     0.258 C 
ATOM      7  C   UNL A   1      46.213  23.643  26.442  1.00  0.00     0.064 C 
BRANCH   6   8
ATOM      8  O   UNL A   1      45.903  25.238  24.637  1.00  0.00    -0.480 OA
BRANCH   8   9
ATOM      9  C   UNL A   1      46.042  26.513  25.121  1.00  0.00     0.127 A 
ATOM     10  C   UNL A   1      47.342  27.064  25.165  1.00  0.00    -0.005 A 
ATOM     11  C   UNL A   1      47.495  28.400  25.604  1.00  0.00     0.023 A 
ATOM     12  C   UNL A   1      46.401  29.163  26.005  1.00  0.00     0.066 A 
ATOM     13  C   UNL A   1      44.958  27.286  25.574  1.00  0.00     0.094 A 
ATOM     14  C   UNL A   1      46.575  30.554  26.452  1.00  0.00     0.202 A 
ATOM     15  C   UNL A   1      45.136  28.602  26.000  1.00  0.00     0.141 A 
ATOM     16  O   UNL A   1      47.693  31.062  26.480  1.00  0.00    -0.288 OA
ATOM     17  C   UNL A   1      45.345  31.259  26.877  1.00  0.00     0.094 A 
ATOM     18  O   UNL A   1      44.017  29.287  26.401  1.00  0.00    -0.463 OA
ATOM     19  C   UNL A   1      44.189  30.580  26.835  1.00  0.00     0.211 A 
BRANCH  10  20
ATOM     20  C   UNL A   1      48.650  26.397  24.782  1.00  0.00     0.036 C 
ATOM     21  C   UNL A   1      49.577  25.854  25.848  1.00  0.00     0.009 C 
ENDBRANCH  10  20
BRANCH  17  22
ATOM     22  C   UNL A   1      45.368  32.579  27.396  1.00  0.00     0.130 A 
ATOM     23  N   UNL A   1      46.192  33.016  28.334  1.00  0.00    -0.241 NA
ATOM     24  S   UNL A   1      44.208  33.759  26.881  1.00  0.00    -0.122 S 
ATOM     25  C   UNL A   1      45.979  34.357  28.598  1.00  0.00     0.049 A 
ATOM     26  C   UNL A   1      44.928  34.921  27.907  1.00  0.00     0.090 A 
ATOM     27  C   UNL A   1      46.880  35.035  29.563  1.00  0.00     0.067 C 
ENDBRANCH  17  22
ENDBRANCH   8   9
ENDBRANCH   6   8
ENDBRANCH   3   6
ENDBRANCH   1   2
BRANCH   1  28
ATOM     28  C   UNL A   1      42.075  21.202  26.497  1.00  0.00     0.042 C 
BRANCH  28  29
ATOM     29  C   UNL A   1      40.745  21.377  27.215  1.00  0.00     0.118 C 
BRANCH  29  30
ATOM     30  N   UNL A   1      39.635  21.611  26.304  1.00  0.00    -0.352 N 
ATOM     31  C   UNL A   1      38.885  22.740  26.100  1.00  0.00     0.251 C 
ATOM     32  H   UNL A   1      39.384  20.839  25.749  1.00  0.00     0.163 HD
ATOM     33  O   UNL A   1      37.885  22.678  25.387  1.00  0.00    -0.269 OA
BRANCH  31  34
ATOM     34  C   UNL A   1      39.252  24.025  26.734  1.00  0.00     0.039 A 
ATOM     35  C   UNL A   1      39.989  24.952  25.988  1.00  0.00     0.014 A 
ATOM     36  C   UNL A   1      38.926  24.305  28.063  1.00  0.00     0.014 A 
ATOM     37  C   UNL A   1      40.368  26.166  26.565  1.00  0.00     0.010 A 
ATOM     38  C   UNL A   1      39.228  25.550  28.609  1.00  0.00     0.010 A 
ATOM     39  C   UNL A   1      39.978  26.480  27.875  1.00  0.00    -0.014 A 
BRANCH  39  40
ATOM     40  C   UNL A   1      40.407  27.745  28.520  1.00  0.00     0.031 A 
ATOM     41  C   UNL A   1      41.832  27.905  28.978  1.00  0.00     0.074 A 
ATOM     42  C   UNL A   1      39.515  28.731  28.730  1.00  0.00     0.049 A 
ATOM     43  N   UNL A   1      42.394  28.917  29.591  1.00  0.00    -0.248 NA
ATOM     44  C   UNL A   1      42.737  26.768  28.744  1.00  0.00     0.031 C 
ATOM     45  C   UNL A   1      38.096  28.685  28.372  1.00  0.00     0.029 A 
ATOM     46  N   UNL A   1      39.676  29.970  29.296  1.00  0.00    -0.354 N 
ATOM     47  C   UNL A   1      43.703  28.525  29.838  1.00  0.00     0.074 A 
ATOM     48  C   UNL A   1      43.841  27.169  29.354  1.00  0.00     0.031 C 
ATOM     49  C   UNL A   1      37.524  29.855  28.699  1.00  0.00     0.029 A 
ATOM     50  C   UNL A   1      38.526  30.722  29.310  1.00  0.00     0.049 A 
ATOM     51  H   UNL A   1      40.534  30.289  29.658  1.00  0.00     0.167 HD
ATOM     52  C   UNL A   1      44.712  29.235  30.396  1.00  0.00     0.031 A 
ATOM     53  C   UNL A   1      38.311  31.973  29.756  1.00  0.00     0.031 A 
ATOM     54  C   UNL A   1      44.590  30.594  30.846  1.00  0.00     0.049 A 
ATOM     55  C   UNL A   1      39.455  32.757  30.331  1.00  0.00     0.074 A 
ATOM     56  C   UNL A   1      45.566  31.419  31.379  1.00  0.00     0.029 A 
ATOM     57  N   UNL A   1      43.419  31.332  30.803  1.00  0.00    -0.354 N 
ATOM     58  N   UNL A   1      40.702  32.392  30.508  1.00  0.00    -0.248 NA
ATOM     59  C   UNL A   1      39.166  34.137  30.747  1.00  0.00     0.031 C 
ATOM     60  C   UNL A   1      44.976  32.651  31.682  1.00  0.00     0.029 A 
ATOM     61  C   UNL A   1      43.645  32.603  31.301  1.00  0.00     0.049 A 
ATOM     62  H   UNL A   1      42.554  31.001  30.468  1.00  0.00     0.167 HD
ATOM     63  C   UNL A   1      41.353  33.505  31.023  1.00  0.00     0.074 A 
ATOM     64  C   UNL A   1      40.365  34.561  31.122  1.00  0.00     0.031 C 
ATOM     65  C   UNL A   1      42.653  33.643  31.380  1.00  0.00     0.031 A 
BRANCH  52  66
ATOM     66  C   UNL A   1      46.038  28.544  30.546  1.00  0.00    -0.014 A 
ATOM     67  C   UNL A   1      46.364  27.843  31.719  1.00  0.00     0.009 A 
ATOM     68  C   UNL A   1      46.970  28.585  29.498  1.00  0.00     0.009 A 
ATOM     69  C   UNL A   1      47.611  27.230  31.853  1.00  0.00     0.001 A 
ATOM     70  C   UNL A   1      48.206  27.948  29.625  1.00  0.00     0.001 A 
ATOM     71  C   UNL A   1      48.529  27.281  30.805  1.00  0.00     0.000 A 
ENDBRANCH  52  66
BRANCH  53  72
ATOM     72  C   UNL A   1      36.963  32.582  29.631  1.00  0.00    -0.014 A 
ATOM     73  C   UNL A   1      36.035  32.469  30.678  1.00  0.00     0.009 A 
ATOM     74  C   UNL A   1      36.595  33.275  28.468  1.00  0.00     0.009 A 
ATOM     75  C   UNL A   1      34.757  33.015  30.552  1.00  0.00     0.001 A 
ATOM     76  C   UNL A   1      35.323  33.840  28.355  1.00  0.00     0.001 A 
ATOM     77  C   UNL A   1      34.403  33.702  29.392  1.00  0.00     0.000 A 
ENDBRANCH  53  72
BRANCH  65  78
ATOM     78  C   UNL A   1      43.091  34.995  31.862  1.00  0.00    -0.014 A 
ATOM     79  C   UNL A   1      43.081  35.321  33.225  1.00  0.00     0.009 A 
ATOM     80  C   UNL A   1      43.551  35.943  30.934  1.00  0.00     0.009 A 
ATOM     81  C   UNL A   1      43.493  36.586  33.649  1.00  0.00     0.001 A 
ATOM     82  C   UNL A   1      43.985  37.197  31.363  1.00  0.00     0.001 A 
ATOM     83  C   UNL A   1      43.947  37.521  32.718  1.00  0.00     0.000 A 
ENDBRANCH  65  78
ENDBRANCH  39  40
ENDBRANCH  31  34
ENDBRANCH  29  30
ENDBRANCH  28  29
ENDBRANCH   1  28
TORSDOF 14
ENDMDL
MODEL 3
REMARK VINA RESULT:     -11.7      0.428      5.760
REMARK SMILES CCc1cc2c(=O)c(-c3nc(C)cs3)coc2cc1O[C@H](C)C(=O)NCCCNC(=O)c1ccc(-c2c3nc(c(-c4ccccc4)c4ccc([nH]4)c(-c4ccccc4)c4nc(c(-c5ccccc5)c5ccc2[nH]5)C=C4)C=C3)cc1
REMARK SMILES IDX 26 1 25 2 23 3 24 4 21 6 22 7 20 8 19 9 3 10 4 11 5 12 18 13
REMARK SMILES IDX 6 14 17 15 7 16 8 17 16 18 15 19 2 20 1 21 9 22 10 23 14 24
REMARK SMILES IDX 11 25 13 26 12 27 27 28 28 29 29 30 30 31 31 33 32 34 33 35
REMARK SMILES IDX 79 36 34 37 78 38 35 39 36 40 37 41 72 42 38 43 77 44 71 45
REMARK SMILES IDX 73 46 39 47 76 48 70 49 69 50 40 52 62 53 47 54 61 55 48 56
REMARK SMILES IDX 51 57 60 58 74 59 49 60 50 61 59 63 75 64 52 65 41 66 42 67
REMARK SMILES IDX 46 68 43 69 45 70 44 71 63 72 64 73 68 74 65 75 67 76 66 77
REMARK SMILES IDX 53 78 54 79 58 80 55 81 57 82 56 83
REMARK H PARENT 25 5 29 32 73 51 51 62
REMARK Flexibility Score: inf
ROOT
ATOM      1  C   UNL A   1      36.364  20.104  24.982  1.00  0.00     0.118 C 
ENDROOT
BRANCH   1   2
ATOM      2  N   UNL A   1      35.317  19.106  25.007  1.00  0.00    -0.353 N 
ATOM      3  C   UNL A   1      33.966  19.268  24.973  1.00  0.00     0.260 C 
ATOM      4  O   UNL A   1      33.276  18.244  24.997  1.00  0.00    -0.271 OA
ATOM      5  H   UNL A   1      35.627  18.173  25.056  1.00  0.00     0.163 HD
BRANCH   3   6
ATOM      6  C   UNL A   1      33.307  20.659  24.958  1.00  0.00     0.258 C 
ATOM      7  C   UNL A   1      33.703  21.459  26.195  1.00  0.00     0.064 C 
BRANCH   6   8
ATOM      8  O   UNL A   1      33.623  21.389  23.768  1.00  0.00    -0.480 OA
BRANCH   8   9
ATOM      9  C   UNL A   1      33.235  22.697  23.636  1.00  0.00     0.127 A 
ATOM     10  C   UNL A   1      34.242  23.667  23.435  1.00  0.00    -0.005 A 
ATOM     11  C   UNL A   1      33.854  25.012  23.235  1.00  0.00     0.023 A 
ATOM     12  C   UNL A   1      32.514  25.392  23.252  1.00  0.00     0.066 A 
ATOM     13  C   UNL A   1      31.892  23.110  23.694  1.00  0.00     0.094 A 
ATOM     14  C   UNL A   1      32.126  26.795  23.034  1.00  0.00     0.202 A 
ATOM     15  C   UNL A   1      31.536  24.443  23.491  1.00  0.00     0.141 A 
ATOM     16  O   UNL A   1      32.982  27.653  22.838  1.00  0.00    -0.288 OA
ATOM     17  C   UNL A   1      30.676  27.084  23.096  1.00  0.00     0.094 A 
ATOM     18  O   UNL A   1      30.199  24.750  23.542  1.00  0.00    -0.463 OA
ATOM     19  C   UNL A   1      29.844  26.065  23.356  1.00  0.00     0.211 A 
BRANCH  10  20
ATOM     20  C   UNL A   1      35.743  23.455  23.394  1.00  0.00     0.036 C 
ATOM     21  C   UNL A   1      36.579  23.630  24.643  1.00  0.00     0.009 C 
ENDBRANCH  10  20
BRANCH  17  22
ATOM     22  C   UNL A   1      30.159  28.401  22.974  1.00  0.00     0.130 A 
ATOM     23  N   UNL A   1      29.499  28.868  21.927  1.00  0.00    -0.241 NA
ATOM     24  S   UNL A   1      30.439  29.585  24.208  1.00  0.00    -0.122 S 
ATOM     25  C   UNL A   1      29.105  30.178  22.131  1.00  0.00     0.049 A 
ATOM     26  C   UNL A   1      29.542  30.734  23.315  1.00  0.00     0.090 A 
ATOM     27  C   UNL A   1      28.272  30.830  21.091  1.00  0.00     0.067 C 
ENDBRANCH  17  22
ENDBRANCH   8   9
ENDBRANCH   6   8
ENDBRANCH   3   6
ENDBRANCH   1   2
BRANCH   1  28
ATOM     28  C   UNL A   1      37.741  19.501  24.763  1.00  0.00     0.042 C 
BRANCH  28  29
ATOM     29  C   UNL A   1      38.820  20.072  25.672  1.00  0.00     0.118 C 
BRANCH  29  30
ATOM     30  N   UNL A   1      40.004  19.230  25.746  1.00  0.00    -0.352 N 
ATOM     31  C   UNL A   1      41.293  19.547  26.089  1.00  0.00     0.251 C 
ATOM     32  H   UNL A   1      39.857  18.285  25.513  1.00  0.00     0.163 HD
ATOM     33  O   UNL A   1      42.181  18.710  25.936  1.00  0.00    -0.269 OA
BRANCH  31  34
ATOM     34  C   UNL A   1      41.632  20.883  26.627  1.00  0.00     0.039 A 
ATOM     35  C   UNL A   1      41.946  21.906  25.727  1.00  0.00     0.014 A 
ATOM     36  C   UNL A   1      41.694  21.124  28.002  1.00  0.00     0.014 A 
ATOM     37  C   UNL A   1      42.290  23.173  26.204  1.00  0.00     0.010 A 
ATOM     38  C   UNL A   1      41.950  22.407  28.475  1.00  0.00     0.010 A 
ATOM     39  C   UNL A   1      42.280  23.437  27.582  1.00  0.00    -0.014 A 
BRANCH  39  40
ATOM     40  C   UNL A   1      42.684  24.762  28.111  1.00  0.00     0.031 A 
ATOM     41  C   UNL A   1      41.643  25.827  28.334  1.00  0.00     0.074 A 
ATOM     42  C   UNL A   1      43.982  25.025  28.354  1.00  0.00     0.049 A 
ATOM     43  N   UNL A   1      41.796  27.056  28.757  1.00  0.00    -0.248 NA
ATOM     44  C   UNL A   1      40.250  25.473  28.012  1.00  0.00     0.031 C 
ATOM     45  C   UNL A   1      45.092  24.095  28.140  1.00  0.00     0.029 A 
ATOM     46  N   UNL A   1      44.583  26.157  28.839  1.00  0.00    -0.354 N 
ATOM     47  C   UNL A   1      40.530  27.626  28.723  1.00  0.00     0.074 A 
ATOM     48  C   UNL A   1      39.628  26.626  28.194  1.00  0.00     0.031 C 
ATOM     49  C   UNL A   1      46.237  24.685  28.522  1.00  0.00     0.029 A 
ATOM     50  C   UNL A   1      45.944  26.039  28.983  1.00  0.00     0.049 A 
ATOM     51  H   UNL A   1      44.087  26.978  29.063  1.00  0.00     0.167 HD
ATOM     52  C   UNL A   1      40.142  28.862  29.117  1.00  0.00     0.031 A 
ATOM     53  C   UNL A   1      46.851  26.920  29.444  1.00  0.00     0.031 A 
ATOM     54  C   UNL A   1      41.028  29.845  29.676  1.00  0.00     0.049 A 
ATOM     55  C   UNL A   1      46.391  28.269  29.918  1.00  0.00     0.074 A 
ATOM     56  C   UNL A   1      40.725  31.109  30.154  1.00  0.00     0.029 A 
ATOM     57  N   UNL A   1      42.391  29.668  29.843  1.00  0.00    -0.354 N 
ATOM     58  N   UNL A   1      45.181  28.773  29.930  1.00  0.00    -0.248 NA
ATOM     59  C   UNL A   1      47.423  29.163  30.463  1.00  0.00     0.031 C 
ATOM     60  C   UNL A   1      41.913  31.706  30.588  1.00  0.00     0.029 A 
ATOM     61  C   UNL A   1      42.946  30.799  30.415  1.00  0.00     0.049 A 
ATOM     62  H   UNL A   1      42.891  28.858  29.592  1.00  0.00     0.167 HD
ATOM     63  C   UNL A   1      45.299  30.027  30.513  1.00  0.00     0.074 A 
ATOM     64  C   UNL A   1      46.698  30.204  30.850  1.00  0.00     0.031 C 
ATOM     65  C   UNL A   1      44.337  30.950  30.753  1.00  0.00     0.031 A 
BRANCH  52  66
ATOM     66  C   UNL A   1      38.689  29.211  28.956  1.00  0.00    -0.014 A 
ATOM     67  C   UNL A   1      38.188  29.687  27.732  1.00  0.00     0.009 A 
ATOM     68  C   UNL A   1      37.808  29.051  30.035  1.00  0.00     0.009 A 
ATOM     69  C   UNL A   1      36.842  30.034  27.607  1.00  0.00     0.001 A 
ATOM     70  C   UNL A   1      36.456  29.373  29.898  1.00  0.00     0.001 A 
ATOM     71  C   UNL A   1      35.977  29.874  28.689  1.00  0.00     0.000 A 
ENDBRANCH  52  66
BRANCH  53  72
ATOM     72  C   UNL A   1      48.282  26.535  29.528  1.00  0.00    -0.014 A 
ATOM     73  C   UNL A   1      48.758  25.816  30.635  1.00  0.00     0.009 A 
ATOM     74  C   UNL A   1      49.179  26.887  28.508  1.00  0.00     0.009 A 
ATOM     75  C   UNL A   1      50.109  25.478  30.731  1.00  0.00     0.001 A 
ATOM     76  C   UNL A   1      50.526  26.526  28.596  1.00  0.00     0.001 A 
ATOM     77  C   UNL A   1      50.991  25.831  29.711  1.00  0.00     0.000 A 
ENDBRANCH  53  72
BRANCH  65  78
ATOM     78  C   UNL A   1      44.755  32.209  31.454  1.00  0.00    -0.014 A 
ATOM     79  C   UNL A   1      44.718  32.312  32.852  1.00  0.00     0.009 A 
ATOM     80  C   UNL A   1      45.224  33.297  30.700  1.00  0.00     0.009 A 
ATOM     81  C   UNL A   1      45.112  33.494  33.481  1.00  0.00     0.001 A 
ATOM     82  C   UNL A   1      45.639  34.469  31.333  1.00  0.00     0.001 A 
ATOM     83  C   UNL A   1      45.575  34.570  32.722  1.00  0.00     0.000 A 
ENDBRANCH  65  78
ENDBRANCH  39  40
ENDBRANCH  31  34
ENDBRANCH  29  30
ENDBRANCH  28  29
ENDBRANCH   1  28
TORSDOF 14
ENDMDL
