MODEL 1
REMARK VINA RESULT:     -11.0      0.000      0.000
REMARK SMILES C[C@H](C(=O)NCCCNC(=O)c1ccc(-c2c3nc(c(-c4ccccc4)c4ccc([nH]4)c(-c4ccccc4)c4nc(c(-c5ccccc5)c5ccc2[nH]5)C=C4)C=C3)cc1)c1ccc(-c2ccccc2)c(F)c1
REMARK SMILES IDX 7 1 6 2 5 3 3 4 4 5 2 7 1 8 60 9 61 10 72 11 62 12 70 13
REMARK SMILES IDX 63 14 71 15 64 16 65 17 69 18 66 19 68 20 67 21 8 22 9 23
REMARK SMILES IDX 10 24 11 26 12 27 13 28 59 29 14 30 58 31 15 32 16 33 17 34
REMARK SMILES IDX 52 35 18 36 57 37 51 38 53 39 19 40 56 41 50 42 49 43 20 45
REMARK SMILES IDX 42 46 27 47 41 48 28 49 31 50 40 51 54 52 29 53 30 54 39 56
REMARK SMILES IDX 55 57 32 58 21 59 22 60 26 61 23 62 25 63 24 64 43 65 44 66
REMARK SMILES IDX 48 67 45 68 47 69 46 70 33 71 34 72 38 73 35 74 37 75 36 76
REMARK H PARENT 5 6 9 25 53 44 31 55
REMARK Flexibility Score: inf
ROOT
ATOM      1  C   UNL A   1      33.546  28.796  25.606  1.00  0.00     0.042 C 
ENDROOT
BRANCH   1   2
ATOM      2  C   UNL A   1      32.399  29.534  24.944  1.00  0.00     0.117 C 
BRANCH   2   3
ATOM      3  N   UNL A   1      31.961  28.984  23.674  1.00  0.00    -0.356 N 
ATOM      4  C   UNL A   1      31.150  27.927  23.389  1.00  0.00     0.227 C 
ATOM      5  O   UNL A   1      30.721  27.879  22.228  1.00  0.00    -0.274 OA
ATOM      6  H   UNL A   1      32.310  29.456  22.883  1.00  0.00     0.163 HD
BRANCH   4   7
ATOM      7  C   UNL A   1      30.883  26.755  24.342  1.00  0.00     0.105 C 
ATOM      8  C   UNL A   1      29.544  26.140  23.895  1.00  0.00     0.023 C 
BRANCH   7   9
ATOM      9  C   UNL A   1      31.982  25.725  24.577  1.00  0.00    -0.033 A 
ATOM     10  C   UNL A   1      32.349  25.285  25.853  1.00  0.00     0.005 A 
ATOM     11  C   UNL A   1      32.671  25.160  23.492  1.00  0.00     0.044 A 
ATOM     12  C   UNL A   1      33.512  24.524  26.046  1.00  0.00     0.012 A 
ATOM     13  C   UNL A   1      33.791  24.349  23.688  1.00  0.00     0.131 A 
ATOM     14  C   UNL A   1      34.287  24.067  24.966  1.00  0.00     0.017 A 
ATOM     15  F   UNL A   1      34.399  23.866  22.593  1.00  0.00    -0.206 F 
BRANCH  14  16
ATOM     16  C   UNL A   1      35.570  23.359  25.183  1.00  0.00    -0.015 A 
ATOM     17  C   UNL A   1      35.709  21.987  24.911  1.00  0.00     0.009 A 
ATOM     18  C   UNL A   1      36.694  24.023  25.713  1.00  0.00     0.009 A 
ATOM     19  C   UNL A   1      36.906  21.308  25.164  1.00  0.00     0.001 A 
ATOM     20  C   UNL A   1      37.896  23.350  25.957  1.00  0.00     0.001 A 
ATOM     21  C   UNL A   1      37.999  21.991  25.686  1.00  0.00     0.000 A 
ENDBRANCH  14  16
ENDBRANCH   7   9
ENDBRANCH   4   7
ENDBRANCH   2   3
ENDBRANCH   1   2
BRANCH   1  22
ATOM     22  C   UNL A   1      33.584  28.833  27.123  1.00  0.00     0.118 C 
BRANCH  22  23
ATOM     23  N   UNL A   1      33.546  30.169  27.699  1.00  0.00    -0.352 N 
ATOM     24  C   UNL A   1      34.522  30.876  28.366  1.00  0.00     0.251 C 
ATOM     25  H   UNL A   1      32.689  30.642  27.596  1.00  0.00     0.163 HD
ATOM     26  O   UNL A   1      34.250  31.977  28.844  1.00  0.00    -0.269 OA
BRANCH  24  27
ATOM     27  C   UNL A   1      35.882  30.316  28.553  1.00  0.00     0.039 A 
ATOM     28  C   UNL A   1      36.799  30.397  27.499  1.00  0.00     0.014 A 
ATOM     29  C   UNL A   1      36.267  29.705  29.747  1.00  0.00     0.014 A 
ATOM     30  C   UNL A   1      38.106  29.927  27.669  1.00  0.00     0.010 A 
ATOM     31  C   UNL A   1      37.597  29.359  29.960  1.00  0.00     0.010 A 
ATOM     32  C   UNL A   1      38.527  29.432  28.915  1.00  0.00    -0.014 A 
BRANCH  32  33
ATOM     33  C   UNL A   1      39.909  28.928  29.125  1.00  0.00     0.031 A 
ATOM     34  C   UNL A   1      40.949  29.822  29.753  1.00  0.00     0.074 A 
ATOM     35  C   UNL A   1      40.252  27.690  28.718  1.00  0.00     0.049 A 
ATOM     36  N   UNL A   1      42.215  29.583  29.991  1.00  0.00    -0.248 NA
ATOM     37  C   UNL A   1      40.519  31.179  30.133  1.00  0.00     0.031 C 
ATOM     38  C   UNL A   1      39.362  26.738  28.048  1.00  0.00     0.029 A 
ATOM     39  N   UNL A   1      41.447  27.019  28.807  1.00  0.00    -0.354 N 
ATOM     40  C   UNL A   1      42.726  30.758  30.529  1.00  0.00     0.074 A 
ATOM     41  C   UNL A   1      41.660  31.733  30.508  1.00  0.00     0.031 C 
ATOM     42  C   UNL A   1      40.032  25.596  27.822  1.00  0.00     0.029 A 
ATOM     43  C   UNL A   1      41.405  25.747  28.293  1.00  0.00     0.049 A 
ATOM     44  H   UNL A   1      42.258  27.414  29.203  1.00  0.00     0.167 HD
ATOM     45  C   UNL A   1      43.961  31.002  31.030  1.00  0.00     0.031 A 
ATOM     46  C   UNL A   1      42.363  24.804  28.210  1.00  0.00     0.031 A 
ATOM     47  C   UNL A   1      45.023  30.032  31.063  1.00  0.00     0.049 A 
ATOM     48  C   UNL A   1      43.729  25.094  28.771  1.00  0.00     0.074 A 
ATOM     49  C   UNL A   1      46.296  30.164  31.585  1.00  0.00     0.029 A 
ATOM     50  N   UNL A   1      44.931  28.748  30.548  1.00  0.00    -0.354 N 
ATOM     51  N   UNL A   1      44.177  26.189  29.335  1.00  0.00    -0.248 NA
ATOM     52  C   UNL A   1      44.713  24.004  28.704  1.00  0.00     0.031 C 
ATOM     53  C   UNL A   1      46.994  28.976  31.341  1.00  0.00     0.029 A 
ATOM     54  C   UNL A   1      46.131  28.081  30.729  1.00  0.00     0.049 A 
ATOM     55  H   UNL A   1      44.131  28.367  30.119  1.00  0.00     0.167 HD
ATOM     56  C   UNL A   1      45.482  25.909  29.724  1.00  0.00     0.074 A 
ATOM     57  C   UNL A   1      45.745  24.537  29.343  1.00  0.00     0.031 C 
ATOM     58  C   UNL A   1      46.379  26.715  30.344  1.00  0.00     0.031 A 
BRANCH  45  59
ATOM     59  C   UNL A   1      44.217  32.378  31.585  1.00  0.00    -0.014 A 
ATOM     60  C   UNL A   1      44.718  33.410  30.773  1.00  0.00     0.009 A 
ATOM     61  C   UNL A   1      43.953  32.650  32.937  1.00  0.00     0.009 A 
ATOM     62  C   UNL A   1      44.998  34.667  31.313  1.00  0.00     0.001 A 
ATOM     63  C   UNL A   1      44.198  33.919  33.466  1.00  0.00     0.001 A 
ATOM     64  C   UNL A   1      44.735  34.922  32.658  1.00  0.00     0.000 A 
ENDBRANCH  45  59
BRANCH  46  65
ATOM     65  C   UNL A   1      42.056  23.485  27.595  1.00  0.00    -0.014 A 
ATOM     66  C   UNL A   1      41.439  22.471  28.345  1.00  0.00     0.009 A 
ATOM     67  C   UNL A   1      42.381  23.232  26.253  1.00  0.00     0.009 A 
ATOM     68  C   UNL A   1      41.181  21.224  27.773  1.00  0.00     0.001 A 
ATOM     69  C   UNL A   1      42.091  21.994  25.674  1.00  0.00     0.001 A 
ATOM     70  C   UNL A   1      41.502  20.988  26.437  1.00  0.00     0.000 A 
ENDBRANCH  46  65
BRANCH  58  71
ATOM     71  C   UNL A   1      47.712  26.115  30.700  1.00  0.00    -0.014 A 
ATOM     72  C   UNL A   1      48.732  25.966  29.746  1.00  0.00     0.009 A 
ATOM     73  C   UNL A   1      47.958  25.719  32.024  1.00  0.00     0.009 A 
ATOM     74  C   UNL A   1      49.952  25.388  30.104  1.00  0.00     0.001 A 
ATOM     75  C   UNL A   1      49.190  25.174  32.386  1.00  0.00     0.001 A 
ATOM     76  C   UNL A   1      50.181  24.997  31.423  1.00  0.00     0.000 A 
ENDBRANCH  58  71
ENDBRANCH  32  33
ENDBRANCH  24  27
ENDBRANCH  22  23
ENDBRANCH   1  22
TORSDOF 12
ENDMDL
MODEL 2
REMARK VINA RESULT:     -11.0      3.021      7.626
REMARK SMILES C[C@H](C(=O)NCCCNC(=O)c1ccc(-c2c3nc(c(-c4ccccc4)c4ccc([nH]4)c(-c4ccccc4)c4nc(c(-c5ccccc5)c5ccc2[nH]5)C=C4)C=C3)cc1)c1ccc(-c2ccccc2)c(F)c1
REMARK SMILES IDX 7 1 6 2 5 3 3 4 4 5 2 7 1 8 60 9 61 10 72 11 62 12 70 13
REMARK SMILES IDX 63 14 71 15 64 16 65 17 69 18 66 19 68 20 67 21 8 22 9 23
REMARK SMILES IDX 10 24 11 26 12 27 13 28 59 29 14 30 58 31 15 32 16 33 17 34
REMARK SMILES IDX 52 35 18 36 57 37 51 38 53 39 19 40 56 41 50 42 49 43 20 45
REMARK SMILES IDX 42 46 27 47 41 48 28 49 31 50 40 51 54 52 29 53 30 54 39 56
REMARK SMILES IDX 55 57 32 58 21 59 22 60 26 61 23 62 25 63 24 64 43 65 44 66
REMARK SMILES IDX 48 67 45 68 47 69 46 70 33 71 34 72 38 73 35 74 37 75 36 76
REMARK H PARENT 5 6 9 25 53 44 31 55
REMARK Flexibility Score: inf
ROOT
ATOM      1  C   UNL A   1      37.719  19.669  24.998  1.00  0.00     0.042 C 
ENDROOT
BRANCH   1   2
ATOM      2  C   UNL A   1      36.559  20.642  24.914  1.00  0.00     0.117 C 
BRANCH   2   3
ATOM      3  N   UNL A   1      35.266  20.098  25.288  1.00  0.00    -0.356 N 
ATOM      4  C   UNL A   1      34.026  20.293  24.759  1.00  0.00     0.227 C 
ATOM      5  O   UNL A   1      33.164  19.472  25.097  1.00  0.00    -0.274 OA
ATOM      6  H   UNL A   1      35.290  19.483  26.057  1.00  0.00     0.163 HD
BRANCH   4   7
ATOM      7  C   UNL A   1      33.618  21.519  23.930  1.00  0.00     0.105 C 
ATOM      8  C   UNL A   1      32.260  21.170  23.295  1.00  0.00     0.023 C 
BRANCH   7   9
ATOM      9  C   UNL A   1      33.655  22.898  24.579  1.00  0.00    -0.033 A 
ATOM     10  C   UNL A   1      33.469  23.095  25.952  1.00  0.00     0.005 A 
ATOM     11  C   UNL A   1      33.897  24.043  23.804  1.00  0.00     0.044 A 
ATOM     12  C   UNL A   1      33.275  24.383  26.474  1.00  0.00     0.012 A 
ATOM     13  C   UNL A   1      33.766  25.324  24.343  1.00  0.00     0.131 A 
ATOM     14  C   UNL A   1      33.381  25.533  25.672  1.00  0.00     0.017 A 
ATOM     15  F   UNL A   1      33.998  26.363  23.524  1.00  0.00    -0.206 F 
BRANCH  14  16
ATOM     16  C   UNL A   1      33.066  26.878  26.208  1.00  0.00    -0.015 A 
ATOM     17  C   UNL A   1      34.040  27.890  26.272  1.00  0.00     0.009 A 
ATOM     18  C   UNL A   1      31.790  27.185  26.718  1.00  0.00     0.009 A 
ATOM     19  C   UNL A   1      33.756  29.144  26.825  1.00  0.00     0.001 A 
ATOM     20  C   UNL A   1      31.499  28.441  27.261  1.00  0.00     0.001 A 
ATOM     21  C   UNL A   1      32.485  29.419  27.318  1.00  0.00     0.000 A 
ENDBRANCH  14  16
ENDBRANCH   7   9
ENDBRANCH   4   7
ENDBRANCH   2   3
ENDBRANCH   1   2
BRANCH   1  22
ATOM     22  C   UNL A   1      38.935  20.138  25.775  1.00  0.00     0.118 C 
BRANCH  22  23
ATOM     23  N   UNL A   1      40.032  19.182  25.820  1.00  0.00    -0.352 N 
ATOM     24  C   UNL A   1      41.360  19.370  26.132  1.00  0.00     0.251 C 
ATOM     25  H   UNL A   1      39.787  18.257  25.591  1.00  0.00     0.163 HD
ATOM     26  O   UNL A   1      42.143  18.425  26.033  1.00  0.00    -0.269 OA
BRANCH  24  27
ATOM     27  C   UNL A   1      41.870  20.698  26.550  1.00  0.00     0.039 A 
ATOM     28  C   UNL A   1      42.239  21.623  25.567  1.00  0.00     0.014 A 
ATOM     29  C   UNL A   1      42.000  21.045  27.895  1.00  0.00     0.014 A 
ATOM     30  C   UNL A   1      42.671  22.902  25.934  1.00  0.00     0.010 A 
ATOM     31  C   UNL A   1      42.301  22.354  28.256  1.00  0.00     0.010 A 
ATOM     32  C   UNL A   1      42.674  23.290  27.284  1.00  0.00    -0.014 A 
BRANCH  32  33
ATOM     33  C   UNL A   1      43.125  24.644  27.704  1.00  0.00     0.031 A 
ATOM     34  C   UNL A   1      42.108  25.709  28.027  1.00  0.00     0.074 A 
ATOM     35  C   UNL A   1      44.439  24.937  27.754  1.00  0.00     0.049 A 
ATOM     36  N   UNL A   1      42.297  26.957  28.378  1.00  0.00    -0.248 NA
ATOM     37  C   UNL A   1      40.689  25.334  27.907  1.00  0.00     0.031 C 
ATOM     38  C   UNL A   1      45.530  24.020  27.417  1.00  0.00     0.029 A 
ATOM     39  N   UNL A   1      45.081  26.098  28.110  1.00  0.00    -0.354 N 
ATOM     40  C   UNL A   1      41.028  27.510  28.502  1.00  0.00     0.074 A 
ATOM     41  C   UNL A   1      40.082  26.491  28.112  1.00  0.00     0.031 C 
ATOM     42  C   UNL A   1      46.704  24.641  27.616  1.00  0.00     0.029 A 
ATOM     43  C   UNL A   1      46.451  26.010  28.057  1.00  0.00     0.049 A 
ATOM     44  H   UNL A   1      44.605  26.917  28.376  1.00  0.00     0.167 HD
ATOM     45  C   UNL A   1      40.672  28.743  28.935  1.00  0.00     0.031 A 
ATOM     46  C   UNL A   1      47.398  26.924  28.335  1.00  0.00     0.031 A 
ATOM     47  C   UNL A   1      41.609  29.759  29.334  1.00  0.00     0.049 A 
ATOM     48  C   UNL A   1      46.984  28.290  28.813  1.00  0.00     0.074 A 
ATOM     49  C   UNL A   1      41.353  31.025  29.826  1.00  0.00     0.029 A 
ATOM     50  N   UNL A   1      42.988  29.619  29.283  1.00  0.00    -0.354 N 
ATOM     51  N   UNL A   1      45.778  28.775  28.987  1.00  0.00    -0.248 NA
ATOM     52  C   UNL A   1      48.065  29.224  29.157  1.00  0.00     0.031 C 
ATOM     53  C   UNL A   1      42.577  31.672  30.026  1.00  0.00     0.029 A 
ATOM     54  C   UNL A   1      43.596  30.783  29.724  1.00  0.00     0.049 A 
ATOM     55  H   UNL A   1      43.463  28.812  28.980  1.00  0.00     0.167 HD
ATOM     56  C   UNL A   1      45.955  30.057  29.494  1.00  0.00     0.074 A 
ATOM     57  C   UNL A   1      47.383  30.265  29.613  1.00  0.00     0.031 C 
ATOM     58  C   UNL A   1      45.019  30.976  29.836  1.00  0.00     0.031 A 
BRANCH  45  59
ATOM     59  C   UNL A   1      39.199  29.050  28.998  1.00  0.00    -0.014 A 
ATOM     60  C   UNL A   1      38.454  28.813  30.166  1.00  0.00     0.009 A 
ATOM     61  C   UNL A   1      38.545  29.585  27.877  1.00  0.00     0.009 A 
ATOM     62  C   UNL A   1      37.079  29.056  30.193  1.00  0.00     0.001 A 
ATOM     63  C   UNL A   1      37.177  29.862  27.919  1.00  0.00     0.001 A 
ATOM     64  C   UNL A   1      36.443  29.584  29.071  1.00  0.00     0.000 A 
ENDBRANCH  45  59
BRANCH  46  65
ATOM     65  C   UNL A   1      48.837  26.571  28.195  1.00  0.00    -0.014 A 
ATOM     66  C   UNL A   1      49.564  26.082  29.291  1.00  0.00     0.009 A 
ATOM     67  C   UNL A   1      49.491  26.723  26.963  1.00  0.00     0.009 A 
ATOM     68  C   UNL A   1      50.922  25.780  29.163  1.00  0.00     0.001 A 
ATOM     69  C   UNL A   1      50.840  26.388  26.829  1.00  0.00     0.001 A 
ATOM     70  C   UNL A   1      51.557  25.928  27.932  1.00  0.00     0.000 A 
ENDBRANCH  46  65
BRANCH  58  71
ATOM     71  C   UNL A   1      45.508  32.273  30.422  1.00  0.00    -0.014 A 
ATOM     72  C   UNL A   1      45.783  33.390  29.618  1.00  0.00     0.009 A 
ATOM     73  C   UNL A   1      45.670  32.382  31.812  1.00  0.00     0.009 A 
ATOM     74  C   UNL A   1      46.254  34.573  30.191  1.00  0.00     0.001 A 
ATOM     75  C   UNL A   1      46.107  33.576  32.386  1.00  0.00     0.001 A 
ATOM     76  C   UNL A   1      46.412  34.666  31.573  1.00  0.00     0.000 A 
ENDBRANCH  58  71
ENDBRANCH  32  33
ENDBRANCH  24  27
ENDBRANCH  22  23
ENDBRANCH   1  22
TORSDOF 12
ENDMDL
MODEL 3
REMARK VINA RESULT:     -11.0      2.818      7.718
REMARK SMILES C[C@H](C(=O)NCCCNC(=O)c1ccc(-c2c3nc(c(-c4ccccc4)c4ccc([nH]4)c(-c4ccccc4)c4nc(c(-c5ccccc5)c5ccc2[nH]5)C=C4)C=C3)cc1)c1ccc(-c2ccccc2)c(F)c1
REMARK SMILES IDX 7 1 6 2 5 3 3 4 4 5 2 7 1 8 60 9 61 10 72 11 62 12 70 13
REMARK SMILES IDX 63 14 71 15 64 16 65 17 69 18 66 19 68 20 67 21 8 22 9 23
REMARK SMILES IDX 10 24 11 26 12 27 13 28 59 29 14 30 58 31 15 32 16 33 17 34
REMARK SMILES IDX 52 35 18 36 57 37 51 38 53 39 19 40 56 41 50 42 49 43 20 45
REMARK SMILES IDX 42 46 27 47 41 48 28 49 31 50 40 51 54 52 29 53 30 54 39 56
REMARK SMILES IDX 55 57 32 58 21 59 22 60 26 61 23 62 25 63 24 64 43 65 44 66
REMARK SMILES IDX 48 67 45 68 47 69 46 70 33 71 34 72 38 73 35 74 37 75 36 76
REMARK H PARENT 5 6 9 25 53 44 31 55
REMARK Flexibility Score: inf
ROOT
ATOM      1  C   UNL A   1      37.810  19.535  24.971  1.00  0.00     0.042 C 
ENDROOT
BRANCH   1   2
ATOM      2  C   UNL A   1      36.635  20.478  24.800  1.00  0.00     0.117 C 
BRANCH   2   3
ATOM      3  N   UNL A   1      35.364  19.980  25.296  1.00  0.00    -0.356 N 
ATOM      4  C   UNL A   1      34.091  20.181  24.855  1.00  0.00     0.227 C 
ATOM      5  O   UNL A   1      33.241  19.395  25.295  1.00  0.00    -0.274 OA
ATOM      6  H   UNL A   1      35.435  19.398  26.087  1.00  0.00     0.163 HD
BRANCH   4   7
ATOM      7  C   UNL A   1      33.644  21.380  24.007  1.00  0.00     0.105 C 
ATOM      8  C   UNL A   1      32.284  20.989  23.403  1.00  0.00     0.023 C 
BRANCH   7   9
ATOM      9  C   UNL A   1      33.662  22.774  24.626  1.00  0.00    -0.033 A 
ATOM     10  C   UNL A   1      33.485  22.997  25.996  1.00  0.00     0.005 A 
ATOM     11  C   UNL A   1      33.877  23.904  23.824  1.00  0.00     0.044 A 
ATOM     12  C   UNL A   1      33.273  24.293  26.492  1.00  0.00     0.012 A 
ATOM     13  C   UNL A   1      33.729  25.195  24.336  1.00  0.00     0.131 A 
ATOM     14  C   UNL A   1      33.352  25.426  25.664  1.00  0.00     0.017 A 
ATOM     15  F   UNL A   1      33.935  26.219  23.493  1.00  0.00    -0.206 F 
BRANCH  14  16
ATOM     16  C   UNL A   1      33.018  26.777  26.173  1.00  0.00    -0.015 A 
ATOM     17  C   UNL A   1      33.941  27.836  26.110  1.00  0.00     0.009 A 
ATOM     18  C   UNL A   1      31.777  27.046  26.783  1.00  0.00     0.009 A 
ATOM     19  C   UNL A   1      33.645  29.098  26.637  1.00  0.00     0.001 A 
ATOM     20  C   UNL A   1      31.473  28.309  27.301  1.00  0.00     0.001 A 
ATOM     21  C   UNL A   1      32.410  29.333  27.231  1.00  0.00     0.000 A 
ENDBRANCH  14  16
ENDBRANCH   7   9
ENDBRANCH   4   7
ENDBRANCH   2   3
ENDBRANCH   1   2
BRANCH   1  22
ATOM     22  C   UNL A   1      38.970  20.050  25.802  1.00  0.00     0.118 C 
BRANCH  22  23
ATOM     23  N   UNL A   1      40.174  19.234  25.736  1.00  0.00    -0.352 N 
ATOM     24  C   UNL A   1      41.476  19.547  26.056  1.00  0.00     0.251 C 
ATOM     25  H   UNL A   1      40.036  18.315  25.412  1.00  0.00     0.163 HD
ATOM     26  O   UNL A   1      42.364  18.720  25.850  1.00  0.00    -0.269 OA
BRANCH  24  27
ATOM     27  C   UNL A   1      41.833  20.876  26.608  1.00  0.00     0.039 A 
ATOM     28  C   UNL A   1      42.240  21.888  25.731  1.00  0.00     0.014 A 
ATOM     29  C   UNL A   1      41.782  21.140  27.977  1.00  0.00     0.014 A 
ATOM     30  C   UNL A   1      42.529  23.166  26.221  1.00  0.00     0.010 A 
ATOM     31  C   UNL A   1      41.941  22.439  28.447  1.00  0.00     0.010 A 
ATOM     32  C   UNL A   1      42.350  23.462  27.582  1.00  0.00    -0.014 A 
BRANCH  32  33
ATOM     33  C   UNL A   1      42.647  24.812  28.131  1.00  0.00     0.031 A 
ATOM     34  C   UNL A   1      44.057  25.169  28.529  1.00  0.00     0.074 A 
ATOM     35  C   UNL A   1      41.654  25.704  28.317  1.00  0.00     0.049 A 
ATOM     36  N   UNL A   1      44.514  26.277  29.056  1.00  0.00    -0.248 NA
ATOM     37  C   UNL A   1      45.085  24.131  28.341  1.00  0.00     0.031 C 
ATOM     38  C   UNL A   1      40.237  25.474  28.027  1.00  0.00     0.029 A 
ATOM     39  N   UNL A   1      41.688  26.990  28.799  1.00  0.00    -0.354 N 
ATOM     40  C   UNL A   1      45.869  26.059  29.275  1.00  0.00     0.074 A 
ATOM     41  C   UNL A   1      46.145  24.691  28.901  1.00  0.00     0.031 C 
ATOM     42  C   UNL A   1      39.545  26.592  28.301  1.00  0.00     0.029 A 
ATOM     43  C   UNL A   1      40.460  27.603  28.823  1.00  0.00     0.049 A 
ATOM     44  H   UNL A   1      42.516  27.430  29.100  1.00  0.00     0.167 HD
ATOM     45  C   UNL A   1      46.815  26.925  29.714  1.00  0.00     0.031 A 
ATOM     46  C   UNL A   1      40.106  28.840  29.218  1.00  0.00     0.031 A 
ATOM     47  C   UNL A   1      46.548  28.290  30.079  1.00  0.00     0.049 A 
ATOM     48  C   UNL A   1      41.170  29.788  29.705  1.00  0.00     0.074 A 
ATOM     49  C   UNL A   1      47.440  29.262  30.496  1.00  0.00     0.029 A 
ATOM     50  N   UNL A   1      45.292  28.876  30.069  1.00  0.00    -0.354 N 
ATOM     51  N   UNL A   1      42.458  29.586  29.843  1.00  0.00    -0.248 NA
ATOM     52  C   UNL A   1      40.730  31.143  30.064  1.00  0.00     0.031 C 
ATOM     53  C   UNL A   1      46.715  30.422  30.789  1.00  0.00     0.029 A 
ATOM     54  C   UNL A   1      45.383  30.193  30.487  1.00  0.00     0.049 A 
ATOM     55  H   UNL A   1      44.459  28.423  29.804  1.00  0.00     0.167 HD
ATOM     56  C   UNL A   1      42.987  30.797  30.271  1.00  0.00     0.074 A 
ATOM     57  C   UNL A   1      41.883  31.730  30.354  1.00  0.00     0.031 C 
ATOM     58  C   UNL A   1      44.274  31.110  30.565  1.00  0.00     0.031 A 
BRANCH  45  59
ATOM     59  C   UNL A   1      48.225  26.408  29.818  1.00  0.00    -0.014 A 
ATOM     60  C   UNL A   1      49.108  26.474  28.726  1.00  0.00     0.009 A 
ATOM     61  C   UNL A   1      48.681  25.848  31.021  1.00  0.00     0.009 A 
ATOM     62  C   UNL A   1      50.397  25.945  28.821  1.00  0.00     0.001 A 
ATOM     63  C   UNL A   1      49.982  25.353  31.126  1.00  0.00     0.001 A 
ATOM     64  C   UNL A   1      50.834  25.389  30.022  1.00  0.00     0.000 A 
ENDBRANCH  45  59
BRANCH  46  65
ATOM     65  C   UNL A   1      38.683  29.267  29.143  1.00  0.00    -0.014 A 
ATOM     66  C   UNL A   1      38.164  29.828  27.966  1.00  0.00     0.009 A 
ATOM     67  C   UNL A   1      37.835  29.115  30.252  1.00  0.00     0.009 A 
ATOM     68  C   UNL A   1      36.835  30.254  27.910  1.00  0.00     0.001 A 
ATOM     69  C   UNL A   1      36.498  29.513  30.182  1.00  0.00     0.001 A 
ATOM     70  C   UNL A   1      36.002  30.092  29.016  1.00  0.00     0.000 A 
ENDBRANCH  46  65
BRANCH  58  71
ATOM     71  C   UNL A   1      44.565  32.535  30.950  1.00  0.00    -0.014 A 
ATOM     72  C   UNL A   1      44.865  33.513  29.989  1.00  0.00     0.009 A 
ATOM     73  C   UNL A   1      44.511  32.908  32.302  1.00  0.00     0.009 A 
ATOM     74  C   UNL A   1      45.150  34.823  30.380  1.00  0.00     0.001 A 
ATOM     75  C   UNL A   1      44.761  34.225  32.688  1.00  0.00     0.001 A 
ATOM     76  C   UNL A   1      45.093  35.178  31.728  1.00  0.00     0.000 A 
ENDBRANCH  58  71
ENDBRANCH  32  33
ENDBRANCH  24  27
ENDBRANCH  22  23
ENDBRANCH   1  22
TORSDOF 12
ENDMDL
