MODEL 1
REMARK VINA RESULT:     -11.8      0.000      0.000
REMARK SMILES Cc1ccc(S(=O)(=O)Nc2cnc(N(C)C)c(C(=O)NCCCNC(=O)c3ccc(-c4c5nc(c(-c6ccccc6)c6ccc([nH]6)c(-c6ccccc6)c6nc(c(-c7ccccc7)c7ccc4[nH]7)C=C6)C=C5)cc3)c2)c(C)c1
REMARK SMILES IDX 21 1 20 2 18 3 19 4 17 6 10 7 11 8 75 9 12 10 13 11 9 12
REMARK SMILES IDX 6 14 7 15 8 16 5 17 1 18 2 19 3 20 78 21 4 22 76 23 77 24
REMARK SMILES IDX 14 25 15 26 16 27 22 28 23 29 24 30 25 31 26 33 27 34 28 35
REMARK SMILES IDX 74 36 29 37 73 38 30 39 31 40 32 41 67 42 33 43 72 44 66 45
REMARK SMILES IDX 68 46 34 47 71 48 65 49 64 50 35 52 57 53 42 54 56 55 43 56
REMARK SMILES IDX 46 57 55 58 69 59 44 60 45 61 54 63 70 64 47 65 36 66 37 67
REMARK SMILES IDX 41 68 38 69 40 70 39 71 58 72 59 73 63 74 60 75 62 76 61 77
REMARK SMILES IDX 48 78 49 79 53 80 50 81 52 82 51 83
REMARK H PARENT 20 5 9 13 24 32 68 51 46 62
REMARK Flexibility Score: inf
ROOT
ATOM      1  C   UNL A   1      33.086  29.577  25.056  1.00  0.00     0.118 C 
ENDROOT
BRANCH   1   2
ATOM      2  N   UNL A   1      33.120  29.343  23.622  1.00  0.00    -0.352 N 
ATOM      3  C   UNL A   1      32.472  28.432  22.820  1.00  0.00     0.255 C 
ATOM      4  O   UNL A   1      32.972  28.207  21.719  1.00  0.00    -0.269 OA
ATOM      5  H   UNL A   1      33.720  29.951  23.132  1.00  0.00     0.163 HD
BRANCH   3   6
ATOM      6  C   UNL A   1      31.219  27.748  23.228  1.00  0.00     0.084 A 
ATOM      7  C   UNL A   1      30.203  25.785  24.226  1.00  0.00     0.068 A 
ATOM      8  C   UNL A   1      28.984  26.345  23.916  1.00  0.00     0.140 A 
ATOM      9  C   UNL A   1      31.326  26.438  23.747  1.00  0.00     0.046 A 
ATOM     10  N   UNL A   1      28.845  27.561  23.358  1.00  0.00    -0.236 NA
ATOM     11  C   UNL A   1      29.937  28.327  23.075  1.00  0.00     0.141 A 
BRANCH   7  12
ATOM     12  N   UNL A   1      30.224  24.646  25.077  1.00  0.00    -0.278 N 
ATOM     13  H   UNL A   1      29.592  23.918  24.878  1.00  0.00     0.180 HD
BRANCH  12  14
ATOM     14  S   UNL A   1      31.245  24.450  26.394  1.00  0.00     0.262 S 
ATOM     15  O   UNL A   1      30.684  23.389  27.212  1.00  0.00    -0.201 OA
ATOM     16  O   UNL A   1      31.441  25.784  26.913  1.00  0.00    -0.201 OA
BRANCH  14  17
ATOM     17  C   UNL A   1      32.852  23.865  25.848  1.00  0.00     0.090 A 
ATOM     18  C   UNL A   1      36.366  23.013  23.499  1.00  0.00     0.044 C 
ATOM     19  C   UNL A   1      35.178  23.273  24.378  1.00  0.00    -0.051 A 
ATOM     20  C   UNL A   1      35.144  24.377  25.230  1.00  0.00     0.005 A 
ATOM     21  C   UNL A   1      34.096  22.387  24.381  1.00  0.00     0.008 A 
ATOM     22  C   UNL A   1      33.996  24.662  25.977  1.00  0.00     0.023 A 
ATOM     23  C   UNL A   1      32.924  22.664  25.110  1.00  0.00    -0.030 A 
ATOM     24  C   UNL A   1      31.847  21.611  25.093  1.00  0.00     0.046 C 
ENDBRANCH  14  17
ENDBRANCH  12  14
ENDBRANCH   7  12
BRANCH  11  25
ATOM     25  N   UNL A   1      29.619  29.635  22.760  1.00  0.00    -0.362 N 
ATOM     26  C   UNL A   1      29.598  30.604  23.858  1.00  0.00     0.145 C 
ATOM     27  C   UNL A   1      29.039  30.093  21.510  1.00  0.00     0.145 C 
ENDBRANCH  11  25
ENDBRANCH   3   6
ENDBRANCH   1   2
BRANCH   1  28
ATOM     28  C   UNL A   1      33.736  28.407  25.798  1.00  0.00     0.042 C 
BRANCH  28  29
ATOM     29  C   UNL A   1      33.723  28.580  27.314  1.00  0.00     0.118 C 
BRANCH  29  30
ATOM     30  N   UNL A   1      33.597  29.974  27.702  1.00  0.00    -0.352 N 
ATOM     31  C   UNL A   1      34.497  30.775  28.360  1.00  0.00     0.251 C 
ATOM     32  H   UNL A   1      32.747  30.407  27.459  1.00  0.00     0.163 HD
ATOM     33  O   UNL A   1      34.145  31.875  28.772  1.00  0.00    -0.269 OA
BRANCH  31  34
ATOM     34  C   UNL A   1      35.886  30.314  28.586  1.00  0.00     0.039 A 
ATOM     35  C   UNL A   1      36.811  30.445  27.546  1.00  0.00     0.014 A 
ATOM     36  C   UNL A   1      36.267  29.712  29.789  1.00  0.00     0.014 A 
ATOM     37  C   UNL A   1      38.123  29.999  27.720  1.00  0.00     0.010 A 
ATOM     38  C   UNL A   1      37.590  29.318  29.982  1.00  0.00     0.010 A 
ATOM     39  C   UNL A   1      38.525  29.443  28.944  1.00  0.00    -0.014 A 
BRANCH  39  40
ATOM     40  C   UNL A   1      39.911  28.950  29.138  1.00  0.00     0.031 A 
ATOM     41  C   UNL A   1      40.953  29.852  29.741  1.00  0.00     0.074 A 
ATOM     42  C   UNL A   1      40.245  27.711  28.734  1.00  0.00     0.049 A 
ATOM     43  N   UNL A   1      42.224  29.619  29.955  1.00  0.00    -0.248 NA
ATOM     44  C   UNL A   1      40.516  31.201  30.132  1.00  0.00     0.031 C 
ATOM     45  C   UNL A   1      39.339  26.752  28.098  1.00  0.00     0.029 A 
ATOM     46  N   UNL A   1      41.444  27.047  28.795  1.00  0.00    -0.354 N 
ATOM     47  C   UNL A   1      42.740  30.797  30.477  1.00  0.00     0.074 A 
ATOM     48  C   UNL A   1      41.656  31.754  30.517  1.00  0.00     0.031 C 
ATOM     49  C   UNL A   1      40.010  25.615  27.851  1.00  0.00     0.029 A 
ATOM     50  C   UNL A   1      41.394  25.773  28.287  1.00  0.00     0.049 A 
ATOM     51  H   UNL A   1      42.264  27.447  29.169  1.00  0.00     0.167 HD
ATOM     52  C   UNL A   1      44.001  31.058  30.900  1.00  0.00     0.031 A 
ATOM     53  C   UNL A   1      42.356  24.837  28.185  1.00  0.00     0.031 A 
ATOM     54  C   UNL A   1      45.074  30.102  30.889  1.00  0.00     0.049 A 
ATOM     55  C   UNL A   1      43.735  25.136  28.697  1.00  0.00     0.074 A 
ATOM     56  C   UNL A   1      46.370  30.253  31.352  1.00  0.00     0.029 A 
ATOM     57  N   UNL A   1      44.972  28.811  30.397  1.00  0.00    -0.354 N 
ATOM     58  N   UNL A   1      44.193  26.237  29.240  1.00  0.00    -0.248 NA
ATOM     59  C   UNL A   1      44.726  24.055  28.594  1.00  0.00     0.031 C 
ATOM     60  C   UNL A   1      47.061  29.059  31.114  1.00  0.00     0.029 A 
ATOM     61  C   UNL A   1      46.184  28.157  30.535  1.00  0.00     0.049 A 
ATOM     62  H   UNL A   1      44.158  28.418  30.006  1.00  0.00     0.167 HD
ATOM     63  C   UNL A   1      45.517  25.976  29.563  1.00  0.00     0.074 A 
ATOM     64  C   UNL A   1      45.786  24.608  29.167  1.00  0.00     0.031 C 
ATOM     65  C   UNL A   1      46.430  26.796  30.138  1.00  0.00     0.031 A 
BRANCH  52  66
ATOM     66  C   UNL A   1      44.281  32.443  31.406  1.00  0.00    -0.014 A 
ATOM     67  C   UNL A   1      44.708  33.460  30.538  1.00  0.00     0.009 A 
ATOM     68  C   UNL A   1      44.100  32.740  32.765  1.00  0.00     0.009 A 
ATOM     69  C   UNL A   1      44.985  34.738  31.029  1.00  0.00     0.001 A 
ATOM     70  C   UNL A   1      44.354  34.025  33.249  1.00  0.00     0.001 A 
ATOM     71  C   UNL A   1      44.805  35.020  32.382  1.00  0.00     0.000 A 
ENDBRANCH  52  66
BRANCH  53  72
ATOM     72  C   UNL A   1      42.034  23.509  27.606  1.00  0.00    -0.014 A 
ATOM     73  C   UNL A   1      42.277  23.253  26.247  1.00  0.00     0.009 A 
ATOM     74  C   UNL A   1      41.490  22.493  28.405  1.00  0.00     0.009 A 
ATOM     75  C   UNL A   1      41.962  22.011  25.696  1.00  0.00     0.001 A 
ATOM     76  C   UNL A   1      41.196  21.244  27.854  1.00  0.00     0.001 A 
ATOM     77  C   UNL A   1      41.425  21.006  26.500  1.00  0.00     0.000 A 
ENDBRANCH  53  72
BRANCH  65  78
ATOM     78  C   UNL A   1      47.792  26.224  30.399  1.00  0.00    -0.014 A 
ATOM     79  C   UNL A   1      48.761  26.170  29.386  1.00  0.00     0.009 A 
ATOM     80  C   UNL A   1      48.118  25.763  31.684  1.00  0.00     0.009 A 
ATOM     81  C   UNL A   1      50.025  25.639  29.650  1.00  0.00     0.001 A 
ATOM     82  C   UNL A   1      49.389  25.252  31.949  1.00  0.00     0.001 A 
ATOM     83  C   UNL A   1      50.338  25.183  30.931  1.00  0.00     0.000 A 
ENDBRANCH  65  78
ENDBRANCH  39  40
ENDBRANCH  31  34
ENDBRANCH  29  30
ENDBRANCH  28  29
ENDBRANCH   1  28
TORSDOF 14
ENDMDL
MODEL 2
REMARK VINA RESULT:     -11.4      2.142      3.216
REMARK SMILES Cc1ccc(S(=O)(=O)Nc2cnc(N(C)C)c(C(=O)NCCCNC(=O)c3ccc(-c4c5nc(c(-c6ccccc6)c6ccc([nH]6)c(-c6ccccc6)c6nc(c(-c7ccccc7)c7ccc4[nH]7)C=C6)C=C5)cc3)c2)c(C)c1
REMARK SMILES IDX 21 1 20 2 18 3 19 4 17 6 10 7 11 8 75 9 12 10 13 11 9 12
REMARK SMILES IDX 6 14 7 15 8 16 5 17 1 18 2 19 3 20 78 21 4 22 76 23 77 24
REMARK SMILES IDX 14 25 15 26 16 27 22 28 23 29 24 30 25 31 26 33 27 34 28 35
REMARK SMILES IDX 74 36 29 37 73 38 30 39 31 40 32 41 67 42 33 43 72 44 66 45
REMARK SMILES IDX 68 46 34 47 71 48 65 49 64 50 35 52 57 53 42 54 56 55 43 56
REMARK SMILES IDX 46 57 55 58 69 59 44 60 45 61 54 63 70 64 47 65 36 66 37 67
REMARK SMILES IDX 41 68 38 69 40 70 39 71 58 72 59 73 63 74 60 75 62 76 61 77
REMARK SMILES IDX 48 78 49 79 53 80 50 81 52 82 51 83
REMARK H PARENT 20 5 9 13 24 32 68 51 46 62
REMARK Flexibility Score: inf
ROOT
ATOM      1  C   UNL A   1      31.769  30.253  26.429  1.00  0.00     0.118 C 
ENDROOT
BRANCH   1   2
ATOM      2  N   UNL A   1      32.362  30.167  25.105  1.00  0.00    -0.352 N 
ATOM      3  C   UNL A   1      32.243  29.234  24.099  1.00  0.00     0.255 C 
ATOM      4  O   UNL A   1      33.139  29.208  23.257  1.00  0.00    -0.269 OA
ATOM      5  H   UNL A   1      32.961  30.916  24.885  1.00  0.00     0.163 HD
BRANCH   3   6
ATOM      6  C   UNL A   1      31.093  28.300  24.000  1.00  0.00     0.084 A 
ATOM      7  C   UNL A   1      30.206  26.101  24.507  1.00  0.00     0.068 A 
ATOM      8  C   UNL A   1      29.094  26.459  23.778  1.00  0.00     0.140 A 
ATOM      9  C   UNL A   1      31.268  26.988  24.492  1.00  0.00     0.046 A 
ATOM     10  N   UNL A   1      28.921  27.677  23.235  1.00  0.00    -0.236 NA
ATOM     11  C   UNL A   1      29.863  28.650  23.394  1.00  0.00     0.141 A 
BRANCH   7  12
ATOM     12  N   UNL A   1      30.150  24.909  25.280  1.00  0.00    -0.278 N 
ATOM     13  H   UNL A   1      29.446  24.256  25.059  1.00  0.00     0.180 HD
BRANCH  12  14
ATOM     14  S   UNL A   1      31.192  24.532  26.540  1.00  0.00     0.262 S 
ATOM     15  O   UNL A   1      30.598  23.423  27.265  1.00  0.00    -0.201 OA
ATOM     16  O   UNL A   1      31.469  25.796  27.182  1.00  0.00    -0.201 OA
BRANCH  14  17
ATOM     17  C   UNL A   1      32.752  23.927  25.890  1.00  0.00     0.090 A 
ATOM     18  C   UNL A   1      36.105  23.051  23.324  1.00  0.00     0.044 C 
ATOM     19  C   UNL A   1      34.976  23.318  24.276  1.00  0.00    -0.051 A 
ATOM     20  C   UNL A   1      35.014  24.406  25.147  1.00  0.00     0.005 A 
ATOM     21  C   UNL A   1      33.879  22.452  24.329  1.00  0.00     0.008 A 
ATOM     22  C   UNL A   1      33.917  24.699  25.965  1.00  0.00     0.023 A 
ATOM     23  C   UNL A   1      32.757  22.738  25.130  1.00  0.00    -0.030 A 
ATOM     24  C   UNL A   1      31.661  21.705  25.159  1.00  0.00     0.046 C 
ENDBRANCH  14  17
ENDBRANCH  12  14
ENDBRANCH   7  12
BRANCH  11  25
ATOM     25  N   UNL A   1      29.422  29.903  23.012  1.00  0.00    -0.362 N 
ATOM     26  C   UNL A   1      29.559  30.263  21.599  1.00  0.00     0.145 C 
ATOM     27  C   UNL A   1      29.090  30.998  23.906  1.00  0.00     0.145 C 
ENDBRANCH  11  25
ENDBRANCH   3   6
ENDBRANCH   1   2
BRANCH   1  28
ATOM     28  C   UNL A   1      31.412  31.705  26.755  1.00  0.00     0.042 C 
BRANCH  28  29
ATOM     29  C   UNL A   1      32.619  32.636  26.731  1.00  0.00     0.118 C 
BRANCH  29  30
ATOM     30  N   UNL A   1      32.406  33.826  27.538  1.00  0.00    -0.352 N 
ATOM     31  C   UNL A   1      33.131  34.288  28.608  1.00  0.00     0.251 C 
ATOM     32  H   UNL A   1      31.633  34.379  27.282  1.00  0.00     0.163 HD
ATOM     33  O   UNL A   1      32.692  35.211  29.287  1.00  0.00    -0.269 OA
BRANCH  31  34
ATOM     34  C   UNL A   1      34.433  33.674  28.954  1.00  0.00     0.039 A 
ATOM     35  C   UNL A   1      34.493  32.813  30.054  1.00  0.00     0.014 A 
ATOM     36  C   UNL A   1      35.595  33.980  28.240  1.00  0.00     0.014 A 
ATOM     37  C   UNL A   1      35.712  32.236  30.421  1.00  0.00     0.010 A 
ATOM     38  C   UNL A   1      36.799  33.360  28.572  1.00  0.00     0.010 A 
ATOM     39  C   UNL A   1      36.871  32.497  29.674  1.00  0.00    -0.014 A 
BRANCH  39  40
ATOM     40  C   UNL A   1      38.175  31.903  30.061  1.00  0.00     0.031 A 
ATOM     41  C   UNL A   1      39.084  32.637  31.009  1.00  0.00     0.074 A 
ATOM     42  C   UNL A   1      38.563  30.730  29.530  1.00  0.00     0.049 A 
ATOM     43  N   UNL A   1      40.276  32.302  31.436  1.00  0.00    -0.248 NA
ATOM     44  C   UNL A   1      38.601  33.927  31.525  1.00  0.00     0.031 C 
ATOM     45  C   UNL A   1      37.792  29.938  28.569  1.00  0.00     0.029 A 
ATOM     46  N   UNL A   1      39.708  30.000  29.722  1.00  0.00    -0.354 N 
ATOM     47  C   UNL A   1      40.694  33.350  32.246  1.00  0.00     0.074 A 
ATOM     48  C   UNL A   1      39.645  34.346  32.225  1.00  0.00     0.031 C 
ATOM     49  C   UNL A   1      38.477  28.820  28.274  1.00  0.00     0.029 A 
ATOM     50  C   UNL A   1      39.741  28.829  29.006  1.00  0.00     0.049 A 
ATOM     51  H   UNL A   1      40.437  30.288  30.319  1.00  0.00     0.167 HD
ATOM     52  C   UNL A   1      41.841  33.469  32.956  1.00  0.00     0.031 A 
ATOM     53  C   UNL A   1      40.683  27.870  28.946  1.00  0.00     0.031 A 
ATOM     54  C   UNL A   1      42.873  32.470  33.003  1.00  0.00     0.049 A 
ATOM     55  C   UNL A   1      41.929  28.006  29.773  1.00  0.00     0.074 A 
ATOM     56  C   UNL A   1      44.045  32.473  33.741  1.00  0.00     0.029 A 
ATOM     57  N   UNL A   1      42.852  31.284  32.289  1.00  0.00    -0.354 N 
ATOM     58  N   UNL A   1      42.284  28.977  30.577  1.00  0.00    -0.248 NA
ATOM     59  C   UNL A   1      42.897  26.903  29.693  1.00  0.00     0.031 C 
ATOM     60  C   UNL A   1      44.747  31.296  33.450  1.00  0.00     0.029 A 
ATOM     61  C   UNL A   1      43.993  30.549  32.560  1.00  0.00     0.049 A 
ATOM     62  H   UNL A   1      42.131  31.004  31.679  1.00  0.00     0.167 HD
ATOM     63  C   UNL A   1      43.504  28.595  31.116  1.00  0.00     0.074 A 
ATOM     64  C   UNL A   1      43.823  27.296  30.557  1.00  0.00     0.031 C 
ATOM     65  C   UNL A   1      44.291  29.259  31.996  1.00  0.00     0.031 A 
BRANCH  52  66
ATOM     66  C   UNL A   1      42.036  34.737  33.737  1.00  0.00    -0.014 A 
ATOM     67  C   UNL A   1      42.726  35.828  33.187  1.00  0.00     0.009 A 
ATOM     68  C   UNL A   1      41.509  34.847  35.032  1.00  0.00     0.009 A 
ATOM     69  C   UNL A   1      42.917  36.993  33.935  1.00  0.00     0.001 A 
ATOM     70  C   UNL A   1      41.680  36.021  35.768  1.00  0.00     0.001 A 
ATOM     71  C   UNL A   1      42.391  37.089  35.222  1.00  0.00     0.000 A 
ENDBRANCH  52  66
BRANCH  53  72
ATOM     72  C   UNL A   1      40.465  26.673  28.096  1.00  0.00    -0.014 A 
ATOM     73  C   UNL A   1      41.020  26.610  26.808  1.00  0.00     0.009 A 
ATOM     74  C   UNL A   1      39.708  25.590  28.566  1.00  0.00     0.009 A 
ATOM     75  C   UNL A   1      40.805  25.492  26.001  1.00  0.00     0.001 A 
ATOM     76  C   UNL A   1      39.512  24.465  27.763  1.00  0.00     0.001 A 
ATOM     77  C   UNL A   1      40.053  24.419  26.480  1.00  0.00     0.000 A 
ENDBRANCH  53  72
BRANCH  65  78
ATOM     78  C   UNL A   1      45.555  28.578  32.430  1.00  0.00    -0.014 A 
ATOM     79  C   UNL A   1      46.760  28.783  31.742  1.00  0.00     0.009 A 
ATOM     80  C   UNL A   1      45.544  27.747  33.560  1.00  0.00     0.009 A 
ATOM     81  C   UNL A   1      47.928  28.144  32.164  1.00  0.00     0.001 A 
ATOM     82  C   UNL A   1      46.717  27.126  33.991  1.00  0.00     0.001 A 
ATOM     83  C   UNL A   1      47.906  27.320  33.289  1.00  0.00     0.000 A 
ENDBRANCH  65  78
ENDBRANCH  39  40
ENDBRANCH  31  34
ENDBRANCH  29  30
ENDBRANCH  28  29
ENDBRANCH   1  28
TORSDOF 14
ENDMDL
MODEL 3
REMARK VINA RESULT:     -11.3      2.239      6.646
REMARK SMILES Cc1ccc(S(=O)(=O)Nc2cnc(N(C)C)c(C(=O)NCCCNC(=O)c3ccc(-c4c5nc(c(-c6ccccc6)c6ccc([nH]6)c(-c6ccccc6)c6nc(c(-c7ccccc7)c7ccc4[nH]7)C=C6)C=C5)cc3)c2)c(C)c1
REMARK SMILES IDX 21 1 20 2 18 3 19 4 17 6 10 7 11 8 75 9 12 10 13 11 9 12
REMARK SMILES IDX 6 14 7 15 8 16 5 17 1 18 2 19 3 20 78 21 4 22 76 23 77 24
REMARK SMILES IDX 14 25 15 26 16 27 22 28 23 29 24 30 25 31 26 33 27 34 28 35
REMARK SMILES IDX 74 36 29 37 73 38 30 39 31 40 32 41 67 42 33 43 72 44 66 45
REMARK SMILES IDX 68 46 34 47 71 48 65 49 64 50 35 52 57 53 42 54 56 55 43 56
REMARK SMILES IDX 46 57 55 58 69 59 44 60 45 61 54 63 70 64 47 65 36 66 37 67
REMARK SMILES IDX 41 68 38 69 40 70 39 71 58 72 59 73 63 74 60 75 62 76 61 77
REMARK SMILES IDX 48 78 49 79 53 80 50 81 52 82 51 83
REMARK H PARENT 20 5 9 13 24 32 68 51 46 62
REMARK Flexibility Score: inf
ROOT
ATOM      1  C   UNL A   1      31.799  30.162  26.437  1.00  0.00     0.118 C 
ENDROOT
BRANCH   1   2
ATOM      2  N   UNL A   1      32.386  30.098  25.108  1.00  0.00    -0.352 N 
ATOM      3  C   UNL A   1      32.264  29.182  24.088  1.00  0.00     0.255 C 
ATOM      4  O   UNL A   1      33.156  29.171  23.242  1.00  0.00    -0.269 OA
ATOM      5  H   UNL A   1      32.984  30.852  24.898  1.00  0.00     0.163 HD
BRANCH   3   6
ATOM      6  C   UNL A   1      31.114  28.249  23.979  1.00  0.00     0.084 A 
ATOM      7  C   UNL A   1      30.217  26.054  24.490  1.00  0.00     0.068 A 
ATOM      8  C   UNL A   1      29.116  26.408  23.743  1.00  0.00     0.140 A 
ATOM      9  C   UNL A   1      31.281  26.940  24.484  1.00  0.00     0.046 A 
ATOM     10  N   UNL A   1      28.953  27.622  23.187  1.00  0.00    -0.236 NA
ATOM     11  C   UNL A   1      29.893  28.596  23.353  1.00  0.00     0.141 A 
BRANCH   7  12
ATOM     12  N   UNL A   1      30.148  24.868  25.271  1.00  0.00    -0.278 N 
ATOM     13  H   UNL A   1      29.436  24.222  25.056  1.00  0.00     0.180 HD
BRANCH  12  14
ATOM     14  S   UNL A   1      31.188  24.488  26.532  1.00  0.00     0.262 S 
ATOM     15  O   UNL A   1      30.594  23.373  27.250  1.00  0.00    -0.201 OA
ATOM     16  O   UNL A   1      31.459  25.749  27.182  1.00  0.00    -0.201 OA
BRANCH  14  17
ATOM     17  C   UNL A   1      32.751  23.890  25.884  1.00  0.00     0.090 A 
ATOM     18  C   UNL A   1      36.129  23.064  23.333  1.00  0.00     0.044 C 
ATOM     19  C   UNL A   1      34.989  23.311  24.279  1.00  0.00    -0.051 A 
ATOM     20  C   UNL A   1      35.025  24.375  25.181  1.00  0.00     0.005 A 
ATOM     21  C   UNL A   1      33.886  22.452  24.294  1.00  0.00     0.008 A 
ATOM     22  C   UNL A   1      33.920  24.652  25.994  1.00  0.00     0.023 A 
ATOM     23  C   UNL A   1      32.757  22.723  25.090  1.00  0.00    -0.030 A 
ATOM     24  C   UNL A   1      31.654  21.698  25.077  1.00  0.00     0.046 C 
ENDBRANCH  14  17
ENDBRANCH  12  14
ENDBRANCH   7  12
BRANCH  11  25
ATOM     25  N   UNL A   1      29.459  29.846  22.955  1.00  0.00    -0.362 N 
ATOM     26  C   UNL A   1      29.736  30.246  21.573  1.00  0.00     0.145 C 
ATOM     27  C   UNL A   1      29.003  30.908  23.833  1.00  0.00     0.145 C 
ENDBRANCH  11  25
ENDBRANCH   3   6
ENDBRANCH   1   2
BRANCH   1  28
ATOM     28  C   UNL A   1      31.460  31.611  26.795  1.00  0.00     0.042 C 
BRANCH  28  29
ATOM     29  C   UNL A   1      32.680  32.526  26.800  1.00  0.00     0.118 C 
BRANCH  29  30
ATOM     30  N   UNL A   1      32.433  33.759  27.529  1.00  0.00    -0.352 N 
ATOM     31  C   UNL A   1      33.135  34.302  28.576  1.00  0.00     0.251 C 
ATOM     32  H   UNL A   1      31.653  34.279  27.229  1.00  0.00     0.163 HD
ATOM     33  O   UNL A   1      32.669  35.256  29.191  1.00  0.00    -0.269 OA
BRANCH  31  34
ATOM     34  C   UNL A   1      34.444  33.736  28.976  1.00  0.00     0.039 A 
ATOM     35  C   UNL A   1      34.507  32.950  30.130  1.00  0.00     0.014 A 
ATOM     36  C   UNL A   1      35.609  34.018  28.256  1.00  0.00     0.014 A 
ATOM     37  C   UNL A   1      35.731  32.422  30.546  1.00  0.00     0.010 A 
ATOM     38  C   UNL A   1      36.820  33.445  28.640  1.00  0.00     0.010 A 
ATOM     39  C   UNL A   1      36.895  32.656  29.797  1.00  0.00    -0.014 A 
BRANCH  39  40
ATOM     40  C   UNL A   1      38.204  32.114  30.236  1.00  0.00     0.031 A 
ATOM     41  C   UNL A   1      38.704  30.809  29.680  1.00  0.00     0.074 A 
ATOM     42  C   UNL A   1      38.924  32.769  31.165  1.00  0.00     0.049 A 
ATOM     43  N   UNL A   1      39.801  30.154  29.967  1.00  0.00    -0.248 NA
ATOM     44  C   UNL A   1      37.846  30.139  28.689  1.00  0.00     0.031 C 
ATOM     45  C   UNL A   1      38.533  34.023  31.813  1.00  0.00     0.029 A 
ATOM     46  N   UNL A   1      40.138  32.467  31.728  1.00  0.00    -0.354 N 
ATOM     47  C   UNL A   1      39.751  28.987  29.216  1.00  0.00     0.074 A 
ATOM     48  C   UNL A   1      38.502  29.006  28.486  1.00  0.00     0.031 C 
ATOM     49  C   UNL A   1      39.501  34.394  32.668  1.00  0.00     0.029 A 
ATOM     50  C   UNL A   1      40.565  33.395  32.645  1.00  0.00     0.049 A 
ATOM     51  H   UNL A   1      40.654  31.660  31.497  1.00  0.00     0.167 HD
ATOM     52  C   UNL A   1      40.668  27.994  29.128  1.00  0.00     0.031 A 
ATOM     53  C   UNL A   1      41.690  33.436  33.384  1.00  0.00     0.031 A 
ATOM     54  C   UNL A   1      41.923  27.984  29.829  1.00  0.00     0.049 A 
ATOM     55  C   UNL A   1      42.709  32.343  33.240  1.00  0.00     0.074 A 
ATOM     56  C   UNL A   1      42.944  27.052  29.759  1.00  0.00     0.029 A 
ATOM     57  N   UNL A   1      42.332  28.960  30.722  1.00  0.00    -0.354 N 
ATOM     58  N   UNL A   1      42.672  31.275  32.483  1.00  0.00    -0.248 NA
ATOM     59  C   UNL A   1      43.933  32.472  34.044  1.00  0.00     0.031 C 
ATOM     60  C   UNL A   1      43.962  27.452  30.633  1.00  0.00     0.029 A 
ATOM     61  C   UNL A   1      43.586  28.650  31.219  1.00  0.00     0.049 A 
ATOM     62  H   UNL A   1      41.808  29.757  30.968  1.00  0.00     0.167 HD
ATOM     63  C   UNL A   1      43.873  30.615  32.701  1.00  0.00     0.074 A 
ATOM     64  C   UNL A   1      44.624  31.410  33.652  1.00  0.00     0.031 C 
ATOM     65  C   UNL A   1      44.317  29.454  32.161  1.00  0.00     0.031 A 
BRANCH  52  66
ATOM     66  C   UNL A   1      40.335  26.830  28.240  1.00  0.00    -0.014 A 
ATOM     67  C   UNL A   1      39.526  25.777  28.697  1.00  0.00     0.009 A 
ATOM     68  C   UNL A   1      40.821  26.793  26.925  1.00  0.00     0.009 A 
ATOM     69  C   UNL A   1      39.243  24.691  27.865  1.00  0.00     0.001 A 
ATOM     70  C   UNL A   1      40.517  25.718  26.088  1.00  0.00     0.001 A 
ATOM     71  C   UNL A   1      39.736  24.665  26.562  1.00  0.00     0.000 A 
ENDBRANCH  52  66
BRANCH  53  72
ATOM     72  C   UNL A   1      41.928  34.578  34.301  1.00  0.00    -0.014 A 
ATOM     73  C   UNL A   1      41.524  34.503  35.644  1.00  0.00     0.009 A 
ATOM     74  C   UNL A   1      42.562  35.743  33.844  1.00  0.00     0.009 A 
ATOM     75  C   UNL A   1      41.734  35.580  36.505  1.00  0.00     0.001 A 
ATOM     76  C   UNL A   1      42.788  36.811  34.714  1.00  0.00     0.001 A 
ATOM     77  C   UNL A   1      42.368  36.732  36.041  1.00  0.00     0.000 A 
ENDBRANCH  53  72
BRANCH  65  78
ATOM     78  C   UNL A   1      45.686  28.994  32.565  1.00  0.00    -0.014 A 
ATOM     79  C   UNL A   1      45.868  28.141  33.663  1.00  0.00     0.009 A 
ATOM     80  C   UNL A   1      46.803  29.394  31.816  1.00  0.00     0.009 A 
ATOM     81  C   UNL A   1      47.151  27.719  34.020  1.00  0.00     0.001 A 
ATOM     82  C   UNL A   1      48.081  28.954  32.163  1.00  0.00     0.001 A 
ATOM     83  C   UNL A   1      48.254  28.123  33.268  1.00  0.00     0.000 A 
ENDBRANCH  65  78
ENDBRANCH  39  40
ENDBRANCH  31  34
ENDBRANCH  29  30
ENDBRANCH  28  29
ENDBRANCH   1  28
TORSDOF 14
ENDMDL
