MODEL 1
REMARK VINA RESULT:     -11.8      0.000      0.000
REMARK SMILES Cc1nn(C)cc1-c1cc(C(F)(F)F)nc(N2CCC[C@@H]2C(=O)NCCCNC(=O)c2ccc(-c3c4nc(c(-c5ccccc5)c5ccc([nH]5)c(-c5ccccc5)c5nc(c(-c6ccccc6)c6ccc3[nH]6)C=C5)C=C4)cc2)n1
REMARK SMILES IDX 26 1 25 2 24 3 22 4 23 5 21 7 17 8 18 9 19 10 20 11 16 12
REMARK SMILES IDX 8 13 9 14 79 15 10 16 15 17 7 18 1 19 2 20 3 21 4 22 6 23
REMARK SMILES IDX 5 24 11 25 12 26 13 27 14 28 27 29 28 30 29 31 30 33 31 34
REMARK SMILES IDX 32 35 78 36 33 37 77 38 34 39 35 40 36 41 71 42 37 43 76 44
REMARK SMILES IDX 70 45 72 46 38 47 75 48 69 49 68 50 39 52 61 53 46 54 60 55
REMARK SMILES IDX 47 56 50 57 59 58 73 59 48 60 49 61 58 63 74 64 51 65 40 66
REMARK SMILES IDX 41 67 45 68 42 69 44 70 43 71 62 72 63 73 67 74 64 75 66 76
REMARK SMILES IDX 65 77 52 78 53 79 57 80 54 81 56 82 55 83
REMARK H PARENT 24 6 28 32 72 51 50 62
REMARK Flexibility Score: inf
ROOT
ATOM      1  C   UNL A   1      35.494  23.277  25.588  1.00  0.00     0.042 C 
ENDROOT
BRANCH   1   2
ATOM      2  C   UNL A   1      34.384  24.286  25.323  1.00  0.00     0.117 C 
BRANCH   2   3
ATOM      3  N   UNL A   1      34.509  24.910  24.019  1.00  0.00    -0.354 N 
ATOM      4  C   UNL A   1      33.603  25.094  23.015  1.00  0.00     0.242 C 
ATOM      5  O   UNL A   1      34.028  25.661  22.001  1.00  0.00    -0.273 OA
ATOM      6  H   UNL A   1      35.406  25.264  23.825  1.00  0.00     0.163 HD
BRANCH   4   7
ATOM      7  C   UNL A   1      32.152  24.564  23.059  1.00  0.00     0.174 C 
ATOM      8  N   UNL A   1      31.341  25.095  24.142  1.00  0.00    -0.329 N 
ATOM      9  C   UNL A   1      30.651  24.089  24.908  1.00  0.00     0.120 C 
ATOM     10  C   UNL A   1      31.443  22.816  24.621  1.00  0.00     0.024 C 
ATOM     11  C   UNL A   1      32.092  23.042  23.256  1.00  0.00     0.037 C 
BRANCH   8  12
ATOM     12  C   UNL A   1      31.227  26.427  24.369  1.00  0.00     0.227 A 
ATOM     13  C   UNL A   1      30.425  28.487  23.784  1.00  0.00     0.080 A 
ATOM     14  C   UNL A   1      31.279  29.127  24.650  1.00  0.00     0.062 A 
ATOM     15  N   UNL A   1      30.414  27.153  23.602  1.00  0.00    -0.213 NA
ATOM     16  C   UNL A   1      32.103  28.312  25.394  1.00  0.00     0.150 A 
ATOM     17  N   UNL A   1      32.042  26.961  25.289  1.00  0.00    -0.208 NA
BRANCH  13  18
ATOM     18  C   UNL A   1      29.431  29.246  23.056  1.00  0.00     0.041 A 
ATOM     19  C   UNL A   1      27.137  28.058  23.502  1.00  0.00     0.069 C 
ATOM     20  C   UNL A   1      28.035  29.063  22.881  1.00  0.00     0.069 A 
ATOM     21  N   UNL A   1      27.526  29.952  22.017  1.00  0.00    -0.178 NA
ATOM     22  N   UNL A   1      28.580  30.712  21.670  1.00  0.00    -0.275 N 
ATOM     23  C   UNL A   1      29.742  30.336  22.269  1.00  0.00     0.119 A 
ATOM     24  C   UNL A   1      28.405  31.771  20.706  1.00  0.00     0.173 C 
ENDBRANCH  13  18
BRANCH  16  25
ATOM     25  C   UNL A   1      33.157  28.918  26.299  1.00  0.00     0.433 C 
ATOM     26  F   UNL A   1      33.324  30.258  26.115  1.00  0.00    -0.165 F 
ATOM     27  F   UNL A   1      32.862  28.751  27.621  1.00  0.00    -0.165 F 
ATOM     28  F   UNL A   1      34.395  28.366  26.131  1.00  0.00    -0.165 F 
ENDBRANCH  16  25
ENDBRANCH   8  12
ENDBRANCH   4   7
ENDBRANCH   2   3
ENDBRANCH   1   2
BRANCH   1  29
ATOM     29  C   UNL A   1      36.851  23.703  25.047  1.00  0.00     0.118 C 
BRANCH  29  30
ATOM     30  N   UNL A   1      37.907  22.761  25.393  1.00  0.00    -0.352 N 
ATOM     31  C   UNL A   1      39.070  22.950  26.089  1.00  0.00     0.251 C 
ATOM     32  H   UNL A   1      37.760  21.841  25.075  1.00  0.00     0.163 HD
ATOM     33  O   UNL A   1      39.909  22.048  26.117  1.00  0.00    -0.269 OA
BRANCH  31  34
ATOM     34  C   UNL A   1      39.344  24.217  26.803  1.00  0.00     0.039 A 
ATOM     35  C   UNL A   1      40.093  25.202  26.150  1.00  0.00     0.014 A 
ATOM     36  C   UNL A   1      38.933  24.419  28.123  1.00  0.00     0.014 A 
ATOM     37  C   UNL A   1      40.405  26.393  26.807  1.00  0.00     0.010 A 
ATOM     38  C   UNL A   1      39.178  25.638  28.751  1.00  0.00     0.010 A 
ATOM     39  C   UNL A   1      39.938  26.626  28.109  1.00  0.00    -0.014 A 
BRANCH  39  40
ATOM     40  C   UNL A   1      40.282  27.873  28.833  1.00  0.00     0.031 A 
ATOM     41  C   UNL A   1      41.628  28.010  29.494  1.00  0.00     0.074 A 
ATOM     42  C   UNL A   1      39.377  28.864  28.935  1.00  0.00     0.049 A 
ATOM     43  N   UNL A   1      42.101  29.000  30.210  1.00  0.00    -0.248 NA
ATOM     44  C   UNL A   1      42.555  26.875  29.354  1.00  0.00     0.031 C 
ATOM     45  C   UNL A   1      38.026  28.841  28.370  1.00  0.00     0.029 A 
ATOM     46  N   UNL A   1      39.458  30.085  29.554  1.00  0.00    -0.354 N 
ATOM     47  C   UNL A   1      43.364  28.595  30.623  1.00  0.00     0.074 A 
ATOM     48  C   UNL A   1      43.567  27.256  30.118  1.00  0.00     0.031 C 
ATOM     49  C   UNL A   1      37.416  30.006  28.645  1.00  0.00     0.029 A 
ATOM     50  C   UNL A   1      38.319  30.841  29.430  1.00  0.00     0.049 A 
ATOM     51  H   UNL A   1      40.257  30.390  30.041  1.00  0.00     0.167 HD
ATOM     52  C   UNL A   1      44.283  29.283  31.342  1.00  0.00     0.031 A 
ATOM     53  C   UNL A   1      38.035  32.072  29.895  1.00  0.00     0.031 A 
ATOM     54  C   UNL A   1      44.094  30.624  31.823  1.00  0.00     0.049 A 
ATOM     55  C   UNL A   1      39.078  32.823  30.674  1.00  0.00     0.074 A 
ATOM     56  C   UNL A   1      44.984  31.426  32.517  1.00  0.00     0.029 A 
ATOM     57  N   UNL A   1      42.935  31.364  31.654  1.00  0.00    -0.354 N 
ATOM     58  N   UNL A   1      40.288  32.448  31.010  1.00  0.00    -0.248 NA
ATOM     59  C   UNL A   1      38.720  34.177  31.120  1.00  0.00     0.031 C 
ATOM     60  C   UNL A   1      44.348  32.641  32.797  1.00  0.00     0.029 A 
ATOM     61  C   UNL A   1      43.081  32.610  32.236  1.00  0.00     0.049 A 
ATOM     62  H   UNL A   1      42.126  31.050  31.187  1.00  0.00     0.167 HD
ATOM     63  C   UNL A   1      40.846  33.528  31.679  1.00  0.00     0.074 A 
ATOM     64  C   UNL A   1      39.848  34.577  31.691  1.00  0.00     0.031 C 
ATOM     65  C   UNL A   1      42.079  33.643  32.233  1.00  0.00     0.031 A 
BRANCH  52  66
ATOM     66  C   UNL A   1      45.578  28.585  31.652  1.00  0.00    -0.014 A 
ATOM     67  C   UNL A   1      46.682  28.687  30.790  1.00  0.00     0.009 A 
ATOM     68  C   UNL A   1      45.702  27.833  32.829  1.00  0.00     0.009 A 
ATOM     69  C   UNL A   1      47.871  28.017  31.084  1.00  0.00     0.001 A 
ATOM     70  C   UNL A   1      46.901  27.186  33.134  1.00  0.00     0.001 A 
ATOM     71  C   UNL A   1      47.981  27.270  32.256  1.00  0.00     0.000 A 
ENDBRANCH  52  66
BRANCH  53  72
ATOM     72  C   UNL A   1      36.714  32.688  29.608  1.00  0.00    -0.014 A 
ATOM     73  C   UNL A   1      36.503  33.380  28.405  1.00  0.00     0.009 A 
ATOM     74  C   UNL A   1      35.663  32.590  30.531  1.00  0.00     0.009 A 
ATOM     75  C   UNL A   1      35.271  33.984  28.144  1.00  0.00     0.001 A 
ATOM     76  C   UNL A   1      34.424  33.173  30.255  1.00  0.00     0.001 A 
ATOM     77  C   UNL A   1      34.233  33.877  29.068  1.00  0.00     0.000 A 
ENDBRANCH  53  72
BRANCH  65  78
ATOM     78  C   UNL A   1      42.428  34.963  32.856  1.00  0.00    -0.014 A 
ATOM     79  C   UNL A   1      43.174  35.926  32.159  1.00  0.00     0.009 A 
ATOM     80  C   UNL A   1      41.972  35.259  34.150  1.00  0.00     0.009 A 
ATOM     81  C   UNL A   1      43.486  37.146  32.761  1.00  0.00     0.001 A 
ATOM     82  C   UNL A   1      42.263  36.490  34.739  1.00  0.00     0.001 A 
ATOM     83  C   UNL A   1      43.027  37.429  34.047  1.00  0.00     0.000 A 
ENDBRANCH  65  78
ENDBRANCH  39  40
ENDBRANCH  31  34
ENDBRANCH  29  30
ENDBRANCH   1  29
TORSDOF 13
ENDMDL
MODEL 2
REMARK VINA RESULT:     -11.8      3.127      8.284
REMARK SMILES Cc1nn(C)cc1-c1cc(C(F)(F)F)nc(N2CCC[C@@H]2C(=O)NCCCNC(=O)c2ccc(-c3c4nc(c(-c5ccccc5)c5ccc([nH]5)c(-c5ccccc5)c5nc(c(-c6ccccc6)c6ccc3[nH]6)C=C5)C=C4)cc2)n1
REMARK SMILES IDX 26 1 25 2 24 3 22 4 23 5 21 7 17 8 18 9 19 10 20 11 16 12
REMARK SMILES IDX 8 13 9 14 79 15 10 16 15 17 7 18 1 19 2 20 3 21 4 22 6 23
REMARK SMILES IDX 5 24 11 25 12 26 13 27 14 28 27 29 28 30 29 31 30 33 31 34
REMARK SMILES IDX 32 35 78 36 33 37 77 38 34 39 35 40 36 41 71 42 37 43 76 44
REMARK SMILES IDX 70 45 72 46 38 47 75 48 69 49 68 50 39 52 61 53 46 54 60 55
REMARK SMILES IDX 47 56 50 57 59 58 73 59 48 60 49 61 58 63 74 64 51 65 40 66
REMARK SMILES IDX 41 67 45 68 42 69 44 70 43 71 62 72 63 73 67 74 64 75 66 76
REMARK SMILES IDX 65 77 52 78 53 79 57 80 54 81 56 82 55 83
REMARK H PARENT 24 6 28 32 72 51 50 62
REMARK Flexibility Score: inf
ROOT
ATOM      1  C   UNL A   1      32.302  28.035  27.128  1.00  0.00     0.042 C 
ENDROOT
BRANCH   1   2
ATOM      2  C   UNL A   1      32.198  26.852  26.174  1.00  0.00     0.117 C 
BRANCH   2   3
ATOM      3  N   UNL A   1      31.777  25.639  26.847  1.00  0.00    -0.354 N 
ATOM      4  C   UNL A   1      31.156  24.517  26.382  1.00  0.00     0.242 C 
ATOM      5  O   UNL A   1      30.913  23.643  27.224  1.00  0.00    -0.273 OA
ATOM      6  H   UNL A   1      31.975  25.622  27.811  1.00  0.00     0.163 HD
BRANCH   4   7
ATOM      7  C   UNL A   1      30.683  24.339  24.921  1.00  0.00     0.174 C 
ATOM      8  N   UNL A   1      31.752  24.166  23.951  1.00  0.00    -0.329 N 
ATOM      9  C   UNL A   1      31.651  25.033  22.804  1.00  0.00     0.120 C 
ATOM     10  C   UNL A   1      30.752  26.166  23.291  1.00  0.00     0.024 C 
ATOM     11  C   UNL A   1      29.903  25.557  24.407  1.00  0.00     0.037 C 
BRANCH   8  12
ATOM     12  C   UNL A   1      32.727  23.238  24.112  1.00  0.00     0.227 A 
ATOM     13  C   UNL A   1      33.380  21.072  24.452  1.00  0.00     0.080 A 
ATOM     14  C   UNL A   1      34.666  21.450  24.757  1.00  0.00     0.062 A 
ATOM     15  N   UNL A   1      32.396  21.947  24.170  1.00  0.00    -0.213 NA
ATOM     16  C   UNL A   1      34.927  22.801  24.695  1.00  0.00     0.150 A 
ATOM     17  N   UNL A   1      33.970  23.689  24.325  1.00  0.00    -0.208 NA
BRANCH  13  18
ATOM     18  C   UNL A   1      33.041  19.669  24.361  1.00  0.00     0.041 A 
ATOM     19  C   UNL A   1      32.190  19.283  21.912  1.00  0.00     0.069 C 
ATOM     20  C   UNL A   1      32.492  18.889  23.311  1.00  0.00     0.069 A 
ATOM     21  N   UNL A   1      32.230  17.637  23.711  1.00  0.00    -0.178 NA
ATOM     22  N   UNL A   1      32.636  17.612  24.993  1.00  0.00    -0.275 N 
ATOM     23  C   UNL A   1      33.136  18.799  25.429  1.00  0.00     0.119 A 
ATOM     24  C   UNL A   1      32.468  16.406  25.766  1.00  0.00     0.173 C 
ENDBRANCH  13  18
BRANCH  16  25
ATOM     25  C   UNL A   1      36.281  23.335  25.116  1.00  0.00     0.433 C 
ATOM     26  F   UNL A   1      36.207  24.466  25.872  1.00  0.00    -0.165 F 
ATOM     27  F   UNL A   1      36.987  22.430  25.856  1.00  0.00    -0.165 F 
ATOM     28  F   UNL A   1      37.089  23.649  24.061  1.00  0.00    -0.165 F 
ENDBRANCH  16  25
ENDBRANCH   8  12
ENDBRANCH   4   7
ENDBRANCH   2   3
ENDBRANCH   1   2
BRANCH   1  29
ATOM     29  C   UNL A   1      33.694  28.649  27.193  1.00  0.00     0.118 C 
BRANCH  29  30
ATOM     30  N   UNL A   1      33.678  30.005  27.723  1.00  0.00    -0.352 N 
ATOM     31  C   UNL A   1      34.640  30.704  28.402  1.00  0.00     0.251 C 
ATOM     32  H   UNL A   1      32.840  30.500  27.568  1.00  0.00     0.163 HD
ATOM     33  O   UNL A   1      34.349  31.787  28.914  1.00  0.00    -0.269 OA
BRANCH  31  34
ATOM     34  C   UNL A   1      36.017  30.183  28.539  1.00  0.00     0.039 A 
ATOM     35  C   UNL A   1      36.404  29.637  29.768  1.00  0.00     0.014 A 
ATOM     36  C   UNL A   1      36.948  30.286  27.501  1.00  0.00     0.014 A 
ATOM     37  C   UNL A   1      37.708  29.173  29.947  1.00  0.00     0.010 A 
ATOM     38  C   UNL A   1      38.225  29.752  27.655  1.00  0.00     0.010 A 
ATOM     39  C   UNL A   1      38.626  29.214  28.886  1.00  0.00    -0.014 A 
BRANCH  39  40
ATOM     40  C   UNL A   1      40.023  28.751  29.065  1.00  0.00     0.031 A 
ATOM     41  C   UNL A   1      41.052  29.679  29.654  1.00  0.00     0.074 A 
ATOM     42  C   UNL A   1      40.380  27.517  28.663  1.00  0.00     0.049 A 
ATOM     43  N   UNL A   1      42.331  29.479  29.850  1.00  0.00    -0.248 NA
ATOM     44  C   UNL A   1      40.587  31.019  30.051  1.00  0.00     0.031 C 
ATOM     45  C   UNL A   1      39.486  26.534  28.046  1.00  0.00     0.029 A 
ATOM     46  N   UNL A   1      41.593  26.880  28.712  1.00  0.00    -0.354 N 
ATOM     47  C   UNL A   1      42.824  30.670  30.367  1.00  0.00     0.074 A 
ATOM     48  C   UNL A   1      41.719  31.602  30.412  1.00  0.00     0.031 C 
ATOM     49  C   UNL A   1      40.177  25.409  27.800  1.00  0.00     0.029 A 
ATOM     50  C   UNL A   1      41.564  25.602  28.212  1.00  0.00     0.049 A 
ATOM     51  H   UNL A   1      42.408  27.300  29.072  1.00  0.00     0.167 HD
ATOM     52  C   UNL A   1      44.079  30.959  30.786  1.00  0.00     0.031 A 
ATOM     53  C   UNL A   1      42.544  24.687  28.100  1.00  0.00     0.031 A 
ATOM     54  C   UNL A   1      45.173  30.026  30.766  1.00  0.00     0.049 A 
ATOM     55  C   UNL A   1      43.925  25.024  28.589  1.00  0.00     0.074 A 
ATOM     56  C   UNL A   1      46.470  30.206  31.215  1.00  0.00     0.029 A 
ATOM     57  N   UNL A   1      45.094  28.733  30.275  1.00  0.00    -0.354 N 
ATOM     58  N   UNL A   1      44.362  26.137  29.126  1.00  0.00    -0.248 NA
ATOM     59  C   UNL A   1      44.941  23.969  28.474  1.00  0.00     0.031 C 
ATOM     60  C   UNL A   1      47.185  29.030  30.963  1.00  0.00     0.029 A 
ATOM     61  C   UNL A   1      46.320  28.105  30.401  1.00  0.00     0.049 A 
ATOM     62  H   UNL A   1      44.285  28.321  29.893  1.00  0.00     0.167 HD
ATOM     63  C   UNL A   1      45.694  25.907  29.440  1.00  0.00     0.074 A 
ATOM     64  C   UNL A   1      45.990  24.545  29.046  1.00  0.00     0.031 C 
ATOM     65  C   UNL A   1      46.593  26.748  30.009  1.00  0.00     0.031 A 
BRANCH  52  66
ATOM     66  C   UNL A   1      44.331  32.350  31.299  1.00  0.00    -0.014 A 
ATOM     67  C   UNL A   1      44.702  33.389  30.430  1.00  0.00     0.009 A 
ATOM     68  C   UNL A   1      44.179  32.628  32.665  1.00  0.00     0.009 A 
ATOM     69  C   UNL A   1      44.951  34.669  30.926  1.00  0.00     0.001 A 
ATOM     70  C   UNL A   1      44.403  33.917  33.155  1.00  0.00     0.001 A 
ATOM     71  C   UNL A   1      44.798  34.933  32.287  1.00  0.00     0.000 A 
ENDBRANCH  52  66
BRANCH  53  72
ATOM     72  C   UNL A   1      42.249  23.348  27.529  1.00  0.00    -0.014 A 
ATOM     73  C   UNL A   1      42.569  23.061  26.193  1.00  0.00     0.009 A 
ATOM     74  C   UNL A   1      41.647  22.353  28.313  1.00  0.00     0.009 A 
ATOM     75  C   UNL A   1      42.266  21.813  25.646  1.00  0.00     0.001 A 
ATOM     76  C   UNL A   1      41.370  21.096  27.770  1.00  0.00     0.001 A 
ATOM     77  C   UNL A   1      41.670  20.831  26.435  1.00  0.00     0.000 A 
ENDBRANCH  53  72
BRANCH  65  78
ATOM     78  C   UNL A   1      47.966  26.202  30.277  1.00  0.00    -0.014 A 
ATOM     79  C   UNL A   1      48.949  26.174  29.277  1.00  0.00     0.009 A 
ATOM     80  C   UNL A   1      48.287  25.739  31.563  1.00  0.00     0.009 A 
ATOM     81  C   UNL A   1      50.218  25.661  29.551  1.00  0.00     0.001 A 
ATOM     82  C   UNL A   1      49.564  25.251  31.841  1.00  0.00     0.001 A 
ATOM     83  C   UNL A   1      50.525  25.204  30.832  1.00  0.00     0.000 A 
ENDBRANCH  65  78
ENDBRANCH  39  40
ENDBRANCH  31  34
ENDBRANCH  29  30
ENDBRANCH   1  29
TORSDOF 13
ENDMDL
MODEL 3
REMARK VINA RESULT:     -11.8      0.760      5.799
REMARK SMILES Cc1nn(C)cc1-c1cc(C(F)(F)F)nc(N2CCC[C@@H]2C(=O)NCCCNC(=O)c2ccc(-c3c4nc(c(-c5ccccc5)c5ccc([nH]5)c(-c5ccccc5)c5nc(c(-c6ccccc6)c6ccc3[nH]6)C=C5)C=C4)cc2)n1
REMARK SMILES IDX 26 1 25 2 24 3 22 4 23 5 21 7 17 8 18 9 19 10 20 11 16 12
REMARK SMILES IDX 8 13 9 14 79 15 10 16 15 17 7 18 1 19 2 20 3 21 4 22 6 23
REMARK SMILES IDX 5 24 11 25 12 26 13 27 14 28 27 29 28 30 29 31 30 33 31 34
REMARK SMILES IDX 32 35 78 36 33 37 77 38 34 39 35 40 36 41 71 42 37 43 76 44
REMARK SMILES IDX 70 45 72 46 38 47 75 48 69 49 68 50 39 52 61 53 46 54 60 55
REMARK SMILES IDX 47 56 50 57 59 58 73 59 48 60 49 61 58 63 74 64 51 65 40 66
REMARK SMILES IDX 41 67 45 68 42 69 44 70 43 71 62 72 63 73 67 74 64 75 66 76
REMARK SMILES IDX 65 77 52 78 53 79 57 80 54 81 56 82 55 83
REMARK H PARENT 24 6 28 32 72 51 50 62
REMARK Flexibility Score: inf
ROOT
ATOM      1  C   UNL A   1      35.593  23.486  24.782  1.00  0.00     0.042 C 
ENDROOT
BRANCH   1   2
ATOM      2  C   UNL A   1      34.469  24.512  24.725  1.00  0.00     0.117 C 
BRANCH   2   3
ATOM      3  N   UNL A   1      34.395  25.174  23.436  1.00  0.00    -0.354 N 
ATOM      4  C   UNL A   1      33.353  25.364  22.576  1.00  0.00     0.242 C 
ATOM      5  O   UNL A   1      33.618  25.969  21.530  1.00  0.00    -0.273 OA
ATOM      6  H   UNL A   1      35.249  25.556  23.128  1.00  0.00     0.163 HD
BRANCH   4   7
ATOM      7  C   UNL A   1      31.934  24.798  22.808  1.00  0.00     0.174 C 
ATOM      8  N   UNL A   1      31.263  25.301  23.995  1.00  0.00    -0.329 N 
ATOM      9  C   UNL A   1      30.705  24.272  24.836  1.00  0.00     0.120 C 
ATOM     10  C   UNL A   1      31.482  23.022  24.432  1.00  0.00     0.024 C 
ATOM     11  C   UNL A   1      31.936  23.274  22.995  1.00  0.00     0.037 C 
BRANCH   8  12
ATOM     12  C   UNL A   1      31.149  26.628  24.250  1.00  0.00     0.227 A 
ATOM     13  C   UNL A   1      30.308  28.691  23.734  1.00  0.00     0.080 A 
ATOM     14  C   UNL A   1      31.194  29.323  24.575  1.00  0.00     0.062 A 
ATOM     15  N   UNL A   1      30.300  27.361  23.530  1.00  0.00    -0.213 NA
ATOM     16  C   UNL A   1      32.055  28.502  25.269  1.00  0.00     0.150 A 
ATOM     17  N   UNL A   1      31.999  27.152  25.143  1.00  0.00    -0.208 NA
BRANCH  13  18
ATOM     18  C   UNL A   1      29.279  29.455  23.062  1.00  0.00     0.041 A 
ATOM     19  C   UNL A   1      27.019  28.222  23.556  1.00  0.00     0.069 C 
ATOM     20  C   UNL A   1      27.881  29.256  22.931  1.00  0.00     0.069 A 
ATOM     21  N   UNL A   1      27.329  30.160  22.110  1.00  0.00    -0.178 NA
ATOM     22  N   UNL A   1      28.360  30.944  21.746  1.00  0.00    -0.275 N 
ATOM     23  C   UNL A   1      29.547  30.569  22.294  1.00  0.00     0.119 A 
ATOM     24  C   UNL A   1      28.136  32.025  20.817  1.00  0.00     0.173 C 
ENDBRANCH  13  18
BRANCH  16  25
ATOM     25  C   UNL A   1      33.141  29.101  26.139  1.00  0.00     0.433 C 
ATOM     26  F   UNL A   1      33.210  30.460  26.062  1.00  0.00    -0.165 F 
ATOM     27  F   UNL A   1      32.969  28.806  27.460  1.00  0.00    -0.165 F 
ATOM     28  F   UNL A   1      34.392  28.650  25.827  1.00  0.00    -0.165 F 
ENDBRANCH  16  25
ENDBRANCH   8  12
ENDBRANCH   4   7
ENDBRANCH   2   3
ENDBRANCH   1   2
BRANCH   1  29
ATOM     29  C   UNL A   1      36.489  23.627  26.005  1.00  0.00     0.118 C 
BRANCH  29  30
ATOM     30  N   UNL A   1      37.595  22.679  25.994  1.00  0.00    -0.352 N 
ATOM     31  C   UNL A   1      38.922  22.861  26.278  1.00  0.00     0.251 C 
ATOM     32  H   UNL A   1      37.349  21.759  25.743  1.00  0.00     0.163 HD
ATOM     33  O   UNL A   1      39.720  21.954  26.036  1.00  0.00    -0.269 OA
BRANCH  31  34
ATOM     34  C   UNL A   1      39.418  24.126  26.863  1.00  0.00     0.039 A 
ATOM     35  C   UNL A   1      39.157  24.383  28.214  1.00  0.00     0.014 A 
ATOM     36  C   UNL A   1      40.072  25.087  26.088  1.00  0.00     0.014 A 
ATOM     37  C   UNL A   1      39.574  25.584  28.790  1.00  0.00     0.010 A 
ATOM     38  C   UNL A   1      40.556  26.251  26.681  1.00  0.00     0.010 A 
ATOM     39  C   UNL A   1      40.290  26.522  28.031  1.00  0.00    -0.014 A 
BRANCH  39  40
ATOM     40  C   UNL A   1      40.716  27.815  28.618  1.00  0.00     0.031 A 
ATOM     41  C   UNL A   1      39.712  28.919  28.813  1.00  0.00     0.074 A 
ATOM     42  C   UNL A   1      42.009  28.016  28.936  1.00  0.00     0.049 A 
ATOM     43  N   UNL A   1      39.895  30.133  29.267  1.00  0.00    -0.248 NA
ATOM     44  C   UNL A   1      38.322  28.628  28.422  1.00  0.00     0.031 C 
ATOM     45  C   UNL A   1      43.086  27.039  28.764  1.00  0.00     0.029 A 
ATOM     46  N   UNL A   1      42.635  29.112  29.471  1.00  0.00    -0.354 N 
ATOM     47  C   UNL A   1      38.655  30.755  29.192  1.00  0.00     0.074 A 
ATOM     48  C   UNL A   1      37.738  29.802  28.608  1.00  0.00     0.031 C 
ATOM     49  C   UNL A   1      44.235  27.572  29.211  1.00  0.00     0.029 A 
ATOM     50  C   UNL A   1      43.981  28.934  29.670  1.00  0.00     0.049 A 
ATOM     51  H   UNL A   1      42.163  29.948  29.690  1.00  0.00     0.167 HD
ATOM     52  C   UNL A   1      38.304  32.000  29.591  1.00  0.00     0.031 A 
ATOM     53  C   UNL A   1      44.908  29.773  30.171  1.00  0.00     0.031 A 
ATOM     54  C   UNL A   1      39.208  32.941  30.195  1.00  0.00     0.049 A 
ATOM     55  C   UNL A   1      44.489  31.143  30.625  1.00  0.00     0.074 A 
ATOM     56  C   UNL A   1      38.938  34.209  30.680  1.00  0.00     0.029 A 
ATOM     57  N   UNL A   1      40.558  32.710  30.403  1.00  0.00    -0.354 N 
ATOM     58  N   UNL A   1      43.302  31.696  30.598  1.00  0.00    -0.248 NA
ATOM     59  C   UNL A   1      45.540  31.996  31.197  1.00  0.00     0.031 C 
ATOM     60  C   UNL A   1      40.135  34.759  31.152  1.00  0.00     0.029 A 
ATOM     61  C   UNL A   1      41.138  33.815  31.001  1.00  0.00     0.049 A 
ATOM     62  H   UNL A   1      41.034  31.883  30.162  1.00  0.00     0.167 HD
ATOM     63  C   UNL A   1      43.455  32.949  31.175  1.00  0.00     0.074 A 
ATOM     64  C   UNL A   1      44.847  33.069  31.555  1.00  0.00     0.031 C 
ATOM     65  C   UNL A   1      42.523  33.914  31.377  1.00  0.00     0.031 A 
BRANCH  52  66
ATOM     66  C   UNL A   1      36.874  32.414  29.379  1.00  0.00    -0.014 A 
ATOM     67  C   UNL A   1      35.912  32.248  30.389  1.00  0.00     0.009 A 
ATOM     68  C   UNL A   1      36.487  32.995  28.162  1.00  0.00     0.009 A 
ATOM     69  C   UNL A   1      34.585  32.620  30.169  1.00  0.00     0.001 A 
ATOM     70  C   UNL A   1      35.164  33.391  27.955  1.00  0.00     0.001 A 
ATOM     71  C   UNL A   1      34.213  33.194  28.954  1.00  0.00     0.000 A 
ENDBRANCH  52  66
BRANCH  53  72
ATOM     72  C   UNL A   1      46.319  29.329  30.301  1.00  0.00    -0.014 A 
ATOM     73  C   UNL A   1      47.227  29.537  29.252  1.00  0.00     0.009 A 
ATOM     74  C   UNL A   1      46.764  28.695  31.471  1.00  0.00     0.009 A 
ATOM     75  C   UNL A   1      48.547  29.096  29.361  1.00  0.00     0.001 A 
ATOM     76  C   UNL A   1      48.092  28.278  31.587  1.00  0.00     0.001 A 
ATOM     77  C   UNL A   1      48.979  28.469  30.529  1.00  0.00     0.000 A 
ENDBRANCH  53  72
BRANCH  65  78
ATOM     78  C   UNL A   1      42.974  35.162  32.078  1.00  0.00    -0.014 A 
ATOM     79  C   UNL A   1      43.570  36.220  31.374  1.00  0.00     0.009 A 
ATOM     80  C   UNL A   1      42.767  35.293  33.460  1.00  0.00     0.009 A 
ATOM     81  C   UNL A   1      43.980  37.371  32.048  1.00  0.00     0.001 A 
ATOM     82  C   UNL A   1      43.154  36.456  34.127  1.00  0.00     0.001 A 
ATOM     83  C   UNL A   1      43.769  37.490  33.422  1.00  0.00     0.000 A 
ENDBRANCH  65  78
ENDBRANCH  39  40
ENDBRANCH  31  34
ENDBRANCH  29  30
ENDBRANCH   1  29
TORSDOF 13
ENDMDL
