MODEL 1
REMARK VINA RESULT:     -10.3      0.000      0.000
REMARK SMILES CC[C@@](O)(C(=O)NCCCNC(=O)c1ccc(-c2c3nc(c(-c4ccccc4)c4ccc([nH]4)c(-c4ccccc4)c4nc(c(-c5ccccc5)c5ccc2[nH]5)C=C4)C=C3)cc1)[C@@H](C)c1ccc(OC)c(OC)c1
REMARK SMILES IDX 8 1 7 2 5 3 6 4 3 6 2 7 1 8 4 9 62 11 63 12 64 13 65 14
REMARK SMILES IDX 73 15 66 16 70 17 67 18 71 19 72 20 68 21 69 22 9 23 10 24
REMARK SMILES IDX 11 25 12 26 13 28 14 29 15 30 61 31 16 32 60 33 17 34 18 35
REMARK SMILES IDX 19 36 54 37 20 38 59 39 53 40 55 41 21 42 58 43 52 44 51 45
REMARK SMILES IDX 22 47 44 48 29 49 43 50 30 51 33 52 42 53 56 54 31 55 32 56
REMARK SMILES IDX 41 58 57 59 34 60 23 61 24 62 28 63 25 64 27 65 26 66 45 67
REMARK SMILES IDX 46 68 50 69 47 70 49 71 48 72 35 73 36 74 40 75 37 76 39 77
REMARK SMILES IDX 38 78
REMARK H PARENT 7 5 4 10 11 27 55 46 33 57
REMARK Flexibility Score: inf
ROOT
ATOM      1  C   UNL A   1      31.408  29.740  25.434  1.00  0.00     0.117 C 
ENDROOT
BRANCH   1   2
ATOM      2  N   UNL A   1      32.322  29.575  24.316  1.00  0.00    -0.354 N 
ATOM      3  C   UNL A   1      32.222  28.832  23.171  1.00  0.00     0.252 C 
ATOM      4  O   UNL A   1      33.146  28.978  22.366  1.00  0.00    -0.272 OA
ATOM      5  H   UNL A   1      33.159  30.086  24.397  1.00  0.00     0.163 HD
BRANCH   3   6
ATOM      6  C   UNL A   1      31.009  27.873  22.915  1.00  0.00     0.149 C 
BRANCH   6   7
ATOM      7  C   UNL A   1      29.705  28.710  22.782  1.00  0.00     0.043 C 
ATOM      8  C   UNL A   1      29.745  29.999  21.970  1.00  0.00     0.007 C 
ENDBRANCH   6   7
BRANCH   6   9
ATOM      9  O   UNL A   1      31.368  27.273  21.647  1.00  0.00    -0.379 OA
ATOM     10  H   UNL A   1      30.645  27.399  21.014  1.00  0.00     0.212 HD
ENDBRANCH   6   9
BRANCH   6  11
ATOM     11  C   UNL A   1      30.952  26.747  24.030  1.00  0.00     0.058 C 
ATOM     12  C   UNL A   1      29.690  25.863  23.935  1.00  0.00     0.016 C 
BRANCH  11  13
ATOM     13  C   UNL A   1      32.241  25.909  24.084  1.00  0.00    -0.038 A 
ATOM     14  C   UNL A   1      33.325  26.220  24.909  1.00  0.00     0.008 A 
ATOM     15  C   UNL A   1      32.321  24.729  23.321  1.00  0.00     0.054 A 
ATOM     16  C   UNL A   1      34.379  25.320  25.059  1.00  0.00     0.051 A 
ATOM     17  C   UNL A   1      33.345  23.787  23.502  1.00  0.00     0.160 A 
ATOM     18  C   UNL A   1      34.379  24.084  24.401  1.00  0.00     0.160 A 
BRANCH  17  19
ATOM     19  O   UNL A   1      33.374  22.591  22.834  1.00  0.00    -0.493 OA
ATOM     20  C   UNL A   1      32.151  21.878  22.693  1.00  0.00     0.278 C 
ENDBRANCH  17  19
BRANCH  18  21
ATOM     21  O   UNL A   1      35.456  23.311  24.750  1.00  0.00    -0.493 OA
ATOM     22  C   UNL A   1      35.426  22.643  26.002  1.00  0.00     0.278 C 
ENDBRANCH  18  21
ENDBRANCH  11  13
ENDBRANCH   6  11
ENDBRANCH   3   6
ENDBRANCH   1   2
BRANCH   1  23
ATOM     23  C   UNL A   1      31.260  31.204  25.833  1.00  0.00     0.042 C 
BRANCH  23  24
ATOM     24  C   UNL A   1      32.263  31.647  26.883  1.00  0.00     0.118 C 
BRANCH  24  25
ATOM     25  N   UNL A   1      32.118  33.054  27.227  1.00  0.00    -0.352 N 
ATOM     26  C   UNL A   1      32.912  33.835  28.030  1.00  0.00     0.251 C 
ATOM     27  H   UNL A   1      31.342  33.509  26.827  1.00  0.00     0.163 HD
ATOM     28  O   UNL A   1      32.532  34.948  28.381  1.00  0.00    -0.269 OA
BRANCH  26  29
ATOM     29  C   UNL A   1      34.218  33.320  28.484  1.00  0.00     0.039 A 
ATOM     30  C   UNL A   1      35.389  33.821  27.908  1.00  0.00     0.014 A 
ATOM     31  C   UNL A   1      34.285  32.351  29.488  1.00  0.00     0.014 A 
ATOM     32  C   UNL A   1      36.631  33.393  28.385  1.00  0.00     0.010 A 
ATOM     33  C   UNL A   1      35.516  32.000  30.023  1.00  0.00     0.010 A 
ATOM     34  C   UNL A   1      36.702  32.505  29.468  1.00  0.00    -0.014 A 
BRANCH  34  35
ATOM     35  C   UNL A   1      37.996  32.045  30.029  1.00  0.00     0.031 A 
ATOM     36  C   UNL A   1      38.615  30.777  29.511  1.00  0.00     0.074 A 
ATOM     37  C   UNL A   1      38.556  32.697  31.065  1.00  0.00     0.049 A 
ATOM     38  N   UNL A   1      39.645  30.111  29.966  1.00  0.00    -0.248 NA
ATOM     39  C   UNL A   1      37.963  30.158  28.345  1.00  0.00     0.031 C 
ATOM     40  C   UNL A   1      38.042  33.924  31.676  1.00  0.00     0.029 A 
ATOM     41  N   UNL A   1      39.673  32.399  31.804  1.00  0.00    -0.354 N 
ATOM     42  C   UNL A   1      39.742  28.981  29.165  1.00  0.00     0.074 A 
ATOM     43  C   UNL A   1      38.636  29.024  28.233  1.00  0.00     0.031 C 
ATOM     44  C   UNL A   1      38.849  34.280  32.688  1.00  0.00     0.029 A 
ATOM     45  C   UNL A   1      39.903  33.281  32.833  1.00  0.00     0.049 A 
ATOM     46  H   UNL A   1      40.255  31.627  31.615  1.00  0.00     0.167 HD
ATOM     47  C   UNL A   1      40.675  28.000  29.191  1.00  0.00     0.031 A 
ATOM     48  C   UNL A   1      40.843  33.272  33.797  1.00  0.00     0.031 A 
ATOM     49  C   UNL A   1      41.775  27.963  30.117  1.00  0.00     0.049 A 
ATOM     50  C   UNL A   1      41.856  32.162  33.827  1.00  0.00     0.074 A 
ATOM     51  C   UNL A   1      42.805  27.044  30.195  1.00  0.00     0.029 A 
ATOM     52  N   UNL A   1      41.984  28.889  31.128  1.00  0.00    -0.354 N 
ATOM     53  N   UNL A   1      41.969  31.125  33.032  1.00  0.00    -0.248 NA
ATOM     54  C   UNL A   1      42.880  32.227  34.880  1.00  0.00     0.031 C 
ATOM     55  C   UNL A   1      43.602  27.379  31.293  1.00  0.00     0.029 A 
ATOM     56  C   UNL A   1      43.112  28.549  31.853  1.00  0.00     0.049 A 
ATOM     57  H   UNL A   1      41.413  29.672  31.304  1.00  0.00     0.167 HD
ATOM     58  C   UNL A   1      43.094  30.435  33.464  1.00  0.00     0.074 A 
ATOM     59  C   UNL A   1      43.630  31.172  34.590  1.00  0.00     0.031 C 
ATOM     60  C   UNL A   1      43.638  29.297  32.966  1.00  0.00     0.031 A 
BRANCH  47  61
ATOM     61  C   UNL A   1      40.520  26.877  28.201  1.00  0.00    -0.014 A 
ATOM     62  C   UNL A   1      39.749  25.740  28.493  1.00  0.00     0.009 A 
ATOM     63  C   UNL A   1      41.158  26.958  26.953  1.00  0.00     0.009 A 
ATOM     64  C   UNL A   1      39.669  24.684  27.584  1.00  0.00     0.001 A 
ATOM     65  C   UNL A   1      41.046  25.916  26.030  1.00  0.00     0.001 A 
ATOM     66  C   UNL A   1      40.315  24.774  26.352  1.00  0.00     0.000 A 
ENDBRANCH  47  61
BRANCH  48  67
ATOM     67  C   UNL A   1      40.869  34.362  34.807  1.00  0.00    -0.014 A 
ATOM     68  C   UNL A   1      41.608  35.531  34.573  1.00  0.00     0.009 A 
ATOM     69  C   UNL A   1      40.135  34.251  35.999  1.00  0.00     0.009 A 
ATOM     70  C   UNL A   1      41.626  36.559  35.519  1.00  0.00     0.001 A 
ATOM     71  C   UNL A   1      40.132  35.291  36.931  1.00  0.00     0.001 A 
ATOM     72  C   UNL A   1      40.883  36.442  36.693  1.00  0.00     0.000 A 
ENDBRANCH  48  67
BRANCH  60  73
ATOM     73  C   UNL A   1      44.914  28.804  33.591  1.00  0.00    -0.014 A 
ATOM     74  C   UNL A   1      44.911  27.851  34.619  1.00  0.00     0.009 A 
ATOM     75  C   UNL A   1      46.144  29.250  33.080  1.00  0.00     0.009 A 
ATOM     76  C   UNL A   1      46.115  27.371  35.139  1.00  0.00     0.001 A 
ATOM     77  C   UNL A   1      47.345  28.746  33.579  1.00  0.00     0.001 A 
ATOM     78  C   UNL A   1      47.329  27.812  34.614  1.00  0.00     0.000 A 
ENDBRANCH  60  73
ENDBRANCH  34  35
ENDBRANCH  26  29
ENDBRANCH  24  25
ENDBRANCH  23  24
ENDBRANCH   1  23
TORSDOF 16
ENDMDL
MODEL 2
REMARK VINA RESULT:     -10.2      3.553      8.615
REMARK SMILES CC[C@@](O)(C(=O)NCCCNC(=O)c1ccc(-c2c3nc(c(-c4ccccc4)c4ccc([nH]4)c(-c4ccccc4)c4nc(c(-c5ccccc5)c5ccc2[nH]5)C=C4)C=C3)cc1)[C@@H](C)c1ccc(OC)c(OC)c1
REMARK SMILES IDX 8 1 7 2 5 3 6 4 3 6 2 7 1 8 4 9 62 11 63 12 64 13 65 14
REMARK SMILES IDX 73 15 66 16 70 17 67 18 71 19 72 20 68 21 69 22 9 23 10 24
REMARK SMILES IDX 11 25 12 26 13 28 14 29 15 30 61 31 16 32 60 33 17 34 18 35
REMARK SMILES IDX 19 36 54 37 20 38 59 39 53 40 55 41 21 42 58 43 52 44 51 45
REMARK SMILES IDX 22 47 44 48 29 49 43 50 30 51 33 52 42 53 56 54 31 55 32 56
REMARK SMILES IDX 41 58 57 59 34 60 23 61 24 62 28 63 25 64 27 65 26 66 45 67
REMARK SMILES IDX 46 68 50 69 47 70 49 71 48 72 35 73 36 74 40 75 37 76 39 77
REMARK SMILES IDX 38 78
REMARK H PARENT 7 5 4 10 11 27 55 46 33 57
REMARK Flexibility Score: inf
ROOT
ATOM      1  C   UNL A   1      36.465  20.760  24.770  1.00  0.00     0.117 C 
ENDROOT
BRANCH   1   2
ATOM      2  N   UNL A   1      35.743  20.873  26.027  1.00  0.00    -0.354 N 
ATOM      3  C   UNL A   1      34.637  21.601  26.370  1.00  0.00     0.252 C 
ATOM      4  O   UNL A   1      34.212  21.408  27.513  1.00  0.00    -0.272 OA
ATOM      5  H   UNL A   1      36.117  20.331  26.759  1.00  0.00     0.163 HD
BRANCH   3   6
ATOM      6  C   UNL A   1      33.966  22.601  25.367  1.00  0.00     0.149 C 
BRANCH   6   7
ATOM      7  C   UNL A   1      33.893  21.952  23.956  1.00  0.00     0.043 C 
ATOM      8  C   UNL A   1      32.659  22.209  23.098  1.00  0.00     0.007 C 
ENDBRANCH   6   7
BRANCH   6   9
ATOM      9  O   UNL A   1      32.643  22.750  25.937  1.00  0.00    -0.379 OA
ATOM     10  H   UNL A   1      32.076  22.026  25.628  1.00  0.00     0.212 HD
ENDBRANCH   6   9
BRANCH   6  11
ATOM     11  C   UNL A   1      34.711  24.001  25.404  1.00  0.00     0.058 C 
ATOM     12  C   UNL A   1      35.984  24.033  24.530  1.00  0.00     0.016 C 
BRANCH  11  13
ATOM     13  C   UNL A   1      33.768  25.176  25.093  1.00  0.00    -0.038 A 
ATOM     14  C   UNL A   1      33.557  25.670  23.804  1.00  0.00     0.008 A 
ATOM     15  C   UNL A   1      33.021  25.748  26.140  1.00  0.00     0.054 A 
ATOM     16  C   UNL A   1      32.548  26.602  23.562  1.00  0.00     0.051 A 
ATOM     17  C   UNL A   1      31.965  26.642  25.908  1.00  0.00     0.160 A 
ATOM     18  C   UNL A   1      31.716  27.059  24.591  1.00  0.00     0.160 A 
BRANCH  17  19
ATOM     19  O   UNL A   1      31.171  27.125  26.914  1.00  0.00    -0.493 OA
ATOM     20  C   UNL A   1      31.678  28.191  27.708  1.00  0.00     0.278 C 
ENDBRANCH  17  19
BRANCH  18  21
ATOM     21  O   UNL A   1      30.735  27.898  24.132  1.00  0.00    -0.493 OA
ATOM     22  C   UNL A   1      29.657  27.334  23.402  1.00  0.00     0.278 C 
ENDBRANCH  18  21
ENDBRANCH  11  13
ENDBRANCH   6  11
ENDBRANCH   3   6
ENDBRANCH   1   2
BRANCH   1  23
ATOM     23  C   UNL A   1      37.640  19.795  24.877  1.00  0.00     0.042 C 
BRANCH  23  24
ATOM     24  C   UNL A   1      38.803  20.348  25.680  1.00  0.00     0.118 C 
BRANCH  24  25
ATOM     25  N   UNL A   1      39.893  19.391  25.806  1.00  0.00    -0.352 N 
ATOM     26  C   UNL A   1      41.212  19.616  26.113  1.00  0.00     0.251 C 
ATOM     27  H   UNL A   1      39.649  18.450  25.649  1.00  0.00     0.163 HD
ATOM     28  O   UNL A   1      42.041  18.722  25.974  1.00  0.00    -0.269 OA
BRANCH  26  29
ATOM     29  C   UNL A   1      41.631  20.947  26.594  1.00  0.00     0.039 A 
ATOM     30  C   UNL A   1      42.151  21.871  25.684  1.00  0.00     0.014 A 
ATOM     31  C   UNL A   1      41.498  21.285  27.943  1.00  0.00     0.014 A 
ATOM     32  C   UNL A   1      42.481  23.157  26.118  1.00  0.00     0.010 A 
ATOM     33  C   UNL A   1      41.736  22.589  28.352  1.00  0.00     0.010 A 
ATOM     34  C   UNL A   1      42.243  23.535  27.449  1.00  0.00    -0.014 A 
BRANCH  34  35
ATOM     35  C   UNL A   1      42.548  24.897  27.950  1.00  0.00     0.031 A 
ATOM     36  C   UNL A   1      43.940  25.216  28.417  1.00  0.00     0.074 A 
ATOM     37  C   UNL A   1      41.564  25.806  28.084  1.00  0.00     0.049 A 
ATOM     38  N   UNL A   1      44.383  26.279  29.040  1.00  0.00    -0.248 NA
ATOM     39  C   UNL A   1      44.962  24.182  28.187  1.00  0.00     0.031 C 
ATOM     40  C   UNL A   1      40.168  25.613  27.690  1.00  0.00     0.029 A 
ATOM     41  N   UNL A   1      41.589  27.071  28.617  1.00  0.00    -0.354 N 
ATOM     42  C   UNL A   1      45.723  26.026  29.303  1.00  0.00     0.074 A 
ATOM     43  C   UNL A   1      46.006  24.691  28.822  1.00  0.00     0.031 C 
ATOM     44  C   UNL A   1      39.473  26.723  27.984  1.00  0.00     0.029 A 
ATOM     45  C   UNL A   1      40.359  27.684  28.634  1.00  0.00     0.049 A 
ATOM     46  H   UNL A   1      42.409  27.498  28.954  1.00  0.00     0.167 HD
ATOM     47  C   UNL A   1      46.642  26.836  29.879  1.00  0.00     0.031 A 
ATOM     48  C   UNL A   1      39.985  28.875  29.136  1.00  0.00     0.031 A 
ATOM     49  C   UNL A   1      46.357  28.165  30.350  1.00  0.00     0.049 A 
ATOM     50  C   UNL A   1      41.012  29.752  29.796  1.00  0.00     0.074 A 
ATOM     51  C   UNL A   1      47.226  29.088  30.902  1.00  0.00     0.029 A 
ATOM     52  N   UNL A   1      45.103  28.756  30.327  1.00  0.00    -0.354 N 
ATOM     53  N   UNL A   1      42.288  29.524  29.993  1.00  0.00    -0.248 NA
ATOM     54  C   UNL A   1      40.551  31.057  30.292  1.00  0.00     0.031 C 
ATOM     55  C   UNL A   1      46.486  30.215  31.269  1.00  0.00     0.029 A 
ATOM     56  C   UNL A   1      45.170  30.023  30.879  1.00  0.00     0.049 A 
ATOM     57  H   UNL A   1      44.286  28.335  29.971  1.00  0.00     0.167 HD
ATOM     58  C   UNL A   1      42.790  30.667  30.601  1.00  0.00     0.074 A 
ATOM     59  C   UNL A   1      41.681  31.589  30.738  1.00  0.00     0.031 C 
ATOM     60  C   UNL A   1      44.058  30.932  31.001  1.00  0.00     0.031 A 
BRANCH  47  61
ATOM     61  C   UNL A   1      48.033  26.286  30.050  1.00  0.00    -0.014 A 
ATOM     62  C   UNL A   1      48.956  26.280  28.990  1.00  0.00     0.009 A 
ATOM     63  C   UNL A   1      48.426  25.764  31.292  1.00  0.00     0.009 A 
ATOM     64  C   UNL A   1      50.219  25.708  29.154  1.00  0.00     0.001 A 
ATOM     65  C   UNL A   1      49.704  25.228  31.464  1.00  0.00     0.001 A 
ATOM     66  C   UNL A   1      50.593  25.186  30.391  1.00  0.00     0.000 A 
ENDBRANCH  47  61
BRANCH  48  67
ATOM     67  C   UNL A   1      38.566  29.307  29.023  1.00  0.00    -0.014 A 
ATOM     68  C   UNL A   1      37.688  29.153  30.107  1.00  0.00     0.009 A 
ATOM     69  C   UNL A   1      38.089  29.896  27.842  1.00  0.00     0.009 A 
ATOM     70  C   UNL A   1      36.358  29.566  30.004  1.00  0.00     0.001 A 
ATOM     71  C   UNL A   1      36.766  30.334  27.751  1.00  0.00     0.001 A 
ATOM     72  C   UNL A   1      35.899  30.162  28.829  1.00  0.00     0.000 A 
ENDBRANCH  48  67
BRANCH  60  73
ATOM     73  C   UNL A   1      44.338  32.295  31.572  1.00  0.00    -0.014 A 
ATOM     74  C   UNL A   1      44.275  32.544  32.951  1.00  0.00     0.009 A 
ATOM     75  C   UNL A   1      44.749  33.326  30.712  1.00  0.00     0.009 A 
ATOM     76  C   UNL A   1      44.596  33.806  33.454  1.00  0.00     0.001 A 
ATOM     77  C   UNL A   1      45.099  34.577  31.221  1.00  0.00     0.001 A 
ATOM     78  C   UNL A   1      45.015  34.818  32.591  1.00  0.00     0.000 A 
ENDBRANCH  60  73
ENDBRANCH  34  35
ENDBRANCH  26  29
ENDBRANCH  24  25
ENDBRANCH  23  24
ENDBRANCH   1  23
TORSDOF 16
ENDMDL
MODEL 3
REMARK VINA RESULT:     -10.2      4.405      9.402
REMARK SMILES CC[C@@](O)(C(=O)NCCCNC(=O)c1ccc(-c2c3nc(c(-c4ccccc4)c4ccc([nH]4)c(-c4ccccc4)c4nc(c(-c5ccccc5)c5ccc2[nH]5)C=C4)C=C3)cc1)[C@@H](C)c1ccc(OC)c(OC)c1
REMARK SMILES IDX 8 1 7 2 5 3 6 4 3 6 2 7 1 8 4 9 62 11 63 12 64 13 65 14
REMARK SMILES IDX 73 15 66 16 70 17 67 18 71 19 72 20 68 21 69 22 9 23 10 24
REMARK SMILES IDX 11 25 12 26 13 28 14 29 15 30 61 31 16 32 60 33 17 34 18 35
REMARK SMILES IDX 19 36 54 37 20 38 59 39 53 40 55 41 21 42 58 43 52 44 51 45
REMARK SMILES IDX 22 47 44 48 29 49 43 50 30 51 33 52 42 53 56 54 31 55 32 56
REMARK SMILES IDX 41 58 57 59 34 60 23 61 24 62 28 63 25 64 27 65 26 66 45 67
REMARK SMILES IDX 46 68 50 69 47 70 49 71 48 72 35 73 36 74 40 75 37 76 39 77
REMARK SMILES IDX 38 78
REMARK H PARENT 7 5 4 10 11 27 55 46 33 57
REMARK Flexibility Score: inf
ROOT
ATOM      1  C   UNL A   1      36.324  20.515  24.972  1.00  0.00     0.117 C 
ENDROOT
BRANCH   1   2
ATOM      2  N   UNL A   1      36.730  21.902  25.131  1.00  0.00    -0.354 N 
ATOM      3  C   UNL A   1      36.004  23.029  25.404  1.00  0.00     0.252 C 
ATOM      4  O   UNL A   1      36.668  24.057  25.565  1.00  0.00    -0.272 OA
ATOM      5  H   UNL A   1      37.696  22.056  25.023  1.00  0.00     0.163 HD
BRANCH   3   6
ATOM      6  C   UNL A   1      34.441  22.997  25.506  1.00  0.00     0.149 C 
BRANCH   6   7
ATOM      7  C   UNL A   1      34.018  22.132  26.727  1.00  0.00     0.043 C 
ATOM      8  C   UNL A   1      32.832  22.589  27.570  1.00  0.00     0.007 C 
ENDBRANCH   6   7
BRANCH   6   9
ATOM      9  O   UNL A   1      34.129  24.393  25.731  1.00  0.00    -0.379 OA
ATOM     10  H   UNL A   1      33.333  24.462  26.280  1.00  0.00     0.212 HD
ENDBRANCH   6   9
BRANCH   6  11
ATOM     11  C   UNL A   1      33.808  22.534  24.128  1.00  0.00     0.058 C 
ATOM     12  C   UNL A   1      33.022  21.210  24.236  1.00  0.00     0.016 C 
BRANCH  11  13
ATOM     13  C   UNL A   1      32.977  23.645  23.462  1.00  0.00    -0.038 A 
ATOM     14  C   UNL A   1      31.594  23.767  23.617  1.00  0.00     0.008 A 
ATOM     15  C   UNL A   1      33.638  24.636  22.711  1.00  0.00     0.054 A 
ATOM     16  C   UNL A   1      30.929  24.901  23.151  1.00  0.00     0.051 A 
ATOM     17  C   UNL A   1      32.996  25.809  22.286  1.00  0.00     0.160 A 
ATOM     18  C   UNL A   1      31.621  25.948  22.530  1.00  0.00     0.160 A 
BRANCH  17  19
ATOM     19  O   UNL A   1      33.657  26.821  21.643  1.00  0.00    -0.493 OA
ATOM     20  C   UNL A   1      34.002  27.976  22.400  1.00  0.00     0.278 C 
ENDBRANCH  17  19
BRANCH  18  21
ATOM     21  O   UNL A   1      30.803  27.005  22.229  1.00  0.00    -0.493 OA
ATOM     22  C   UNL A   1      30.324  27.807  23.296  1.00  0.00     0.278 C 
ENDBRANCH  18  21
ENDBRANCH  11  13
ENDBRANCH   6  11
ENDBRANCH   3   6
ENDBRANCH   1   2
BRANCH   1  23
ATOM     23  C   UNL A   1      37.517  19.568  25.009  1.00  0.00     0.042 C 
BRANCH  23  24
ATOM     24  C   UNL A   1      38.763  20.191  25.614  1.00  0.00     0.118 C 
BRANCH  24  25
ATOM     25  N   UNL A   1      39.837  19.224  25.785  1.00  0.00    -0.352 N 
ATOM     26  C   UNL A   1      41.152  19.441  26.112  1.00  0.00     0.251 C 
ATOM     27  H   UNL A   1      39.584  18.283  25.647  1.00  0.00     0.163 HD
ATOM     28  O   UNL A   1      41.973  18.533  26.011  1.00  0.00    -0.269 OA
BRANCH  26  29
ATOM     29  C   UNL A   1      41.579  20.778  26.567  1.00  0.00     0.039 A 
ATOM     30  C   UNL A   1      41.797  21.000  27.930  1.00  0.00     0.014 A 
ATOM     31  C   UNL A   1      41.775  21.809  25.645  1.00  0.00     0.014 A 
ATOM     32  C   UNL A   1      42.272  22.242  28.360  1.00  0.00     0.010 A 
ATOM     33  C   UNL A   1      42.335  23.008  26.062  1.00  0.00     0.010 A 
ATOM     34  C   UNL A   1      42.576  23.243  27.425  1.00  0.00    -0.014 A 
BRANCH  34  35
ATOM     35  C   UNL A   1      43.111  24.565  27.829  1.00  0.00     0.031 A 
ATOM     36  C   UNL A   1      42.156  25.658  28.223  1.00  0.00     0.074 A 
ATOM     37  C   UNL A   1      44.430  24.819  27.742  1.00  0.00     0.049 A 
ATOM     38  N   UNL A   1      42.393  26.924  28.450  1.00  0.00    -0.248 NA
ATOM     39  C   UNL A   1      40.739  25.278  28.340  1.00  0.00     0.031 C 
ATOM     40  C   UNL A   1      45.458  23.854  27.351  1.00  0.00     0.029 A 
ATOM     41  N   UNL A   1      45.128  25.982  27.956  1.00  0.00    -0.354 N 
ATOM     42  C   UNL A   1      41.153  27.496  28.702  1.00  0.00     0.074 A 
ATOM     43  C   UNL A   1      40.163  26.452  28.547  1.00  0.00     0.031 C 
ATOM     44  C   UNL A   1      46.656  24.460  27.364  1.00  0.00     0.029 A 
ATOM     45  C   UNL A   1      46.475  25.866  27.711  1.00  0.00     0.049 A 
ATOM     46  H   UNL A   1      44.704  26.818  28.257  1.00  0.00     0.167 HD
ATOM     47  C   UNL A   1      40.862  28.773  29.047  1.00  0.00     0.031 A 
ATOM     48  C   UNL A   1      47.450  26.794  27.740  1.00  0.00     0.031 A 
ATOM     49  C   UNL A   1      41.849  29.806  29.205  1.00  0.00     0.049 A 
ATOM     50  C   UNL A   1      47.107  28.212  28.100  1.00  0.00     0.074 A 
ATOM     51  C   UNL A   1      41.668  31.119  29.601  1.00  0.00     0.029 A 
ATOM     52  N   UNL A   1      43.206  29.641  28.969  1.00  0.00    -0.354 N 
ATOM     53  N   UNL A   1      45.937  28.731  28.386  1.00  0.00    -0.248 NA
ATOM     54  C   UNL A   1      48.219  29.172  28.152  1.00  0.00     0.031 C 
ATOM     55  C   UNL A   1      42.906  31.764  29.546  1.00  0.00     0.029 A 
ATOM     56  C   UNL A   1      43.871  30.835  29.187  1.00  0.00     0.049 A 
ATOM     57  H   UNL A   1      43.633  28.799  28.688  1.00  0.00     0.167 HD
ATOM     58  C   UNL A   1      46.176  30.065  28.688  1.00  0.00     0.074 A 
ATOM     59  C   UNL A   1      47.603  30.276  28.552  1.00  0.00     0.031 C 
ATOM     60  C   UNL A   1      45.293  31.027  29.055  1.00  0.00     0.031 A 
BRANCH  47  61
ATOM     61  C   UNL A   1      39.411  29.117  29.248  1.00  0.00    -0.014 A 
ATOM     62  C   UNL A   1      38.790  28.982  30.501  1.00  0.00     0.009 A 
ATOM     63  C   UNL A   1      38.650  29.582  28.164  1.00  0.00     0.009 A 
ATOM     64  C   UNL A   1      37.428  29.248  30.650  1.00  0.00     0.001 A 
ATOM     65  C   UNL A   1      37.296  29.884  28.325  1.00  0.00     0.001 A 
ATOM     66  C   UNL A   1      36.683  29.702  29.564  1.00  0.00     0.000 A 
ENDBRANCH  47  61
BRANCH  48  67
ATOM     67  C   UNL A   1      48.849  26.400  27.425  1.00  0.00    -0.014 A 
ATOM     68  C   UNL A   1      49.715  25.976  28.445  1.00  0.00     0.009 A 
ATOM     69  C   UNL A   1      49.319  26.421  26.103  1.00  0.00     0.009 A 
ATOM     70  C   UNL A   1      51.026  25.598  28.149  1.00  0.00     0.001 A 
ATOM     71  C   UNL A   1      50.622  26.015  25.806  1.00  0.00     0.001 A 
ATOM     72  C   UNL A   1      51.477  25.611  26.829  1.00  0.00     0.000 A 
ENDBRANCH  48  67
BRANCH  60  73
ATOM     73  C   UNL A   1      45.842  32.385  29.395  1.00  0.00    -0.014 A 
ATOM     74  C   UNL A   1      45.938  33.403  28.437  1.00  0.00     0.009 A 
ATOM     75  C   UNL A   1      46.198  32.666  30.725  1.00  0.00     0.009 A 
ATOM     76  C   UNL A   1      46.400  34.671  28.798  1.00  0.00     0.001 A 
ATOM     77  C   UNL A   1      46.629  33.941  31.090  1.00  0.00     0.001 A 
ATOM     78  C   UNL A   1      46.737  34.940  30.125  1.00  0.00     0.000 A 
ENDBRANCH  60  73
ENDBRANCH  34  35
ENDBRANCH  26  29
ENDBRANCH  24  25
ENDBRANCH  23  24
ENDBRANCH   1  23
TORSDOF 16
ENDMDL
