MODEL 1
REMARK VINA RESULT:     -10.9      0.000      0.000
REMARK SMILES CS(=O)(=O)CCSCc1cc(F)cc(/C=C/C(=O)NCCCNC(=O)c2ccc(-c3c4nc(c(-c5ccccc5)c5ccc([nH]5)c(-c5ccccc5)c5nc(c(-c6ccccc6)c6ccc3[nH]6)C=C5)C=C4)cc2)c1
REMARK SMILES IDX 17 1 18 2 19 3 16 5 15 6 14 7 9 8 10 9 74 10 11 11 12 12
REMARK SMILES IDX 13 13 8 14 7 15 6 16 5 17 2 18 1 19 3 20 4 21 20 22 21 23
REMARK SMILES IDX 22 24 23 25 24 26 25 28 26 29 27 30 73 31 28 32 72 33 29 34
REMARK SMILES IDX 30 35 31 36 66 37 32 38 71 39 65 40 67 41 33 42 70 43 64 44
REMARK SMILES IDX 63 45 34 47 56 48 41 49 55 50 42 51 45 52 54 53 68 54 43 55
REMARK SMILES IDX 44 56 53 58 69 59 46 60 35 61 36 62 40 63 37 64 39 65 38 66
REMARK SMILES IDX 57 67 58 68 62 69 59 70 61 71 60 72 47 73 48 74 52 75 49 76
REMARK SMILES IDX 51 77 50 78
REMARK H PARENT 19 4 23 27 67 46 45 57
REMARK Flexibility Score: inf
ROOT
ATOM      1  C   UNL A   1      33.855  28.966  26.676  1.00  0.00     0.244 C 
ATOM      2  O   UNL A   1      35.085  28.969  26.725  1.00  0.00    -0.270 OA
ATOM      3  N   UNL A   1      33.206  30.137  26.467  1.00  0.00    -0.352 N 
ATOM      4  H   UNL A   1      33.799  30.922  26.415  1.00  0.00     0.163 HD
ENDROOT
BRANCH   1   5
ATOM      5  C   UNL A   1      33.142  27.671  26.764  1.00  0.00     0.072 C 
ATOM      6  C   UNL A   1      33.348  26.596  25.990  1.00  0.00     0.014 C 
BRANCH   6   7
ATOM      7  C   UNL A   1      32.593  25.333  26.056  1.00  0.00    -0.022 A 
ATOM      8  C   UNL A   1      32.541  22.919  25.532  1.00  0.00    -0.035 A 
ATOM      9  C   UNL A   1      31.203  22.898  25.928  1.00  0.00     0.043 A 
ATOM     10  C   UNL A   1      33.215  24.159  25.591  1.00  0.00     0.013 A 
ATOM     11  C   UNL A   1      30.599  24.044  26.436  1.00  0.00     0.124 A 
ATOM     12  F   UNL A   1      29.332  23.977  26.865  1.00  0.00    -0.207 F 
ATOM     13  C   UNL A   1      31.277  25.254  26.507  1.00  0.00     0.047 A 
BRANCH   8  14
ATOM     14  C   UNL A   1      33.363  21.707  25.168  1.00  0.00     0.105 C 
BRANCH  14  15
ATOM     15  S   UNL A   1      32.669  20.347  24.190  1.00  0.00    -0.156 SA
BRANCH  15  16
ATOM     16  C   UNL A   1      33.680  18.880  24.622  1.00  0.00     0.086 C 
BRANCH  16  17
ATOM     17  C   UNL A   1      32.991  17.620  25.115  1.00  0.00     0.147 C 
BRANCH  17  18
ATOM     18  S   UNL A   1      33.690  16.091  24.525  1.00  0.00     0.148 S 
ATOM     19  C   UNL A   1      35.279  16.023  25.321  1.00  0.00     0.158 C 
ATOM     20  O   UNL A   1      33.937  16.237  23.101  1.00  0.00    -0.229 OA
ATOM     21  O   UNL A   1      32.892  14.989  25.013  1.00  0.00    -0.229 OA
ENDBRANCH  17  18
ENDBRANCH  16  17
ENDBRANCH  15  16
ENDBRANCH  14  15
ENDBRANCH   8  14
ENDBRANCH   6   7
ENDBRANCH   1   5
BRANCH   3  22
ATOM     22  C   UNL A   1      31.798  30.448  26.307  1.00  0.00     0.118 C 
BRANCH  22  23
ATOM     23  C   UNL A   1      31.510  31.896  26.699  1.00  0.00     0.042 C 
BRANCH  23  24
ATOM     24  C   UNL A   1      32.754  32.648  27.163  1.00  0.00     0.118 C 
BRANCH  24  25
ATOM     25  N   UNL A   1      32.451  34.023  27.540  1.00  0.00    -0.352 N 
ATOM     26  C   UNL A   1      32.977  34.790  28.550  1.00  0.00     0.251 C 
ATOM     27  H   UNL A   1      31.768  34.468  26.988  1.00  0.00     0.163 HD
ATOM     28  O   UNL A   1      32.429  35.838  28.875  1.00  0.00    -0.269 OA
BRANCH  26  29
ATOM     29  C   UNL A   1      34.199  34.344  29.248  1.00  0.00     0.039 A 
ATOM     30  C   UNL A   1      34.085  33.722  30.493  1.00  0.00     0.014 A 
ATOM     31  C   UNL A   1      35.455  34.552  28.674  1.00  0.00     0.014 A 
ATOM     32  C   UNL A   1      35.230  33.244  31.132  1.00  0.00     0.010 A 
ATOM     33  C   UNL A   1      36.583  34.005  29.270  1.00  0.00     0.010 A 
ATOM     34  C   UNL A   1      36.482  33.346  30.505  1.00  0.00    -0.014 A 
BRANCH  34  35
ATOM     35  C   UNL A   1      37.707  32.769  31.111  1.00  0.00     0.031 A 
ATOM     36  C   UNL A   1      38.355  31.564  30.488  1.00  0.00     0.074 A 
ATOM     37  C   UNL A   1      38.176  33.270  32.270  1.00  0.00     0.049 A 
ATOM     38  N   UNL A   1      39.353  30.843  30.931  1.00  0.00    -0.248 NA
ATOM     39  C   UNL A   1      37.788  31.090  29.215  1.00  0.00     0.031 C 
ATOM     40  C   UNL A   1      37.614  34.417  32.988  1.00  0.00     0.029 A 
ATOM     41  N   UNL A   1      39.223  32.868  33.059  1.00  0.00    -0.354 N 
ATOM     42  C   UNL A   1      39.516  29.821  30.004  1.00  0.00     0.074 A 
ATOM     43  C   UNL A   1      38.486  29.985  29.004  1.00  0.00     0.031 C 
ATOM     44  C   UNL A   1      38.335  34.637  34.098  1.00  0.00     0.029 A 
ATOM     45  C   UNL A   1      39.373  33.618  34.199  1.00  0.00     0.049 A 
ATOM     46  H   UNL A   1      39.813  32.113  32.828  1.00  0.00     0.167 HD
ATOM     47  C   UNL A   1      40.452  28.842  29.981  1.00  0.00     0.031 A 
ATOM     48  C   UNL A   1      40.238  33.488  35.223  1.00  0.00     0.031 A 
ATOM     49  C   UNL A   1      41.477  28.687  30.978  1.00  0.00     0.049 A 
ATOM     50  C   UNL A   1      41.245  32.371  35.192  1.00  0.00     0.074 A 
ATOM     51  C   UNL A   1      42.506  27.762  31.018  1.00  0.00     0.029 A 
ATOM     52  N   UNL A   1      41.599  29.472  32.113  1.00  0.00    -0.354 N 
ATOM     53  N   UNL A   1      41.431  31.452  34.275  1.00  0.00    -0.248 NA
ATOM     54  C   UNL A   1      42.167  32.279  36.333  1.00  0.00     0.031 C 
ATOM     55  C   UNL A   1      43.210  27.946  32.210  1.00  0.00     0.029 A 
ATOM     56  C   UNL A   1      42.667  29.032  32.877  1.00  0.00     0.049 A 
ATOM     57  H   UNL A   1      41.013  30.229  32.344  1.00  0.00     0.167 HD
ATOM     58  C   UNL A   1      42.509  30.693  34.711  1.00  0.00     0.074 A 
ATOM     59  C   UNL A   1      42.944  31.268  35.968  1.00  0.00     0.031 C 
ATOM     60  C   UNL A   1      43.090  29.620  34.122  1.00  0.00     0.031 A 
BRANCH  47  61
ATOM     61  C   UNL A   1      40.398  27.854  28.848  1.00  0.00    -0.014 A 
ATOM     62  C   UNL A   1      41.119  28.063  27.660  1.00  0.00     0.009 A 
ATOM     63  C   UNL A   1      39.644  26.678  28.983  1.00  0.00     0.009 A 
ATOM     64  C   UNL A   1      41.051  27.136  26.618  1.00  0.00     0.001 A 
ATOM     65  C   UNL A   1      39.606  25.736  27.954  1.00  0.00     0.001 A 
ATOM     66  C   UNL A   1      40.300  25.970  26.768  1.00  0.00     0.000 A 
ENDBRANCH  47  61
BRANCH  48  67
ATOM     67  C   UNL A   1      40.193  34.441  36.364  1.00  0.00    -0.014 A 
ATOM     68  C   UNL A   1      40.903  35.651  36.311  1.00  0.00     0.009 A 
ATOM     69  C   UNL A   1      39.448  34.144  37.516  1.00  0.00     0.009 A 
ATOM     70  C   UNL A   1      40.891  36.527  37.399  1.00  0.00     0.001 A 
ATOM     71  C   UNL A   1      39.411  35.038  38.588  1.00  0.00     0.001 A 
ATOM     72  C   UNL A   1      40.141  36.223  38.533  1.00  0.00     0.000 A 
ENDBRANCH  48  67
BRANCH  60  73
ATOM     73  C   UNL A   1      44.289  29.021  34.801  1.00  0.00    -0.014 A 
ATOM     74  C   UNL A   1      45.585  29.505  34.563  1.00  0.00     0.009 A 
ATOM     75  C   UNL A   1      44.108  27.995  35.743  1.00  0.00     0.009 A 
ATOM     76  C   UNL A   1      46.677  28.956  35.239  1.00  0.00     0.001 A 
ATOM     77  C   UNL A   1      45.197  27.473  36.441  1.00  0.00     0.001 A 
ATOM     78  C   UNL A   1      46.481  27.948  36.183  1.00  0.00     0.000 A 
ENDBRANCH  60  73
ENDBRANCH  34  35
ENDBRANCH  26  29
ENDBRANCH  24  25
ENDBRANCH  23  24
ENDBRANCH  22  23
ENDBRANCH   3  22
TORSDOF 16
ENDMDL
MODEL 2
REMARK VINA RESULT:     -10.8      5.643     10.779
REMARK SMILES CS(=O)(=O)CCSCc1cc(F)cc(/C=C/C(=O)NCCCNC(=O)c2ccc(-c3c4nc(c(-c5ccccc5)c5ccc([nH]5)c(-c5ccccc5)c5nc(c(-c6ccccc6)c6ccc3[nH]6)C=C5)C=C4)cc2)c1
REMARK SMILES IDX 17 1 18 2 19 3 16 5 15 6 14 7 9 8 10 9 74 10 11 11 12 12
REMARK SMILES IDX 13 13 8 14 7 15 6 16 5 17 2 18 1 19 3 20 4 21 20 22 21 23
REMARK SMILES IDX 22 24 23 25 24 26 25 28 26 29 27 30 73 31 28 32 72 33 29 34
REMARK SMILES IDX 30 35 31 36 66 37 32 38 71 39 65 40 67 41 33 42 70 43 64 44
REMARK SMILES IDX 63 45 34 47 56 48 41 49 55 50 42 51 45 52 54 53 68 54 43 55
REMARK SMILES IDX 44 56 53 58 69 59 46 60 35 61 36 62 40 63 37 64 39 65 38 66
REMARK SMILES IDX 57 67 58 68 62 69 59 70 61 71 60 72 47 73 48 74 52 75 49 76
REMARK SMILES IDX 51 77 50 78
REMARK H PARENT 19 4 23 27 67 46 45 57
REMARK Flexibility Score: inf
ROOT
ATOM      1  C   UNL A   1      34.242  20.923  25.342  1.00  0.00     0.244 C 
ATOM      2  O   UNL A   1      33.335  20.210  25.771  1.00  0.00    -0.270 OA
ATOM      3  N   UNL A   1      35.511  20.448  25.365  1.00  0.00    -0.352 N 
ATOM      4  H   UNL A   1      35.602  19.559  25.778  1.00  0.00     0.163 HD
ENDROOT
BRANCH   1   5
ATOM      5  C   UNL A   1      33.897  22.233  24.744  1.00  0.00     0.072 C 
ATOM      6  C   UNL A   1      33.436  22.443  23.503  1.00  0.00     0.014 C 
BRANCH   6   7
ATOM      7  C   UNL A   1      33.148  23.758  22.906  1.00  0.00    -0.022 A 
ATOM      8  C   UNL A   1      32.416  26.088  23.278  1.00  0.00    -0.035 A 
ATOM      9  C   UNL A   1      32.371  26.258  21.893  1.00  0.00     0.043 A 
ATOM     10  C   UNL A   1      32.795  24.817  23.763  1.00  0.00     0.013 A 
ATOM     11  C   UNL A   1      32.767  25.230  21.043  1.00  0.00     0.124 A 
ATOM     12  F   UNL A   1      32.772  25.444  19.720  1.00  0.00    -0.207 F 
ATOM     13  C   UNL A   1      33.157  23.990  21.532  1.00  0.00     0.047 A 
BRANCH   8  14
ATOM     14  C   UNL A   1      32.217  27.182  24.299  1.00  0.00     0.105 C 
BRANCH  14  15
ATOM     15  S   UNL A   1      32.124  28.927  23.815  1.00  0.00    -0.156 SA
BRANCH  15  16
ATOM     16  C   UNL A   1      30.340  29.345  23.866  1.00  0.00     0.086 C 
BRANCH  16  17
ATOM     17  C   UNL A   1      29.442  28.917  22.719  1.00  0.00     0.147 C 
BRANCH  17  18
ATOM     18  S   UNL A   1      28.061  29.994  22.392  1.00  0.00     0.148 S 
ATOM     19  C   UNL A   1      28.537  31.529  23.154  1.00  0.00     0.158 C 
ATOM     20  O   UNL A   1      26.920  29.490  23.136  1.00  0.00    -0.229 OA
ATOM     21  O   UNL A   1      27.958  30.210  20.966  1.00  0.00    -0.229 OA
ENDBRANCH  17  18
ENDBRANCH  16  17
ENDBRANCH  15  16
ENDBRANCH  14  15
ENDBRANCH   8  14
ENDBRANCH   6   7
ENDBRANCH   1   5
BRANCH   3  22
ATOM     22  C   UNL A   1      36.763  21.010  24.892  1.00  0.00     0.118 C 
BRANCH  22  23
ATOM     23  C   UNL A   1      37.876  19.965  24.915  1.00  0.00     0.042 C 
BRANCH  23  24
ATOM     24  C   UNL A   1      39.022  20.334  25.852  1.00  0.00     0.118 C 
BRANCH  24  25
ATOM     25  N   UNL A   1      40.034  19.287  25.916  1.00  0.00    -0.352 N 
ATOM     26  C   UNL A   1      41.393  19.392  26.078  1.00  0.00     0.251 C 
ATOM     27  H   UNL A   1      39.692  18.368  25.828  1.00  0.00     0.163 HD
ATOM     28  O   UNL A   1      42.115  18.424  25.860  1.00  0.00    -0.269 OA
BRANCH  26  29
ATOM     29  C   UNL A   1      41.983  20.675  26.508  1.00  0.00     0.039 A 
ATOM     30  C   UNL A   1      42.437  21.574  25.542  1.00  0.00     0.014 A 
ATOM     31  C   UNL A   1      42.094  20.979  27.867  1.00  0.00     0.014 A 
ATOM     32  C   UNL A   1      42.941  22.815  25.938  1.00  0.00     0.010 A 
ATOM     33  C   UNL A   1      42.518  22.243  28.256  1.00  0.00     0.010 A 
ATOM     34  C   UNL A   1      42.946  23.173  27.296  1.00  0.00    -0.014 A 
BRANCH  34  35
ATOM     35  C   UNL A   1      43.388  24.516  27.746  1.00  0.00     0.031 A 
ATOM     36  C   UNL A   1      42.368  25.558  28.111  1.00  0.00     0.074 A 
ATOM     37  C   UNL A   1      44.700  24.823  27.734  1.00  0.00     0.049 A 
ATOM     38  N   UNL A   1      42.547  26.819  28.409  1.00  0.00    -0.248 NA
ATOM     39  C   UNL A   1      40.958  25.133  28.111  1.00  0.00     0.031 C 
ATOM     40  C   UNL A   1      45.783  23.907  27.369  1.00  0.00     0.029 A 
ATOM     41  N   UNL A   1      45.344  25.999  28.021  1.00  0.00    -0.354 N 
ATOM     42  C   UNL A   1      41.275  27.340  28.609  1.00  0.00     0.074 A 
ATOM     43  C   UNL A   1      40.333  26.275  28.350  1.00  0.00     0.031 C 
ATOM     44  C   UNL A   1      46.957  24.550  27.475  1.00  0.00     0.029 A 
ATOM     45  C   UNL A   1      46.706  25.934  27.861  1.00  0.00     0.049 A 
ATOM     46  H   UNL A   1      44.874  26.814  28.315  1.00  0.00     0.167 HD
ATOM     47  C   UNL A   1      40.925  28.592  28.990  1.00  0.00     0.031 A 
ATOM     48  C   UNL A   1      47.648  26.887  27.991  1.00  0.00     0.031 A 
ATOM     49  C   UNL A   1      41.867  29.646  29.250  1.00  0.00     0.049 A 
ATOM     50  C   UNL A   1      47.231  28.279  28.380  1.00  0.00     0.074 A 
ATOM     51  C   UNL A   1      41.619  30.933  29.694  1.00  0.00     0.029 A 
ATOM     52  N   UNL A   1      43.239  29.537  29.083  1.00  0.00    -0.354 N 
ATOM     53  N   UNL A   1      46.030  28.741  28.632  1.00  0.00    -0.248 NA
ATOM     54  C   UNL A   1      48.300  29.279  28.511  1.00  0.00     0.031 C 
ATOM     55  C   UNL A   1      42.834  31.622  29.732  1.00  0.00     0.029 A 
ATOM     56  C   UNL A   1      43.847  30.744  29.384  1.00  0.00     0.049 A 
ATOM     57  H   UNL A   1      43.711  28.723  28.792  1.00  0.00     0.167 HD
ATOM     58  C   UNL A   1      46.201  30.074  28.982  1.00  0.00     0.074 A 
ATOM     59  C   UNL A   1      47.623  30.342  28.923  1.00  0.00     0.031 C 
ATOM     60  C   UNL A   1      45.265  30.991  29.326  1.00  0.00     0.031 A 
BRANCH  47  61
ATOM     61  C   UNL A   1      39.457  28.891  29.134  1.00  0.00    -0.014 A 
ATOM     62  C   UNL A   1      38.787  28.695  30.353  1.00  0.00     0.009 A 
ATOM     63  C   UNL A   1      38.741  29.410  28.044  1.00  0.00     0.009 A 
ATOM     64  C   UNL A   1      37.423  28.974  30.464  1.00  0.00     0.001 A 
ATOM     65  C   UNL A   1      37.386  29.720  28.167  1.00  0.00     0.001 A 
ATOM     66  C   UNL A   1      36.725  29.493  29.373  1.00  0.00     0.000 A 
ENDBRANCH  47  61
BRANCH  48  67
ATOM     67  C   UNL A   1      49.080  26.561  27.752  1.00  0.00    -0.014 A 
ATOM     68  C   UNL A   1      49.904  26.153  28.812  1.00  0.00     0.009 A 
ATOM     69  C   UNL A   1      49.632  26.662  26.466  1.00  0.00     0.009 A 
ATOM     70  C   UNL A   1      51.257  25.884  28.594  1.00  0.00     0.001 A 
ATOM     71  C   UNL A   1      50.978  26.359  26.245  1.00  0.00     0.001 A 
ATOM     72  C   UNL A   1      51.791  25.981  27.311  1.00  0.00     0.000 A 
ENDBRANCH  48  67
BRANCH  60  73
ATOM     73  C   UNL A   1      45.747  32.362  29.713  1.00  0.00    -0.014 A 
ATOM     74  C   UNL A   1      46.121  32.662  31.032  1.00  0.00     0.009 A 
ATOM     75  C   UNL A   1      45.887  33.348  28.723  1.00  0.00     0.009 A 
ATOM     76  C   UNL A   1      46.605  33.933  31.354  1.00  0.00     0.001 A 
ATOM     77  C   UNL A   1      46.402  34.605  29.042  1.00  0.00     0.001 A 
ATOM     78  C   UNL A   1      46.752  34.899  30.359  1.00  0.00     0.000 A 
ENDBRANCH  60  73
ENDBRANCH  34  35
ENDBRANCH  26  29
ENDBRANCH  24  25
ENDBRANCH  23  24
ENDBRANCH  22  23
ENDBRANCH   3  22
TORSDOF 16
ENDMDL
MODEL 3
REMARK VINA RESULT:     -10.8      5.312     10.194
REMARK SMILES CS(=O)(=O)CCSCc1cc(F)cc(/C=C/C(=O)NCCCNC(=O)c2ccc(-c3c4nc(c(-c5ccccc5)c5ccc([nH]5)c(-c5ccccc5)c5nc(c(-c6ccccc6)c6ccc3[nH]6)C=C5)C=C4)cc2)c1
REMARK SMILES IDX 17 1 18 2 19 3 16 5 15 6 14 7 9 8 10 9 74 10 11 11 12 12
REMARK SMILES IDX 13 13 8 14 7 15 6 16 5 17 2 18 1 19 3 20 4 21 20 22 21 23
REMARK SMILES IDX 22 24 23 25 24 26 25 28 26 29 27 30 73 31 28 32 72 33 29 34
REMARK SMILES IDX 30 35 31 36 66 37 32 38 71 39 65 40 67 41 33 42 70 43 64 44
REMARK SMILES IDX 63 45 34 47 56 48 41 49 55 50 42 51 45 52 54 53 68 54 43 55
REMARK SMILES IDX 44 56 53 58 69 59 46 60 35 61 36 62 40 63 37 64 39 65 38 66
REMARK SMILES IDX 57 67 58 68 62 69 59 70 61 71 60 72 47 73 48 74 52 75 49 76
REMARK SMILES IDX 51 77 50 78
REMARK H PARENT 19 4 23 27 67 46 45 57
REMARK Flexibility Score: inf
ROOT
ATOM      1  C   UNL A   1      34.001  20.225  24.866  1.00  0.00     0.244 C 
ATOM      2  O   UNL A   1      33.199  19.331  24.600  1.00  0.00    -0.270 OA
ATOM      3  N   UNL A   1      35.311  19.907  25.006  1.00  0.00    -0.352 N 
ATOM      4  H   UNL A   1      35.503  18.945  24.922  1.00  0.00     0.163 HD
ENDROOT
BRANCH   1   5
ATOM      5  C   UNL A   1      33.514  21.622  24.939  1.00  0.00     0.072 C 
ATOM      6  C   UNL A   1      32.710  22.134  25.883  1.00  0.00     0.014 C 
BRANCH   6   7
ATOM      7  C   UNL A   1      32.192  23.512  25.913  1.00  0.00    -0.022 A 
ATOM      8  C   UNL A   1      32.720  25.924  26.006  1.00  0.00    -0.035 A 
ATOM      9  C   UNL A   1      31.359  26.179  26.176  1.00  0.00     0.043 A 
ATOM     10  C   UNL A   1      33.116  24.573  25.891  1.00  0.00     0.013 A 
ATOM     11  C   UNL A   1      30.436  25.138  26.148  1.00  0.00     0.124 A 
ATOM     12  F   UNL A   1      29.130  25.421  26.251  1.00  0.00    -0.207 F 
ATOM     13  C   UNL A   1      30.836  23.815  26.015  1.00  0.00     0.047 A 
BRANCH   8  14
ATOM     14  C   UNL A   1      33.787  26.973  25.807  1.00  0.00     0.105 C 
BRANCH  14  15
ATOM     15  S   UNL A   1      33.447  28.519  24.924  1.00  0.00    -0.156 SA
BRANCH  15  16
ATOM     16  C   UNL A   1      32.544  28.018  23.409  1.00  0.00     0.086 C 
BRANCH  16  17
ATOM     17  C   UNL A   1      33.295  27.311  22.294  1.00  0.00     0.147 C 
BRANCH  17  18
ATOM     18  S   UNL A   1      32.856  25.603  22.047  1.00  0.00     0.148 S 
ATOM     19  C   UNL A   1      32.556  25.497  20.297  1.00  0.00     0.158 C 
ATOM     20  O   UNL A   1      31.584  25.371  22.708  1.00  0.00    -0.229 OA
ATOM     21  O   UNL A   1      33.997  24.772  22.361  1.00  0.00    -0.229 OA
ENDBRANCH  17  18
ENDBRANCH  16  17
ENDBRANCH  15  16
ENDBRANCH  14  15
ENDBRANCH   8  14
ENDBRANCH   6   7
ENDBRANCH   1   5
BRANCH   3  22
ATOM     22  C   UNL A   1      36.484  20.723  25.258  1.00  0.00     0.118 C 
BRANCH  22  23
ATOM     23  C   UNL A   1      37.763  19.965  24.912  1.00  0.00     0.042 C 
BRANCH  23  24
ATOM     24  C   UNL A   1      38.951  20.371  25.780  1.00  0.00     0.118 C 
BRANCH  24  25
ATOM     25  N   UNL A   1      39.959  19.321  25.853  1.00  0.00    -0.352 N 
ATOM     26  C   UNL A   1      41.315  19.420  26.041  1.00  0.00     0.251 C 
ATOM     27  H   UNL A   1      39.616  18.404  25.751  1.00  0.00     0.163 HD
ATOM     28  O   UNL A   1      42.038  18.453  25.827  1.00  0.00    -0.269 OA
BRANCH  26  29
ATOM     29  C   UNL A   1      41.901  20.698  26.493  1.00  0.00     0.039 A 
ATOM     30  C   UNL A   1      42.461  21.562  25.550  1.00  0.00     0.014 A 
ATOM     31  C   UNL A   1      41.902  21.032  27.849  1.00  0.00     0.014 A 
ATOM     32  C   UNL A   1      42.962  22.799  25.961  1.00  0.00     0.010 A 
ATOM     33  C   UNL A   1      42.325  22.294  28.246  1.00  0.00     0.010 A 
ATOM     34  C   UNL A   1      42.860  23.189  27.306  1.00  0.00    -0.014 A 
BRANCH  34  35
ATOM     35  C   UNL A   1      43.298  24.530  27.764  1.00  0.00     0.031 A 
ATOM     36  C   UNL A   1      42.275  25.582  28.092  1.00  0.00     0.074 A 
ATOM     37  C   UNL A   1      44.612  24.828  27.792  1.00  0.00     0.049 A 
ATOM     38  N   UNL A   1      42.454  26.843  28.390  1.00  0.00    -0.248 NA
ATOM     39  C   UNL A   1      40.863  25.167  28.051  1.00  0.00     0.031 C 
ATOM     40  C   UNL A   1      45.699  23.902  27.465  1.00  0.00     0.029 A 
ATOM     41  N   UNL A   1      45.256  26.000  28.093  1.00  0.00    -0.354 N 
ATOM     42  C   UNL A   1      41.181  27.375  28.548  1.00  0.00     0.074 A 
ATOM     43  C   UNL A   1      40.239  26.315  28.265  1.00  0.00     0.031 C 
ATOM     44  C   UNL A   1      46.873  24.537  27.604  1.00  0.00     0.029 A 
ATOM     45  C   UNL A   1      46.622  25.924  27.976  1.00  0.00     0.049 A 
ATOM     46  H   UNL A   1      44.783  26.820  28.369  1.00  0.00     0.167 HD
ATOM     47  C   UNL A   1      40.829  28.631  28.913  1.00  0.00     0.031 A 
ATOM     48  C   UNL A   1      47.567  26.871  28.131  1.00  0.00     0.031 A 
ATOM     49  C   UNL A   1      41.771  29.679  29.197  1.00  0.00     0.049 A 
ATOM     50  C   UNL A   1      47.148  28.267  28.501  1.00  0.00     0.074 A 
ATOM     51  C   UNL A   1      41.519  30.971  29.627  1.00  0.00     0.029 A 
ATOM     52  N   UNL A   1      43.146  29.559  29.073  1.00  0.00    -0.354 N 
ATOM     53  N   UNL A   1      45.943  28.740  28.713  1.00  0.00    -0.248 NA
ATOM     54  C   UNL A   1      48.220  29.260  28.660  1.00  0.00     0.031 C 
ATOM     55  C   UNL A   1      42.737  31.650  29.700  1.00  0.00     0.029 A 
ATOM     56  C   UNL A   1      43.754  30.762  29.388  1.00  0.00     0.049 A 
ATOM     57  H   UNL A   1      43.621  28.740  28.801  1.00  0.00     0.167 HD
ATOM     58  C   UNL A   1      46.114  30.073  29.063  1.00  0.00     0.074 A 
ATOM     59  C   UNL A   1      47.539  30.330  29.047  1.00  0.00     0.031 C 
ATOM     60  C   UNL A   1      45.175  30.999  29.373  1.00  0.00     0.031 A 
BRANCH  47  61
ATOM     61  C   UNL A   1      39.360  28.941  29.009  1.00  0.00    -0.014 A 
ATOM     62  C   UNL A   1      38.653  28.769  30.211  1.00  0.00     0.009 A 
ATOM     63  C   UNL A   1      38.679  29.449  27.891  1.00  0.00     0.009 A 
ATOM     64  C   UNL A   1      37.289  29.058  30.278  1.00  0.00     0.001 A 
ATOM     65  C   UNL A   1      37.323  29.770  27.971  1.00  0.00     0.001 A 
ATOM     66  C   UNL A   1      36.626  29.565  29.160  1.00  0.00     0.000 A 
ENDBRANCH  47  61
BRANCH  48  67
ATOM     67  C   UNL A   1      49.002  26.532  27.939  1.00  0.00    -0.014 A 
ATOM     68  C   UNL A   1      49.829  26.278  29.044  1.00  0.00     0.009 A 
ATOM     69  C   UNL A   1      49.557  26.469  26.650  1.00  0.00     0.009 A 
ATOM     70  C   UNL A   1      51.186  25.998  28.864  1.00  0.00     0.001 A 
ATOM     71  C   UNL A   1      50.906  26.156  26.473  1.00  0.00     0.001 A 
ATOM     72  C   UNL A   1      51.721  25.931  27.579  1.00  0.00     0.000 A 
ENDBRANCH  48  67
BRANCH  60  73
ATOM     73  C   UNL A   1      45.655  32.368  29.768  1.00  0.00    -0.014 A 
ATOM     74  C   UNL A   1      45.657  33.436  28.858  1.00  0.00     0.009 A 
ATOM     75  C   UNL A   1      46.050  32.603  31.095  1.00  0.00     0.009 A 
ATOM     76  C   UNL A   1      46.068  34.707  29.265  1.00  0.00     0.001 A 
ATOM     77  C   UNL A   1      46.428  33.881  31.506  1.00  0.00     0.001 A 
ATOM     78  C   UNL A   1      46.445  34.930  30.589  1.00  0.00     0.000 A 
ENDBRANCH  60  73
ENDBRANCH  34  35
ENDBRANCH  26  29
ENDBRANCH  24  25
ENDBRANCH  23  24
ENDBRANCH  22  23
ENDBRANCH   3  22
TORSDOF 16
ENDMDL
