MODEL 1
REMARK VINA RESULT:     -11.9      0.000      0.000
REMARK SMILES O=C(NCCCNC(=O)[C@H]1Cc2[nH]cnc2CN1S(=O)(=O)c1cccs1)c1ccc(-c2c3nc(c(-c4ccccc4)c4ccc([nH]4)c(-c4ccccc4)c4nc(c(-c5ccccc5)c5ccc2[nH]5)C=C4)C=C3)cc1
REMARK SMILES IDX 5 1 4 2 3 3 1 4 2 5 27 7 28 8 74 9 29 10 73 11 30 12 31 13
REMARK SMILES IDX 32 14 67 15 33 16 72 17 66 18 68 19 34 20 71 21 65 22 64 23
REMARK SMILES IDX 35 25 57 26 42 27 56 28 43 29 46 30 55 31 69 32 44 33 45 34
REMARK SMILES IDX 54 36 70 37 47 38 36 39 37 40 41 41 38 42 40 43 39 44 58 45
REMARK SMILES IDX 59 46 63 47 60 48 62 49 61 50 48 51 49 52 53 53 50 54 52 55
REMARK SMILES IDX 51 56 6 57 7 58 8 59 9 61 10 62 11 63 18 64 12 65 17 66
REMARK SMILES IDX 13 67 16 68 14 69 15 71 19 72 20 73 21 74 22 75 23 76 26 77
REMARK SMILES IDX 24 78 25 79
REMARK H PARENT 3 6 68 24 46 35 7 60 13 70
REMARK Flexibility Score: inf
ROOT
ATOM      1  C   UNL A   1      34.700  29.907  27.569  1.00  0.00     0.042 C 
ENDROOT
BRANCH   1   2
ATOM      2  C   UNL A   1      34.826  31.404  27.864  1.00  0.00     0.118 C 
BRANCH   2   3
ATOM      3  N   UNL A   1      34.667  31.776  29.256  1.00  0.00    -0.352 N 
ATOM      4  O   UNL A   1      35.012  32.316  31.364  1.00  0.00    -0.269 OA
ATOM      5  C   UNL A   1      35.457  31.739  30.369  1.00  0.00     0.251 C 
ATOM      6  H   UNL A   1      33.774  32.145  29.444  1.00  0.00     0.163 HD
BRANCH   5   7
ATOM      7  C   UNL A   1      36.744  31.004  30.490  1.00  0.00     0.039 A 
ATOM      8  C   UNL A   1      38.018  31.554  30.349  1.00  0.00     0.014 A 
ATOM      9  C   UNL A   1      36.632  29.616  30.707  1.00  0.00     0.014 A 
ATOM     10  C   UNL A   1      39.141  30.731  30.307  1.00  0.00     0.010 A 
ATOM     11  C   UNL A   1      37.749  28.791  30.684  1.00  0.00     0.010 A 
ATOM     12  C   UNL A   1      38.998  29.347  30.434  1.00  0.00    -0.014 A 
BRANCH  12  13
ATOM     13  C   UNL A   1      40.197  28.516  30.395  1.00  0.00     0.031 A 
ATOM     14  C   UNL A   1      40.926  28.371  31.685  1.00  0.00     0.074 A 
ATOM     15  C   UNL A   1      40.549  27.787  29.317  1.00  0.00     0.049 A 
ATOM     16  N   UNL A   1      42.156  28.670  31.949  1.00  0.00    -0.248 NA
ATOM     17  C   UNL A   1      40.162  27.885  32.845  1.00  0.00     0.031 C 
ATOM     18  C   UNL A   1      39.781  27.570  28.088  1.00  0.00     0.029 A 
ATOM     19  N   UNL A   1      41.632  26.974  29.153  1.00  0.00    -0.354 N 
ATOM     20  C   UNL A   1      42.377  28.266  33.267  1.00  0.00     0.074 A 
ATOM     21  C   UNL A   1      41.090  27.902  33.802  1.00  0.00     0.031 C 
ATOM     22  C   UNL A   1      40.303  26.517  27.420  1.00  0.00     0.029 A 
ATOM     23  C   UNL A   1      41.510  26.078  28.101  1.00  0.00     0.049 A 
ATOM     24  H   UNL A   1      42.429  27.021  29.729  1.00  0.00     0.167 HD
ATOM     25  C   UNL A   1      43.628  28.062  33.765  1.00  0.00     0.031 A 
ATOM     26  C   UNL A   1      42.303  25.007  27.849  1.00  0.00     0.031 A 
ATOM     27  C   UNL A   1      44.644  28.689  32.964  1.00  0.00     0.049 A 
ATOM     28  C   UNL A   1      43.574  25.195  28.583  1.00  0.00     0.074 A 
ATOM     29  C   UNL A   1      44.935  29.983  32.583  1.00  0.00     0.029 A 
ATOM     30  N   UNL A   1      45.389  27.884  32.137  1.00  0.00    -0.354 N 
ATOM     31  N   UNL A   1      44.453  26.104  28.278  1.00  0.00    -0.248 NA
ATOM     32  C   UNL A   1      43.690  24.635  29.919  1.00  0.00     0.031 C 
ATOM     33  C   UNL A   1      45.432  29.870  31.251  1.00  0.00     0.029 A 
ATOM     34  C   UNL A   1      45.453  28.512  30.924  1.00  0.00     0.049 A 
ATOM     35  H   UNL A   1      45.797  27.020  32.372  1.00  0.00     0.167 HD
ATOM     36  C   UNL A   1      44.943  26.543  29.499  1.00  0.00     0.074 A 
ATOM     37  C   UNL A   1      44.522  25.527  30.462  1.00  0.00     0.031 C 
ATOM     38  C   UNL A   1      45.396  27.821  29.657  1.00  0.00     0.031 A 
BRANCH  25  39
ATOM     39  C   UNL A   1      43.962  26.961  34.745  1.00  0.00    -0.014 A 
ATOM     40  C   UNL A   1      43.773  25.622  34.351  1.00  0.00     0.009 A 
ATOM     41  C   UNL A   1      44.161  27.191  36.119  1.00  0.00     0.009 A 
ATOM     42  C   UNL A   1      43.690  24.589  35.292  1.00  0.00     0.001 A 
ATOM     43  C   UNL A   1      44.124  26.156  37.057  1.00  0.00     0.001 A 
ATOM     44  C   UNL A   1      43.853  24.858  36.646  1.00  0.00     0.000 A 
ENDBRANCH  25  39
BRANCH  26  45
ATOM     45  C   UNL A   1      41.930  23.711  27.245  1.00  0.00    -0.014 A 
ATOM     46  C   UNL A   1      42.633  23.196  26.145  1.00  0.00     0.009 A 
ATOM     47  C   UNL A   1      41.045  22.850  27.920  1.00  0.00     0.009 A 
ATOM     48  C   UNL A   1      42.478  21.858  25.757  1.00  0.00     0.001 A 
ATOM     49  C   UNL A   1      40.887  21.517  27.530  1.00  0.00     0.001 A 
ATOM     50  C   UNL A   1      41.616  21.017  26.457  1.00  0.00     0.000 A 
ENDBRANCH  26  45
BRANCH  38  51
ATOM     51  C   UNL A   1      45.564  28.668  28.421  1.00  0.00    -0.014 A 
ATOM     52  C   UNL A   1      44.591  29.589  27.993  1.00  0.00     0.009 A 
ATOM     53  C   UNL A   1      46.798  28.646  27.756  1.00  0.00     0.009 A 
ATOM     54  C   UNL A   1      44.835  30.438  26.910  1.00  0.00     0.001 A 
ATOM     55  C   UNL A   1      47.050  29.510  26.687  1.00  0.00     0.001 A 
ATOM     56  C   UNL A   1      46.066  30.400  26.261  1.00  0.00     0.000 A 
ENDBRANCH  38  51
ENDBRANCH  12  13
ENDBRANCH   5   7
ENDBRANCH   2   3
ENDBRANCH   1   2
BRANCH   1  57
ATOM     57  C   UNL A   1      33.672  29.550  26.500  1.00  0.00     0.117 C 
BRANCH  57  58
ATOM     58  N   UNL A   1      34.008  28.343  25.768  1.00  0.00    -0.355 N 
ATOM     59  C   UNL A   1      33.322  27.684  24.791  1.00  0.00     0.238 C 
ATOM     60  H   UNL A   1      34.870  27.937  26.016  1.00  0.00     0.163 HD
ATOM     61  O   UNL A   1      33.910  26.768  24.210  1.00  0.00    -0.273 OA
BRANCH  59  62
ATOM     62  C   UNL A   1      31.921  28.122  24.397  1.00  0.00     0.168 C 
ATOM     63  C   UNL A   1      32.136  28.851  23.039  1.00  0.00     0.086 C 
ATOM     64  N   UNL A   1      30.898  26.993  24.269  1.00  0.00    -0.178 NA
ATOM     65  C   UNL A   1      30.820  29.197  22.478  1.00  0.00     0.041 A 
ATOM     66  C   UNL A   1      29.523  27.495  23.839  1.00  0.00     0.161 C 
ATOM     67  N   UNL A   1      30.508  30.135  21.543  1.00  0.00    -0.348 N 
ATOM     68  C   UNL A   1      29.643  28.583  22.821  1.00  0.00     0.077 A 
ATOM     69  C   UNL A   1      29.149  30.080  21.380  1.00  0.00     0.197 A 
ATOM     70  H   UNL A   1      31.134  30.734  21.076  1.00  0.00     0.167 HD
ATOM     71  N   UNL A   1      28.599  29.159  22.145  1.00  0.00    -0.240 NA
BRANCH  64  72
ATOM     72  S   UNL A   1      30.717  26.038  25.682  1.00  0.00     0.253 S 
ATOM     73  O   UNL A   1      31.349  26.767  26.756  1.00  0.00    -0.206 OA
ATOM     74  O   UNL A   1      29.321  25.640  25.781  1.00  0.00    -0.206 OA
BRANCH  72  75
ATOM     75  C   UNL A   1      31.637  24.522  25.576  1.00  0.00     0.135 A 
ATOM     76  C   UNL A   1      32.414  23.860  26.512  1.00  0.00     0.033 A 
ATOM     77  S   UNL A   1      31.598  23.676  24.090  1.00  0.00    -0.131 S 
ATOM     78  C   UNL A   1      33.028  22.690  25.986  1.00  0.00     0.013 A 
ATOM     79  C   UNL A   1      32.646  22.457  24.684  1.00  0.00     0.066 A 
ENDBRANCH  72  75
ENDBRANCH  64  72
ENDBRANCH  59  62
ENDBRANCH  57  58
ENDBRANCH   1  57
TORSDOF 12
ENDMDL
MODEL 2
REMARK VINA RESULT:     -11.8      3.310      8.355
REMARK SMILES O=C(NCCCNC(=O)[C@H]1Cc2[nH]cnc2CN1S(=O)(=O)c1cccs1)c1ccc(-c2c3nc(c(-c4ccccc4)c4ccc([nH]4)c(-c4ccccc4)c4nc(c(-c5ccccc5)c5ccc2[nH]5)C=C4)C=C3)cc1
REMARK SMILES IDX 5 1 4 2 3 3 1 4 2 5 27 7 28 8 74 9 29 10 73 11 30 12 31 13
REMARK SMILES IDX 32 14 67 15 33 16 72 17 66 18 68 19 34 20 71 21 65 22 64 23
REMARK SMILES IDX 35 25 57 26 42 27 56 28 43 29 46 30 55 31 69 32 44 33 45 34
REMARK SMILES IDX 54 36 70 37 47 38 36 39 37 40 41 41 38 42 40 43 39 44 58 45
REMARK SMILES IDX 59 46 63 47 60 48 62 49 61 50 48 51 49 52 53 53 50 54 52 55
REMARK SMILES IDX 51 56 6 57 7 58 8 59 9 61 10 62 11 63 18 64 12 65 17 66
REMARK SMILES IDX 13 67 16 68 14 69 15 71 19 72 20 73 21 74 22 75 23 76 26 77
REMARK SMILES IDX 24 78 25 79
REMARK H PARENT 3 6 68 24 46 35 7 60 13 70
REMARK Flexibility Score: inf
ROOT
ATOM      1  C   UNL A   1      38.549  23.336  26.204  1.00  0.00     0.042 C 
ENDROOT
BRANCH   1   2
ATOM      2  C   UNL A   1      39.589  22.274  26.568  1.00  0.00     0.118 C 
BRANCH   2   3
ATOM      3  N   UNL A   1      40.851  22.376  25.863  1.00  0.00    -0.352 N 
ATOM      4  O   UNL A   1      42.903  22.881  25.242  1.00  0.00    -0.269 OA
ATOM      5  C   UNL A   1      41.916  23.230  25.893  1.00  0.00     0.251 C 
ATOM      6  H   UNL A   1      40.969  21.655  25.202  1.00  0.00     0.163 HD
BRANCH   5   7
ATOM      7  C   UNL A   1      41.942  24.553  26.571  1.00  0.00     0.039 A 
ATOM      8  C   UNL A   1      42.392  24.800  27.868  1.00  0.00     0.014 A 
ATOM      9  C   UNL A   1      41.400  25.623  25.832  1.00  0.00     0.014 A 
ATOM     10  C   UNL A   1      42.200  26.049  28.454  1.00  0.00     0.010 A 
ATOM     11  C   UNL A   1      41.222  26.876  26.404  1.00  0.00     0.010 A 
ATOM     12  C   UNL A   1      41.579  27.072  27.734  1.00  0.00    -0.014 A 
BRANCH  12  13
ATOM     13  C   UNL A   1      41.403  28.370  28.376  1.00  0.00     0.031 A 
ATOM     14  C   UNL A   1      42.475  29.371  28.116  1.00  0.00     0.074 A 
ATOM     15  C   UNL A   1      40.277  28.718  29.030  1.00  0.00     0.049 A 
ATOM     16  N   UNL A   1      43.224  29.985  28.973  1.00  0.00    -0.248 NA
ATOM     17  C   UNL A   1      42.789  29.679  26.712  1.00  0.00     0.031 C 
ATOM     18  C   UNL A   1      39.015  27.976  29.108  1.00  0.00     0.029 A 
ATOM     19  N   UNL A   1      39.986  29.889  29.666  1.00  0.00    -0.354 N 
ATOM     20  C   UNL A   1      44.002  30.878  28.235  1.00  0.00     0.074 A 
ATOM     21  C   UNL A   1      43.777  30.563  26.847  1.00  0.00     0.031 C 
ATOM     22  C   UNL A   1      38.040  28.805  29.543  1.00  0.00     0.029 A 
ATOM     23  C   UNL A   1      38.633  30.084  29.898  1.00  0.00     0.049 A 
ATOM     24  H   UNL A   1      40.676  30.538  29.937  1.00  0.00     0.167 HD
ATOM     25  C   UNL A   1      44.618  31.949  28.807  1.00  0.00     0.031 A 
ATOM     26  C   UNL A   1      38.031  31.236  30.285  1.00  0.00     0.031 A 
ATOM     27  C   UNL A   1      44.729  31.820  30.234  1.00  0.00     0.049 A 
ATOM     28  C   UNL A   1      39.066  32.122  30.861  1.00  0.00     0.074 A 
ATOM     29  C   UNL A   1      45.335  30.927  31.095  1.00  0.00     0.029 A 
ATOM     30  N   UNL A   1      43.857  32.545  31.008  1.00  0.00    -0.354 N 
ATOM     31  N   UNL A   1      39.670  31.885  31.989  1.00  0.00    -0.248 NA
ATOM     32  C   UNL A   1      39.730  33.071  29.984  1.00  0.00     0.031 C 
ATOM     33  C   UNL A   1      44.446  30.828  32.206  1.00  0.00     0.029 A 
ATOM     34  C   UNL A   1      43.380  31.699  31.970  1.00  0.00     0.049 A 
ATOM     35  H   UNL A   1      43.622  33.494  30.892  1.00  0.00     0.167 HD
ATOM     36  C   UNL A   1      40.977  32.299  31.782  1.00  0.00     0.074 A 
ATOM     37  C   UNL A   1      40.926  33.122  30.575  1.00  0.00     0.031 C 
ATOM     38  C   UNL A   1      42.016  31.708  32.443  1.00  0.00     0.031 A 
BRANCH  25  39
ATOM     39  C   UNL A   1      44.756  33.291  28.123  1.00  0.00    -0.014 A 
ATOM     40  C   UNL A   1      46.040  33.727  27.741  1.00  0.00     0.009 A 
ATOM     41  C   UNL A   1      43.734  34.258  28.116  1.00  0.00     0.009 A 
ATOM     42  C   UNL A   1      46.300  35.075  27.464  1.00  0.00     0.001 A 
ATOM     43  C   UNL A   1      43.981  35.595  27.797  1.00  0.00     0.001 A 
ATOM     44  C   UNL A   1      45.272  36.011  27.504  1.00  0.00     0.000 A 
ENDBRANCH  25  39
BRANCH  26  45
ATOM     45  C   UNL A   1      36.682  31.728  29.938  1.00  0.00    -0.014 A 
ATOM     46  C   UNL A   1      35.821  32.237  30.924  1.00  0.00     0.009 A 
ATOM     47  C   UNL A   1      36.337  31.944  28.591  1.00  0.00     0.009 A 
ATOM     48  C   UNL A   1      34.675  32.962  30.571  1.00  0.00     0.001 A 
ATOM     49  C   UNL A   1      35.191  32.664  28.239  1.00  0.00     0.001 A 
ATOM     50  C   UNL A   1      34.368  33.186  29.231  1.00  0.00     0.000 A 
ENDBRANCH  26  45
BRANCH  38  51
ATOM     51  C   UNL A   1      41.687  30.758  33.567  1.00  0.00    -0.014 A 
ATOM     52  C   UNL A   1      41.503  29.378  33.366  1.00  0.00     0.009 A 
ATOM     53  C   UNL A   1      41.713  31.241  34.882  1.00  0.00     0.009 A 
ATOM     54  C   UNL A   1      41.316  28.514  34.449  1.00  0.00     0.001 A 
ATOM     55  C   UNL A   1      41.547  30.374  35.966  1.00  0.00     0.001 A 
ATOM     56  C   UNL A   1      41.343  29.013  35.748  1.00  0.00     0.000 A 
ENDBRANCH  38  51
ENDBRANCH  12  13
ENDBRANCH   5   7
ENDBRANCH   2   3
ENDBRANCH   1   2
BRANCH   1  57
ATOM     57  C   UNL A   1      37.250  22.787  25.621  1.00  0.00     0.117 C 
BRANCH  57  58
ATOM     58  N   UNL A   1      36.084  23.561  26.003  1.00  0.00    -0.355 N 
ATOM     59  C   UNL A   1      34.757  23.255  25.922  1.00  0.00     0.238 C 
ATOM     60  H   UNL A   1      36.282  24.447  26.383  1.00  0.00     0.163 HD
ATOM     61  O   UNL A   1      33.966  24.023  26.475  1.00  0.00    -0.273 OA
BRANCH  59  62
ATOM     62  C   UNL A   1      34.296  21.976  25.241  1.00  0.00     0.168 C 
ATOM     63  C   UNL A   1      33.794  21.095  26.422  1.00  0.00     0.086 C 
ATOM     64  N   UNL A   1      33.211  22.158  24.181  1.00  0.00    -0.178 NA
ATOM     65  C   UNL A   1      33.182  19.876  25.871  1.00  0.00     0.041 A 
ATOM     66  C   UNL A   1      32.770  20.836  23.561  1.00  0.00     0.161 C 
ATOM     67  N   UNL A   1      32.956  18.680  26.482  1.00  0.00    -0.348 N 
ATOM     68  C   UNL A   1      32.705  19.755  24.591  1.00  0.00     0.077 A 
ATOM     69  C   UNL A   1      32.384  17.868  25.538  1.00  0.00     0.197 A 
ATOM     70  H   UNL A   1      33.162  18.446  27.415  1.00  0.00     0.167 HD
ATOM     71  N   UNL A   1      32.229  18.487  24.385  1.00  0.00    -0.240 NA
BRANCH  64  72
ATOM     72  S   UNL A   1      33.628  23.244  22.919  1.00  0.00     0.253 S 
ATOM     73  O   UNL A   1      35.063  23.398  22.966  1.00  0.00    -0.206 OA
ATOM     74  O   UNL A   1      32.974  22.792  21.701  1.00  0.00    -0.206 OA
BRANCH  72  75
ATOM     75  C   UNL A   1      32.998  24.878  23.220  1.00  0.00     0.135 A 
ATOM     76  C   UNL A   1      33.642  26.052  23.574  1.00  0.00     0.033 A 
ATOM     77  S   UNL A   1      31.313  25.118  23.058  1.00  0.00    -0.131 S 
ATOM     78  C   UNL A   1      32.740  27.133  23.773  1.00  0.00     0.013 A 
ATOM     79  C   UNL A   1      31.441  26.769  23.498  1.00  0.00     0.066 A 
ENDBRANCH  72  75
ENDBRANCH  64  72
ENDBRANCH  59  62
ENDBRANCH  57  58
ENDBRANCH   1  57
TORSDOF 12
ENDMDL
MODEL 3
REMARK VINA RESULT:     -11.8      2.174      3.887
REMARK SMILES O=C(NCCCNC(=O)[C@H]1Cc2[nH]cnc2CN1S(=O)(=O)c1cccs1)c1ccc(-c2c3nc(c(-c4ccccc4)c4ccc([nH]4)c(-c4ccccc4)c4nc(c(-c5ccccc5)c5ccc2[nH]5)C=C4)C=C3)cc1
REMARK SMILES IDX 5 1 4 2 3 3 1 4 2 5 27 7 28 8 74 9 29 10 73 11 30 12 31 13
REMARK SMILES IDX 32 14 67 15 33 16 72 17 66 18 68 19 34 20 71 21 65 22 64 23
REMARK SMILES IDX 35 25 57 26 42 27 56 28 43 29 46 30 55 31 69 32 44 33 45 34
REMARK SMILES IDX 54 36 70 37 47 38 36 39 37 40 41 41 38 42 40 43 39 44 58 45
REMARK SMILES IDX 59 46 63 47 60 48 62 49 61 50 48 51 49 52 53 53 50 54 52 55
REMARK SMILES IDX 51 56 6 57 7 58 8 59 9 61 10 62 11 63 18 64 12 65 17 66
REMARK SMILES IDX 13 67 16 68 14 69 15 71 19 72 20 73 21 74 22 75 23 76 26 77
REMARK SMILES IDX 24 78 25 79
REMARK H PARENT 3 6 68 24 46 35 7 60 13 70
REMARK Flexibility Score: inf
ROOT
ATOM      1  C   UNL A   1      32.720  28.762  27.130  1.00  0.00     0.042 C 
ENDROOT
BRANCH   1   2
ATOM      2  C   UNL A   1      33.397  30.053  26.662  1.00  0.00     0.118 C 
BRANCH   2   3
ATOM      3  N   UNL A   1      33.642  31.036  27.699  1.00  0.00    -0.352 N 
ATOM      4  O   UNL A   1      34.569  32.465  29.095  1.00  0.00    -0.269 OA
ATOM      5  C   UNL A   1      34.737  31.466  28.391  1.00  0.00     0.251 C 
ATOM      6  H   UNL A   1      32.821  31.506  27.969  1.00  0.00     0.163 HD
BRANCH   5   7
ATOM      7  C   UNL A   1      36.062  30.790  28.421  1.00  0.00     0.039 A 
ATOM      8  C   UNL A   1      36.310  29.461  28.081  1.00  0.00     0.014 A 
ATOM      9  C   UNL A   1      37.131  31.573  28.899  1.00  0.00     0.014 A 
ATOM     10  C   UNL A   1      37.560  28.893  28.320  1.00  0.00     0.010 A 
ATOM     11  C   UNL A   1      38.385  31.019  29.124  1.00  0.00     0.010 A 
ATOM     12  C   UNL A   1      38.581  29.664  28.879  1.00  0.00    -0.014 A 
BRANCH  12  13
ATOM     13  C   UNL A   1      39.880  29.039  29.108  1.00  0.00     0.031 A 
ATOM     14  C   UNL A   1      40.222  28.758  30.530  1.00  0.00     0.074 A 
ATOM     15  C   UNL A   1      40.663  28.588  28.108  1.00  0.00     0.049 A 
ATOM     16  N   UNL A   1      41.240  29.178  31.208  1.00  0.00    -0.248 NA
ATOM     17  C   UNL A   1      39.268  27.954  31.310  1.00  0.00     0.031 C 
ATOM     18  C   UNL A   1      40.340  28.501  26.681  1.00  0.00     0.029 A 
ATOM     19  N   UNL A   1      41.886  27.989  28.185  1.00  0.00    -0.354 N 
ATOM     20  C   UNL A   1      41.148  28.566  32.459  1.00  0.00     0.074 A 
ATOM     21  C   UNL A   1      39.859  27.922  32.505  1.00  0.00     0.031 C 
ATOM     22  C   UNL A   1      41.229  27.682  26.075  1.00  0.00     0.029 A 
ATOM     23  C   UNL A   1      42.251  27.302  27.036  1.00  0.00     0.049 A 
ATOM     24  H   UNL A   1      42.459  28.041  28.984  1.00  0.00     0.167 HD
ATOM     25  C   UNL A   1      42.218  28.455  33.294  1.00  0.00     0.031 A 
ATOM     26  C   UNL A   1      43.277  26.427  26.904  1.00  0.00     0.031 A 
ATOM     27  C   UNL A   1      43.277  29.364  32.951  1.00  0.00     0.049 A 
ATOM     28  C   UNL A   1      44.221  26.654  28.020  1.00  0.00     0.074 A 
ATOM     29  C   UNL A   1      43.403  30.736  32.863  1.00  0.00     0.029 A 
ATOM     30  N   UNL A   1      44.371  28.850  32.299  1.00  0.00    -0.354 N 
ATOM     31  N   UNL A   1      44.953  27.723  28.137  1.00  0.00    -0.248 NA
ATOM     32  C   UNL A   1      44.056  25.872  29.234  1.00  0.00     0.031 C 
ATOM     33  C   UNL A   1      44.274  30.953  31.754  1.00  0.00     0.029 A 
ATOM     34  C   UNL A   1      44.655  29.701  31.267  1.00  0.00     0.049 A 
ATOM     35  H   UNL A   1      44.857  28.026  32.531  1.00  0.00     0.167 HD
ATOM     36  C   UNL A   1      44.975  27.987  29.498  1.00  0.00     0.074 A 
ATOM     37  C   UNL A   1      44.505  26.755  30.130  1.00  0.00     0.031 C 
ATOM     38  C   UNL A   1      45.102  29.264  29.966  1.00  0.00     0.031 A 
BRANCH  25  39
ATOM     39  C   UNL A   1      42.467  27.247  34.169  1.00  0.00    -0.014 A 
ATOM     40  C   UNL A   1      43.393  26.278  33.738  1.00  0.00     0.009 A 
ATOM     41  C   UNL A   1      41.618  26.880  35.231  1.00  0.00     0.009 A 
ATOM     42  C   UNL A   1      43.399  24.985  34.275  1.00  0.00     0.001 A 
ATOM     43  C   UNL A   1      41.653  25.605  35.800  1.00  0.00     0.001 A 
ATOM     44  C   UNL A   1      42.520  24.645  35.298  1.00  0.00     0.000 A 
ENDBRANCH  25  39
BRANCH  26  45
ATOM     45  C   UNL A   1      43.357  25.230  26.041  1.00  0.00    -0.014 A 
ATOM     46  C   UNL A   1      44.476  24.998  25.226  1.00  0.00     0.009 A 
ATOM     47  C   UNL A   1      42.444  24.174  26.218  1.00  0.00     0.009 A 
ATOM     48  C   UNL A   1      44.688  23.744  24.637  1.00  0.00     0.001 A 
ATOM     49  C   UNL A   1      42.653  22.923  25.628  1.00  0.00     0.001 A 
ATOM     50  C   UNL A   1      43.784  22.705  24.849  1.00  0.00     0.000 A 
ENDBRANCH  26  45
BRANCH  38  51
ATOM     51  C   UNL A   1      45.448  30.346  28.975  1.00  0.00    -0.014 A 
ATOM     52  C   UNL A   1      46.759  30.826  28.801  1.00  0.00     0.009 A 
ATOM     53  C   UNL A   1      44.455  30.786  28.089  1.00  0.00     0.009 A 
ATOM     54  C   UNL A   1      47.057  31.746  27.791  1.00  0.00     0.001 A 
ATOM     55  C   UNL A   1      44.758  31.689  27.066  1.00  0.00     0.001 A 
ATOM     56  C   UNL A   1      46.057  32.173  26.922  1.00  0.00     0.000 A 
ENDBRANCH  38  51
ENDBRANCH  12  13
ENDBRANCH   5   7
ENDBRANCH   2   3
ENDBRANCH   1   2
BRANCH   1  57
ATOM     57  C   UNL A   1      33.272  27.486  26.502  1.00  0.00     0.117 C 
BRANCH  57  58
ATOM     58  N   UNL A   1      32.262  26.459  26.323  1.00  0.00    -0.355 N 
ATOM     59  C   UNL A   1      32.356  25.218  25.767  1.00  0.00     0.238 C 
ATOM     60  H   UNL A   1      31.367  26.697  26.657  1.00  0.00     0.163 HD
ATOM     61  O   UNL A   1      31.383  24.469  25.890  1.00  0.00    -0.273 OA
BRANCH  59  62
ATOM     62  C   UNL A   1      33.642  24.763  25.095  1.00  0.00     0.168 C 
ATOM     63  C   UNL A   1      34.331  23.886  26.180  1.00  0.00     0.086 C 
ATOM     64  N   UNL A   1      33.457  23.992  23.788  1.00  0.00    -0.178 NA
ATOM     65  C   UNL A   1      35.527  23.264  25.591  1.00  0.00     0.041 A 
ATOM     66  C   UNL A   1      34.782  23.538  23.183  1.00  0.00     0.161 C 
ATOM     67  N   UNL A   1      36.618  22.743  26.218  1.00  0.00    -0.348 N 
ATOM     68  C   UNL A   1      35.731  23.090  24.246  1.00  0.00     0.077 A 
ATOM     69  C   UNL A   1      37.459  22.307  25.229  1.00  0.00     0.197 A 
ATOM     70  H   UNL A   1      36.771  22.691  27.189  1.00  0.00     0.167 HD
ATOM     71  N   UNL A   1      36.954  22.511  24.028  1.00  0.00    -0.240 NA
BRANCH  64  72
ATOM     72  S   UNL A   1      32.566  24.835  22.588  1.00  0.00     0.253 S 
ATOM     73  O   UNL A   1      33.218  24.568  21.328  1.00  0.00    -0.206 OA
ATOM     74  O   UNL A   1      31.157  24.524  22.771  1.00  0.00    -0.206 OA
BRANCH  72  75
ATOM     75  C   UNL A   1      32.694  26.596  22.788  1.00  0.00     0.135 A 
ATOM     76  C   UNL A   1      33.798  27.430  22.835  1.00  0.00     0.033 A 
ATOM     77  S   UNL A   1      31.239  27.481  22.949  1.00  0.00    -0.131 S 
ATOM     78  C   UNL A   1      33.450  28.789  23.068  1.00  0.00     0.013 A 
ATOM     79  C   UNL A   1      32.084  28.961  23.122  1.00  0.00     0.066 A 
ENDBRANCH  72  75
ENDBRANCH  64  72
ENDBRANCH  59  62
ENDBRANCH  57  58
ENDBRANCH   1  57
TORSDOF 12
ENDMDL
