MODEL 1
REMARK VINA RESULT:     -10.1      0.000      0.000
REMARK SMILES CC[C@H](C(=O)NCCCNC(=O)c1ccc(-c2c3nc(c(-c4ccccc4)c4ccc([nH]4)c(-c4ccccc4)c4nc(c(-c5ccccc5)c5ccc2[nH]5)C=C4)C=C3)cc1)[N@@H+](C)[C@H]1CC[C@@H]([NH2+]C)CC1
REMARK SMILES IDX 7 1 6 2 4 3 5 4 3 6 2 7 1 8 61 9 62 10 63 12 70 13 64 14
REMARK SMILES IDX 69 15 65 16 66 17 67 18 68 19 8 22 9 23 10 24 11 25 12 27
REMARK SMILES IDX 13 28 14 29 60 30 15 31 59 32 16 33 17 34 18 35 53 36 19 37
REMARK SMILES IDX 58 38 52 39 54 40 20 41 57 42 51 43 50 44 21 46 43 47 28 48
REMARK SMILES IDX 42 49 29 50 32 51 41 52 55 53 30 54 31 55 40 57 56 58 33 59
REMARK SMILES IDX 22 60 23 61 27 62 24 63 26 64 25 65 44 66 45 67 49 68 46 69
REMARK SMILES IDX 48 70 47 71 34 72 35 73 39 74 36 75 38 76 37 77
REMARK H PARENT 6 5 61 11 67 20 67 21 10 26 54 45 32 56
REMARK Flexibility Score: inf
ROOT
ATOM      1  C   UNL A   1      36.773  22.242  25.073  1.00  0.00     0.118 C 
ENDROOT
BRANCH   1   2
ATOM      2  N   UNL A   1      36.166  22.639  23.815  1.00  0.00    -0.351 N 
ATOM      3  C   UNL A   1      34.859  22.962  23.552  1.00  0.00     0.278 C 
ATOM      4  O   UNL A   1      34.598  23.319  22.403  1.00  0.00    -0.268 OA
ATOM      5  H   UNL A   1      36.777  22.681  23.044  1.00  0.00     0.163 HD
BRANCH   3   6
ATOM      6  C   UNL A   1      33.825  22.861  24.706  1.00  0.00     0.273 C 
BRANCH   6   7
ATOM      7  C   UNL A   1      33.354  24.248  25.204  1.00  0.00     0.072 C 
ATOM      8  C   UNL A   1      34.465  25.261  25.477  1.00  0.00     0.011 C 
ENDBRANCH   6   7
BRANCH   6   9
ATOM      9  N   UNL A   1      32.768  21.851  24.411  1.00  0.00    -0.325 N 
ATOM     10  C   UNL A   1      31.615  22.458  23.753  1.00  0.00     0.333 C 
ATOM     11  H   UNL A   1      32.458  21.539  25.332  1.00  0.00     0.348 HD
BRANCH   9  12
ATOM     12  C   UNL A   1      33.196  20.544  23.867  1.00  0.00     0.184 C 
ATOM     13  C   UNL A   1      33.906  19.709  24.967  1.00  0.00     0.071 C 
ATOM     14  C   UNL A   1      32.097  19.687  23.205  1.00  0.00     0.071 C 
ATOM     15  C   UNL A   1      34.393  18.347  24.459  1.00  0.00     0.071 C 
ATOM     16  C   UNL A   1      32.666  18.377  22.660  1.00  0.00     0.071 C 
ATOM     17  C   UNL A   1      33.296  17.523  23.763  1.00  0.00     0.182 C 
BRANCH  17  18
ATOM     18  N   UNL A   1      32.211  17.075  24.645  1.00  0.00    -0.346 N 
ATOM     19  C   UNL A   1      32.633  16.129  25.662  1.00  0.00     0.331 C 
ATOM     20  H   UNL A   1      31.494  16.631  24.071  1.00  0.00     0.346 HD
ATOM     21  H   UNL A   1      31.863  17.900  25.133  1.00  0.00     0.346 HD
ENDBRANCH  17  18
ENDBRANCH   9  12
ENDBRANCH   6   9
ENDBRANCH   3   6
ENDBRANCH   1   2
BRANCH   1  22
ATOM     22  C   UNL A   1      37.748  21.092  24.917  1.00  0.00     0.042 C 
BRANCH  22  23
ATOM     23  C   UNL A   1      38.802  21.031  26.008  1.00  0.00     0.118 C 
BRANCH  23  24
ATOM     24  N   UNL A   1      39.751  19.939  25.831  1.00  0.00    -0.352 N 
ATOM     25  C   UNL A   1      41.115  19.932  26.002  1.00  0.00     0.251 C 
ATOM     26  H   UNL A   1      39.358  19.082  25.547  1.00  0.00     0.163 HD
ATOM     27  O   UNL A   1      41.780  18.958  25.666  1.00  0.00    -0.269 OA
BRANCH  25  28
ATOM     28  C   UNL A   1      41.781  21.128  26.557  1.00  0.00     0.039 A 
ATOM     29  C   UNL A   1      42.267  22.103  25.684  1.00  0.00     0.014 A 
ATOM     30  C   UNL A   1      41.866  21.313  27.939  1.00  0.00     0.014 A 
ATOM     31  C   UNL A   1      42.741  23.311  26.199  1.00  0.00     0.010 A 
ATOM     32  C   UNL A   1      42.237  22.552  28.443  1.00  0.00     0.010 A 
ATOM     33  C   UNL A   1      42.675  23.566  27.578  1.00  0.00    -0.014 A 
BRANCH  33  34
ATOM     34  C   UNL A   1      43.042  24.887  28.145  1.00  0.00     0.031 A 
ATOM     35  C   UNL A   1      41.983  25.926  28.377  1.00  0.00     0.074 A 
ATOM     36  C   UNL A   1      44.338  25.182  28.367  1.00  0.00     0.049 A 
ATOM     37  N   UNL A   1      42.113  27.162  28.789  1.00  0.00    -0.248 NA
ATOM     38  C   UNL A   1      40.596  25.534  28.080  1.00  0.00     0.031 C 
ATOM     39  C   UNL A   1      45.467  24.276  28.147  1.00  0.00     0.029 A 
ATOM     40  N   UNL A   1      44.922  26.334  28.827  1.00  0.00    -0.354 N 
ATOM     41  C   UNL A   1      40.833  27.697  28.779  1.00  0.00     0.074 A 
ATOM     42  C   UNL A   1      39.949  26.675  28.264  1.00  0.00     0.031 C 
ATOM     43  C   UNL A   1      46.602  24.892  28.514  1.00  0.00     0.029 A 
ATOM     44  C   UNL A   1      46.288  26.249  28.945  1.00  0.00     0.049 A 
ATOM     45  H   UNL A   1      44.411  27.146  29.051  1.00  0.00     0.167 HD
ATOM     46  C   UNL A   1      40.421  28.924  29.182  1.00  0.00     0.031 A 
ATOM     47  C   UNL A   1      47.188  27.163  29.354  1.00  0.00     0.031 A 
ATOM     48  C   UNL A   1      41.298  29.940  29.696  1.00  0.00     0.049 A 
ATOM     49  C   UNL A   1      46.716  28.531  29.755  1.00  0.00     0.074 A 
ATOM     50  C   UNL A   1      40.975  31.191  30.188  1.00  0.00     0.029 A 
ATOM     51  N   UNL A   1      42.678  29.822  29.776  1.00  0.00    -0.354 N 
ATOM     52  N   UNL A   1      45.493  29.001  29.804  1.00  0.00    -0.248 NA
ATOM     53  C   UNL A   1      47.750  29.493  30.158  1.00  0.00     0.031 C 
ATOM     54  C   UNL A   1      42.164  31.853  30.514  1.00  0.00     0.029 A 
ATOM     55  C   UNL A   1      43.224  30.990  30.278  1.00  0.00     0.049 A 
ATOM     56  H   UNL A   1      43.193  29.024  29.516  1.00  0.00     0.167 HD
ATOM     57  C   UNL A   1      45.607  30.305  30.267  1.00  0.00     0.074 A 
ATOM     58  C   UNL A   1      47.018  30.546  30.495  1.00  0.00     0.031 C 
ATOM     59  C   UNL A   1      44.631  31.219  30.489  1.00  0.00     0.031 A 
BRANCH  46  60
ATOM     60  C   UNL A   1      38.953  29.224  29.059  1.00  0.00    -0.014 A 
ATOM     61  C   UNL A   1      38.080  29.051  30.146  1.00  0.00     0.009 A 
ATOM     62  C   UNL A   1      38.432  29.679  27.839  1.00  0.00     0.009 A 
ATOM     63  C   UNL A   1      36.710  29.273  29.997  1.00  0.00     0.001 A 
ATOM     64  C   UNL A   1      37.066  29.933  27.702  1.00  0.00     0.001 A 
ATOM     65  C   UNL A   1      36.204  29.715  28.776  1.00  0.00     0.000 A 
ENDBRANCH  46  60
BRANCH  47  66
ATOM     66  C   UNL A   1      48.626  26.800  29.437  1.00  0.00    -0.014 A 
ATOM     67  C   UNL A   1      49.488  27.095  28.370  1.00  0.00     0.009 A 
ATOM     68  C   UNL A   1      49.149  26.176  30.581  1.00  0.00     0.009 A 
ATOM     69  C   UNL A   1      50.842  26.760  28.440  1.00  0.00     0.001 A 
ATOM     70  C   UNL A   1      50.508  25.865  30.658  1.00  0.00     0.001 A 
ATOM     71  C   UNL A   1      51.352  26.151  29.585  1.00  0.00     0.000 A 
ENDBRANCH  47  66
BRANCH  59  72
ATOM     72  C   UNL A   1      45.052  32.557  31.026  1.00  0.00    -0.014 A 
ATOM     73  C   UNL A   1      45.340  33.628  30.169  1.00  0.00     0.009 A 
ATOM     74  C   UNL A   1      45.121  32.757  32.414  1.00  0.00     0.009 A 
ATOM     75  C   UNL A   1      45.716  34.868  30.690  1.00  0.00     0.001 A 
ATOM     76  C   UNL A   1      45.469  34.004  32.933  1.00  0.00     0.001 A 
ATOM     77  C   UNL A   1      45.774  35.056  32.071  1.00  0.00     0.000 A 
ENDBRANCH  59  72
ENDBRANCH  33  34
ENDBRANCH  25  28
ENDBRANCH  23  24
ENDBRANCH  22  23
ENDBRANCH   1  22
TORSDOF 14
ENDMDL
MODEL 2
REMARK VINA RESULT:     -10.1      1.330      6.827
REMARK SMILES CC[C@H](C(=O)NCCCNC(=O)c1ccc(-c2c3nc(c(-c4ccccc4)c4ccc([nH]4)c(-c4ccccc4)c4nc(c(-c5ccccc5)c5ccc2[nH]5)C=C4)C=C3)cc1)[N@@H+](C)[C@H]1CC[C@@H]([NH2+]C)CC1
REMARK SMILES IDX 7 1 6 2 4 3 5 4 3 6 2 7 1 8 61 9 62 10 63 12 70 13 64 14
REMARK SMILES IDX 69 15 65 16 66 17 67 18 68 19 8 22 9 23 10 24 11 25 12 27
REMARK SMILES IDX 13 28 14 29 60 30 15 31 59 32 16 33 17 34 18 35 53 36 19 37
REMARK SMILES IDX 58 38 52 39 54 40 20 41 57 42 51 43 50 44 21 46 43 47 28 48
REMARK SMILES IDX 42 49 29 50 32 51 41 52 55 53 30 54 31 55 40 57 56 58 33 59
REMARK SMILES IDX 22 60 23 61 27 62 24 63 26 64 25 65 44 66 45 67 49 68 46 69
REMARK SMILES IDX 48 70 47 71 34 72 35 73 39 74 36 75 38 76 37 77
REMARK H PARENT 6 5 61 11 67 20 67 21 10 26 54 45 32 56
REMARK Flexibility Score: inf
ROOT
ATOM      1  C   UNL A   1      36.622  21.409  24.938  1.00  0.00     0.118 C 
ENDROOT
BRANCH   1   2
ATOM      2  N   UNL A   1      35.906  21.554  26.192  1.00  0.00    -0.351 N 
ATOM      3  C   UNL A   1      34.563  21.426  26.438  1.00  0.00     0.278 C 
ATOM      4  O   UNL A   1      34.201  21.548  27.609  1.00  0.00    -0.268 OA
ATOM      5  H   UNL A   1      36.461  21.776  26.974  1.00  0.00     0.163 HD
BRANCH   3   6
ATOM      6  C   UNL A   1      33.616  21.135  25.242  1.00  0.00     0.273 C 
BRANCH   6   7
ATOM      7  C   UNL A   1      32.949  19.743  25.339  1.00  0.00     0.072 C 
ATOM      8  C   UNL A   1      32.562  19.104  24.007  1.00  0.00     0.011 C 
ENDBRANCH   6   7
BRANCH   6   9
ATOM      9  N   UNL A   1      32.726  22.295  24.949  1.00  0.00    -0.325 N 
ATOM     10  C   UNL A   1      31.497  22.240  25.736  1.00  0.00     0.333 C 
ATOM     11  H   UNL A   1      32.463  22.167  23.972  1.00  0.00     0.348 HD
BRANCH   9  12
ATOM     12  C   UNL A   1      33.350  23.631  24.837  1.00  0.00     0.184 C 
ATOM     13  C   UNL A   1      33.065  24.243  23.438  1.00  0.00     0.071 C 
ATOM     14  C   UNL A   1      32.974  24.654  25.929  1.00  0.00     0.071 C 
ATOM     15  C   UNL A   1      33.704  25.624  23.251  1.00  0.00     0.071 C 
ATOM     16  C   UNL A   1      33.700  25.984  25.719  1.00  0.00     0.071 C 
ATOM     17  C   UNL A   1      33.354  26.619  24.371  1.00  0.00     0.182 C 
BRANCH  17  18
ATOM     18  N   UNL A   1      31.941  27.016  24.422  1.00  0.00    -0.346 N 
ATOM     19  C   UNL A   1      31.715  28.307  25.045  1.00  0.00     0.331 C 
ATOM     20  H   UNL A   1      31.428  26.310  24.950  1.00  0.00     0.346 HD
ATOM     21  H   UNL A   1      31.618  27.092  23.457  1.00  0.00     0.346 HD
ENDBRANCH  17  18
ENDBRANCH   9  12
ENDBRANCH   6   9
ENDBRANCH   3   6
ENDBRANCH   1   2
BRANCH   1  22
ATOM     22  C   UNL A   1      37.654  20.300  24.977  1.00  0.00     0.042 C 
BRANCH  22  23
ATOM     23  C   UNL A   1      38.893  20.643  25.784  1.00  0.00     0.118 C 
BRANCH  23  24
ATOM     24  N   UNL A   1      39.885  19.576  25.799  1.00  0.00    -0.352 N 
ATOM     25  C   UNL A   1      41.226  19.635  26.096  1.00  0.00     0.251 C 
ATOM     26  H   UNL A   1      39.545  18.683  25.562  1.00  0.00     0.163 HD
ATOM     27  O   UNL A   1      41.948  18.659  25.915  1.00  0.00    -0.269 OA
BRANCH  25  28
ATOM     28  C   UNL A   1      41.803  20.900  26.595  1.00  0.00     0.039 A 
ATOM     29  C   UNL A   1      42.265  21.846  25.678  1.00  0.00     0.014 A 
ATOM     30  C   UNL A   1      41.824  21.175  27.964  1.00  0.00     0.014 A 
ATOM     31  C   UNL A   1      42.650  23.109  26.130  1.00  0.00     0.010 A 
ATOM     32  C   UNL A   1      42.106  22.463  28.399  1.00  0.00     0.010 A 
ATOM     33  C   UNL A   1      42.518  23.445  27.487  1.00  0.00    -0.014 A 
BRANCH  33  34
ATOM     34  C   UNL A   1      42.788  24.817  27.980  1.00  0.00     0.031 A 
ATOM     35  C   UNL A   1      44.185  25.219  28.360  1.00  0.00     0.074 A 
ATOM     36  C   UNL A   1      41.765  25.673  28.170  1.00  0.00     0.049 A 
ATOM     37  N   UNL A   1      44.609  26.341  28.883  1.00  0.00    -0.248 NA
ATOM     38  C   UNL A   1      45.241  24.215  28.151  1.00  0.00     0.031 C 
ATOM     39  C   UNL A   1      40.357  25.394  27.878  1.00  0.00     0.029 A 
ATOM     40  N   UNL A   1      41.754  26.954  28.660  1.00  0.00    -0.354 N 
ATOM     41  C   UNL A   1      45.972  26.169  29.084  1.00  0.00     0.074 A 
ATOM     42  C   UNL A   1      46.293  24.817  28.684  1.00  0.00     0.031 C 
ATOM     43  C   UNL A   1      39.627  26.487  28.153  1.00  0.00     0.029 A 
ATOM     44  C   UNL A   1      40.504  27.523  28.686  1.00  0.00     0.049 A 
ATOM     45  H   UNL A   1      42.566  27.423  28.964  1.00  0.00     0.167 HD
ATOM     46  C   UNL A   1      46.883  27.062  29.541  1.00  0.00     0.031 A 
ATOM     47  C   UNL A   1      40.108  28.743  29.095  1.00  0.00     0.031 A 
ATOM     48  C   UNL A   1      46.565  28.408  29.936  1.00  0.00     0.049 A 
ATOM     49  C   UNL A   1      41.127  29.702  29.638  1.00  0.00     0.074 A 
ATOM     50  C   UNL A   1      47.422  29.410  30.354  1.00  0.00     0.029 A 
ATOM     51  N   UNL A   1      45.283  28.936  29.970  1.00  0.00    -0.354 N 
ATOM     52  N   UNL A   1      42.424  29.549  29.760  1.00  0.00    -0.248 NA
ATOM     53  C   UNL A   1      40.626  31.004  30.100  1.00  0.00     0.031 C 
ATOM     54  C   UNL A   1      46.653  30.528  30.694  1.00  0.00     0.029 A 
ATOM     55  C   UNL A   1      45.322  30.240  30.434  1.00  0.00     0.049 A 
ATOM     56  H   UNL A   1      44.467  28.455  29.703  1.00  0.00     0.167 HD
ATOM     57  C   UNL A   1      42.898  30.743  30.287  1.00  0.00     0.074 A 
ATOM     58  C   UNL A   1      41.750  31.613  30.452  1.00  0.00     0.031 C 
ATOM     59  C   UNL A   1      44.170  31.088  30.603  1.00  0.00     0.031 A 
BRANCH  46  60
ATOM     60  C   UNL A   1      48.306  26.589  29.647  1.00  0.00    -0.014 A 
ATOM     61  C   UNL A   1      48.776  25.946  30.804  1.00  0.00     0.009 A 
ATOM     62  C   UNL A   1      49.193  26.796  28.580  1.00  0.00     0.009 A 
ATOM     63  C   UNL A   1      50.116  25.570  30.912  1.00  0.00     0.001 A 
ATOM     64  C   UNL A   1      50.525  26.389  28.677  1.00  0.00     0.001 A 
ATOM     65  C   UNL A   1      50.989  25.791  29.848  1.00  0.00     0.000 A 
ENDBRANCH  46  60
BRANCH  47  66
ATOM     66  C   UNL A   1      38.681  29.136  28.973  1.00  0.00    -0.014 A 
ATOM     67  C   UNL A   1      37.830  29.048  30.085  1.00  0.00     0.009 A 
ATOM     68  C   UNL A   1      38.165  29.617  27.759  1.00  0.00     0.009 A 
ATOM     69  C   UNL A   1      36.488  29.419  29.981  1.00  0.00     0.001 A 
ATOM     70  C   UNL A   1      36.828  30.011  27.665  1.00  0.00     0.001 A 
ATOM     71  C   UNL A   1      35.989  29.906  28.774  1.00  0.00     0.000 A 
ENDBRANCH  47  66
BRANCH  59  72
ATOM     72  C   UNL A   1      44.392  32.476  31.136  1.00  0.00    -0.014 A 
ATOM     73  C   UNL A   1      44.623  33.558  30.274  1.00  0.00     0.009 A 
ATOM     74  C   UNL A   1      44.326  32.707  32.519  1.00  0.00     0.009 A 
ATOM     75  C   UNL A   1      44.812  34.841  30.791  1.00  0.00     0.001 A 
ATOM     76  C   UNL A   1      44.487  33.994  33.030  1.00  0.00     0.001 A 
ATOM     77  C   UNL A   1      44.738  35.060  32.166  1.00  0.00     0.000 A 
ENDBRANCH  59  72
ENDBRANCH  33  34
ENDBRANCH  25  28
ENDBRANCH  23  24
ENDBRANCH  22  23
ENDBRANCH   1  22
TORSDOF 14
ENDMDL
MODEL 3
REMARK VINA RESULT:     -10.1      4.449      9.255
REMARK SMILES CC[C@H](C(=O)NCCCNC(=O)c1ccc(-c2c3nc(c(-c4ccccc4)c4ccc([nH]4)c(-c4ccccc4)c4nc(c(-c5ccccc5)c5ccc2[nH]5)C=C4)C=C3)cc1)[N@@H+](C)[C@H]1CC[C@@H]([NH2+]C)CC1
REMARK SMILES IDX 7 1 6 2 4 3 5 4 3 6 2 7 1 8 61 9 62 10 63 12 70 13 64 14
REMARK SMILES IDX 69 15 65 16 66 17 67 18 68 19 8 22 9 23 10 24 11 25 12 27
REMARK SMILES IDX 13 28 14 29 60 30 15 31 59 32 16 33 17 34 18 35 53 36 19 37
REMARK SMILES IDX 58 38 52 39 54 40 20 41 57 42 51 43 50 44 21 46 43 47 28 48
REMARK SMILES IDX 42 49 29 50 32 51 41 52 55 53 30 54 31 55 40 57 56 58 33 59
REMARK SMILES IDX 22 60 23 61 27 62 24 63 26 64 25 65 44 66 45 67 49 68 46 69
REMARK SMILES IDX 48 70 47 71 34 72 35 73 39 74 36 75 38 76 37 77
REMARK H PARENT 6 5 61 11 67 20 67 21 10 26 54 45 32 56
REMARK Flexibility Score: inf
ROOT
ATOM      1  C   UNL A   1      32.413  28.614  27.261  1.00  0.00     0.118 C 
ENDROOT
BRANCH   1   2
ATOM      2  N   UNL A   1      31.368  27.607  27.253  1.00  0.00    -0.351 N 
ATOM      3  C   UNL A   1      31.149  26.598  26.351  1.00  0.00     0.278 C 
ATOM      4  O   UNL A   1      30.215  25.833  26.592  1.00  0.00    -0.268 OA
ATOM      5  H   UNL A   1      30.726  27.656  27.998  1.00  0.00     0.163 HD
BRANCH   3   6
ATOM      6  C   UNL A   1      32.085  26.493  25.116  1.00  0.00     0.273 C 
BRANCH   6   7
ATOM      7  C   UNL A   1      32.878  25.165  25.083  1.00  0.00     0.072 C 
ATOM      8  C   UNL A   1      34.374  25.284  25.368  1.00  0.00     0.011 C 
ENDBRANCH   6   7
BRANCH   6   9
ATOM      9  N   UNL A   1      31.390  26.899  23.861  1.00  0.00    -0.325 N 
ATOM     10  C   UNL A   1      31.073  25.744  23.026  1.00  0.00     0.333 C 
ATOM     11  H   UNL A   1      32.085  27.452  23.359  1.00  0.00     0.348 HD
BRANCH   9  12
ATOM     12  C   UNL A   1      30.325  27.921  23.963  1.00  0.00     0.184 C 
ATOM     13  C   UNL A   1      30.928  29.343  23.799  1.00  0.00     0.071 C 
ATOM     14  C   UNL A   1      29.129  27.759  23.003  1.00  0.00     0.071 C 
ATOM     15  C   UNL A   1      29.875  30.453  23.915  1.00  0.00     0.071 C 
ATOM     16  C   UNL A   1      28.088  28.857  23.221  1.00  0.00     0.071 C 
ATOM     17  C   UNL A   1      28.668  30.253  22.982  1.00  0.00     0.182 C 
BRANCH  17  18
ATOM     18  N   UNL A   1      28.973  30.362  21.549  1.00  0.00    -0.346 N 
ATOM     19  C   UNL A   1      28.133  31.310  20.841  1.00  0.00     0.331 C 
ATOM     20  H   UNL A   1      28.850  29.444  21.124  1.00  0.00     0.346 HD
ATOM     21  H   UNL A   1      29.932  30.702  21.474  1.00  0.00     0.346 HD
ENDBRANCH  17  18
ENDBRANCH   9  12
ENDBRANCH   6   9
ENDBRANCH   3   6
ENDBRANCH   1   2
BRANCH   1  22
ATOM     22  C   UNL A   1      31.868  30.027  27.225  1.00  0.00     0.042 C 
BRANCH  22  23
ATOM     23  C   UNL A   1      32.930  31.089  27.001  1.00  0.00     0.118 C 
BRANCH  23  24
ATOM     24  N   UNL A   1      32.451  32.443  27.246  1.00  0.00    -0.352 N 
ATOM     25  C   UNL A   1      33.006  33.440  28.013  1.00  0.00     0.251 C 
ATOM     26  H   UNL A   1      31.607  32.678  26.797  1.00  0.00     0.163 HD
ATOM     27  O   UNL A   1      32.389  34.478  28.228  1.00  0.00    -0.269 OA
BRANCH  25  28
ATOM     28  C   UNL A   1      34.339  33.233  28.616  1.00  0.00     0.039 A 
ATOM     29  C   UNL A   1      34.436  32.570  29.842  1.00  0.00     0.014 A 
ATOM     30  C   UNL A   1      35.492  33.634  27.938  1.00  0.00     0.014 A 
ATOM     31  C   UNL A   1      35.693  32.219  30.334  1.00  0.00     0.010 A 
ATOM     32  C   UNL A   1      36.733  33.191  28.375  1.00  0.00     0.010 A 
ATOM     33  C   UNL A   1      36.847  32.475  29.576  1.00  0.00    -0.014 A 
BRANCH  33  34
ATOM     34  C   UNL A   1      38.184  31.995  30.003  1.00  0.00     0.031 A 
ATOM     35  C   UNL A   1      38.711  30.684  29.492  1.00  0.00     0.074 A 
ATOM     36  C   UNL A   1      38.884  32.693  30.918  1.00  0.00     0.049 A 
ATOM     37  N   UNL A   1      39.817  30.058  29.807  1.00  0.00    -0.248 NA
ATOM     38  C   UNL A   1      37.871  29.968  28.519  1.00  0.00     0.031 C 
ATOM     39  C   UNL A   1      38.468  33.961  31.523  1.00  0.00     0.029 A 
ATOM     40  N   UNL A   1      40.097  32.430  31.502  1.00  0.00    -0.354 N 
ATOM     41  C   UNL A   1      39.792  28.870  29.090  1.00  0.00     0.074 A 
ATOM     42  C   UNL A   1      38.538  28.834  28.371  1.00  0.00     0.031 C 
ATOM     43  C   UNL A   1      39.429  34.385  32.358  1.00  0.00     0.029 A 
ATOM     44  C   UNL A   1      40.503  33.399  32.386  1.00  0.00     0.049 A 
ATOM     45  H   UNL A   1      40.626  31.623  31.306  1.00  0.00     0.167 HD
ATOM     46  C   UNL A   1      40.737  27.903  29.016  1.00  0.00     0.031 A 
ATOM     47  C   UNL A   1      41.617  33.484  33.139  1.00  0.00     0.031 A 
ATOM     48  C   UNL A   1      41.986  27.939  29.728  1.00  0.00     0.049 A 
ATOM     49  C   UNL A   1      42.632  32.380  33.075  1.00  0.00     0.074 A 
ATOM     50  C   UNL A   1      43.036  27.041  29.676  1.00  0.00     0.029 A 
ATOM     51  N   UNL A   1      42.347  28.926  30.633  1.00  0.00    -0.354 N 
ATOM     52  N   UNL A   1      42.626  31.293  32.340  1.00  0.00    -0.248 NA
ATOM     53  C   UNL A   1      43.808  32.514  33.945  1.00  0.00     0.031 C 
ATOM     54  C   UNL A   1      44.011  27.455  30.590  1.00  0.00     0.029 A 
ATOM     55  C   UNL A   1      43.591  28.642  31.170  1.00  0.00     0.049 A 
ATOM     56  H   UNL A   1      41.801  29.714  30.858  1.00  0.00     0.167 HD
ATOM     57  C   UNL A   1      43.808  30.628  32.639  1.00  0.00     0.074 A 
ATOM     58  C   UNL A   1      44.509  31.439  33.614  1.00  0.00     0.031 C 
ATOM     59  C   UNL A   1      44.271  29.453  32.147  1.00  0.00     0.031 A 
BRANCH  46  60
ATOM     60  C   UNL A   1      40.433  26.718  28.141  1.00  0.00    -0.014 A 
ATOM     61  C   UNL A   1      39.652  25.648  28.609  1.00  0.00     0.009 A 
ATOM     62  C   UNL A   1      40.939  26.666  26.834  1.00  0.00     0.009 A 
ATOM     63  C   UNL A   1      39.432  24.527  27.806  1.00  0.00     0.001 A 
ATOM     64  C   UNL A   1      40.689  25.559  26.021  1.00  0.00     0.001 A 
ATOM     65  C   UNL A   1      39.949  24.485  26.512  1.00  0.00     0.000 A 
ENDBRANCH  46  60
BRANCH  47  66
ATOM     66  C   UNL A   1      41.844  34.678  33.992  1.00  0.00    -0.014 A 
ATOM     67  C   UNL A   1      41.410  34.682  35.326  1.00  0.00     0.009 A 
ATOM     68  C   UNL A   1      42.508  35.809  33.489  1.00  0.00     0.009 A 
ATOM     69  C   UNL A   1      41.622  35.800  36.136  1.00  0.00     0.001 A 
ATOM     70  C   UNL A   1      42.740  36.915  34.310  1.00  0.00     0.001 A 
ATOM     71  C   UNL A   1      42.292  36.912  35.630  1.00  0.00     0.000 A 
ENDBRANCH  47  66
BRANCH  59  72
ATOM     72  C   UNL A   1      45.612  28.986  32.637  1.00  0.00    -0.014 A 
ATOM     73  C   UNL A   1      45.726  28.144  33.754  1.00  0.00     0.009 A 
ATOM     74  C   UNL A   1      46.774  29.360  31.944  1.00  0.00     0.009 A 
ATOM     75  C   UNL A   1      46.982  27.710  34.183  1.00  0.00     0.001 A 
ATOM     76  C   UNL A   1      48.025  28.902  32.358  1.00  0.00     0.001 A 
ATOM     77  C   UNL A   1      48.128  28.083  33.483  1.00  0.00     0.000 A 
ENDBRANCH  59  72
ENDBRANCH  33  34
ENDBRANCH  25  28
ENDBRANCH  23  24
ENDBRANCH  22  23
ENDBRANCH   1  22
TORSDOF 14
ENDMDL
