MODEL 1
REMARK VINA RESULT:     -12.1      0.000      0.000
REMARK SMILES COc1cc(Cl)c2c(c1)C=C(C(=O)NCCCNC(=O)c1ccc(-c3c4nc(c(-c5ccccc5)c5ccc([nH]5)c(-c5ccccc5)c5nc(c(-c6ccccc6)c6ccc3[nH]6)C=C5)C=C4)cc1)[C@@H](C(F)(F)F)O2
REMARK SMILES IDX 16 1 15 2 14 3 12 4 13 5 11 7 3 8 4 9 9 10 5 11 8 12 6 13
REMARK SMILES IDX 7 14 10 15 74 16 69 17 2 18 1 19 70 20 71 21 72 22 73 23
REMARK SMILES IDX 17 24 18 25 19 26 20 28 21 29 22 30 68 31 23 32 67 33 24 34
REMARK SMILES IDX 25 35 26 36 61 37 27 38 66 39 60 40 62 41 28 42 65 43 59 44
REMARK SMILES IDX 58 45 29 47 51 48 36 49 50 50 37 51 40 52 49 53 63 54 38 55
REMARK SMILES IDX 39 56 48 58 64 59 41 60 30 61 31 62 35 63 32 64 34 65 33 66
REMARK SMILES IDX 52 67 53 68 57 69 54 70 56 71 55 72 42 73 43 74 47 75 44 76
REMARK SMILES IDX 46 77 45 78
REMARK H PARENT 14 6 18 27 62 46 40 57
REMARK Flexibility Score: inf
ROOT
ATOM      1  C   UNL A   1      37.272  19.598  24.985  1.00  0.00     0.042 C 
ENDROOT
BRANCH   1   2
ATOM      2  C   UNL A   1      36.078  20.537  25.073  1.00  0.00     0.118 C 
BRANCH   2   3
ATOM      3  N   UNL A   1      34.838  19.811  25.313  1.00  0.00    -0.352 N 
ATOM      4  C   UNL A   1      33.512  20.068  25.270  1.00  0.00     0.251 C 
ATOM      5  O   UNL A   1      32.784  19.119  25.576  1.00  0.00    -0.270 OA
ATOM      6  H   UNL A   1      35.015  18.880  25.579  1.00  0.00     0.163 HD
BRANCH   4   7
ATOM      7  C   UNL A   1      32.903  21.376  24.891  1.00  0.00     0.067 C 
ATOM      8  C   UNL A   1      32.665  25.028  21.724  1.00  0.00     0.121 A 
ATOM      9  C   UNL A   1      31.621  25.600  22.449  1.00  0.00     0.070 A 
ATOM     10  C   UNL A   1      33.196  23.797  22.123  1.00  0.00     0.058 A 
ATOM     11  C   UNL A   1      31.125  24.949  23.580  1.00  0.00     0.087 A 
ATOM     12  C   UNL A   1      32.713  23.150  23.265  1.00  0.00     0.022 A 
ATOM     13  Cl  UNL A   1      29.825  25.683  24.450  1.00  0.00    -0.080 Cl
ATOM     14  C   UNL A   1      31.675  23.733  23.995  1.00  0.00     0.146 A 
ATOM     15  C   UNL A   1      33.252  21.861  23.685  1.00  0.00     0.025 C 
ATOM     16  O   UNL A   1      31.135  23.117  25.089  1.00  0.00    -0.474 OA
ATOM     17  C   UNL A   1      31.979  22.159  25.778  1.00  0.00     0.314 C 
BRANCH   8  18
ATOM     18  O   UNL A   1      33.216  25.557  20.590  1.00  0.00    -0.497 OA
ATOM     19  C   UNL A   1      32.397  25.514  19.425  1.00  0.00     0.278 C 
ENDBRANCH   8  18
BRANCH  17  20
ATOM     20  C   UNL A   1      32.717  22.863  26.934  1.00  0.00     0.429 C 
ATOM     21  F   UNL A   1      32.082  24.015  27.268  1.00  0.00    -0.167 F 
ATOM     22  F   UNL A   1      32.760  22.110  28.059  1.00  0.00    -0.167 F 
ATOM     23  F   UNL A   1      33.993  23.176  26.622  1.00  0.00    -0.167 F 
ENDBRANCH  17  20
ENDBRANCH   4   7
ENDBRANCH   2   3
ENDBRANCH   1   2
BRANCH   1  24
ATOM     24  C   UNL A   1      38.570  20.300  25.365  1.00  0.00     0.118 C 
BRANCH  24  25
ATOM     25  N   UNL A   1      39.629  19.337  25.657  1.00  0.00    -0.352 N 
ATOM     26  C   UNL A   1      40.930  19.560  26.024  1.00  0.00     0.251 C 
ATOM     27  H   UNL A   1      39.371  18.391  25.576  1.00  0.00     0.163 HD
ATOM     28  O   UNL A   1      41.765  18.661  25.928  1.00  0.00    -0.269 OA
BRANCH  26  29
ATOM     29  C   UNL A   1      41.323  20.879  26.548  1.00  0.00     0.039 A 
ATOM     30  C   UNL A   1      41.869  21.832  25.685  1.00  0.00     0.014 A 
ATOM     31  C   UNL A   1      41.184  21.151  27.912  1.00  0.00     0.014 A 
ATOM     32  C   UNL A   1      42.235  23.082  26.187  1.00  0.00     0.010 A 
ATOM     33  C   UNL A   1      41.475  22.417  28.395  1.00  0.00     0.010 A 
ATOM     34  C   UNL A   1      42.027  23.383  27.542  1.00  0.00    -0.014 A 
BRANCH  34  35
ATOM     35  C   UNL A   1      42.454  24.674  28.121  1.00  0.00     0.031 A 
ATOM     36  C   UNL A   1      41.431  25.754  28.327  1.00  0.00     0.074 A 
ATOM     37  C   UNL A   1      43.751  24.891  28.405  1.00  0.00     0.049 A 
ATOM     38  N   UNL A   1      41.605  26.984  28.734  1.00  0.00    -0.248 NA
ATOM     39  C   UNL A   1      40.030  25.417  28.012  1.00  0.00     0.031 C 
ATOM     40  C   UNL A   1      44.833  23.921  28.226  1.00  0.00     0.029 A 
ATOM     41  N   UNL A   1      44.378  26.008  28.895  1.00  0.00    -0.354 N 
ATOM     42  C   UNL A   1      40.345  27.565  28.712  1.00  0.00     0.074 A 
ATOM     43  C   UNL A   1      39.420  26.577  28.210  1.00  0.00     0.031 C 
ATOM     44  C   UNL A   1      45.989  24.479  28.624  1.00  0.00     0.029 A 
ATOM     45  C   UNL A   1      45.734  25.853  29.049  1.00  0.00     0.049 A 
ATOM     46  H   UNL A   1      43.902  26.840  29.116  1.00  0.00     0.167 HD
ATOM     47  C   UNL A   1      39.989  28.808  29.103  1.00  0.00     0.031 A 
ATOM     48  C   UNL A   1      46.666  26.725  29.478  1.00  0.00     0.031 A 
ATOM     49  C   UNL A   1      40.903  29.776  29.635  1.00  0.00     0.049 A 
ATOM     50  C   UNL A   1      46.246  28.109  29.886  1.00  0.00     0.074 A 
ATOM     51  C   UNL A   1      40.624  31.044  30.111  1.00  0.00     0.029 A 
ATOM     52  N   UNL A   1      42.267  29.583  29.767  1.00  0.00    -0.354 N 
ATOM     53  N   UNL A   1      45.043  28.631  29.900  1.00  0.00    -0.248 NA
ATOM     54  C   UNL A   1      47.304  29.023  30.339  1.00  0.00     0.031 C 
ATOM     55  C   UNL A   1      41.830  31.636  30.493  1.00  0.00     0.029 A 
ATOM     56  C   UNL A   1      42.849  30.718  30.297  1.00  0.00     0.049 A 
ATOM     57  H   UNL A   1      42.749  28.760  29.522  1.00  0.00     0.167 HD
ATOM     58  C   UNL A   1      45.198  29.926  30.375  1.00  0.00     0.074 A 
ATOM     59  C   UNL A   1      46.607  30.108  30.652  1.00  0.00     0.031 C 
ATOM     60  C   UNL A   1      44.253  30.877  30.566  1.00  0.00     0.031 A 
BRANCH  47  61
ATOM     61  C   UNL A   1      38.544  29.194  28.998  1.00  0.00    -0.014 A 
ATOM     62  C   UNL A   1      37.695  29.102  30.111  1.00  0.00     0.009 A 
ATOM     63  C   UNL A   1      38.055  29.754  27.808  1.00  0.00     0.009 A 
ATOM     64  C   UNL A   1      36.380  29.563  30.034  1.00  0.00     0.001 A 
ATOM     65  C   UNL A   1      36.747  30.233  27.740  1.00  0.00     0.001 A 
ATOM     66  C   UNL A   1      35.911  30.138  28.852  1.00  0.00     0.000 A 
ENDBRANCH  47  61
BRANCH  48  67
ATOM     67  C   UNL A   1      48.085  26.299  29.562  1.00  0.00    -0.014 A 
ATOM     68  C   UNL A   1      48.942  26.468  28.463  1.00  0.00     0.009 A 
ATOM     69  C   UNL A   1      48.603  25.756  30.749  1.00  0.00     0.009 A 
ATOM     70  C   UNL A   1      50.285  26.095  28.550  1.00  0.00     0.001 A 
ATOM     71  C   UNL A   1      49.950  25.404  30.839  1.00  0.00     0.001 A 
ATOM     72  C   UNL A   1      50.790  25.570  29.739  1.00  0.00     0.000 A 
ENDBRANCH  48  67
BRANCH  60  73
ATOM     73  C   UNL A   1      44.690  32.207  31.104  1.00  0.00    -0.014 A 
ATOM     74  C   UNL A   1      44.993  33.265  30.234  1.00  0.00     0.009 A 
ATOM     75  C   UNL A   1      44.661  32.443  32.488  1.00  0.00     0.009 A 
ATOM     76  C   UNL A   1      45.260  34.537  30.745  1.00  0.00     0.001 A 
ATOM     77  C   UNL A   1      44.906  33.720  32.991  1.00  0.00     0.001 A 
ATOM     78  C   UNL A   1      45.205  34.765  32.119  1.00  0.00     0.000 A 
ENDBRANCH  60  73
ENDBRANCH  34  35
ENDBRANCH  26  29
ENDBRANCH  24  25
ENDBRANCH   1  24
TORSDOF 12
ENDMDL
MODEL 2
REMARK VINA RESULT:     -12.0      0.142      6.040
REMARK SMILES COc1cc(Cl)c2c(c1)C=C(C(=O)NCCCNC(=O)c1ccc(-c3c4nc(c(-c5ccccc5)c5ccc([nH]5)c(-c5ccccc5)c5nc(c(-c6ccccc6)c6ccc3[nH]6)C=C5)C=C4)cc1)[C@@H](C(F)(F)F)O2
REMARK SMILES IDX 16 1 15 2 14 3 12 4 13 5 11 7 3 8 4 9 9 10 5 11 8 12 6 13
REMARK SMILES IDX 7 14 10 15 74 16 69 17 2 18 1 19 70 20 71 21 72 22 73 23
REMARK SMILES IDX 17 24 18 25 19 26 20 28 21 29 22 30 68 31 23 32 67 33 24 34
REMARK SMILES IDX 25 35 26 36 61 37 27 38 66 39 60 40 62 41 28 42 65 43 59 44
REMARK SMILES IDX 58 45 29 47 51 48 36 49 50 50 37 51 40 52 49 53 63 54 38 55
REMARK SMILES IDX 39 56 48 58 64 59 41 60 30 61 31 62 35 63 32 64 34 65 33 66
REMARK SMILES IDX 52 67 53 68 57 69 54 70 56 71 55 72 42 73 43 74 47 75 44 76
REMARK SMILES IDX 46 77 45 78
REMARK H PARENT 14 6 18 27 62 46 40 57
REMARK Flexibility Score: inf
ROOT
ATOM      1  C   UNL A   1      37.328  19.513  25.001  1.00  0.00     0.042 C 
ENDROOT
BRANCH   1   2
ATOM      2  C   UNL A   1      36.122  20.441  25.036  1.00  0.00     0.118 C 
BRANCH   2   3
ATOM      3  N   UNL A   1      34.876  19.700  25.171  1.00  0.00    -0.352 N 
ATOM      4  C   UNL A   1      33.552  19.960  25.093  1.00  0.00     0.251 C 
ATOM      5  O   UNL A   1      32.815  18.991  25.297  1.00  0.00    -0.270 OA
ATOM      6  H   UNL A   1      35.044  18.751  25.372  1.00  0.00     0.163 HD
BRANCH   4   7
ATOM      7  C   UNL A   1      32.956  21.293  24.789  1.00  0.00     0.067 C 
ATOM      8  C   UNL A   1      32.673  25.073  21.779  1.00  0.00     0.121 A 
ATOM      9  C   UNL A   1      31.668  25.634  22.566  1.00  0.00     0.070 A 
ATOM     10  C   UNL A   1      33.193  23.816  22.109  1.00  0.00     0.058 A 
ATOM     11  C   UNL A   1      31.201  24.948  23.688  1.00  0.00     0.087 A 
ATOM     12  C   UNL A   1      32.740  23.134  23.242  1.00  0.00     0.022 A 
ATOM     13  Cl  UNL A   1      29.951  25.671  24.636  1.00  0.00    -0.080 Cl
ATOM     14  C   UNL A   1      31.742  23.707  24.034  1.00  0.00     0.146 A 
ATOM     15  C   UNL A   1      33.269  21.820  23.591  1.00  0.00     0.025 C 
ATOM     16  O   UNL A   1      31.232  23.057  25.123  1.00  0.00    -0.474 OA
ATOM     17  C   UNL A   1      32.082  22.058  25.741  1.00  0.00     0.314 C 
BRANCH   8  18
ATOM     18  O   UNL A   1      33.190  25.636  20.646  1.00  0.00    -0.497 OA
ATOM     19  C   UNL A   1      32.416  25.472  19.462  1.00  0.00     0.278 C 
ENDBRANCH   8  18
BRANCH  17  20
ATOM     20  C   UNL A   1      32.876  22.701  26.894  1.00  0.00     0.429 C 
ATOM     21  F   UNL A   1      34.135  23.005  26.490  1.00  0.00    -0.167 F 
ATOM     22  F   UNL A   1      32.323  23.860  27.324  1.00  0.00    -0.167 F 
ATOM     23  F   UNL A   1      32.977  21.891  27.971  1.00  0.00    -0.167 F 
ENDBRANCH  17  20
ENDBRANCH   4   7
ENDBRANCH   2   3
ENDBRANCH   1   2
BRANCH   1  24
ATOM     24  C   UNL A   1      38.611  20.240  25.384  1.00  0.00     0.118 C 
BRANCH  24  25
ATOM     25  N   UNL A   1      39.692  19.300  25.667  1.00  0.00    -0.352 N 
ATOM     26  C   UNL A   1      40.987  19.549  26.036  1.00  0.00     0.251 C 
ATOM     27  H   UNL A   1      39.455  18.349  25.578  1.00  0.00     0.163 HD
ATOM     28  O   UNL A   1      41.842  18.670  25.932  1.00  0.00    -0.269 OA
BRANCH  26  29
ATOM     29  C   UNL A   1      41.351  20.871  26.572  1.00  0.00     0.039 A 
ATOM     30  C   UNL A   1      41.174  21.140  27.932  1.00  0.00     0.014 A 
ATOM     31  C   UNL A   1      41.833  21.860  25.709  1.00  0.00     0.014 A 
ATOM     32  C   UNL A   1      41.524  22.393  28.435  1.00  0.00     0.010 A 
ATOM     33  C   UNL A   1      42.254  23.076  26.222  1.00  0.00     0.010 A 
ATOM     34  C   UNL A   1      42.079  23.361  27.584  1.00  0.00    -0.014 A 
BRANCH  34  35
ATOM     35  C   UNL A   1      42.410  24.718  28.067  1.00  0.00     0.031 A 
ATOM     36  C   UNL A   1      43.830  25.030  28.444  1.00  0.00     0.074 A 
ATOM     37  C   UNL A   1      41.439  25.636  28.221  1.00  0.00     0.049 A 
ATOM     38  N   UNL A   1      44.319  26.121  28.972  1.00  0.00    -0.248 NA
ATOM     39  C   UNL A   1      44.831  23.970  28.218  1.00  0.00     0.031 C 
ATOM     40  C   UNL A   1      40.024  25.435  27.906  1.00  0.00     0.029 A 
ATOM     41  N   UNL A   1      41.499  26.923  28.692  1.00  0.00    -0.354 N 
ATOM     42  C   UNL A   1      45.673  25.874  29.152  1.00  0.00     0.074 A 
ATOM     43  C   UNL A   1      45.926  24.519  28.723  1.00  0.00     0.031 C 
ATOM     44  C   UNL A   1      39.353  26.569  28.172  1.00  0.00     0.029 A 
ATOM     45  C   UNL A   1      40.283  27.559  28.709  1.00  0.00     0.049 A 
ATOM     46  H   UNL A   1      42.335  27.349  28.988  1.00  0.00     0.167 HD
ATOM     47  C   UNL A   1      46.625  26.715  29.611  1.00  0.00     0.031 A 
ATOM     48  C   UNL A   1      39.955  28.800  29.118  1.00  0.00     0.031 A 
ATOM     49  C   UNL A   1      46.377  28.072  30.003  1.00  0.00     0.049 A 
ATOM     50  C   UNL A   1      41.030  29.708  29.645  1.00  0.00     0.074 A 
ATOM     51  C   UNL A   1      47.290  29.019  30.429  1.00  0.00     0.029 A 
ATOM     52  N   UNL A   1      45.131  28.675  30.012  1.00  0.00    -0.354 N 
ATOM     53  N   UNL A   1      42.314  29.474  29.769  1.00  0.00    -0.248 NA
ATOM     54  C   UNL A   1      40.617  31.048  30.085  1.00  0.00     0.031 C 
ATOM     55  C   UNL A   1      46.588  30.186  30.737  1.00  0.00     0.029 A 
ATOM     56  C   UNL A   1      45.247  29.977  30.459  1.00  0.00     0.049 A 
ATOM     57  H   UNL A   1      44.290  28.241  29.741  1.00  0.00     0.167 HD
ATOM     58  C   UNL A   1      42.864  30.639  30.286  1.00  0.00     0.074 A 
ATOM     59  C   UNL A   1      41.777  31.584  30.440  1.00  0.00     0.031 C 
ATOM     60  C   UNL A   1      44.153  30.901  30.603  1.00  0.00     0.031 A 
BRANCH  47  61
ATOM     61  C   UNL A   1      48.033  26.209  29.693  1.00  0.00    -0.014 A 
ATOM     62  C   UNL A   1      48.903  26.333  28.600  1.00  0.00     0.009 A 
ATOM     63  C   UNL A   1      48.525  25.704  30.906  1.00  0.00     0.009 A 
ATOM     64  C   UNL A   1      50.242  25.957  28.719  1.00  0.00     0.001 A 
ATOM     65  C   UNL A   1      49.869  25.349  31.029  1.00  0.00     0.001 A 
ATOM     66  C   UNL A   1      50.726  25.477  29.937  1.00  0.00     0.000 A 
ENDBRANCH  47  61
BRANCH  48  67
ATOM     67  C   UNL A   1      38.546  29.255  29.021  1.00  0.00    -0.014 A 
ATOM     68  C   UNL A   1      37.701  29.187  30.139  1.00  0.00     0.009 A 
ATOM     69  C   UNL A   1      38.047  29.794  27.824  1.00  0.00     0.009 A 
ATOM     70  C   UNL A   1      36.383  29.643  30.058  1.00  0.00     0.001 A 
ATOM     71  C   UNL A   1      36.736  30.268  27.753  1.00  0.00     0.001 A 
ATOM     72  C   UNL A   1      35.904  30.189  28.868  1.00  0.00     0.000 A 
ENDBRANCH  48  67
BRANCH  60  73
ATOM     73  C   UNL A   1      44.486  32.259  31.145  1.00  0.00    -0.014 A 
ATOM     74  C   UNL A   1      44.461  32.503  32.526  1.00  0.00     0.009 A 
ATOM     75  C   UNL A   1      44.962  33.257  30.280  1.00  0.00     0.009 A 
ATOM     76  C   UNL A   1      44.908  33.726  33.030  1.00  0.00     0.001 A 
ATOM     77  C   UNL A   1      45.429  34.468  30.790  1.00  0.00     0.001 A 
ATOM     78  C   UNL A   1      45.401  34.701  32.163  1.00  0.00     0.000 A 
ENDBRANCH  60  73
ENDBRANCH  34  35
ENDBRANCH  26  29
ENDBRANCH  24  25
ENDBRANCH   1  24
TORSDOF 12
ENDMDL
MODEL 3
REMARK VINA RESULT:     -11.9      4.480      9.176
REMARK SMILES COc1cc(Cl)c2c(c1)C=C(C(=O)NCCCNC(=O)c1ccc(-c3c4nc(c(-c5ccccc5)c5ccc([nH]5)c(-c5ccccc5)c5nc(c(-c6ccccc6)c6ccc3[nH]6)C=C5)C=C4)cc1)[C@@H](C(F)(F)F)O2
REMARK SMILES IDX 16 1 15 2 14 3 12 4 13 5 11 7 3 8 4 9 9 10 5 11 8 12 6 13
REMARK SMILES IDX 7 14 10 15 74 16 69 17 2 18 1 19 70 20 71 21 72 22 73 23
REMARK SMILES IDX 17 24 18 25 19 26 20 28 21 29 22 30 68 31 23 32 67 33 24 34
REMARK SMILES IDX 25 35 26 36 61 37 27 38 66 39 60 40 62 41 28 42 65 43 59 44
REMARK SMILES IDX 58 45 29 47 51 48 36 49 50 50 37 51 40 52 49 53 63 54 38 55
REMARK SMILES IDX 39 56 48 58 64 59 41 60 30 61 31 62 35 63 32 64 34 65 33 66
REMARK SMILES IDX 52 67 53 68 57 69 54 70 56 71 55 72 42 73 43 74 47 75 44 76
REMARK SMILES IDX 46 77 45 78
REMARK H PARENT 14 6 18 27 62 46 40 57
REMARK Flexibility Score: inf
ROOT
ATOM      1  C   UNL A   1      31.346  31.447  26.254  1.00  0.00     0.042 C 
ENDROOT
BRANCH   1   2
ATOM      2  C   UNL A   1      31.689  30.177  25.488  1.00  0.00     0.118 C 
BRANCH   2   3
ATOM      3  N   UNL A   1      30.936  30.078  24.245  1.00  0.00    -0.352 N 
ATOM      4  C   UNL A   1      30.571  29.106  23.380  1.00  0.00     0.251 C 
ATOM      5  O   UNL A   1      29.915  29.490  22.407  1.00  0.00    -0.270 OA
ATOM      6  H   UNL A   1      30.602  30.958  23.958  1.00  0.00     0.163 HD
BRANCH   4   7
ATOM      7  C   UNL A   1      30.902  27.659  23.526  1.00  0.00     0.067 C 
ATOM      8  C   UNL A   1      30.664  23.645  26.220  1.00  0.00     0.121 A 
ATOM      9  C   UNL A   1      31.254  22.911  25.193  1.00  0.00     0.070 A 
ATOM     10  C   UNL A   1      30.372  25.000  26.027  1.00  0.00     0.058 A 
ATOM     11  C   UNL A   1      31.566  23.536  23.985  1.00  0.00     0.087 A 
ATOM     12  C   UNL A   1      30.700  25.633  24.824  1.00  0.00     0.022 A 
ATOM     13  Cl  UNL A   1      32.290  22.593  22.731  1.00  0.00    -0.080 Cl
ATOM     14  C   UNL A   1      31.302  24.896  23.803  1.00  0.00     0.146 A 
ATOM     15  C   UNL A   1      30.391  27.043  24.608  1.00  0.00     0.025 C 
ATOM     16  O   UNL A   1      31.596  25.458  22.592  1.00  0.00    -0.474 OA
ATOM     17  C   UNL A   1      31.774  26.897  22.570  1.00  0.00     0.314 C 
BRANCH   8  18
ATOM     18  O   UNL A   1      30.290  23.138  27.434  1.00  0.00    -0.497 OA
ATOM     19  C   UNL A   1      28.991  22.558  27.490  1.00  0.00     0.278 C 
ENDBRANCH   8  18
BRANCH  17  20
ATOM     20  C   UNL A   1      33.269  27.232  22.731  1.00  0.00     0.429 C 
ATOM     21  F   UNL A   1      34.031  26.149  22.435  1.00  0.00    -0.167 F 
ATOM     22  F   UNL A   1      33.674  28.222  21.900  1.00  0.00    -0.167 F 
ATOM     23  F   UNL A   1      33.583  27.621  23.986  1.00  0.00    -0.167 F 
ENDBRANCH  17  20
ENDBRANCH   4   7
ENDBRANCH   2   3
ENDBRANCH   1   2
BRANCH   1  24
ATOM     24  C   UNL A   1      32.558  32.009  26.986  1.00  0.00     0.118 C 
BRANCH  24  25
ATOM     25  N   UNL A   1      32.393  33.431  27.274  1.00  0.00    -0.352 N 
ATOM     26  C   UNL A   1      33.014  34.205  28.218  1.00  0.00     0.251 C 
ATOM     27  H   UNL A   1      31.740  33.901  26.708  1.00  0.00     0.163 HD
ATOM     28  O   UNL A   1      32.542  35.296  28.534  1.00  0.00    -0.269 OA
BRANCH  26  29
ATOM     29  C   UNL A   1      34.259  33.731  28.846  1.00  0.00     0.039 A 
ATOM     30  C   UNL A   1      35.491  34.192  28.374  1.00  0.00     0.014 A 
ATOM     31  C   UNL A   1      34.200  32.793  29.880  1.00  0.00     0.014 A 
ATOM     32  C   UNL A   1      36.667  33.743  28.975  1.00  0.00     0.010 A 
ATOM     33  C   UNL A   1      35.362  32.407  30.528  1.00  0.00     0.010 A 
ATOM     34  C   UNL A   1      36.606  32.859  30.064  1.00  0.00    -0.014 A 
BRANCH  34  35
ATOM     35  C   UNL A   1      37.830  32.317  30.690  1.00  0.00     0.031 A 
ATOM     36  C   UNL A   1      38.479  31.103  30.089  1.00  0.00     0.074 A 
ATOM     37  C   UNL A   1      38.317  32.873  31.814  1.00  0.00     0.049 A 
ATOM     38  N   UNL A   1      39.500  30.415  30.529  1.00  0.00    -0.248 NA
ATOM     39  C   UNL A   1      37.890  30.577  28.844  1.00  0.00     0.031 C 
ATOM     40  C   UNL A   1      37.756  34.041  32.495  1.00  0.00     0.029 A 
ATOM     41  N   UNL A   1      39.393  32.518  32.587  1.00  0.00    -0.354 N 
ATOM     42  C   UNL A   1      39.666  29.376  29.624  1.00  0.00     0.074 A 
ATOM     43  C   UNL A   1      38.618  29.490  28.637  1.00  0.00     0.031 C 
ATOM     44  C   UNL A   1      38.509  34.320  33.574  1.00  0.00     0.029 A 
ATOM     45  C   UNL A   1      39.578  33.331  33.678  1.00  0.00     0.049 A 
ATOM     46  H   UNL A   1      39.978  31.755  32.378  1.00  0.00     0.167 HD
ATOM     47  C   UNL A   1      40.626  28.426  29.605  1.00  0.00     0.031 A 
ATOM     48  C   UNL A   1      40.503  33.278  34.656  1.00  0.00     0.031 A 
ATOM     49  C   UNL A   1      41.687  28.337  30.566  1.00  0.00     0.049 A 
ATOM     50  C   UNL A   1      41.546  32.197  34.623  1.00  0.00     0.074 A 
ATOM     51  C   UNL A   1      42.740  27.440  30.596  1.00  0.00     0.029 A 
ATOM     52  N   UNL A   1      41.833  29.174  31.659  1.00  0.00    -0.354 N 
ATOM     53  N   UNL A   1      41.716  31.246  33.737  1.00  0.00    -0.248 NA
ATOM     54  C   UNL A   1      42.526  32.182  35.719  1.00  0.00     0.031 C 
ATOM     55  C   UNL A   1      43.501  27.709  31.735  1.00  0.00     0.029 A 
ATOM     56  C   UNL A   1      42.947  28.801  32.385  1.00  0.00     0.049 A 
ATOM     57  H   UNL A   1      41.234  29.922  31.884  1.00  0.00     0.167 HD
ATOM     58  C   UNL A   1      42.827  30.529  34.158  1.00  0.00     0.074 A 
ATOM     59  C   UNL A   1      43.301  31.162  35.372  1.00  0.00     0.031 C 
ATOM     60  C   UNL A   1      43.402  29.444  33.588  1.00  0.00     0.031 A 
BRANCH  47  61
ATOM     61  C   UNL A   1      40.598  27.416  28.498  1.00  0.00    -0.014 A 
ATOM     62  C   UNL A   1      39.844  26.240  28.621  1.00  0.00     0.009 A 
ATOM     63  C   UNL A   1      41.242  27.692  27.283  1.00  0.00     0.009 A 
ATOM     64  C   UNL A   1      39.736  25.356  27.546  1.00  0.00     0.001 A 
ATOM     65  C   UNL A   1      41.116  26.818  26.203  1.00  0.00     0.001 A 
ATOM     66  C   UNL A   1      40.363  25.652  26.335  1.00  0.00     0.000 A 
ENDBRANCH  47  61
BRANCH  48  67
ATOM     67  C   UNL A   1      40.488  34.298  35.733  1.00  0.00    -0.014 A 
ATOM     68  C   UNL A   1      41.191  35.502  35.579  1.00  0.00     0.009 A 
ATOM     69  C   UNL A   1      39.741  34.093  36.905  1.00  0.00     0.009 A 
ATOM     70  C   UNL A   1      41.154  36.477  36.579  1.00  0.00     0.001 A 
ATOM     71  C   UNL A   1      39.689  35.077  37.893  1.00  0.00     0.001 A 
ATOM     72  C   UNL A   1      40.398  36.267  37.732  1.00  0.00     0.000 A 
ENDBRANCH  48  67
BRANCH  60  73
ATOM     73  C   UNL A   1      44.614  28.859  34.250  1.00  0.00    -0.014 A 
ATOM     74  C   UNL A   1      45.893  29.367  33.977  1.00  0.00     0.009 A 
ATOM     75  C   UNL A   1      44.460  27.892  35.256  1.00  0.00     0.009 A 
ATOM     76  C   UNL A   1      46.996  28.913  34.702  1.00  0.00     0.001 A 
ATOM     77  C   UNL A   1      45.562  27.458  35.992  1.00  0.00     0.001 A 
ATOM     78  C   UNL A   1      46.828  27.969  35.714  1.00  0.00     0.000 A 
ENDBRANCH  60  73
ENDBRANCH  34  35
ENDBRANCH  26  29
ENDBRANCH  24  25
ENDBRANCH   1  24
TORSDOF 12
ENDMDL
