MODEL 1
REMARK VINA RESULT:     -11.9      0.000      0.000
REMARK SMILES Cc1cc(F)cc(N[C@](C)(C(=O)NCCCNC(=O)c2ccc(-c3c4nc(c(-c5ccccc5)c5ccc([nH]5)c(-c5ccccc5)c5nc(c(-c6ccccc6)c6ccc3[nH]6)C=C5)C=C4)cc2)c2cccc(F)c2)c1
REMARK SMILES IDX 15 1 14 2 13 3 11 4 12 5 9 7 10 8 8 9 7 11 1 12 2 13 3 14
REMARK SMILES IDX 75 15 4 16 5 17 6 18 68 19 69 20 74 21 70 22 72 23 71 24
REMARK SMILES IDX 73 25 16 26 17 27 18 28 19 30 20 31 21 32 67 33 22 34 66 35
REMARK SMILES IDX 23 36 24 37 25 38 60 39 26 40 65 41 59 42 61 43 27 44 64 45
REMARK SMILES IDX 58 46 57 47 28 49 50 50 35 51 49 52 36 53 39 54 48 55 62 56
REMARK SMILES IDX 37 57 38 58 47 60 63 61 40 62 29 63 30 64 34 65 31 66 33 67
REMARK SMILES IDX 32 68 51 69 52 70 56 71 53 72 55 73 54 74 41 75 42 76 46 77
REMARK SMILES IDX 43 78 45 79 44 80
REMARK H PARENT 13 6 8 10 17 29 61 48 39 59
REMARK Flexibility Score: inf
ROOT
ATOM      1  C   UNL A   1      33.976  28.551  25.825  1.00  0.00     0.042 C 
ENDROOT
BRANCH   1   2
ATOM      2  C   UNL A   1      33.036  29.278  24.866  1.00  0.00     0.117 C 
BRANCH   2   3
ATOM      3  N   UNL A   1      33.494  29.159  23.498  1.00  0.00    -0.354 N 
ATOM      4  C   UNL A   1      33.392  28.160  22.580  1.00  0.00     0.250 C 
ATOM      5  O   UNL A   1      34.226  28.229  21.662  1.00  0.00    -0.272 OA
ATOM      6  H   UNL A   1      33.970  29.955  23.167  1.00  0.00     0.163 HD
BRANCH   4   7
ATOM      7  C   UNL A   1      32.337  26.967  22.632  1.00  0.00     0.139 C 
ATOM      8  C   UNL A   1      32.311  25.974  21.444  1.00  0.00     0.051 C 
BRANCH   7   9
ATOM      9  N   UNL A   1      32.703  26.139  23.829  1.00  0.00    -0.368 N 
ATOM     10  H   UNL A   1      32.656  26.593  24.702  1.00  0.00     0.161 HD
BRANCH   9  11
ATOM     11  C   UNL A   1      33.099  24.803  23.849  1.00  0.00     0.038 A 
ATOM     12  C   UNL A   1      36.422  22.946  23.345  1.00  0.00     0.044 C 
ATOM     13  C   UNL A   1      34.974  23.215  23.626  1.00  0.00    -0.046 A 
ATOM     14  C   UNL A   1      34.109  22.154  23.894  1.00  0.00     0.042 A 
ATOM     15  C   UNL A   1      34.463  24.524  23.624  1.00  0.00     0.029 A 
ATOM     16  C   UNL A   1      32.770  22.416  24.139  1.00  0.00     0.125 A 
ATOM     17  F   UNL A   1      31.937  21.397  24.391  1.00  0.00    -0.207 F 
ATOM     18  C   UNL A   1      32.267  23.716  24.119  1.00  0.00     0.065 A 
ENDBRANCH   9  11
ENDBRANCH   7   9
BRANCH   7  19
ATOM     19  C   UNL A   1      30.921  27.609  22.819  1.00  0.00    -0.011 A 
ATOM     20  C   UNL A   1      30.539  28.841  22.249  1.00  0.00     0.007 A 
ATOM     21  C   UNL A   1      29.907  26.906  23.504  1.00  0.00     0.046 A 
ATOM     22  C   UNL A   1      29.228  29.334  22.358  1.00  0.00     0.003 A 
ATOM     23  C   UNL A   1      28.602  27.391  23.588  1.00  0.00     0.123 A 
ATOM     24  C   UNL A   1      28.252  28.601  23.021  1.00  0.00     0.039 A 
ATOM     25  F   UNL A   1      27.670  26.653  24.206  1.00  0.00    -0.207 F 
ENDBRANCH   7  19
ENDBRANCH   4   7
ENDBRANCH   2   3
ENDBRANCH   1   2
BRANCH   1  26
ATOM     26  C   UNL A   1      33.595  28.697  27.292  1.00  0.00     0.118 C 
BRANCH  26  27
ATOM     27  N   UNL A   1      33.594  30.085  27.721  1.00  0.00    -0.352 N 
ATOM     28  C   UNL A   1      34.554  30.814  28.376  1.00  0.00     0.251 C 
ATOM     29  H   UNL A   1      32.772  30.583  27.506  1.00  0.00     0.163 HD
ATOM     30  O   UNL A   1      34.255  31.912  28.840  1.00  0.00    -0.269 OA
BRANCH  28  31
ATOM     31  C   UNL A   1      35.935  30.304  28.539  1.00  0.00     0.039 A 
ATOM     32  C   UNL A   1      36.291  29.717  29.758  1.00  0.00     0.014 A 
ATOM     33  C   UNL A   1      36.902  30.460  27.541  1.00  0.00     0.014 A 
ATOM     34  C   UNL A   1      37.596  29.265  29.964  1.00  0.00     0.010 A 
ATOM     35  C   UNL A   1      38.181  29.934  27.715  1.00  0.00     0.010 A 
ATOM     36  C   UNL A   1      38.548  29.353  28.937  1.00  0.00    -0.014 A 
BRANCH  36  37
ATOM     37  C   UNL A   1      39.940  28.878  29.144  1.00  0.00     0.031 A 
ATOM     38  C   UNL A   1      40.955  29.766  29.811  1.00  0.00     0.074 A 
ATOM     39  C   UNL A   1      40.304  27.660  28.700  1.00  0.00     0.049 A 
ATOM     40  N   UNL A   1      42.215  29.527  30.077  1.00  0.00    -0.248 NA
ATOM     41  C   UNL A   1      40.503  31.110  30.207  1.00  0.00     0.031 C 
ATOM     42  C   UNL A   1      39.430  26.716  28.003  1.00  0.00     0.029 A 
ATOM     43  N   UNL A   1      41.507  27.005  28.778  1.00  0.00    -0.354 N 
ATOM     44  C   UNL A   1      42.708  30.694  30.648  1.00  0.00     0.074 A 
ATOM     45  C   UNL A   1      41.628  31.656  30.644  1.00  0.00     0.031 C 
ATOM     46  C   UNL A   1      40.112  25.587  27.756  1.00  0.00     0.029 A 
ATOM     47  C   UNL A   1      41.478  25.739  28.247  1.00  0.00     0.049 A 
ATOM     48  H   UNL A   1      42.314  27.405  29.177  1.00  0.00     0.167 HD
ATOM     49  C   UNL A   1      43.942  30.941  31.152  1.00  0.00     0.031 A 
ATOM     50  C   UNL A   1      42.440  24.801  28.173  1.00  0.00     0.031 A 
ATOM     51  C   UNL A   1      45.012  29.981  31.176  1.00  0.00     0.049 A 
ATOM     52  C   UNL A   1      43.799  25.092  28.742  1.00  0.00     0.074 A 
ATOM     53  C   UNL A   1      46.276  30.109  31.725  1.00  0.00     0.029 A 
ATOM     54  N   UNL A   1      44.941  28.711  30.623  1.00  0.00    -0.354 N 
ATOM     55  N   UNL A   1      44.229  26.175  29.342  1.00  0.00    -0.248 NA
ATOM     56  C   UNL A   1      44.802  24.023  28.632  1.00  0.00     0.031 C 
ATOM     57  C   UNL A   1      46.986  28.932  31.465  1.00  0.00     0.029 A 
ATOM     58  C   UNL A   1      46.148  28.053  30.797  1.00  0.00     0.049 A 
ATOM     59  H   UNL A   1      44.151  28.333  30.174  1.00  0.00     0.167 HD
ATOM     60  C   UNL A   1      45.543  25.911  29.705  1.00  0.00     0.074 A 
ATOM     61  C   UNL A   1      45.835  24.561  29.267  1.00  0.00     0.031 C 
ATOM     62  C   UNL A   1      46.425  26.713  30.348  1.00  0.00     0.031 A 
BRANCH  49  63
ATOM     63  C   UNL A   1      44.192  32.316  31.708  1.00  0.00    -0.014 A 
ATOM     64  C   UNL A   1      43.933  32.616  33.056  1.00  0.00     0.009 A 
ATOM     65  C   UNL A   1      44.696  33.325  30.874  1.00  0.00     0.009 A 
ATOM     66  C   UNL A   1      44.124  33.911  33.542  1.00  0.00     0.001 A 
ATOM     67  C   UNL A   1      44.915  34.611  31.370  1.00  0.00     0.001 A 
ATOM     68  C   UNL A   1      44.615  34.907  32.699  1.00  0.00     0.000 A 
ENDBRANCH  49  63
BRANCH  50  69
ATOM     69  C   UNL A   1      42.130  23.476  27.579  1.00  0.00    -0.014 A 
ATOM     70  C   UNL A   1      42.460  23.210  26.241  1.00  0.00     0.009 A 
ATOM     71  C   UNL A   1      41.533  22.465  28.347  1.00  0.00     0.009 A 
ATOM     72  C   UNL A   1      42.185  21.963  25.679  1.00  0.00     0.001 A 
ATOM     73  C   UNL A   1      41.279  21.211  27.788  1.00  0.00     0.001 A 
ATOM     74  C   UNL A   1      41.600  20.961  26.455  1.00  0.00     0.000 A 
ENDBRANCH  50  69
BRANCH  62  75
ATOM     75  C   UNL A   1      47.783  26.142  30.640  1.00  0.00    -0.014 A 
ATOM     76  C   UNL A   1      48.780  26.097  29.654  1.00  0.00     0.009 A 
ATOM     77  C   UNL A   1      48.079  25.679  31.931  1.00  0.00     0.009 A 
ATOM     78  C   UNL A   1      50.039  25.571  29.948  1.00  0.00     0.001 A 
ATOM     79  C   UNL A   1      49.346  25.175  32.229  1.00  0.00     0.001 A 
ATOM     80  C   UNL A   1      50.322  25.115  31.236  1.00  0.00     0.000 A 
ENDBRANCH  62  75
ENDBRANCH  36  37
ENDBRANCH  28  31
ENDBRANCH  26  27
ENDBRANCH   1  26
TORSDOF 13
ENDMDL
MODEL 2
REMARK VINA RESULT:     -11.9      2.683      3.955
REMARK SMILES Cc1cc(F)cc(N[C@](C)(C(=O)NCCCNC(=O)c2ccc(-c3c4nc(c(-c5ccccc5)c5ccc([nH]5)c(-c5ccccc5)c5nc(c(-c6ccccc6)c6ccc3[nH]6)C=C5)C=C4)cc2)c2cccc(F)c2)c1
REMARK SMILES IDX 15 1 14 2 13 3 11 4 12 5 9 7 10 8 8 9 7 11 1 12 2 13 3 14
REMARK SMILES IDX 75 15 4 16 5 17 6 18 68 19 69 20 74 21 70 22 72 23 71 24
REMARK SMILES IDX 73 25 16 26 17 27 18 28 19 30 20 31 21 32 67 33 22 34 66 35
REMARK SMILES IDX 23 36 24 37 25 38 60 39 26 40 65 41 59 42 61 43 27 44 64 45
REMARK SMILES IDX 58 46 57 47 28 49 50 50 35 51 49 52 36 53 39 54 48 55 62 56
REMARK SMILES IDX 37 57 38 58 47 60 63 61 40 62 29 63 30 64 34 65 31 66 33 67
REMARK SMILES IDX 32 68 51 69 52 70 56 71 53 72 55 73 54 74 41 75 42 76 46 77
REMARK SMILES IDX 43 78 45 79 44 80
REMARK H PARENT 13 6 8 10 17 29 61 48 39 59
REMARK Flexibility Score: inf
ROOT
ATOM      1  C   UNL A   1      31.509  32.119  26.881  1.00  0.00     0.042 C 
ENDROOT
BRANCH   1   2
ATOM      2  C   UNL A   1      31.730  30.818  26.115  1.00  0.00     0.117 C 
BRANCH   2   3
ATOM      3  N   UNL A   1      31.785  29.685  27.016  1.00  0.00    -0.354 N 
ATOM      4  C   UNL A   1      31.777  28.342  26.802  1.00  0.00     0.250 C 
ATOM      5  O   UNL A   1      31.436  27.674  27.792  1.00  0.00    -0.272 OA
ATOM      6  H   UNL A   1      31.838  29.936  27.966  1.00  0.00     0.163 HD
BRANCH   4   7
ATOM      7  C   UNL A   1      32.140  27.627  25.425  1.00  0.00     0.139 C 
ATOM      8  C   UNL A   1      33.330  28.191  24.610  1.00  0.00     0.051 C 
BRANCH   7   9
ATOM      9  N   UNL A   1      32.536  26.222  25.776  1.00  0.00    -0.368 N 
ATOM     10  H   UNL A   1      32.207  25.881  26.639  1.00  0.00     0.161 HD
BRANCH   9  11
ATOM     11  C   UNL A   1      33.313  25.345  25.023  1.00  0.00     0.038 A 
ATOM     12  C   UNL A   1      36.743  23.679  25.475  1.00  0.00     0.044 C 
ATOM     13  C   UNL A   1      35.415  24.058  24.893  1.00  0.00    -0.046 A 
ATOM     14  C   UNL A   1      35.018  23.531  23.665  1.00  0.00     0.042 A 
ATOM     15  C   UNL A   1      34.552  24.943  25.564  1.00  0.00     0.029 A 
ATOM     16  C   UNL A   1      33.792  23.901  23.131  1.00  0.00     0.125 A 
ATOM     17  F   UNL A   1      33.413  23.401  21.948  1.00  0.00    -0.207 F 
ATOM     18  C   UNL A   1      32.950  24.792  23.795  1.00  0.00     0.065 A 
ENDBRANCH   9  11
ENDBRANCH   7   9
BRANCH   7  19
ATOM     19  C   UNL A   1      30.845  27.630  24.547  1.00  0.00    -0.011 A 
ATOM     20  C   UNL A   1      29.856  26.626  24.608  1.00  0.00     0.007 A 
ATOM     21  C   UNL A   1      30.558  28.727  23.706  1.00  0.00     0.046 A 
ATOM     22  C   UNL A   1      28.660  26.716  23.875  1.00  0.00     0.003 A 
ATOM     23  C   UNL A   1      29.358  28.822  23.001  1.00  0.00     0.123 A 
ATOM     24  C   UNL A   1      28.405  27.824  23.077  1.00  0.00     0.039 A 
ATOM     25  F   UNL A   1      29.121  29.912  22.260  1.00  0.00    -0.207 F 
ENDBRANCH   7  19
ENDBRANCH   4   7
ENDBRANCH   2   3
ENDBRANCH   1   2
BRANCH   1  26
ATOM     26  C   UNL A   1      32.746  33.004  26.964  1.00  0.00     0.118 C 
BRANCH  26  27
ATOM     27  N   UNL A   1      32.524  34.180  27.789  1.00  0.00    -0.352 N 
ATOM     28  C   UNL A   1      33.152  34.592  28.937  1.00  0.00     0.251 C 
ATOM     29  H   UNL A   1      31.808  34.776  27.472  1.00  0.00     0.163 HD
ATOM     30  O   UNL A   1      32.653  35.502  29.594  1.00  0.00    -0.269 OA
BRANCH  28  31
ATOM     31  C   UNL A   1      34.410  33.961  29.399  1.00  0.00     0.039 A 
ATOM     32  C   UNL A   1      35.601  34.288  28.743  1.00  0.00     0.014 A 
ATOM     33  C   UNL A   1      34.423  33.001  30.415  1.00  0.00     0.014 A 
ATOM     34  C   UNL A   1      36.800  33.679  29.122  1.00  0.00     0.010 A 
ATOM     35  C   UNL A   1      35.631  32.457  30.850  1.00  0.00     0.010 A 
ATOM     36  C   UNL A   1      36.828  32.771  30.191  1.00  0.00    -0.014 A 
BRANCH  36  37
ATOM     37  C   UNL A   1      38.096  32.116  30.603  1.00  0.00     0.031 A 
ATOM     38  C   UNL A   1      38.939  32.711  31.697  1.00  0.00     0.074 A 
ATOM     39  C   UNL A   1      38.509  31.002  29.969  1.00  0.00     0.049 A 
ATOM     40  N   UNL A   1      40.074  32.284  32.192  1.00  0.00    -0.248 NA
ATOM     41  C   UNL A   1      38.458  33.967  32.297  1.00  0.00     0.031 C 
ATOM     42  C   UNL A   1      37.807  30.344  28.866  1.00  0.00     0.029 A 
ATOM     43  N   UNL A   1      39.620  30.223  30.168  1.00  0.00    -0.354 N 
ATOM     44  C   UNL A   1      40.451  33.227  33.140  1.00  0.00     0.074 A 
ATOM     45  C   UNL A   1      39.452  34.273  33.116  1.00  0.00     0.031 C 
ATOM     46  C   UNL A   1      38.480  29.237  28.516  1.00  0.00     0.029 A 
ATOM     47  C   UNL A   1      39.676  29.125  29.346  1.00  0.00     0.049 A 
ATOM     48  H   UNL A   1      40.311  30.430  30.838  1.00  0.00     0.167 HD
ATOM     49  C   UNL A   1      41.520  33.217  33.973  1.00  0.00     0.031 A 
ATOM     50  C   UNL A   1      40.582  28.132  29.274  1.00  0.00     0.031 A 
ATOM     51  C   UNL A   1      42.504  32.170  34.014  1.00  0.00     0.049 A 
ATOM     52  C   UNL A   1      41.756  28.136  30.209  1.00  0.00     0.074 A 
ATOM     53  C   UNL A   1      43.584  32.031  34.866  1.00  0.00     0.029 A 
ATOM     54  N   UNL A   1      42.524  31.077  33.159  1.00  0.00    -0.354 N 
ATOM     55  N   UNL A   1      42.061  28.999  31.149  1.00  0.00    -0.248 NA
ATOM     56  C   UNL A   1      42.705  27.021  30.081  1.00  0.00     0.031 C 
ATOM     57  C   UNL A   1      44.285  30.877  34.499  1.00  0.00     0.029 A 
ATOM     58  C   UNL A   1      43.613  30.272  33.449  1.00  0.00     0.049 A 
ATOM     59  H   UNL A   1      41.863  30.901  32.452  1.00  0.00     0.167 HD
ATOM     60  C   UNL A   1      43.221  28.519  31.741  1.00  0.00     0.074 A 
ATOM     61  C   UNL A   1      43.559  27.284  31.061  1.00  0.00     0.031 C 
ATOM     62  C   UNL A   1      43.939  29.051  32.759  1.00  0.00     0.031 A 
BRANCH  49  63
ATOM     63  C   UNL A   1      41.677  34.391  34.901  1.00  0.00    -0.014 A 
ATOM     64  C   UNL A   1      41.128  34.377  36.195  1.00  0.00     0.009 A 
ATOM     65  C   UNL A   1      42.382  35.526  34.477  1.00  0.00     0.009 A 
ATOM     66  C   UNL A   1      41.240  35.495  37.023  1.00  0.00     0.001 A 
ATOM     67  C   UNL A   1      42.519  36.632  35.319  1.00  0.00     0.001 A 
ATOM     68  C   UNL A   1      41.937  36.620  36.585  1.00  0.00     0.000 A 
ENDBRANCH  49  63
BRANCH  50  69
ATOM     69  C   UNL A   1      40.380  27.022  28.309  1.00  0.00    -0.014 A 
ATOM     70  C   UNL A   1      40.959  27.085  27.032  1.00  0.00     0.009 A 
ATOM     71  C   UNL A   1      39.637  25.886  28.663  1.00  0.00     0.009 A 
ATOM     72  C   UNL A   1      40.786  26.040  26.124  1.00  0.00     0.001 A 
ATOM     73  C   UNL A   1      39.484  24.832  27.761  1.00  0.00     0.001 A 
ATOM     74  C   UNL A   1      40.053  24.911  26.491  1.00  0.00     0.000 A 
ENDBRANCH  50  69
BRANCH  62  75
ATOM     75  C   UNL A   1      45.148  28.286  33.218  1.00  0.00    -0.014 A 
ATOM     76  C   UNL A   1      46.414  28.527  32.664  1.00  0.00     0.009 A 
ATOM     77  C   UNL A   1      45.021  27.340  34.246  1.00  0.00     0.009 A 
ATOM     78  C   UNL A   1      47.526  27.812  33.111  1.00  0.00     0.001 A 
ATOM     79  C   UNL A   1      46.139  26.643  34.708  1.00  0.00     0.001 A 
ATOM     80  C   UNL A   1      47.388  26.875  34.135  1.00  0.00     0.000 A 
ENDBRANCH  62  75
ENDBRANCH  36  37
ENDBRANCH  28  31
ENDBRANCH  26  27
ENDBRANCH   1  26
TORSDOF 13
ENDMDL
MODEL 3
REMARK VINA RESULT:     -11.9      2.556      7.800
REMARK SMILES Cc1cc(F)cc(N[C@](C)(C(=O)NCCCNC(=O)c2ccc(-c3c4nc(c(-c5ccccc5)c5ccc([nH]5)c(-c5ccccc5)c5nc(c(-c6ccccc6)c6ccc3[nH]6)C=C5)C=C4)cc2)c2cccc(F)c2)c1
REMARK SMILES IDX 15 1 14 2 13 3 11 4 12 5 9 7 10 8 8 9 7 11 1 12 2 13 3 14
REMARK SMILES IDX 75 15 4 16 5 17 6 18 68 19 69 20 74 21 70 22 72 23 71 24
REMARK SMILES IDX 73 25 16 26 17 27 18 28 19 30 20 31 21 32 67 33 22 34 66 35
REMARK SMILES IDX 23 36 24 37 25 38 60 39 26 40 65 41 59 42 61 43 27 44 64 45
REMARK SMILES IDX 58 46 57 47 28 49 50 50 35 51 49 52 36 53 39 54 48 55 62 56
REMARK SMILES IDX 37 57 38 58 47 60 63 61 40 62 29 63 30 64 34 65 31 66 33 67
REMARK SMILES IDX 32 68 51 69 52 70 56 71 53 72 55 73 54 74 41 75 42 76 46 77
REMARK SMILES IDX 43 78 45 79 44 80
REMARK H PARENT 13 6 8 10 17 29 61 48 39 59
REMARK Flexibility Score: inf
ROOT
ATOM      1  C   UNL A   1      38.641  20.267  25.001  1.00  0.00     0.042 C 
ENDROOT
BRANCH   1   2
ATOM      2  C   UNL A   1      37.786  21.470  25.394  1.00  0.00     0.117 C 
BRANCH   2   3
ATOM      3  N   UNL A   1      37.403  22.239  24.229  1.00  0.00    -0.354 N 
ATOM      4  C   UNL A   1      36.198  22.674  23.773  1.00  0.00     0.250 C 
ATOM      5  O   UNL A   1      36.184  22.953  22.563  1.00  0.00    -0.272 OA
ATOM      6  H   UNL A   1      38.161  22.497  23.656  1.00  0.00     0.163 HD
BRANCH   4   7
ATOM      7  C   UNL A   1      34.877  22.815  24.654  1.00  0.00     0.139 C 
ATOM      8  C   UNL A   1      35.043  22.974  26.185  1.00  0.00     0.051 C 
BRANCH   7   9
ATOM      9  N   UNL A   1      34.206  24.079  24.199  1.00  0.00    -0.368 N 
ATOM     10  H   UNL A   1      34.355  24.336  23.261  1.00  0.00     0.161 HD
BRANCH   9  11
ATOM     11  C   UNL A   1      33.395  24.928  24.950  1.00  0.00     0.038 A 
ATOM     12  C   UNL A   1      33.832  28.388  26.554  1.00  0.00     0.044 C 
ATOM     13  C   UNL A   1      33.212  27.099  26.108  1.00  0.00    -0.046 A 
ATOM     14  C   UNL A   1      31.890  26.810  26.443  1.00  0.00     0.042 A 
ATOM     15  C   UNL A   1      33.941  26.164  25.352  1.00  0.00     0.029 A 
ATOM     16  C   UNL A   1      31.333  25.607  26.036  1.00  0.00     0.125 A 
ATOM     17  F   UNL A   1      30.065  25.326  26.363  1.00  0.00    -0.207 F 
ATOM     18  C   UNL A   1      32.068  24.678  25.301  1.00  0.00     0.065 A 
ENDBRANCH   9  11
ENDBRANCH   7   9
BRANCH   7  19
ATOM     19  C   UNL A   1      33.978  21.572  24.343  1.00  0.00    -0.011 A 
ATOM     20  C   UNL A   1      32.874  21.606  23.467  1.00  0.00     0.007 A 
ATOM     21  C   UNL A   1      34.313  20.304  24.865  1.00  0.00     0.046 A 
ATOM     22  C   UNL A   1      32.153  20.445  23.137  1.00  0.00     0.003 A 
ATOM     23  C   UNL A   1      33.608  19.153  24.514  1.00  0.00     0.123 A 
ATOM     24  C   UNL A   1      32.528  19.212  23.654  1.00  0.00     0.039 A 
ATOM     25  F   UNL A   1      34.006  17.971  25.001  1.00  0.00    -0.207 F 
ENDBRANCH   7  19
ENDBRANCH   4   7
ENDBRANCH   2   3
ENDBRANCH   1   2
BRANCH   1  26
ATOM     26  C   UNL A   1      39.329  19.588  26.179  1.00  0.00     0.118 C 
BRANCH  26  27
ATOM     27  N   UNL A   1      40.624  19.040  25.814  1.00  0.00    -0.352 N 
ATOM     28  C   UNL A   1      41.857  19.639  25.751  1.00  0.00     0.251 C 
ATOM     29  H   UNL A   1      40.615  18.085  25.574  1.00  0.00     0.163 HD
ATOM     30  O   UNL A   1      42.781  19.043  25.202  1.00  0.00    -0.269 OA
BRANCH  28  31
ATOM     31  C   UNL A   1      42.094  20.984  26.324  1.00  0.00     0.039 A 
ATOM     32  C   UNL A   1      42.333  22.050  25.450  1.00  0.00     0.014 A 
ATOM     33  C   UNL A   1      42.157  21.197  27.704  1.00  0.00     0.014 A 
ATOM     34  C   UNL A   1      42.604  23.323  25.955  1.00  0.00     0.010 A 
ATOM     35  C   UNL A   1      42.344  22.484  28.207  1.00  0.00     0.010 A 
ATOM     36  C   UNL A   1      42.595  23.555  27.338  1.00  0.00    -0.014 A 
BRANCH  36  37
ATOM     37  C   UNL A   1      42.884  24.904  27.888  1.00  0.00     0.031 A 
ATOM     38  C   UNL A   1      44.302  25.322  28.170  1.00  0.00     0.074 A 
ATOM     39  C   UNL A   1      41.869  25.744  28.168  1.00  0.00     0.049 A 
ATOM     40  N   UNL A   1      44.749  26.455  28.651  1.00  0.00    -0.248 NA
ATOM     41  C   UNL A   1      45.352  24.327  27.904  1.00  0.00     0.031 C 
ATOM     42  C   UNL A   1      40.448  25.449  27.979  1.00  0.00     0.029 A 
ATOM     43  N   UNL A   1      41.881  27.022  28.666  1.00  0.00    -0.354 N 
ATOM     44  C   UNL A   1      46.126  26.299  28.764  1.00  0.00     0.074 A 
ATOM     45  C   UNL A   1      46.433  24.948  28.351  1.00  0.00     0.031 C 
ATOM     46  C   UNL A   1      39.728  26.531  28.315  1.00  0.00     0.029 A 
ATOM     47  C   UNL A   1      40.631  27.582  28.772  1.00  0.00     0.049 A 
ATOM     48  H   UNL A   1      42.707  27.494  28.923  1.00  0.00     0.167 HD
ATOM     49  C   UNL A   1      47.056  27.204  29.155  1.00  0.00     0.031 A 
ATOM     50  C   UNL A   1      40.255  28.807  29.181  1.00  0.00     0.031 A 
ATOM     51  C   UNL A   1      46.756  28.554  29.547  1.00  0.00     0.049 A 
ATOM     52  C   UNL A   1      41.301  29.797  29.605  1.00  0.00     0.074 A 
ATOM     53  C   UNL A   1      47.631  29.568  29.894  1.00  0.00     0.029 A 
ATOM     54  N   UNL A   1      45.476  29.079  29.644  1.00  0.00    -0.354 N 
ATOM     55  N   UNL A   1      42.605  29.657  29.640  1.00  0.00    -0.248 NA
ATOM     56  C   UNL A   1      40.823  31.118  30.036  1.00  0.00     0.031 C 
ATOM     57  C   UNL A   1      46.879  30.694  30.244  1.00  0.00     0.029 A 
ATOM     58  C   UNL A   1      45.536  30.396  30.069  1.00  0.00     0.049 A 
ATOM     59  H   UNL A   1      44.647  28.588  29.442  1.00  0.00     0.167 HD
ATOM     60  C   UNL A   1      43.105  30.879  30.070  1.00  0.00     0.074 A 
ATOM     61  C   UNL A   1      41.965  31.750  30.274  1.00  0.00     0.031 C 
ATOM     62  C   UNL A   1      44.393  31.246  30.274  1.00  0.00     0.031 A 
BRANCH  49  63
ATOM     63  C   UNL A   1      48.488  26.744  29.185  1.00  0.00    -0.014 A 
ATOM     64  C   UNL A   1      49.025  26.103  30.313  1.00  0.00     0.009 A 
ATOM     65  C   UNL A   1      49.312  26.955  28.069  1.00  0.00     0.009 A 
ATOM     66  C   UNL A   1      50.370  25.730  30.342  1.00  0.00     0.001 A 
ATOM     67  C   UNL A   1      50.649  26.553  28.089  1.00  0.00     0.001 A 
ATOM     68  C   UNL A   1      51.180  25.953  29.230  1.00  0.00     0.000 A 
ENDBRANCH  49  63
BRANCH  50  69
ATOM     69  C   UNL A   1      38.818  29.180  29.157  1.00  0.00    -0.014 A 
ATOM     70  C   UNL A   1      38.241  29.686  27.982  1.00  0.00     0.009 A 
ATOM     71  C   UNL A   1      38.011  29.008  30.292  1.00  0.00     0.009 A 
ATOM     72  C   UNL A   1      36.888  30.025  27.948  1.00  0.00     0.001 A 
ATOM     73  C   UNL A   1      36.653  29.328  30.248  1.00  0.00     0.001 A 
ATOM     74  C   UNL A   1      36.093  29.841  29.079  1.00  0.00     0.000 A 
ENDBRANCH  50  69
BRANCH  62  75
ATOM     75  C   UNL A   1      44.640  32.660  30.716  1.00  0.00    -0.014 A 
ATOM     76  C   UNL A   1      44.801  33.696  29.783  1.00  0.00     0.009 A 
ATOM     77  C   UNL A   1      44.672  32.964  32.086  1.00  0.00     0.009 A 
ATOM     78  C   UNL A   1      45.020  35.005  30.215  1.00  0.00     0.001 A 
ATOM     79  C   UNL A   1      44.867  34.278  32.515  1.00  0.00     0.001 A 
ATOM     80  C   UNL A   1      45.049  35.295  31.579  1.00  0.00     0.000 A 
ENDBRANCH  62  75
ENDBRANCH  36  37
ENDBRANCH  28  31
ENDBRANCH  26  27
ENDBRANCH   1  26
TORSDOF 13
ENDMDL
