MODEL 1
REMARK VINA RESULT:     -10.2      0.000      0.000
REMARK SMILES O=C(C[C@H](NC(=O)[C@]12C[C@H]3C[C@H](C[C@H](C3)C1)C2)c1cccc([N+](=O)[O-])c1)NCCCNC(=O)c1ccc(-c2c3nc(c(-c4ccccc4)c4ccc([nH]4)c(-c4ccccc4)c4nc(c(-c5ccccc5)c5ccc2[nH]5)C=C4)C=C3)cc1
REMARK SMILES IDX 28 1 27 2 1 3 2 4 3 6 4 7 18 8 19 9 26 10 20 11 22 12 21 13
REMARK SMILES IDX 23 14 24 15 25 16 5 17 6 18 7 20 8 21 9 22 16 23 17 24 10 25
REMARK SMILES IDX 14 26 12 27 11 28 15 29 13 30 29 31 30 32 31 33 32 34 33 36
REMARK SMILES IDX 34 37 35 38 81 39 36 40 80 41 37 42 38 43 39 44 74 45 40 46
REMARK SMILES IDX 79 47 73 48 75 49 41 50 78 51 72 52 71 53 42 55 64 56 49 57
REMARK SMILES IDX 63 58 50 59 53 60 62 61 76 62 51 63 52 64 61 66 77 67 54 68
REMARK SMILES IDX 43 69 44 70 48 71 45 72 47 73 46 74 65 75 66 76 70 77 67 78
REMARK SMILES IDX 69 79 68 80 55 81 56 82 60 83 57 84 59 85 58 86
REMARK H PARENT 27 5 5 19 31 35 75 54 53 65
REMARK Flexibility Score: inf
ROOT
ATOM      1  C   UNL A   1      46.293  20.432  24.477  1.00  0.00     0.117 C 
ENDROOT
BRANCH   1   2
ATOM      2  N   UNL A   1      46.283  21.836  24.117  1.00  0.00    -0.356 N 
ATOM      3  O   UNL A   1      46.218  22.542  26.280  1.00  0.00    -0.275 OA
ATOM      4  C   UNL A   1      46.290  22.809  25.083  1.00  0.00     0.222 C 
ATOM      5  H   UNL A   1      46.271  22.094  23.167  1.00  0.00     0.163 HD
BRANCH   4   6
ATOM      6  C   UNL A   1      46.260  24.236  24.588  1.00  0.00     0.129 C 
BRANCH   6   7
ATOM      7  C   UNL A   1      47.030  25.289  25.402  1.00  0.00     0.122 C 
BRANCH   7   8
ATOM      8  C   UNL A   1      46.125  26.467  25.773  1.00  0.00    -0.018 A 
ATOM      9  C   UNL A   1      46.514  27.497  26.642  1.00  0.00     0.006 A 
ATOM     10  C   UNL A   1      44.813  26.506  25.258  1.00  0.00     0.091 A 
ATOM     11  C   UNL A   1      45.614  28.491  27.046  1.00  0.00     0.007 A 
ATOM     12  C   UNL A   1      43.919  27.518  25.646  1.00  0.00     0.269 A 
ATOM     13  C   UNL A   1      44.310  28.502  26.556  1.00  0.00     0.085 A 
BRANCH  12  14
ATOM     14  N   UNL A   1      42.559  27.533  25.094  1.00  0.00     0.062 N 
ATOM     15  O   UNL A   1      42.004  26.443  24.893  1.00  0.00    -0.258 OA
ATOM     16  O   UNL A   1      42.045  28.637  24.864  1.00  0.00    -0.258 OA
ENDBRANCH  12  14
ENDBRANCH   7   8
BRANCH   7  17
ATOM     17  N   UNL A   1      47.971  24.897  26.459  1.00  0.00    -0.348 N 
ATOM     18  C   UNL A   1      49.244  25.072  26.871  1.00  0.00     0.226 C 
ATOM     19  H   UNL A   1      47.512  24.297  27.089  1.00  0.00     0.164 HD
ATOM     20  O   UNL A   1      49.565  24.306  27.795  1.00  0.00    -0.274 OA
BRANCH  18  21
ATOM     21  C   UNL A   1      50.275  26.095  26.370  1.00  0.00     0.050 C 
ATOM     22  C   UNL A   1      51.670  25.642  26.888  1.00  0.00     0.020 C 
ATOM     23  C   UNL A   1      50.056  27.550  26.778  1.00  0.00     0.020 C 
ATOM     24  C   UNL A   1      50.335  26.038  24.815  1.00  0.00     0.020 C 
ATOM     25  C   UNL A   1      52.780  26.574  26.365  1.00  0.00    -0.010 C 
ATOM     26  C   UNL A   1      51.148  28.481  26.254  1.00  0.00    -0.010 C 
ATOM     27  C   UNL A   1      51.432  26.975  24.272  1.00  0.00    -0.010 C 
ATOM     28  C   UNL A   1      52.798  26.537  24.828  1.00  0.00     0.007 C 
ATOM     29  C   UNL A   1      52.496  28.011  26.822  1.00  0.00     0.007 C 
ATOM     30  C   UNL A   1      51.149  28.414  24.725  1.00  0.00     0.007 C 
ENDBRANCH  18  21
ENDBRANCH   7  17
ENDBRANCH   6   7
ENDBRANCH   4   6
ENDBRANCH   1   2
BRANCH   1  31
ATOM     31  C   UNL A   1      44.961  19.722  24.236  1.00  0.00     0.042 C 
BRANCH  31  32
ATOM     32  C   UNL A   1      44.287  19.201  25.498  1.00  0.00     0.118 C 
BRANCH  32  33
ATOM     33  N   UNL A   1      42.842  19.089  25.363  1.00  0.00    -0.352 N 
ATOM     34  C   UNL A   1      41.850  19.903  25.844  1.00  0.00     0.251 C 
ATOM     35  H   UNL A   1      42.530  18.309  24.848  1.00  0.00     0.163 HD
ATOM     36  O   UNL A   1      40.675  19.559  25.751  1.00  0.00    -0.269 OA
BRANCH  34  37
ATOM     37  C   UNL A   1      42.198  21.180  26.498  1.00  0.00     0.039 A 
ATOM     38  C   UNL A   1      42.589  22.257  25.700  1.00  0.00     0.014 A 
ATOM     39  C   UNL A   1      42.130  21.317  27.886  1.00  0.00     0.014 A 
ATOM     40  C   UNL A   1      42.849  23.495  26.291  1.00  0.00     0.010 A 
ATOM     41  C   UNL A   1      42.312  22.570  28.465  1.00  0.00     0.010 A 
ATOM     42  C   UNL A   1      42.674  23.670  27.673  1.00  0.00    -0.014 A 
BRANCH  42  43
ATOM     43  C   UNL A   1      42.852  25.001  28.306  1.00  0.00     0.031 A 
ATOM     44  C   UNL A   1      44.171  25.379  28.920  1.00  0.00     0.074 A 
ATOM     45  C   UNL A   1      41.804  25.845  28.382  1.00  0.00     0.049 A 
ATOM     46  N   UNL A   1      44.500  26.472  29.561  1.00  0.00    -0.248 NA
ATOM     47  C   UNL A   1      45.257  24.390  28.824  1.00  0.00     0.031 C 
ATOM     48  C   UNL A   1      40.462  25.580  27.859  1.00  0.00     0.029 A 
ATOM     49  N   UNL A   1      41.703  27.097  28.934  1.00  0.00    -0.354 N 
ATOM     50  C   UNL A   1      45.820  26.296  29.954  1.00  0.00     0.074 A 
ATOM     51  C   UNL A   1      46.215  24.972  29.528  1.00  0.00     0.031 C 
ATOM     52  C   UNL A   1      39.682  26.648  28.089  1.00  0.00     0.029 A 
ATOM     53  C   UNL A   1      40.452  27.652  28.814  1.00  0.00     0.049 A 
ATOM     54  H   UNL A   1      42.456  27.554  29.375  1.00  0.00     0.167 HD
ATOM     55  C   UNL A   1      46.637  27.166  30.596  1.00  0.00     0.031 A 
ATOM     56  C   UNL A   1      39.974  28.834  29.249  1.00  0.00     0.031 A 
ATOM     57  C   UNL A   1      46.241  28.483  31.018  1.00  0.00     0.049 A 
ATOM     58  C   UNL A   1      40.894  29.770  29.983  1.00  0.00     0.074 A 
ATOM     59  C   UNL A   1      47.009  29.459  31.629  1.00  0.00     0.029 A 
ATOM     60  N   UNL A   1      44.965  29.008  30.878  1.00  0.00    -0.354 N 
ATOM     61  N   UNL A   1      42.161  29.618  30.285  1.00  0.00    -0.248 NA
ATOM     62  C   UNL A   1      40.319  31.047  30.427  1.00  0.00     0.031 C 
ATOM     63  C   UNL A   1      46.183  30.550  31.915  1.00  0.00     0.029 A 
ATOM     64  C   UNL A   1      44.917  30.282  31.418  1.00  0.00     0.049 A 
ATOM     65  H   UNL A   1      44.206  28.543  30.458  1.00  0.00     0.167 HD
ATOM     66  C   UNL A   1      42.542  30.790  30.923  1.00  0.00     0.074 A 
ATOM     67  C   UNL A   1      41.377  31.650  30.950  1.00  0.00     0.031 C 
ATOM     68  C   UNL A   1      43.750  31.126  31.437  1.00  0.00     0.031 A 
BRANCH  55  69
ATOM     69  C   UNL A   1      48.040  26.711  30.891  1.00  0.00    -0.014 A 
ATOM     70  C   UNL A   1      49.109  27.040  30.040  1.00  0.00     0.009 A 
ATOM     71  C   UNL A   1      48.305  25.975  32.056  1.00  0.00     0.009 A 
ATOM     72  C   UNL A   1      50.404  26.606  30.331  1.00  0.00     0.001 A 
ATOM     73  C   UNL A   1      49.606  25.571  32.361  1.00  0.00     0.001 A 
ATOM     74  C   UNL A   1      50.653  25.878  31.492  1.00  0.00     0.000 A 
ENDBRANCH  55  69
BRANCH  56  75
ATOM     75  C   UNL A   1      38.558  29.207  28.991  1.00  0.00    -0.014 A 
ATOM     76  C   UNL A   1      38.167  29.702  27.738  1.00  0.00     0.009 A 
ATOM     77  C   UNL A   1      37.591  29.078  29.999  1.00  0.00     0.009 A 
ATOM     78  C   UNL A   1      36.845  30.090  27.510  1.00  0.00     0.001 A 
ATOM     79  C   UNL A   1      36.262  29.435  29.759  1.00  0.00     0.001 A 
ATOM     80  C   UNL A   1      35.893  29.951  28.519  1.00  0.00     0.000 A 
ENDBRANCH  56  75
BRANCH  68  81
ATOM     81  C   UNL A   1      43.889  32.500  32.034  1.00  0.00    -0.014 A 
ATOM     82  C   UNL A   1      43.672  32.733  33.401  1.00  0.00     0.009 A 
ATOM     83  C   UNL A   1      44.285  33.571  31.217  1.00  0.00     0.009 A 
ATOM     84  C   UNL A   1      43.815  34.018  33.929  1.00  0.00     0.001 A 
ATOM     85  C   UNL A   1      44.460  34.846  31.754  1.00  0.00     0.001 A 
ATOM     86  C   UNL A   1      44.215  35.072  33.107  1.00  0.00     0.000 A 
ENDBRANCH  68  81
ENDBRANCH  42  43
ENDBRANCH  34  37
ENDBRANCH  32  33
ENDBRANCH  31  32
ENDBRANCH   1  31
TORSDOF 15
ENDMDL
MODEL 2
REMARK VINA RESULT:     -10.0      6.721     13.206
REMARK SMILES O=C(C[C@H](NC(=O)[C@]12C[C@H]3C[C@H](C[C@H](C3)C1)C2)c1cccc([N+](=O)[O-])c1)NCCCNC(=O)c1ccc(-c2c3nc(c(-c4ccccc4)c4ccc([nH]4)c(-c4ccccc4)c4nc(c(-c5ccccc5)c5ccc2[nH]5)C=C4)C=C3)cc1
REMARK SMILES IDX 28 1 27 2 1 3 2 4 3 6 4 7 18 8 19 9 26 10 20 11 22 12 21 13
REMARK SMILES IDX 23 14 24 15 25 16 5 17 6 18 7 20 8 21 9 22 16 23 17 24 10 25
REMARK SMILES IDX 14 26 12 27 11 28 15 29 13 30 29 31 30 32 31 33 32 34 33 36
REMARK SMILES IDX 34 37 35 38 81 39 36 40 80 41 37 42 38 43 39 44 74 45 40 46
REMARK SMILES IDX 79 47 73 48 75 49 41 50 78 51 72 52 71 53 42 55 64 56 49 57
REMARK SMILES IDX 63 58 50 59 53 60 62 61 76 62 51 63 52 64 61 66 77 67 54 68
REMARK SMILES IDX 43 69 44 70 48 71 45 72 47 73 46 74 65 75 66 76 70 77 67 78
REMARK SMILES IDX 69 79 68 80 55 81 56 82 60 83 57 84 59 85 58 86
REMARK H PARENT 27 5 5 19 31 35 75 54 53 65
REMARK Flexibility Score: inf
ROOT
ATOM      1  C   UNL A   1      31.770  30.546  26.654  1.00  0.00     0.117 C 
ENDROOT
BRANCH   1   2
ATOM      2  N   UNL A   1      31.790  30.161  25.256  1.00  0.00    -0.356 N 
ATOM      3  O   UNL A   1      33.753  29.026  25.444  1.00  0.00    -0.275 OA
ATOM      4  C   UNL A   1      32.792  29.369  24.760  1.00  0.00     0.222 C 
ATOM      5  H   UNL A   1      31.074  30.473  24.656  1.00  0.00     0.163 HD
BRANCH   4   6
ATOM      6  C   UNL A   1      32.717  29.049  23.285  1.00  0.00     0.129 C 
BRANCH   6   7
ATOM      7  C   UNL A   1      31.769  27.920  22.848  1.00  0.00     0.122 C 
BRANCH   7   8
ATOM      8  C   UNL A   1      30.319  28.411  22.793  1.00  0.00    -0.018 A 
ATOM      9  C   UNL A   1      29.236  27.679  23.302  1.00  0.00     0.006 A 
ATOM     10  C   UNL A   1      30.040  29.638  22.158  1.00  0.00     0.091 A 
ATOM     11  C   UNL A   1      27.915  28.110  23.126  1.00  0.00     0.007 A 
ATOM     12  C   UNL A   1      28.715  30.080  22.002  1.00  0.00     0.269 A 
ATOM     13  C   UNL A   1      27.648  29.309  22.468  1.00  0.00     0.085 A 
BRANCH  12  14
ATOM     14  N   UNL A   1      28.454  31.361  21.336  1.00  0.00     0.062 N 
ATOM     15  O   UNL A   1      27.705  31.357  20.349  1.00  0.00    -0.258 OA
ATOM     16  O   UNL A   1      28.998  32.373  21.802  1.00  0.00    -0.258 OA
ENDBRANCH  12  14
ENDBRANCH   7   8
BRANCH   7  17
ATOM     17  N   UNL A   1      32.132  26.993  21.768  1.00  0.00    -0.348 N 
ATOM     18  C   UNL A   1      32.605  25.749  21.545  1.00  0.00     0.226 C 
ATOM     19  H   UNL A   1      31.973  27.433  20.903  1.00  0.00     0.164 HD
ATOM     20  O   UNL A   1      32.899  25.548  20.355  1.00  0.00    -0.274 OA
BRANCH  18  21
ATOM     21  C   UNL A   1      32.774  24.600  22.551  1.00  0.00     0.050 C 
ATOM     22  C   UNL A   1      33.762  25.085  23.649  1.00  0.00     0.020 C 
ATOM     23  C   UNL A   1      33.279  23.270  21.998  1.00  0.00     0.020 C 
ATOM     24  C   UNL A   1      31.412  24.339  23.259  1.00  0.00     0.020 C 
ATOM     25  C   UNL A   1      33.931  24.018  24.748  1.00  0.00    -0.010 C 
ATOM     26  C   UNL A   1      33.438  22.204  23.081  1.00  0.00    -0.010 C 
ATOM     27  C   UNL A   1      31.558  23.263  24.354  1.00  0.00    -0.010 C 
ATOM     28  C   UNL A   1      32.570  23.742  25.408  1.00  0.00     0.007 C 
ATOM     29  C   UNL A   1      34.448  22.717  24.119  1.00  0.00     0.007 C 
ATOM     30  C   UNL A   1      32.072  21.960  23.726  1.00  0.00     0.007 C 
ENDBRANCH  18  21
ENDBRANCH   7  17
ENDBRANCH   6   7
ENDBRANCH   4   6
ENDBRANCH   1   2
BRANCH   1  31
ATOM     31  C   UNL A   1      31.522  32.037  26.881  1.00  0.00     0.042 C 
BRANCH  31  32
ATOM     32  C   UNL A   1      32.767  32.835  27.245  1.00  0.00     0.118 C 
BRANCH  32  33
ATOM     33  N   UNL A   1      32.466  34.204  27.637  1.00  0.00    -0.352 N 
ATOM     34  C   UNL A   1      33.027  34.978  28.620  1.00  0.00     0.251 C 
ATOM     35  H   UNL A   1      31.752  34.641  27.119  1.00  0.00     0.163 HD
ATOM     36  O   UNL A   1      32.534  36.068  28.899  1.00  0.00    -0.269 OA
BRANCH  34  37
ATOM     37  C   UNL A   1      34.207  34.488  29.360  1.00  0.00     0.039 A 
ATOM     38  C   UNL A   1      34.019  33.915  30.619  1.00  0.00     0.014 A 
ATOM     39  C   UNL A   1      35.489  34.584  28.812  1.00  0.00     0.014 A 
ATOM     40  C   UNL A   1      35.110  33.377  31.302  1.00  0.00     0.010 A 
ATOM     41  C   UNL A   1      36.562  33.978  29.458  1.00  0.00     0.010 A 
ATOM     42  C   UNL A   1      36.383  33.369  30.709  1.00  0.00    -0.014 A 
BRANCH  42  43
ATOM     43  C   UNL A   1      37.537  32.717  31.377  1.00  0.00     0.031 A 
ATOM     44  C   UNL A   1      38.210  31.531  30.744  1.00  0.00     0.074 A 
ATOM     45  C   UNL A   1      37.938  33.156  32.587  1.00  0.00     0.049 A 
ATOM     46  N   UNL A   1      39.195  30.800  31.201  1.00  0.00    -0.248 NA
ATOM     47  C   UNL A   1      37.693  31.092  29.438  1.00  0.00     0.031 C 
ATOM     48  C   UNL A   1      37.343  34.273  33.324  1.00  0.00     0.029 A 
ATOM     49  N   UNL A   1      38.941  32.712  33.412  1.00  0.00    -0.354 N 
ATOM     50  C   UNL A   1      39.405  29.811  30.249  1.00  0.00     0.074 A 
ATOM     51  C   UNL A   1      38.412  30.002  29.216  1.00  0.00     0.031 C 
ATOM     52  C   UNL A   1      38.010  34.444  34.476  1.00  0.00     0.029 A 
ATOM     53  C   UNL A   1      39.048  33.425  34.581  1.00  0.00     0.049 A 
ATOM     54  H   UNL A   1      39.528  31.954  33.186  1.00  0.00     0.167 HD
ATOM     55  C   UNL A   1      40.352  28.843  30.226  1.00  0.00     0.031 A 
ATOM     56  C   UNL A   1      39.880  33.268  35.628  1.00  0.00     0.031 A 
ATOM     57  C   UNL A   1      41.340  28.656  31.255  1.00  0.00     0.049 A 
ATOM     58  C   UNL A   1      40.904  32.168  35.591  1.00  0.00     0.074 A 
ATOM     59  C   UNL A   1      42.373  27.737  31.300  1.00  0.00     0.029 A 
ATOM     60  N   UNL A   1      41.414  29.399  32.424  1.00  0.00    -0.354 N 
ATOM     61  N   UNL A   1      41.136  31.285  34.649  1.00  0.00    -0.248 NA
ATOM     62  C   UNL A   1      41.790  32.050  36.757  1.00  0.00     0.031 C 
ATOM     63  C   UNL A   1      43.035  27.882  32.524  1.00  0.00     0.029 A 
ATOM     64  C   UNL A   1      42.457  28.939  33.210  1.00  0.00     0.049 A 
ATOM     65  H   UNL A   1      40.813  30.141  32.660  1.00  0.00     0.167 HD
ATOM     66  C   UNL A   1      42.213  30.530  35.094  1.00  0.00     0.074 A 
ATOM     67  C   UNL A   1      42.599  31.069  36.382  1.00  0.00     0.031 C 
ATOM     68  C   UNL A   1      42.829  29.486  34.489  1.00  0.00     0.031 A 
BRANCH  55  69
ATOM     69  C   UNL A   1      40.354  27.902  29.052  1.00  0.00    -0.014 A 
ATOM     70  C   UNL A   1      41.079  28.192  27.884  1.00  0.00     0.009 A 
ATOM     71  C   UNL A   1      39.652  26.689  29.129  1.00  0.00     0.009 A 
ATOM     72  C   UNL A   1      41.066  27.307  26.804  1.00  0.00     0.001 A 
ATOM     73  C   UNL A   1      39.669  25.791  28.060  1.00  0.00     0.001 A 
ATOM     74  C   UNL A   1      40.367  26.105  26.895  1.00  0.00     0.000 A 
ENDBRANCH  55  69
BRANCH  56  75
ATOM     75  C   UNL A   1      39.791  34.184  36.796  1.00  0.00    -0.014 A 
ATOM     76  C   UNL A   1      39.019  33.839  37.916  1.00  0.00     0.009 A 
ATOM     77  C   UNL A   1      40.470  35.411  36.796  1.00  0.00     0.009 A 
ATOM     78  C   UNL A   1      38.903  34.717  38.996  1.00  0.00     0.001 A 
ATOM     79  C   UNL A   1      40.381  36.274  37.891  1.00  0.00     0.001 A 
ATOM     80  C   UNL A   1      39.589  35.931  38.984  1.00  0.00     0.000 A 
ENDBRANCH  56  75
BRANCH  68  81
ATOM     81  C   UNL A   1      44.017  28.885  35.190  1.00  0.00    -0.014 A 
ATOM     82  C   UNL A   1      45.316  29.372  34.984  1.00  0.00     0.009 A 
ATOM     83  C   UNL A   1      43.820  27.839  36.107  1.00  0.00     0.009 A 
ATOM     84  C   UNL A   1      46.399  28.799  35.655  1.00  0.00     0.001 A 
ATOM     85  C   UNL A   1      44.899  27.291  36.801  1.00  0.00     0.001 A 
ATOM     86  C   UNL A   1      46.189  27.764  36.567  1.00  0.00     0.000 A 
ENDBRANCH  68  81
ENDBRANCH  42  43
ENDBRANCH  34  37
ENDBRANCH  32  33
ENDBRANCH  31  32
ENDBRANCH   1  31
TORSDOF 15
ENDMDL
MODEL 3
REMARK VINA RESULT:     -10.0      6.502     13.129
REMARK SMILES O=C(C[C@H](NC(=O)[C@]12C[C@H]3C[C@H](C[C@H](C3)C1)C2)c1cccc([N+](=O)[O-])c1)NCCCNC(=O)c1ccc(-c2c3nc(c(-c4ccccc4)c4ccc([nH]4)c(-c4ccccc4)c4nc(c(-c5ccccc5)c5ccc2[nH]5)C=C4)C=C3)cc1
REMARK SMILES IDX 28 1 27 2 1 3 2 4 3 6 4 7 18 8 19 9 26 10 20 11 22 12 21 13
REMARK SMILES IDX 23 14 24 15 25 16 5 17 6 18 7 20 8 21 9 22 16 23 17 24 10 25
REMARK SMILES IDX 14 26 12 27 11 28 15 29 13 30 29 31 30 32 31 33 32 34 33 36
REMARK SMILES IDX 34 37 35 38 81 39 36 40 80 41 37 42 38 43 39 44 74 45 40 46
REMARK SMILES IDX 79 47 73 48 75 49 41 50 78 51 72 52 71 53 42 55 64 56 49 57
REMARK SMILES IDX 63 58 50 59 53 60 62 61 76 62 51 63 52 64 61 66 77 67 54 68
REMARK SMILES IDX 43 69 44 70 48 71 45 72 47 73 46 74 65 75 66 76 70 77 67 78
REMARK SMILES IDX 69 79 68 80 55 81 56 82 60 83 57 84 59 85 58 86
REMARK H PARENT 27 5 5 19 31 35 75 54 53 65
REMARK Flexibility Score: inf
ROOT
ATOM      1  C   UNL A   1      31.752  30.632  26.658  1.00  0.00     0.117 C 
ENDROOT
BRANCH   1   2
ATOM      2  N   UNL A   1      31.789  30.240  25.262  1.00  0.00    -0.356 N 
ATOM      3  O   UNL A   1      33.697  29.022  25.502  1.00  0.00    -0.275 OA
ATOM      4  C   UNL A   1      32.768  29.403  24.793  1.00  0.00     0.222 C 
ATOM      5  H   UNL A   1      31.101  30.579  24.645  1.00  0.00     0.163 HD
BRANCH   4   6
ATOM      6  C   UNL A   1      32.715  29.080  23.318  1.00  0.00     0.129 C 
BRANCH   6   7
ATOM      7  C   UNL A   1      31.788  27.938  22.873  1.00  0.00     0.122 C 
BRANCH   7   8
ATOM      8  C   UNL A   1      30.329  28.401  22.824  1.00  0.00    -0.018 A 
ATOM      9  C   UNL A   1      29.261  27.650  23.340  1.00  0.00     0.006 A 
ATOM     10  C   UNL A   1      30.023  29.621  22.188  1.00  0.00     0.091 A 
ATOM     11  C   UNL A   1      27.932  28.057  23.169  1.00  0.00     0.007 A 
ATOM     12  C   UNL A   1      28.690  30.038  22.038  1.00  0.00     0.269 A 
ATOM     13  C   UNL A   1      27.640  29.249  22.510  1.00  0.00     0.085 A 
BRANCH  12  14
ATOM     14  N   UNL A   1      28.402  31.313  21.370  1.00  0.00     0.062 N 
ATOM     15  O   UNL A   1      28.944  32.335  21.814  1.00  0.00    -0.258 OA
ATOM     16  O   UNL A   1      27.633  31.291  20.397  1.00  0.00    -0.258 OA
ENDBRANCH  12  14
ENDBRANCH   7   8
BRANCH   7  17
ATOM     17  N   UNL A   1      32.166  27.027  21.784  1.00  0.00    -0.348 N 
ATOM     18  C   UNL A   1      32.650  25.789  21.549  1.00  0.00     0.226 C 
ATOM     19  H   UNL A   1      32.012  27.477  20.923  1.00  0.00     0.164 HD
ATOM     20  O   UNL A   1      32.956  25.606  20.359  1.00  0.00    -0.274 OA
BRANCH  18  21
ATOM     21  C   UNL A   1      32.818  24.628  22.542  1.00  0.00     0.050 C 
ATOM     22  C   UNL A   1      33.828  25.090  23.631  1.00  0.00     0.020 C 
ATOM     23  C   UNL A   1      33.299  23.297  21.969  1.00  0.00     0.020 C 
ATOM     24  C   UNL A   1      31.463  24.378  23.266  1.00  0.00     0.020 C 
ATOM     25  C   UNL A   1      33.998  24.010  24.717  1.00  0.00    -0.010 C 
ATOM     26  C   UNL A   1      33.459  22.219  23.039  1.00  0.00    -0.010 C 
ATOM     27  C   UNL A   1      31.610  23.289  24.348  1.00  0.00    -0.010 C 
ATOM     28  C   UNL A   1      32.642  23.745  25.393  1.00  0.00     0.007 C 
ATOM     29  C   UNL A   1      34.490  22.710  24.068  1.00  0.00     0.007 C 
ATOM     30  C   UNL A   1      32.099  21.986  23.700  1.00  0.00     0.007 C 
ENDBRANCH  18  21
ENDBRANCH   7  17
ENDBRANCH   6   7
ENDBRANCH   4   6
ENDBRANCH   1   2
BRANCH   1  31
ATOM     31  C   UNL A   1      31.488  32.121  26.875  1.00  0.00     0.042 C 
BRANCH  31  32
ATOM     32  C   UNL A   1      32.741  32.957  27.099  1.00  0.00     0.118 C 
BRANCH  32  33
ATOM     33  N   UNL A   1      32.450  34.278  27.639  1.00  0.00    -0.352 N 
ATOM     34  C   UNL A   1      33.050  34.956  28.668  1.00  0.00     0.251 C 
ATOM     35  H   UNL A   1      31.711  34.757  27.198  1.00  0.00     0.163 HD
ATOM     36  O   UNL A   1      32.563  36.008  29.076  1.00  0.00    -0.269 OA
BRANCH  34  37
ATOM     37  C   UNL A   1      34.263  34.407  29.304  1.00  0.00     0.039 A 
ATOM     38  C   UNL A   1      34.133  33.704  30.504  1.00  0.00     0.014 A 
ATOM     39  C   UNL A   1      35.520  34.575  28.717  1.00  0.00     0.014 A 
ATOM     40  C   UNL A   1      35.256  33.112  31.082  1.00  0.00     0.010 A 
ATOM     41  C   UNL A   1      36.624  33.918  29.252  1.00  0.00     0.010 A 
ATOM     42  C   UNL A   1      36.504  33.181  30.439  1.00  0.00    -0.014 A 
BRANCH  42  43
ATOM     43  C   UNL A   1      37.689  32.477  30.988  1.00  0.00     0.031 A 
ATOM     44  C   UNL A   1      38.374  32.993  32.223  1.00  0.00     0.074 A 
ATOM     45  C   UNL A   1      38.186  31.407  30.337  1.00  0.00     0.049 A 
ATOM     46  N   UNL A   1      39.449  32.544  32.819  1.00  0.00    -0.248 NA
ATOM     47  C   UNL A   1      37.789  34.185  32.859  1.00  0.00     0.031 C 
ATOM     48  C   UNL A   1      37.636  30.832  29.107  1.00  0.00     0.029 A 
ATOM     49  N   UNL A   1      39.271  30.614  30.617  1.00  0.00    -0.354 N 
ATOM     50  C   UNL A   1      39.676  33.403  33.886  1.00  0.00     0.074 A 
ATOM     51  C   UNL A   1      38.660  34.430  33.826  1.00  0.00     0.031 C 
ATOM     52  C   UNL A   1      38.368  29.762  28.757  1.00  0.00     0.029 A 
ATOM     53  C   UNL A   1      39.463  29.604  29.707  1.00  0.00     0.049 A 
ATOM     54  H   UNL A   1      39.856  30.757  31.396  1.00  0.00     0.167 HD
ATOM     55  C   UNL A   1      40.633  33.333  34.843  1.00  0.00     0.031 A 
ATOM     56  C   UNL A   1      40.421  28.660  29.637  1.00  0.00     0.031 A 
ATOM     57  C   UNL A   1      41.642  32.310  34.901  1.00  0.00     0.049 A 
ATOM     58  C   UNL A   1      41.489  28.621  30.696  1.00  0.00     0.074 A 
ATOM     59  C   UNL A   1      42.623  32.122  35.859  1.00  0.00     0.029 A 
ATOM     60  N   UNL A   1      41.803  31.304  33.961  1.00  0.00    -0.354 N 
ATOM     61  N   UNL A   1      41.647  29.399  31.740  1.00  0.00    -0.248 NA
ATOM     62  C   UNL A   1      42.503  27.565  30.573  1.00  0.00     0.031 C 
ATOM     63  C   UNL A   1      43.417  31.040  35.464  1.00  0.00     0.029 A 
ATOM     64  C   UNL A   1      42.887  30.511  34.299  1.00  0.00     0.049 A 
ATOM     65  H   UNL A   1      41.233  31.174  33.169  1.00  0.00     0.167 HD
ATOM     66  C   UNL A   1      42.757  28.907  32.414  1.00  0.00     0.074 A 
ATOM     67  C   UNL A   1      43.222  27.754  31.670  1.00  0.00     0.031 C 
ATOM     68  C   UNL A   1      43.337  29.367  33.549  1.00  0.00     0.031 A 
BRANCH  55  69
ATOM     69  C   UNL A   1      40.638  34.405  35.899  1.00  0.00    -0.014 A 
ATOM     70  C   UNL A   1      41.359  35.598  35.726  1.00  0.00     0.009 A 
ATOM     71  C   UNL A   1      39.880  34.237  37.068  1.00  0.00     0.009 A 
ATOM     72  C   UNL A   1      41.353  36.580  36.719  1.00  0.00     0.001 A 
ATOM     73  C   UNL A   1      39.848  35.234  38.044  1.00  0.00     0.001 A 
ATOM     74  C   UNL A   1      40.593  36.400  37.873  1.00  0.00     0.000 A 
ENDBRANCH  55  69
BRANCH  56  75
ATOM     75  C   UNL A   1      40.411  27.665  28.533  1.00  0.00    -0.014 A 
ATOM     76  C   UNL A   1      39.755  26.434  28.687  1.00  0.00     0.009 A 
ATOM     77  C   UNL A   1      41.063  27.936  27.320  1.00  0.00     0.009 A 
ATOM     78  C   UNL A   1      39.780  25.484  27.664  1.00  0.00     0.001 A 
ATOM     79  C   UNL A   1      41.059  26.998  26.286  1.00  0.00     0.001 A 
ATOM     80  C   UNL A   1      40.427  25.769  26.462  1.00  0.00     0.000 A 
ENDBRANCH  56  75
BRANCH  68  81
ATOM     81  C   UNL A   1      44.513  28.596  34.084  1.00  0.00    -0.014 A 
ATOM     82  C   UNL A   1      45.830  28.930  33.737  1.00  0.00     0.009 A 
ATOM     83  C   UNL A   1      44.294  27.543  34.987  1.00  0.00     0.009 A 
ATOM     84  C   UNL A   1      46.903  28.201  34.255  1.00  0.00     0.001 A 
ATOM     85  C   UNL A   1      45.370  26.839  35.530  1.00  0.00     0.001 A 
ATOM     86  C   UNL A   1      46.673  27.161  35.155  1.00  0.00     0.000 A 
ENDBRANCH  68  81
ENDBRANCH  42  43
ENDBRANCH  34  37
ENDBRANCH  32  33
ENDBRANCH  31  32
ENDBRANCH   1  31
TORSDOF 15
ENDMDL
