MODEL 1
REMARK VINA RESULT:     -14.0      0.000      0.000
REMARK SMILES Cc1c(CC(=O)N[C@H](CO)C(=O)NCCCNC(=O)c2ccc(-c3c4nc(c(-c5ccccc5)c5ccc([nH]5)c(-c5ccccc5)c5nc(c(-c6ccccc6)c6ccc3[nH]6)C=C5)C=C4)cc2)cc(-c2ccc(S(C)(=O)=O)cc2)n1-c1ccc(F)cc1
REMARK SMILES IDX 11 1 12 2 13 3 8 5 7 6 5 7 6 8 4 10 3 11 1 12 2 13 80 14
REMARK SMILES IDX 68 15 69 16 81 17 82 18 87 19 83 20 86 21 84 22 85 23 70 24
REMARK SMILES IDX 71 25 79 26 72 27 78 28 73 29 74 30 75 31 76 32 77 33 9 34
REMARK SMILES IDX 10 35 14 37 15 38 16 39 17 40 18 41 19 43 20 44 21 45 67 46
REMARK SMILES IDX 22 47 66 48 23 49 24 50 25 51 60 52 26 53 65 54 59 55 61 56
REMARK SMILES IDX 27 57 64 58 58 59 57 60 28 62 50 63 35 64 49 65 36 66 39 67
REMARK SMILES IDX 48 68 62 69 37 70 38 71 47 73 63 74 40 75 29 76 30 77 34 78
REMARK SMILES IDX 31 79 33 80 32 81 51 82 52 83 56 84 53 85 55 86 54 87 41 88
REMARK SMILES IDX 42 89 46 90 43 91 45 92 44 93
REMARK H PARENT 13 4 7 9 10 36 17 42 61 61 39 72
REMARK Flexibility Score: inf
ROOT
ATOM      1  C   UNL A   1      31.175  24.627  25.206  1.00  0.00     0.244 C 
ATOM      2  O   UNL A   1      30.658  23.553  25.548  1.00  0.00    -0.273 OA
ATOM      3  N   UNL A   1      31.826  25.295  26.179  1.00  0.00    -0.354 N 
ATOM      4  H   UNL A   1      31.709  24.805  27.025  1.00  0.00     0.163 HD
ENDROOT
BRANCH   1   5
ATOM      5  C   UNL A   1      31.049  25.069  23.780  1.00  0.00     0.197 C 
BRANCH   5   6
ATOM      6  N   UNL A   1      32.290  25.630  23.242  1.00  0.00    -0.342 N 
ATOM      7  C   UNL A   1      33.137  25.096  22.303  1.00  0.00     0.225 C 
ATOM      8  O   UNL A   1      33.804  25.907  21.650  1.00  0.00    -0.275 OA
ATOM      9  H   UNL A   1      32.551  26.509  23.602  1.00  0.00     0.164 HD
BRANCH   7  10
ATOM     10  C   UNL A   1      33.321  23.582  22.087  1.00  0.00     0.137 C 
BRANCH  10  11
ATOM     11  C   UNL A   1      33.664  22.853  23.359  1.00  0.00    -0.017 A 
ATOM     12  C   UNL A   1      31.886  20.993  23.322  1.00  0.00     0.065 C 
ATOM     13  C   UNL A   1      33.155  21.654  23.798  1.00  0.00     0.024 A 
ATOM     14  N   UNL A   1      34.088  21.059  24.678  1.00  0.00    -0.314 N 
ATOM     15  C   UNL A   1      34.559  23.285  24.369  1.00  0.00     0.033 A 
ATOM     16  C   UNL A   1      35.073  22.177  25.069  1.00  0.00     0.053 A 
BRANCH  14  17
ATOM     17  C   UNL A   1      33.996  19.564  24.827  1.00  0.00     0.046 A 
ATOM     18  C   UNL A   1      34.916  18.635  24.334  1.00  0.00     0.029 A 
ATOM     19  C   UNL A   1      32.931  18.995  25.590  1.00  0.00     0.029 A 
ATOM     20  C   UNL A   1      34.594  17.255  24.278  1.00  0.00     0.041 A 
ATOM     21  C   UNL A   1      32.616  17.626  25.564  1.00  0.00     0.041 A 
ATOM     22  C   UNL A   1      33.420  16.773  24.840  1.00  0.00     0.123 A 
ATOM     23  F   UNL A   1      33.062  15.491  24.682  1.00  0.00    -0.207 F 
ENDBRANCH  14  17
BRANCH  16  24
ATOM     24  C   UNL A   1      36.606  22.377  25.616  1.00  0.00    -0.001 A 
ATOM     25  C   UNL A   1      37.668  21.444  25.461  1.00  0.00     0.011 A 
ATOM     26  C   UNL A   1      37.138  23.592  26.074  1.00  0.00     0.011 A 
ATOM     27  C   UNL A   1      39.006  21.525  25.817  1.00  0.00     0.021 A 
ATOM     28  C   UNL A   1      38.534  23.728  26.488  1.00  0.00     0.021 A 
ATOM     29  C   UNL A   1      39.436  22.656  26.418  1.00  0.00     0.067 A 
BRANCH  29  30
ATOM     30  S   UNL A   1      41.071  22.489  27.098  1.00  0.00     0.175 S 
ATOM     31  C   UNL A   1      41.288  24.017  28.038  1.00  0.00     0.163 C 
ATOM     32  O   UNL A   1      41.045  21.422  28.046  1.00  0.00    -0.224 OA
ATOM     33  O   UNL A   1      42.003  22.461  25.966  1.00  0.00    -0.224 OA
ENDBRANCH  29  30
ENDBRANCH  16  24
ENDBRANCH  10  11
ENDBRANCH   7  10
ENDBRANCH   5   6
BRANCH   5  34
ATOM     34  C   UNL A   1      29.849  26.017  23.735  1.00  0.00     0.191 C 
BRANCH  34  35
ATOM     35  O   UNL A   1      29.092  25.941  24.937  1.00  0.00    -0.394 OA
ATOM     36  H   UNL A   1      28.156  25.806  24.721  1.00  0.00     0.210 HD
ENDBRANCH  34  35
ENDBRANCH   5  34
ENDBRANCH   1   5
BRANCH   3  37
ATOM     37  C   UNL A   1      32.664  26.506  26.446  1.00  0.00     0.117 C 
BRANCH  37  38
ATOM     38  C   UNL A   1      32.343  28.132  25.944  1.00  0.00     0.042 C 
BRANCH  38  39
ATOM     39  C   UNL A   1      33.077  29.662  25.676  1.00  0.00     0.118 C 
BRANCH  39  40
ATOM     40  N   UNL A   1      33.028  30.904  26.510  1.00  0.00    -0.352 N 
ATOM     41  C   UNL A   1      33.761  31.522  27.523  1.00  0.00     0.251 C 
ATOM     42  H   UNL A   1      32.243  31.449  26.271  1.00  0.00     0.163 HD
ATOM     43  O   UNL A   1      33.329  32.561  28.023  1.00  0.00    -0.269 OA
BRANCH  41  44
ATOM     44  C   UNL A   1      35.083  31.019  27.942  1.00  0.00     0.039 A 
ATOM     45  C   UNL A   1      35.295  29.677  27.846  1.00  0.00     0.014 A 
ATOM     46  C   UNL A   1      36.143  31.838  28.390  1.00  0.00     0.014 A 
ATOM     47  C   UNL A   1      36.609  29.221  27.921  1.00  0.00     0.010 A 
ATOM     48  C   UNL A   1      37.486  31.343  28.527  1.00  0.00     0.010 A 
ATOM     49  C   UNL A   1      37.789  30.015  28.211  1.00  0.00    -0.014 A 
BRANCH  49  50
ATOM     50  C   UNL A   1      39.125  29.194  28.458  1.00  0.00     0.031 A 
ATOM     51  C   UNL A   1      39.073  28.972  29.918  1.00  0.00     0.074 A 
ATOM     52  C   UNL A   1      40.303  28.763  27.877  1.00  0.00     0.049 A 
ATOM     53  N   UNL A   1      38.924  30.063  30.596  1.00  0.00    -0.248 NA
ATOM     54  C   UNL A   1      38.671  27.759  30.622  1.00  0.00     0.031 C 
ATOM     55  C   UNL A   1      40.805  28.958  26.511  1.00  0.00     0.029 A 
ATOM     56  N   UNL A   1      41.367  28.006  28.427  1.00  0.00    -0.354 N 
ATOM     57  C   UNL A   1      38.585  29.740  31.872  1.00  0.00     0.074 A 
ATOM     58  C   UNL A   1      38.312  28.302  31.800  1.00  0.00     0.031 C 
ATOM     59  C   UNL A   1      41.950  28.245  26.293  1.00  0.00     0.029 A 
ATOM     60  C   UNL A   1      42.383  27.576  27.518  1.00  0.00     0.049 A 
ATOM     61  H   UNL A   1      41.404  27.785  29.386  1.00  0.00     0.167 HD
ATOM     62  C   UNL A   1      39.269  30.500  32.775  1.00  0.00     0.031 A 
ATOM     63  C   UNL A   1      43.523  26.828  27.757  1.00  0.00     0.031 A 
ATOM     64  C   UNL A   1      40.484  29.812  33.129  1.00  0.00     0.049 A 
ATOM     65  C   UNL A   1      43.875  27.110  29.154  1.00  0.00     0.074 A 
ATOM     66  C   UNL A   1      40.704  28.495  33.490  1.00  0.00     0.029 A 
ATOM     67  N   UNL A   1      41.662  30.277  32.576  1.00  0.00    -0.354 N 
ATOM     68  N   UNL A   1      44.448  28.226  29.486  1.00  0.00    -0.248 NA
ATOM     69  C   UNL A   1      43.715  26.139  30.229  1.00  0.00     0.031 C 
ATOM     70  C   UNL A   1      41.770  28.084  32.661  1.00  0.00     0.029 A 
ATOM     71  C   UNL A   1      42.434  29.205  32.174  1.00  0.00     0.049 A 
ATOM     72  H   UNL A   1      41.911  31.225  32.485  1.00  0.00     0.167 HD
ATOM     73  C   UNL A   1      44.176  28.307  30.814  1.00  0.00     0.074 A 
ATOM     74  C   UNL A   1      44.046  26.928  31.253  1.00  0.00     0.031 C 
ATOM     75  C   UNL A   1      43.523  29.417  31.247  1.00  0.00     0.031 A 
BRANCH  62  76
ATOM     76  C   UNL A   1      39.167  31.987  32.417  1.00  0.00    -0.014 A 
ATOM     77  C   UNL A   1      37.900  32.563  32.284  1.00  0.00     0.009 A 
ATOM     78  C   UNL A   1      40.276  32.743  31.953  1.00  0.00     0.009 A 
ATOM     79  C   UNL A   1      37.746  33.809  31.653  1.00  0.00     0.001 A 
ATOM     80  C   UNL A   1      40.115  33.947  31.266  1.00  0.00     0.001 A 
ATOM     81  C   UNL A   1      38.844  34.479  31.113  1.00  0.00     0.000 A 
ENDBRANCH  62  76
BRANCH  63  82
ATOM     82  C   UNL A   1      44.678  26.051  27.119  1.00  0.00    -0.014 A 
ATOM     83  C   UNL A   1      44.388  25.097  26.090  1.00  0.00     0.009 A 
ATOM     84  C   UNL A   1      45.997  26.521  27.134  1.00  0.00     0.009 A 
ATOM     85  C   UNL A   1      45.286  24.757  25.066  1.00  0.00     0.001 A 
ATOM     86  C   UNL A   1      46.922  26.140  26.125  1.00  0.00     0.001 A 
ATOM     87  C   UNL A   1      46.558  25.298  25.073  1.00  0.00     0.000 A 
ENDBRANCH  63  82
BRANCH  75  88
ATOM     88  C   UNL A   1      43.859  30.744  30.569  1.00  0.00    -0.014 A 
ATOM     89  C   UNL A   1      45.021  31.515  30.807  1.00  0.00     0.009 A 
ATOM     90  C   UNL A   1      42.920  31.294  29.685  1.00  0.00     0.009 A 
ATOM     91  C   UNL A   1      45.200  32.791  30.254  1.00  0.00     0.001 A 
ATOM     92  C   UNL A   1      43.121  32.544  29.083  1.00  0.00     0.001 A 
ATOM     93  C   UNL A   1      44.248  33.303  29.385  1.00  0.00     0.000 A 
ENDBRANCH  75  88
ENDBRANCH  49  50
ENDBRANCH  41  44
ENDBRANCH  39  40
ENDBRANCH  38  39
ENDBRANCH  37  38
ENDBRANCH   3  37
TORSDOF 18
ENDMDL
MODEL 2
REMARK VINA RESULT:     -13.4      3.143      8.724
REMARK SMILES Cc1c(CC(=O)N[C@H](CO)C(=O)NCCCNC(=O)c2ccc(-c3c4nc(c(-c5ccccc5)c5ccc([nH]5)c(-c5ccccc5)c5nc(c(-c6ccccc6)c6ccc3[nH]6)C=C5)C=C4)cc2)cc(-c2ccc(S(C)(=O)=O)cc2)n1-c1ccc(F)cc1
REMARK SMILES IDX 11 1 12 2 13 3 8 5 7 6 5 7 6 8 4 10 3 11 1 12 2 13 80 14
REMARK SMILES IDX 68 15 69 16 81 17 82 18 87 19 83 20 86 21 84 22 85 23 70 24
REMARK SMILES IDX 71 25 79 26 72 27 78 28 73 29 74 30 75 31 76 32 77 33 9 34
REMARK SMILES IDX 10 35 14 37 15 38 16 39 17 40 18 41 19 43 20 44 21 45 67 46
REMARK SMILES IDX 22 47 66 48 23 49 24 50 25 51 60 52 26 53 65 54 59 55 61 56
REMARK SMILES IDX 27 57 64 58 58 59 57 60 28 62 50 63 35 64 49 65 36 66 39 67
REMARK SMILES IDX 48 68 62 69 37 70 38 71 47 73 63 74 40 75 29 76 30 77 34 78
REMARK SMILES IDX 31 79 33 80 32 81 51 82 52 83 56 84 53 85 55 86 54 87 41 88
REMARK SMILES IDX 42 89 46 90 43 91 45 92 44 93
REMARK H PARENT 13 4 7 9 10 36 17 42 61 61 39 72
REMARK Flexibility Score: inf
ROOT
ATOM      1  C   UNL A   1      33.480  24.286  23.088  1.00  0.00     0.244 C 
ATOM      2  O   UNL A   1      33.282  24.893  22.026  1.00  0.00    -0.273 OA
ATOM      3  N   UNL A   1      34.771  24.136  23.442  1.00  0.00    -0.354 N 
ATOM      4  H   UNL A   1      35.336  24.505  22.723  1.00  0.00     0.163 HD
ENDROOT
BRANCH   1   5
ATOM      5  C   UNL A   1      32.300  23.799  23.874  1.00  0.00     0.197 C 
BRANCH   5   6
ATOM      6  N   UNL A   1      32.475  23.945  25.320  1.00  0.00    -0.342 N 
ATOM      7  C   UNL A   1      31.575  24.402  26.252  1.00  0.00     0.225 C 
ATOM      8  O   UNL A   1      31.729  23.984  27.406  1.00  0.00    -0.275 OA
ATOM      9  H   UNL A   1      33.355  23.680  25.672  1.00  0.00     0.164 HD
BRANCH   7  10
ATOM     10  C   UNL A   1      30.466  25.423  25.933  1.00  0.00     0.137 C 
BRANCH  10  11
ATOM     11  C   UNL A   1      31.002  26.685  25.311  1.00  0.00    -0.017 A 
ATOM     12  C   UNL A   1      29.582  26.785  23.168  1.00  0.00     0.065 C 
ATOM     13  C   UNL A   1      30.509  27.350  24.213  1.00  0.00     0.024 A 
ATOM     14  N   UNL A   1      30.899  28.707  24.290  1.00  0.00    -0.314 N 
ATOM     15  C   UNL A   1      32.145  27.414  25.721  1.00  0.00     0.033 A 
ATOM     16  C   UNL A   1      32.023  28.764  25.342  1.00  0.00     0.053 A 
BRANCH  14  17
ATOM     17  C   UNL A   1      30.042  29.685  23.533  1.00  0.00     0.046 A 
ATOM     18  C   UNL A   1      29.684  29.585  22.186  1.00  0.00     0.029 A 
ATOM     19  C   UNL A   1      29.460  30.793  24.219  1.00  0.00     0.029 A 
ATOM     20  C   UNL A   1      29.120  30.692  21.501  1.00  0.00     0.041 A 
ATOM     21  C   UNL A   1      28.875  31.885  23.556  1.00  0.00     0.041 A 
ATOM     22  C   UNL A   1      28.777  31.852  22.182  1.00  0.00     0.123 A 
ATOM     23  F   UNL A   1      28.356  32.936  21.517  1.00  0.00    -0.207 F 
ENDBRANCH  14  17
BRANCH  16  24
ATOM     24  C   UNL A   1      32.738  29.821  26.372  1.00  0.00    -0.001 A 
ATOM     25  C   UNL A   1      34.076  29.736  26.846  1.00  0.00     0.011 A 
ATOM     26  C   UNL A   1      32.218  31.077  26.716  1.00  0.00     0.011 A 
ATOM     27  C   UNL A   1      34.807  30.592  27.658  1.00  0.00     0.021 A 
ATOM     28  C   UNL A   1      32.933  32.008  27.589  1.00  0.00     0.021 A 
ATOM     29  C   UNL A   1      34.201  31.712  28.110  1.00  0.00     0.067 A 
BRANCH  29  30
ATOM     30  S   UNL A   1      35.138  32.530  29.380  1.00  0.00     0.175 S 
ATOM     31  C   UNL A   1      35.279  34.224  28.766  1.00  0.00     0.163 C 
ATOM     32  O   UNL A   1      34.331  32.584  30.556  1.00  0.00    -0.224 OA
ATOM     33  O   UNL A   1      36.461  31.898  29.410  1.00  0.00    -0.224 OA
ENDBRANCH  29  30
ENDBRANCH  16  24
ENDBRANCH  10  11
ENDBRANCH   7  10
ENDBRANCH   5   6
BRANCH   5  34
ATOM     34  C   UNL A   1      32.041  22.366  23.405  1.00  0.00     0.191 C 
BRANCH  34  35
ATOM     35  O   UNL A   1      32.406  22.201  22.040  1.00  0.00    -0.394 OA
ATOM     36  H   UNL A   1      33.371  22.135  21.970  1.00  0.00     0.210 HD
ENDBRANCH  34  35
ENDBRANCH   5  34
ENDBRANCH   1   5
BRANCH   3  37
ATOM     37  C   UNL A   1      35.665  23.617  24.524  1.00  0.00     0.117 C 
BRANCH  37  38
ATOM     38  C   UNL A   1      36.731  22.256  24.440  1.00  0.00     0.042 C 
BRANCH  38  39
ATOM     39  C   UNL A   1      37.505  21.050  25.388  1.00  0.00     0.118 C 
BRANCH  39  40
ATOM     40  N   UNL A   1      38.958  20.860  25.692  1.00  0.00    -0.352 N 
ATOM     41  C   UNL A   1      40.027  21.585  26.218  1.00  0.00     0.251 C 
ATOM     42  H   UNL A   1      39.246  19.951  25.447  1.00  0.00     0.163 HD
ATOM     43  O   UNL A   1      41.145  21.069  26.238  1.00  0.00    -0.269 OA
BRANCH  41  44
ATOM     44  C   UNL A   1      39.836  22.910  26.838  1.00  0.00     0.039 A 
ATOM     45  C   UNL A   1      40.775  23.317  27.736  1.00  0.00     0.014 A 
ATOM     46  C   UNL A   1      38.775  23.790  26.528  1.00  0.00     0.014 A 
ATOM     47  C   UNL A   1      40.800  24.665  28.083  1.00  0.00     0.010 A 
ATOM     48  C   UNL A   1      38.776  25.166  26.946  1.00  0.00     0.010 A 
ATOM     49  C   UNL A   1      39.847  25.684  27.680  1.00  0.00    -0.014 A 
BRANCH  49  50
ATOM     50  C   UNL A   1      39.992  27.086  28.410  1.00  0.00     0.031 A 
ATOM     51  C   UNL A   1      40.991  27.763  27.559  1.00  0.00     0.074 A 
ATOM     52  C   UNL A   1      39.659  27.802  29.544  1.00  0.00     0.049 A 
ATOM     53  N   UNL A   1      42.075  27.076  27.395  1.00  0.00    -0.248 NA
ATOM     54  C   UNL A   1      40.752  28.773  26.533  1.00  0.00     0.031 C 
ATOM     55  C   UNL A   1      38.854  27.404  30.706  1.00  0.00     0.029 A 
ATOM     56  N   UNL A   1      39.992  29.128  29.916  1.00  0.00    -0.354 N 
ATOM     57  C   UNL A   1      42.789  27.624  26.376  1.00  0.00     0.074 A 
ATOM     58  C   UNL A   1      41.860  28.594  25.790  1.00  0.00     0.031 C 
ATOM     59  C   UNL A   1      38.638  28.458  31.549  1.00  0.00     0.029 A 
ATOM     60  C   UNL A   1      39.355  29.643  31.088  1.00  0.00     0.049 A 
ATOM     61  H   UNL A   1      40.630  29.668  29.394  1.00  0.00     0.167 HD
ATOM     62  C   UNL A   1      44.116  27.692  26.682  1.00  0.00     0.031 A 
ATOM     63  C   UNL A   1      39.475  30.888  31.683  1.00  0.00     0.031 A 
ATOM     64  C   UNL A   1      44.381  28.969  27.296  1.00  0.00     0.049 A 
ATOM     65  C   UNL A   1      40.824  31.347  31.332  1.00  0.00     0.074 A 
ATOM     66  C   UNL A   1      44.005  30.246  26.922  1.00  0.00     0.029 A 
ATOM     67  N   UNL A   1      44.562  28.989  28.665  1.00  0.00    -0.354 N 
ATOM     68  N   UNL A   1      41.870  30.874  31.940  1.00  0.00    -0.248 NA
ATOM     69  C   UNL A   1      41.080  32.422  30.381  1.00  0.00     0.031 C 
ATOM     70  C   UNL A   1      43.456  30.801  28.098  1.00  0.00     0.029 A 
ATOM     71  C   UNL A   1      43.892  30.073  29.199  1.00  0.00     0.049 A 
ATOM     72  H   UNL A   1      45.087  28.334  29.179  1.00  0.00     0.167 HD
ATOM     73  C   UNL A   1      42.867  31.156  31.061  1.00  0.00     0.074 A 
ATOM     74  C   UNL A   1      42.411  32.335  30.346  1.00  0.00     0.031 C 
ATOM     75  C   UNL A   1      43.616  30.113  30.618  1.00  0.00     0.031 A 
BRANCH  62  76
ATOM     76  C   UNL A   1      44.623  26.340  27.197  1.00  0.00    -0.014 A 
ATOM     77  C   UNL A   1      44.485  25.213  26.381  1.00  0.00     0.009 A 
ATOM     78  C   UNL A   1      44.981  26.121  28.553  1.00  0.00     0.009 A 
ATOM     79  C   UNL A   1      44.630  23.923  26.918  1.00  0.00     0.001 A 
ATOM     80  C   UNL A   1      45.057  24.839  29.100  1.00  0.00     0.001 A 
ATOM     81  C   UNL A   1      44.877  23.737  28.279  1.00  0.00     0.000 A 
ENDBRANCH  62  76
BRANCH  63  82
ATOM     82  C   UNL A   1      38.900  31.845  32.731  1.00  0.00    -0.014 A 
ATOM     83  C   UNL A   1      37.481  32.029  32.798  1.00  0.00     0.009 A 
ATOM     84  C   UNL A   1      39.595  32.185  33.897  1.00  0.00     0.009 A 
ATOM     85  C   UNL A   1      36.793  32.371  33.974  1.00  0.00     0.001 A 
ATOM     86  C   UNL A   1      38.904  32.578  35.075  1.00  0.00     0.001 A 
ATOM     87  C   UNL A   1      37.510  32.629  35.127  1.00  0.00     0.000 A 
ENDBRANCH  63  82
BRANCH  75  88
ATOM     88  C   UNL A   1      43.918  28.989  31.608  1.00  0.00    -0.014 A 
ATOM     89  C   UNL A   1      44.973  28.990  32.552  1.00  0.00     0.009 A 
ATOM     90  C   UNL A   1      43.141  27.824  31.548  1.00  0.00     0.009 A 
ATOM     91  C   UNL A   1      45.278  27.868  33.335  1.00  0.00     0.001 A 
ATOM     92  C   UNL A   1      43.407  26.720  32.370  1.00  0.00     0.001 A 
ATOM     93  C   UNL A   1      44.488  26.732  33.246  1.00  0.00     0.000 A 
ENDBRANCH  75  88
ENDBRANCH  49  50
ENDBRANCH  41  44
ENDBRANCH  39  40
ENDBRANCH  38  39
ENDBRANCH  37  38
ENDBRANCH   3  37
TORSDOF 18
ENDMDL
MODEL 3
REMARK VINA RESULT:     -12.6      3.319      7.741
REMARK SMILES Cc1c(CC(=O)N[C@H](CO)C(=O)NCCCNC(=O)c2ccc(-c3c4nc(c(-c5ccccc5)c5ccc([nH]5)c(-c5ccccc5)c5nc(c(-c6ccccc6)c6ccc3[nH]6)C=C5)C=C4)cc2)cc(-c2ccc(S(C)(=O)=O)cc2)n1-c1ccc(F)cc1
REMARK SMILES IDX 11 1 12 2 13 3 8 5 7 6 5 7 6 8 4 10 3 11 1 12 2 13 80 14
REMARK SMILES IDX 68 15 69 16 81 17 82 18 87 19 83 20 86 21 84 22 85 23 70 24
REMARK SMILES IDX 71 25 79 26 72 27 78 28 73 29 74 30 75 31 76 32 77 33 9 34
REMARK SMILES IDX 10 35 14 37 15 38 16 39 17 40 18 41 19 43 20 44 21 45 67 46
REMARK SMILES IDX 22 47 66 48 23 49 24 50 25 51 60 52 26 53 65 54 59 55 61 56
REMARK SMILES IDX 27 57 64 58 58 59 57 60 28 62 50 63 35 64 49 65 36 66 39 67
REMARK SMILES IDX 48 68 62 69 37 70 38 71 47 73 63 74 40 75 29 76 30 77 34 78
REMARK SMILES IDX 31 79 33 80 32 81 51 82 52 83 56 84 53 85 55 86 54 87 41 88
REMARK SMILES IDX 42 89 46 90 43 91 45 92 44 93
REMARK H PARENT 13 4 7 9 10 36 17 42 61 61 39 72
REMARK Flexibility Score: inf
ROOT
ATOM      1  C   UNL A   1      34.807  33.021  30.156  1.00  0.00     0.244 C 
ATOM      2  O   UNL A   1      33.842  33.774  29.956  1.00  0.00    -0.273 OA
ATOM      3  N   UNL A   1      35.050  32.718  31.446  1.00  0.00    -0.354 N 
ATOM      4  H   UNL A   1      34.421  33.225  32.010  1.00  0.00     0.163 HD
ENDROOT
BRANCH   1   5
ATOM      5  C   UNL A   1      35.585  32.514  28.981  1.00  0.00     0.197 C 
BRANCH   5   6
ATOM      6  N   UNL A   1      35.402  31.081  28.746  1.00  0.00    -0.342 N 
ATOM      7  C   UNL A   1      34.711  30.458  27.736  1.00  0.00     0.225 C 
ATOM      8  O   UNL A   1      35.089  29.317  27.444  1.00  0.00    -0.275 OA
ATOM      9  H   UNL A   1      35.831  30.484  29.401  1.00  0.00     0.164 HD
BRANCH   7  10
ATOM     10  C   UNL A   1      33.494  31.082  27.027  1.00  0.00     0.137 C 
BRANCH  10  11
ATOM     11  C   UNL A   1      32.522  30.046  26.527  1.00  0.00    -0.017 A 
ATOM     12  C   UNL A   1      30.706  31.566  25.518  1.00  0.00     0.065 C 
ATOM     13  C   UNL A   1      31.414  30.253  25.740  1.00  0.00     0.024 A 
ATOM     14  N   UNL A   1      31.117  29.055  25.049  1.00  0.00    -0.314 N 
ATOM     15  C   UNL A   1      32.545  28.658  26.803  1.00  0.00     0.033 A 
ATOM     16  C   UNL A   1      31.907  27.946  25.770  1.00  0.00     0.053 A 
BRANCH  14  17
ATOM     17  C   UNL A   1      30.333  29.204  23.774  1.00  0.00     0.046 A 
ATOM     18  C   UNL A   1      30.839  29.645  22.549  1.00  0.00     0.029 A 
ATOM     19  C   UNL A   1      28.961  28.808  23.738  1.00  0.00     0.029 A 
ATOM     20  C   UNL A   1      29.967  30.020  21.495  1.00  0.00     0.041 A 
ATOM     21  C   UNL A   1      28.091  29.150  22.690  1.00  0.00     0.041 A 
ATOM     22  C   UNL A   1      28.597  29.824  21.600  1.00  0.00     0.123 A 
ATOM     23  F   UNL A   1      27.766  30.287  20.656  1.00  0.00    -0.207 F 
ENDBRANCH  14  17
BRANCH  16  24
ATOM     24  C   UNL A   1      32.530  26.454  25.494  1.00  0.00    -0.001 A 
ATOM     25  C   UNL A   1      33.901  26.096  25.615  1.00  0.00     0.011 A 
ATOM     26  C   UNL A   1      31.770  25.284  25.356  1.00  0.00     0.011 A 
ATOM     27  C   UNL A   1      34.534  24.869  25.475  1.00  0.00     0.021 A 
ATOM     28  C   UNL A   1      32.384  23.968  25.178  1.00  0.00     0.021 A 
ATOM     29  C   UNL A   1      33.775  23.794  25.168  1.00  0.00     0.067 A 
BRANCH  29  30
ATOM     30  S   UNL A   1      34.750  22.380  24.707  1.00  0.00     0.175 S 
ATOM     31  C   UNL A   1      35.150  21.616  26.294  1.00  0.00     0.163 C 
ATOM     32  O   UNL A   1      33.899  21.467  24.014  1.00  0.00    -0.224 OA
ATOM     33  O   UNL A   1      35.971  22.890  24.075  1.00  0.00    -0.224 OA
ENDBRANCH  29  30
ENDBRANCH  16  24
ENDBRANCH  10  11
ENDBRANCH   7  10
ENDBRANCH   5   6
BRANCH   5  34
ATOM     34  C   UNL A   1      37.035  32.941  29.218  1.00  0.00     0.191 C 
BRANCH  34  35
ATOM     35  O   UNL A   1      37.098  34.228  29.819  1.00  0.00    -0.394 OA
ATOM     36  H   UNL A   1      36.355  34.336  30.432  1.00  0.00     0.210 HD
ENDBRANCH  34  35
ENDBRANCH   5  34
ENDBRANCH   1   5
BRANCH   3  37
ATOM     37  C   UNL A   1      35.924  31.894  32.339  1.00  0.00     0.117 C 
BRANCH  37  38
ATOM     38  C   UNL A   1      37.529  32.269  32.870  1.00  0.00     0.042 C 
BRANCH  38  39
ATOM     39  C   UNL A   1      39.164  32.372  32.351  1.00  0.00     0.118 C 
BRANCH  39  40
ATOM     40  N   UNL A   1      40.120  33.521  32.430  1.00  0.00    -0.352 N 
ATOM     41  C   UNL A   1      41.412  33.845  32.018  1.00  0.00     0.251 C 
ATOM     42  H   UNL A   1      39.715  34.274  32.919  1.00  0.00     0.163 HD
ATOM     43  O   UNL A   1      41.894  34.926  32.359  1.00  0.00    -0.269 OA
BRANCH  41  44
ATOM     44  C   UNL A   1      42.178  32.973  31.107  1.00  0.00     0.039 A 
ATOM     45  C   UNL A   1      42.524  31.741  31.572  1.00  0.00     0.014 A 
ATOM     46  C   UNL A   1      42.533  33.318  29.784  1.00  0.00     0.014 A 
ATOM     47  C   UNL A   1      42.950  30.794  30.644  1.00  0.00     0.010 A 
ATOM     48  C   UNL A   1      43.035  32.346  28.850  1.00  0.00     0.010 A 
ATOM     49  C   UNL A   1      43.185  31.009  29.228  1.00  0.00    -0.014 A 
BRANCH  49  50
ATOM     50  C   UNL A   1      43.886  29.811  28.458  1.00  0.00     0.031 A 
ATOM     51  C   UNL A   1      42.737  29.181  27.777  1.00  0.00     0.074 A 
ATOM     52  C   UNL A   1      45.066  29.105  28.314  1.00  0.00     0.049 A 
ATOM     53  N   UNL A   1      41.771  28.873  28.581  1.00  0.00    -0.248 NA
ATOM     54  C   UNL A   1      42.343  29.320  26.379  1.00  0.00     0.031 C 
ATOM     55  C   UNL A   1      46.366  29.300  28.969  1.00  0.00     0.029 A 
ATOM     56  N   UNL A   1      45.368  27.993  27.490  1.00  0.00    -0.354 N 
ATOM     57  C   UNL A   1      40.664  28.592  27.844  1.00  0.00     0.074 A 
ATOM     58  C   UNL A   1      41.037  29.013  26.491  1.00  0.00     0.031 C 
ATOM     59  C   UNL A   1      47.321  28.480  28.438  1.00  0.00     0.029 A 
ATOM     60  C   UNL A   1      46.738  27.586  27.441  1.00  0.00     0.049 A 
ATOM     61  H   UNL A   1      44.671  27.524  26.976  1.00  0.00     0.167 HD
ATOM     62  C   UNL A   1      40.022  27.486  28.317  1.00  0.00     0.031 A 
ATOM     63  C   UNL A   1      47.327  26.554  26.731  1.00  0.00     0.031 A 
ATOM     64  C   UNL A   1      40.535  26.328  27.631  1.00  0.00     0.049 A 
ATOM     65  C   UNL A   1      46.268  25.550  26.571  1.00  0.00     0.074 A 
ATOM     66  C   UNL A   1      40.755  26.099  26.285  1.00  0.00     0.029 A 
ATOM     67  N   UNL A   1      41.413  25.517  28.323  1.00  0.00    -0.354 N 
ATOM     68  N   UNL A   1      45.928  24.776  27.557  1.00  0.00    -0.248 NA
ATOM     69  C   UNL A   1      45.614  25.275  25.299  1.00  0.00     0.031 C 
ATOM     70  C   UNL A   1      42.078  25.608  26.231  1.00  0.00     0.029 A 
ATOM     71  C   UNL A   1      42.450  25.147  27.489  1.00  0.00     0.049 A 
ATOM     72  H   UNL A   1      41.315  25.245  29.265  1.00  0.00     0.167 HD
ATOM     73  C   UNL A   1      44.685  24.370  27.189  1.00  0.00     0.074 A 
ATOM     74  C   UNL A   1      44.692  24.416  25.737  1.00  0.00     0.031 C 
ATOM     75  C   UNL A   1      43.670  24.618  28.057  1.00  0.00     0.031 A 
BRANCH  62  76
ATOM     76  C   UNL A   1      39.802  27.593  29.830  1.00  0.00    -0.014 A 
ATOM     77  C   UNL A   1      38.505  27.793  30.311  1.00  0.00     0.009 A 
ATOM     78  C   UNL A   1      40.871  27.767  30.750  1.00  0.00     0.009 A 
ATOM     79  C   UNL A   1      38.293  28.215  31.634  1.00  0.00     0.001 A 
ATOM     80  C   UNL A   1      40.663  28.252  32.042  1.00  0.00     0.001 A 
ATOM     81  C   UNL A   1      39.368  28.480  32.483  1.00  0.00     0.000 A 
ENDBRANCH  62  76
BRANCH  63  82
ATOM     82  C   UNL A   1      48.651  25.931  26.275  1.00  0.00    -0.014 A 
ATOM     83  C   UNL A   1      49.255  26.397  25.063  1.00  0.00     0.009 A 
ATOM     84  C   UNL A   1      49.524  25.294  27.164  1.00  0.00     0.009 A 
ATOM     85  C   UNL A   1      50.638  26.372  24.821  1.00  0.00     0.001 A 
ATOM     86  C   UNL A   1      50.918  25.225  26.899  1.00  0.00     0.001 A 
ATOM     87  C   UNL A   1      51.479  25.799  25.756  1.00  0.00     0.000 A 
ENDBRANCH  63  82
BRANCH  75  88
ATOM     88  C   UNL A   1      43.975  24.513  29.550  1.00  0.00    -0.014 A 
ATOM     89  C   UNL A   1      43.931  23.321  30.314  1.00  0.00     0.009 A 
ATOM     90  C   UNL A   1      44.257  25.691  30.255  1.00  0.00     0.009 A 
ATOM     91  C   UNL A   1      44.087  23.320  31.707  1.00  0.00     0.001 A 
ATOM     92  C   UNL A   1      44.471  25.686  31.640  1.00  0.00     0.001 A 
ATOM     93  C   UNL A   1      44.363  24.506  32.370  1.00  0.00     0.000 A 
ENDBRANCH  75  88
ENDBRANCH  49  50
ENDBRANCH  41  44
ENDBRANCH  39  40
ENDBRANCH  38  39
ENDBRANCH  37  38
ENDBRANCH   3  37
TORSDOF 18
ENDMDL
