MODEL 1
REMARK VINA RESULT:     -13.5      0.000      0.000
REMARK SMILES COc1cc(C)cc2c1[C@@H](C)[C@@H](CC(=O)N[C@@H](Cc1c[nH]c3ccccc13)C(=O)NCCCNC(=O)c1ccc(-c3c4nc(c(-c5ccccc5)c5ccc([nH]5)c(-c5ccccc5)c5nc(c(-c6ccccc6)c6ccc3[nH]6)C=C5)C=C4)cc1)C(=O)O2
REMARK SMILES IDX 31 1 30 2 28 3 29 4 17 6 16 7 14 8 15 9 13 11 12 12 3 13
REMARK SMILES IDX 4 14 9 15 5 16 8 17 10 18 6 19 7 20 87 21 11 22 85 23 86 24
REMARK SMILES IDX 2 25 1 26 18 27 19 28 20 29 27 30 21 31 22 32 26 33 23 35
REMARK SMILES IDX 25 36 24 37 32 38 33 39 34 40 35 41 36 43 37 44 38 45 84 46
REMARK SMILES IDX 39 47 83 48 40 49 41 50 42 51 77 52 43 53 82 54 76 55 78 56
REMARK SMILES IDX 44 57 81 58 75 59 74 60 45 62 67 63 52 64 66 65 53 66 56 67
REMARK SMILES IDX 65 68 79 69 54 70 55 71 64 73 80 74 57 75 46 76 47 77 51 78
REMARK SMILES IDX 48 79 50 80 49 81 68 82 69 83 73 84 70 85 72 86 71 87 58 88
REMARK SMILES IDX 59 89 63 90 60 91 62 92 61 93
REMARK H PARENT 30 5 16 10 21 34 34 42 78 61 56 72
REMARK Flexibility Score: inf
ROOT
ATOM      1  C   UNL A   1      37.163  21.292  24.461  1.00  0.00     0.117 C 
ENDROOT
BRANCH   1   2
ATOM      2  N   UNL A   1      36.571  22.007  25.566  1.00  0.00    -0.354 N 
ATOM      3  C   UNL A   1      35.451  22.765  25.606  1.00  0.00     0.242 C 
ATOM      4  O   UNL A   1      35.338  23.514  26.587  1.00  0.00    -0.273 OA
ATOM      5  H   UNL A   1      37.055  21.932  26.420  1.00  0.00     0.163 HD
BRANCH   3   6
ATOM      6  C   UNL A   1      34.311  22.695  24.565  1.00  0.00     0.175 C 
BRANCH   6   7
ATOM      7  N   UNL A   1      34.417  23.611  23.442  1.00  0.00    -0.344 N 
ATOM      8  C   UNL A   1      33.533  24.615  23.151  1.00  0.00     0.221 C 
ATOM      9  O   UNL A   1      33.330  24.914  21.976  1.00  0.00    -0.275 OA
ATOM     10  H   UNL A   1      35.189  23.501  22.842  1.00  0.00     0.164 HD
BRANCH   8  11
ATOM     11  C   UNL A   1      32.946  25.428  24.296  1.00  0.00     0.116 C 
BRANCH  11  12
ATOM     12  C   UNL A   1      31.437  25.287  24.616  1.00  0.00     0.116 C 
ATOM     13  C   UNL A   1      31.079  29.053  24.559  1.00  0.00     0.126 A 
ATOM     14  C   UNL A   1      31.706  30.062  25.311  1.00  0.00     0.050 A 
ATOM     15  C   UNL A   1      31.112  27.725  24.986  1.00  0.00     0.041 A 
ATOM     16  C   UNL A   1      32.385  29.765  26.502  1.00  0.00    -0.044 A 
ATOM     17  C   UNL A   1      31.680  27.482  26.248  1.00  0.00     0.138 A 
ATOM     18  C   UNL A   1      30.596  26.524  24.197  1.00  0.00     0.038 C 
ATOM     19  C   UNL A   1      33.086  30.843  27.273  1.00  0.00     0.044 C 
ATOM     20  C   UNL A   1      32.336  28.463  26.989  1.00  0.00     0.051 A 
ATOM     21  O   UNL A   1      31.592  26.221  26.861  1.00  0.00    -0.426 OA
ATOM     22  C   UNL A   1      30.566  26.638  22.670  1.00  0.00     0.014 C 
ATOM     23  C   UNL A   1      31.110  25.185  26.088  1.00  0.00     0.315 C 
ATOM     24  O   UNL A   1      30.473  24.262  26.584  1.00  0.00    -0.251 OA
BRANCH  13  25
ATOM     25  O   UNL A   1      30.322  29.364  23.463  1.00  0.00    -0.496 OA
ATOM     26  C   UNL A   1      29.469  30.486  23.668  1.00  0.00     0.278 C 
ENDBRANCH  13  25
ENDBRANCH  11  12
ENDBRANCH   8  11
ENDBRANCH   6   7
BRANCH   6  27
ATOM     27  C   UNL A   1      33.555  21.429  24.200  1.00  0.00     0.072 C 
BRANCH  27  28
ATOM     28  C   UNL A   1      33.542  20.098  24.903  1.00  0.00    -0.020 A 
ATOM     29  C   UNL A   1      33.253  20.094  26.262  1.00  0.00     0.087 A 
ATOM     30  C   UNL A   1      33.565  18.709  24.501  1.00  0.00     0.003 A 
ATOM     31  N   UNL A   1      32.814  18.856  26.603  1.00  0.00    -0.361 N 
ATOM     32  C   UNL A   1      33.124  17.968  25.608  1.00  0.00     0.046 A 
ATOM     33  C   UNL A   1      33.851  17.965  23.334  1.00  0.00     0.010 A 
ATOM     34  H   UNL A   1      32.345  18.631  27.438  1.00  0.00     0.166 HD
ATOM     35  C   UNL A   1      32.988  16.574  25.620  1.00  0.00     0.026 A 
ATOM     36  C   UNL A   1      33.765  16.560  23.341  1.00  0.00     0.001 A 
ATOM     37  C   UNL A   1      33.346  15.875  24.473  1.00  0.00     0.002 A 
ENDBRANCH  27  28
ENDBRANCH   6  27
ENDBRANCH   3   6
ENDBRANCH   1   2
BRANCH   1  38
ATOM     38  C   UNL A   1      37.931  20.083  24.966  1.00  0.00     0.042 C 
BRANCH  38  39
ATOM     39  C   UNL A   1      39.105  20.494  25.840  1.00  0.00     0.118 C 
BRANCH  39  40
ATOM     40  N   UNL A   1      40.139  19.465  25.875  1.00  0.00    -0.352 N 
ATOM     41  C   UNL A   1      41.492  19.594  26.084  1.00  0.00     0.251 C 
ATOM     42  H   UNL A   1      39.820  18.545  25.728  1.00  0.00     0.163 HD
ATOM     43  O   UNL A   1      42.251  18.674  25.834  1.00  0.00    -0.269 OA
BRANCH  41  44
ATOM     44  C   UNL A   1      42.008  20.876  26.603  1.00  0.00     0.039 A 
ATOM     45  C   UNL A   1      42.001  21.121  27.977  1.00  0.00     0.014 A 
ATOM     46  C   UNL A   1      42.455  21.851  25.709  1.00  0.00     0.014 A 
ATOM     47  C   UNL A   1      42.241  22.403  28.440  1.00  0.00     0.010 A 
ATOM     48  C   UNL A   1      42.817  23.109  26.195  1.00  0.00     0.010 A 
ATOM     49  C   UNL A   1      42.661  23.409  27.557  1.00  0.00    -0.014 A 
BRANCH  49  50
ATOM     50  C   UNL A   1      42.941  24.764  28.091  1.00  0.00     0.031 A 
ATOM     51  C   UNL A   1      44.351  25.204  28.372  1.00  0.00     0.074 A 
ATOM     52  C   UNL A   1      41.912  25.616  28.267  1.00  0.00     0.049 A 
ATOM     53  N   UNL A   1      44.772  26.354  28.837  1.00  0.00    -0.248 NA
ATOM     54  C   UNL A   1      45.428  24.237  28.104  1.00  0.00     0.031 C 
ATOM     55  C   UNL A   1      40.507  25.302  27.997  1.00  0.00     0.029 A 
ATOM     56  N   UNL A   1      41.886  26.923  28.679  1.00  0.00    -0.354 N 
ATOM     57  C   UNL A   1      46.152  26.237  28.943  1.00  0.00     0.074 A 
ATOM     58  C   UNL A   1      46.499  24.899  28.523  1.00  0.00     0.031 C 
ATOM     59  C   UNL A   1      39.768  26.403  28.182  1.00  0.00     0.029 A 
ATOM     60  C   UNL A   1      40.628  27.473  28.673  1.00  0.00     0.049 A 
ATOM     61  H   UNL A   1      42.692  27.419  28.953  1.00  0.00     0.167 HD
ATOM     62  C   UNL A   1      47.045  27.171  29.348  1.00  0.00     0.031 A 
ATOM     63  C   UNL A   1      40.200  28.694  29.044  1.00  0.00     0.031 A 
ATOM     64  C   UNL A   1      46.685  28.507  29.747  1.00  0.00     0.049 A 
ATOM     65  C   UNL A   1      41.204  29.692  29.541  1.00  0.00     0.074 A 
ATOM     66  C   UNL A   1      47.521  29.535  30.147  1.00  0.00     0.029 A 
ATOM     67  N   UNL A   1      45.390  29.002  29.795  1.00  0.00    -0.354 N 
ATOM     68  N   UNL A   1      42.507  29.568  29.631  1.00  0.00    -0.248 NA
ATOM     69  C   UNL A   1      40.687  30.991  29.988  1.00  0.00     0.031 C 
ATOM     70  C   UNL A   1      46.727  30.624  30.510  1.00  0.00     0.029 A 
ATOM     71  C   UNL A   1      45.402  30.308  30.254  1.00  0.00     0.049 A 
ATOM     72  H   UNL A   1      44.583  28.499  29.541  1.00  0.00     0.167 HD
ATOM     73  C   UNL A   1      42.968  30.776  30.134  1.00  0.00     0.074 A 
ATOM     74  C   UNL A   1      41.807  31.627  30.306  1.00  0.00     0.031 C 
ATOM     75  C   UNL A   1      44.239  31.142  30.429  1.00  0.00     0.031 A 
BRANCH  62  76
ATOM     76  C   UNL A   1      48.501  26.790  29.404  1.00  0.00    -0.014 A 
ATOM     77  C   UNL A   1      49.306  26.962  28.265  1.00  0.00     0.009 A 
ATOM     78  C   UNL A   1      49.055  26.171  30.534  1.00  0.00     0.009 A 
ATOM     79  C   UNL A   1      50.626  26.508  28.250  1.00  0.00     0.001 A 
ATOM     80  C   UNL A   1      50.387  25.747  30.529  1.00  0.00     0.001 A 
ATOM     81  C   UNL A   1      51.166  25.905  29.383  1.00  0.00     0.000 A 
ENDBRANCH  62  76
BRANCH  63  82
ATOM     82  C   UNL A   1      38.750  29.012  28.948  1.00  0.00    -0.014 A 
ATOM     83  C   UNL A   1      38.213  29.528  27.757  1.00  0.00     0.009 A 
ATOM     84  C   UNL A   1      37.918  28.893  30.069  1.00  0.00     0.009 A 
ATOM     85  C   UNL A   1      36.886  29.961  27.703  1.00  0.00     0.001 A 
ATOM     86  C   UNL A   1      36.581  29.292  30.002  1.00  0.00     0.001 A 
ATOM     87  C   UNL A   1      36.070  29.839  28.825  1.00  0.00     0.000 A 
ENDBRANCH  63  82
BRANCH  75  88
ATOM     88  C   UNL A   1      44.464  32.529  30.966  1.00  0.00    -0.014 A 
ATOM     89  C   UNL A   1      44.380  32.762  32.348  1.00  0.00     0.009 A 
ATOM     90  C   UNL A   1      44.638  33.619  30.101  1.00  0.00     0.009 A 
ATOM     91  C   UNL A   1      44.441  34.061  32.852  1.00  0.00     0.001 A 
ATOM     92  C   UNL A   1      44.733  34.915  30.612  1.00  0.00     0.001 A 
ATOM     93  C   UNL A   1      44.621  35.136  31.984  1.00  0.00     0.000 A 
ENDBRANCH  75  88
ENDBRANCH  49  50
ENDBRANCH  41  44
ENDBRANCH  39  40
ENDBRANCH  38  39
ENDBRANCH   1  38
TORSDOF 16
ENDMDL
MODEL 2
REMARK VINA RESULT:     -13.4      0.274      5.471
REMARK SMILES COc1cc(C)cc2c1[C@@H](C)[C@@H](CC(=O)N[C@@H](Cc1c[nH]c3ccccc13)C(=O)NCCCNC(=O)c1ccc(-c3c4nc(c(-c5ccccc5)c5ccc([nH]5)c(-c5ccccc5)c5nc(c(-c6ccccc6)c6ccc3[nH]6)C=C5)C=C4)cc1)C(=O)O2
REMARK SMILES IDX 31 1 30 2 28 3 29 4 17 6 16 7 14 8 15 9 13 11 12 12 3 13
REMARK SMILES IDX 4 14 9 15 5 16 8 17 10 18 6 19 7 20 87 21 11 22 85 23 86 24
REMARK SMILES IDX 2 25 1 26 18 27 19 28 20 29 27 30 21 31 22 32 26 33 23 35
REMARK SMILES IDX 25 36 24 37 32 38 33 39 34 40 35 41 36 43 37 44 38 45 84 46
REMARK SMILES IDX 39 47 83 48 40 49 41 50 42 51 77 52 43 53 82 54 76 55 78 56
REMARK SMILES IDX 44 57 81 58 75 59 74 60 45 62 67 63 52 64 66 65 53 66 56 67
REMARK SMILES IDX 65 68 79 69 54 70 55 71 64 73 80 74 57 75 46 76 47 77 51 78
REMARK SMILES IDX 48 79 50 80 49 81 68 82 69 83 73 84 70 85 72 86 71 87 58 88
REMARK SMILES IDX 59 89 63 90 60 91 62 92 61 93
REMARK H PARENT 30 5 16 10 21 34 34 42 78 61 56 72
REMARK Flexibility Score: inf
ROOT
ATOM      1  C   UNL A   1      37.241  21.299  24.537  1.00  0.00     0.117 C 
ENDROOT
BRANCH   1   2
ATOM      2  N   UNL A   1      36.624  21.967  25.658  1.00  0.00    -0.354 N 
ATOM      3  C   UNL A   1      35.497  22.715  25.706  1.00  0.00     0.242 C 
ATOM      4  O   UNL A   1      35.361  23.424  26.713  1.00  0.00    -0.273 OA
ATOM      5  H   UNL A   1      37.093  21.863  26.517  1.00  0.00     0.163 HD
BRANCH   3   6
ATOM      6  C   UNL A   1      34.376  22.675  24.643  1.00  0.00     0.175 C 
BRANCH   6   7
ATOM      7  N   UNL A   1      34.532  23.585  23.521  1.00  0.00    -0.344 N 
ATOM      8  C   UNL A   1      33.669  24.594  23.191  1.00  0.00     0.221 C 
ATOM      9  O   UNL A   1      33.512  24.889  22.008  1.00  0.00    -0.275 OA
ATOM     10  H   UNL A   1      35.326  23.465  22.950  1.00  0.00     0.164 HD
BRANCH   8  11
ATOM     11  C   UNL A   1      33.047  25.419  24.309  1.00  0.00     0.116 C 
BRANCH  11  12
ATOM     12  C   UNL A   1      31.527  25.285  24.580  1.00  0.00     0.116 C 
ATOM     13  C   UNL A   1      31.196  29.053  24.555  1.00  0.00     0.126 A 
ATOM     14  C   UNL A   1      31.806  30.050  25.338  1.00  0.00     0.050 A 
ATOM     15  C   UNL A   1      31.206  27.721  24.968  1.00  0.00     0.041 A 
ATOM     16  C   UNL A   1      32.445  29.734  26.547  1.00  0.00    -0.044 A 
ATOM     17  C   UNL A   1      31.733  27.460  26.244  1.00  0.00     0.138 A 
ATOM     18  C   UNL A   1      30.708  26.533  24.149  1.00  0.00     0.038 C 
ATOM     19  C   UNL A   1      33.128  30.799  27.352  1.00  0.00     0.044 C 
ATOM     20  C   UNL A   1      32.372  28.428  27.017  1.00  0.00     0.051 A 
ATOM     21  O   UNL A   1      31.617  26.192  26.839  1.00  0.00    -0.426 OA
ATOM     22  C   UNL A   1      30.727  26.664  22.623  1.00  0.00     0.014 C 
ATOM     23  C   UNL A   1      31.153  25.168  26.039  1.00  0.00     0.315 C 
ATOM     24  O   UNL A   1      30.494  24.244  26.504  1.00  0.00    -0.251 OA
BRANCH  13  25
ATOM     25  O   UNL A   1      30.476  29.382  23.439  1.00  0.00    -0.496 OA
ATOM     26  C   UNL A   1      29.461  30.350  23.689  1.00  0.00     0.278 C 
ENDBRANCH  13  25
ENDBRANCH  11  12
ENDBRANCH   8  11
ENDBRANCH   6   7
BRANCH   6  27
ATOM     27  C   UNL A   1      33.591  21.431  24.266  1.00  0.00     0.072 C 
BRANCH  27  28
ATOM     28  C   UNL A   1      33.562  20.088  24.943  1.00  0.00    -0.020 A 
ATOM     29  C   UNL A   1      33.291  20.063  26.306  1.00  0.00     0.087 A 
ATOM     30  C   UNL A   1      33.555  18.707  24.515  1.00  0.00     0.003 A 
ATOM     31  N   UNL A   1      32.834  18.826  26.629  1.00  0.00    -0.361 N 
ATOM     32  C   UNL A   1      33.115  17.952  25.613  1.00  0.00     0.046 A 
ATOM     33  C   UNL A   1      33.813  17.980  23.330  1.00  0.00     0.010 A 
ATOM     34  H   UNL A   1      32.371  18.593  27.465  1.00  0.00     0.166 HD
ATOM     35  C   UNL A   1      32.954  16.561  25.599  1.00  0.00     0.026 A 
ATOM     36  C   UNL A   1      33.701  16.578  23.310  1.00  0.00     0.001 A 
ATOM     37  C   UNL A   1      33.285  15.878  24.434  1.00  0.00     0.002 A 
ENDBRANCH  27  28
ENDBRANCH   6  27
ENDBRANCH   3   6
ENDBRANCH   1   2
BRANCH   1  38
ATOM     38  C   UNL A   1      37.994  20.066  25.008  1.00  0.00     0.042 C 
BRANCH  38  39
ATOM     39  C   UNL A   1      39.121  20.432  25.960  1.00  0.00     0.118 C 
BRANCH  39  40
ATOM     40  N   UNL A   1      40.149  19.397  26.003  1.00  0.00    -0.352 N 
ATOM     41  C   UNL A   1      41.511  19.525  26.143  1.00  0.00     0.251 C 
ATOM     42  H   UNL A   1      39.818  18.473  25.919  1.00  0.00     0.163 HD
ATOM     43  O   UNL A   1      42.252  18.587  25.907  1.00  0.00    -0.269 OA
BRANCH  41  44
ATOM     44  C   UNL A   1      42.057  20.829  26.570  1.00  0.00     0.039 A 
ATOM     45  C   UNL A   1      42.200  21.109  27.930  1.00  0.00     0.014 A 
ATOM     46  C   UNL A   1      42.384  21.787  25.609  1.00  0.00     0.014 A 
ATOM     47  C   UNL A   1      42.466  22.406  28.332  1.00  0.00     0.010 A 
ATOM     48  C   UNL A   1      42.774  23.062  26.021  1.00  0.00     0.010 A 
ATOM     49  C   UNL A   1      42.766  23.396  27.384  1.00  0.00    -0.014 A 
BRANCH  49  50
ATOM     50  C   UNL A   1      43.079  24.768  27.851  1.00  0.00     0.031 A 
ATOM     51  C   UNL A   1      41.979  25.750  28.145  1.00  0.00     0.074 A 
ATOM     52  C   UNL A   1      44.367  25.102  28.064  1.00  0.00     0.049 A 
ATOM     53  N   UNL A   1      42.078  26.987  28.564  1.00  0.00    -0.248 NA
ATOM     54  C   UNL A   1      40.594  25.297  27.942  1.00  0.00     0.031 C 
ATOM     55  C   UNL A   1      45.511  24.215  27.840  1.00  0.00     0.029 A 
ATOM     56  N   UNL A   1      44.930  26.255  28.543  1.00  0.00    -0.354 N 
ATOM     57  C   UNL A   1      40.776  27.465  28.646  1.00  0.00     0.074 A 
ATOM     58  C   UNL A   1      39.904  26.398  28.208  1.00  0.00     0.031 C 
ATOM     59  C   UNL A   1      46.629  24.829  28.247  1.00  0.00     0.029 A 
ATOM     60  C   UNL A   1      46.296  26.184  28.671  1.00  0.00     0.049 A 
ATOM     61  H   UNL A   1      44.407  27.057  28.774  1.00  0.00     0.167 HD
ATOM     62  C   UNL A   1      40.352  28.682  29.058  1.00  0.00     0.031 A 
ATOM     63  C   UNL A   1      47.192  27.109  29.061  1.00  0.00     0.031 A 
ATOM     64  C   UNL A   1      41.232  29.728  29.509  1.00  0.00     0.049 A 
ATOM     65  C   UNL A   1      46.700  28.469  29.462  1.00  0.00     0.074 A 
ATOM     66  C   UNL A   1      40.897  30.989  29.974  1.00  0.00     0.029 A 
ATOM     67  N   UNL A   1      42.616  29.640  29.555  1.00  0.00    -0.354 N 
ATOM     68  N   UNL A   1      45.465  28.903  29.538  1.00  0.00    -0.248 NA
ATOM     69  C   UNL A   1      47.715  29.464  29.825  1.00  0.00     0.031 C 
ATOM     70  C   UNL A   1      42.077  31.687  30.227  1.00  0.00     0.029 A 
ATOM     71  C   UNL A   1      43.149  30.837  30.005  1.00  0.00     0.049 A 
ATOM     72  H   UNL A   1      43.140  28.846  29.305  1.00  0.00     0.167 HD
ATOM     73  C   UNL A   1      45.553  30.219  29.970  1.00  0.00     0.074 A 
ATOM     74  C   UNL A   1      46.961  30.503  30.161  1.00  0.00     0.031 C 
ATOM     75  C   UNL A   1      44.554  31.109  30.184  1.00  0.00     0.031 A 
BRANCH  62  76
ATOM     76  C   UNL A   1      38.875  28.971  29.030  1.00  0.00    -0.014 A 
ATOM     77  C   UNL A   1      38.283  29.442  27.845  1.00  0.00     0.009 A 
ATOM     78  C   UNL A   1      38.086  28.880  30.187  1.00  0.00     0.009 A 
ATOM     79  C   UNL A   1      36.943  29.832  27.824  1.00  0.00     0.001 A 
ATOM     80  C   UNL A   1      36.736  29.240  30.155  1.00  0.00     0.001 A 
ATOM     81  C   UNL A   1      36.169  29.726  28.977  1.00  0.00     0.000 A 
ENDBRANCH  62  76
BRANCH  63  82
ATOM     82  C   UNL A   1      48.636  26.753  29.083  1.00  0.00    -0.014 A 
ATOM     83  C   UNL A   1      49.425  26.908  27.929  1.00  0.00     0.009 A 
ATOM     84  C   UNL A   1      49.209  26.168  30.220  1.00  0.00     0.009 A 
ATOM     85  C   UNL A   1      50.741  26.445  27.900  1.00  0.00     0.001 A 
ATOM     86  C   UNL A   1      50.539  25.738  30.199  1.00  0.00     0.001 A 
ATOM     87  C   UNL A   1      51.299  25.863  29.036  1.00  0.00     0.000 A 
ENDBRANCH  63  82
BRANCH  75  88
ATOM     88  C   UNL A   1      44.930  32.486  30.659  1.00  0.00    -0.014 A 
ATOM     89  C   UNL A   1      44.968  32.760  32.036  1.00  0.00     0.009 A 
ATOM     90  C   UNL A   1      45.126  33.536  29.750  1.00  0.00     0.009 A 
ATOM     91  C   UNL A   1      45.171  34.062  32.493  1.00  0.00     0.001 A 
ATOM     92  C   UNL A   1      45.363  34.832  30.211  1.00  0.00     0.001 A 
ATOM     93  C   UNL A   1      45.373  35.096  31.581  1.00  0.00     0.000 A 
ENDBRANCH  75  88
ENDBRANCH  49  50
ENDBRANCH  41  44
ENDBRANCH  39  40
ENDBRANCH  38  39
ENDBRANCH   1  38
TORSDOF 16
ENDMDL
MODEL 3
REMARK VINA RESULT:     -12.9      4.069     10.025
REMARK SMILES COc1cc(C)cc2c1[C@@H](C)[C@@H](CC(=O)N[C@@H](Cc1c[nH]c3ccccc13)C(=O)NCCCNC(=O)c1ccc(-c3c4nc(c(-c5ccccc5)c5ccc([nH]5)c(-c5ccccc5)c5nc(c(-c6ccccc6)c6ccc3[nH]6)C=C5)C=C4)cc1)C(=O)O2
REMARK SMILES IDX 31 1 30 2 28 3 29 4 17 6 16 7 14 8 15 9 13 11 12 12 3 13
REMARK SMILES IDX 4 14 9 15 5 16 8 17 10 18 6 19 7 20 87 21 11 22 85 23 86 24
REMARK SMILES IDX 2 25 1 26 18 27 19 28 20 29 27 30 21 31 22 32 26 33 23 35
REMARK SMILES IDX 25 36 24 37 32 38 33 39 34 40 35 41 36 43 37 44 38 45 84 46
REMARK SMILES IDX 39 47 83 48 40 49 41 50 42 51 77 52 43 53 82 54 76 55 78 56
REMARK SMILES IDX 44 57 81 58 75 59 74 60 45 62 67 63 52 64 66 65 53 66 56 67
REMARK SMILES IDX 65 68 79 69 54 70 55 71 64 73 80 74 57 75 46 76 47 77 51 78
REMARK SMILES IDX 48 79 50 80 49 81 68 82 69 83 73 84 70 85 72 86 71 87 58 88
REMARK SMILES IDX 59 89 63 90 60 91 62 92 61 93
REMARK H PARENT 30 5 16 10 21 34 34 42 78 61 56 72
REMARK Flexibility Score: inf
ROOT
ATOM      1  C   UNL A   1      31.729  30.573  26.883  1.00  0.00     0.117 C 
ENDROOT
BRANCH   1   2
ATOM      2  N   UNL A   1      33.119  30.236  26.686  1.00  0.00    -0.354 N 
ATOM      3  C   UNL A   1      33.673  29.107  26.189  1.00  0.00     0.242 C 
ATOM      4  O   UNL A   1      34.881  28.951  26.417  1.00  0.00    -0.273 OA
ATOM      5  H   UNL A   1      33.760  30.933  26.955  1.00  0.00     0.163 HD
BRANCH   3   6
ATOM      6  C   UNL A   1      32.921  28.075  25.319  1.00  0.00     0.175 C 
BRANCH   6   7
ATOM      7  N   UNL A   1      32.047  27.159  26.031  1.00  0.00    -0.344 N 
ATOM      8  C   UNL A   1      31.747  25.882  25.640  1.00  0.00     0.221 C 
ATOM      9  O   UNL A   1      30.634  25.422  25.890  1.00  0.00    -0.275 OA
ATOM     10  H   UNL A   1      31.637  27.483  26.866  1.00  0.00     0.164 HD
BRANCH   8  11
ATOM     11  C   UNL A   1      32.851  25.021  25.041  1.00  0.00     0.116 C 
BRANCH  11  12
ATOM     12  C   UNL A   1      32.678  24.480  23.600  1.00  0.00     0.116 C 
ATOM     13  C   UNL A   1      34.499  21.311  24.578  1.00  0.00     0.126 A 
ATOM     14  C   UNL A   1      35.790  21.097  25.093  1.00  0.00     0.050 A 
ATOM     15  C   UNL A   1      34.169  22.524  23.972  1.00  0.00     0.041 A 
ATOM     16  C   UNL A   1      36.776  22.092  25.019  1.00  0.00    -0.044 A 
ATOM     17  C   UNL A   1      35.215  23.445  23.792  1.00  0.00     0.138 A 
ATOM     18  C   UNL A   1      32.775  22.932  23.503  1.00  0.00     0.038 C 
ATOM     19  C   UNL A   1      38.136  21.867  25.609  1.00  0.00     0.044 C 
ATOM     20  C   UNL A   1      36.489  23.263  24.326  1.00  0.00     0.051 A 
ATOM     21  O   UNL A   1      35.042  24.608  23.024  1.00  0.00    -0.426 OA
ATOM     22  C   UNL A   1      31.573  22.293  24.206  1.00  0.00     0.014 C 
ATOM     23  C   UNL A   1      33.755  24.910  22.630  1.00  0.00     0.315 C 
ATOM     24  O   UNL A   1      33.530  25.488  21.573  1.00  0.00    -0.251 OA
BRANCH  13  25
ATOM     25  O   UNL A   1      33.579  20.299  24.550  1.00  0.00    -0.496 OA
ATOM     26  C   UNL A   1      34.169  19.003  24.558  1.00  0.00     0.278 C 
ENDBRANCH  13  25
ENDBRANCH  11  12
ENDBRANCH   8  11
ENDBRANCH   6   7
BRANCH   6  27
ATOM     27  C   UNL A   1      32.447  28.329  23.898  1.00  0.00     0.072 C 
BRANCH  27  28
ATOM     28  C   UNL A   1      31.043  28.503  23.386  1.00  0.00    -0.020 A 
ATOM     29  C   UNL A   1      30.420  27.390  22.833  1.00  0.00     0.087 A 
ATOM     30  C   UNL A   1      30.021  29.522  23.477  1.00  0.00     0.003 A 
ATOM     31  N   UNL A   1      29.077  27.583  22.883  1.00  0.00    -0.361 N 
ATOM     32  C   UNL A   1      28.811  28.903  23.128  1.00  0.00     0.046 A 
ATOM     33  C   UNL A   1      29.933  30.881  23.854  1.00  0.00     0.010 A 
ATOM     34  H   UNL A   1      28.399  26.880  22.761  1.00  0.00     0.166 HD
ATOM     35  C   UNL A   1      27.571  29.553  23.109  1.00  0.00     0.026 A 
ATOM     36  C   UNL A   1      28.704  31.563  23.796  1.00  0.00     0.001 A 
ATOM     37  C   UNL A   1      27.540  30.907  23.421  1.00  0.00     0.002 A 
ENDBRANCH  27  28
ENDBRANCH   6  27
ENDBRANCH   3   6
ENDBRANCH   1   2
BRANCH   1  38
ATOM     38  C   UNL A   1      31.546  32.081  26.869  1.00  0.00     0.042 C 
BRANCH  38  39
ATOM     39  C   UNL A   1      32.788  32.798  27.372  1.00  0.00     0.118 C 
BRANCH  39  40
ATOM     40  N   UNL A   1      32.528  34.209  27.639  1.00  0.00    -0.352 N 
ATOM     41  C   UNL A   1      33.052  35.024  28.615  1.00  0.00     0.251 C 
ATOM     42  H   UNL A   1      31.883  34.638  27.031  1.00  0.00     0.163 HD
ATOM     43  O   UNL A   1      32.546  36.105  28.860  1.00  0.00    -0.269 OA
BRANCH  41  44
ATOM     44  C   UNL A   1      34.230  34.554  29.370  1.00  0.00     0.039 A 
ATOM     45  C   UNL A   1      35.501  34.656  28.803  1.00  0.00     0.014 A 
ATOM     46  C   UNL A   1      34.056  33.971  30.626  1.00  0.00     0.014 A 
ATOM     47  C   UNL A   1      36.563  33.991  29.393  1.00  0.00     0.010 A 
ATOM     48  C   UNL A   1      35.156  33.410  31.277  1.00  0.00     0.010 A 
ATOM     49  C   UNL A   1      36.406  33.369  30.640  1.00  0.00    -0.014 A 
BRANCH  49  50
ATOM     50  C   UNL A   1      37.572  32.694  31.259  1.00  0.00     0.031 A 
ATOM     51  C   UNL A   1      38.095  33.134  32.598  1.00  0.00     0.074 A 
ATOM     52  C   UNL A   1      38.121  31.639  30.626  1.00  0.00     0.049 A 
ATOM     53  N   UNL A   1      39.102  32.651  33.282  1.00  0.00    -0.248 NA
ATOM     54  C   UNL A   1      37.410  34.259  33.256  1.00  0.00     0.031 C 
ATOM     55  C   UNL A   1      37.672  31.108  29.336  1.00  0.00     0.029 A 
ATOM     56  N   UNL A   1      39.146  30.804  30.989  1.00  0.00    -0.354 N 
ATOM     57  C   UNL A   1      39.187  33.428  34.431  1.00  0.00     0.074 A 
ATOM     58  C   UNL A   1      38.152  34.432  34.342  1.00  0.00     0.031 C 
ATOM     59  C   UNL A   1      38.369  30.000  29.051  1.00  0.00     0.029 A 
ATOM     60  C   UNL A   1      39.374  29.795  30.086  1.00  0.00     0.049 A 
ATOM     61  H   UNL A   1      39.668  30.918  31.816  1.00  0.00     0.167 HD
ATOM     62  C   UNL A   1      40.050  33.304  35.466  1.00  0.00     0.031 A 
ATOM     63  C   UNL A   1      40.304  28.822  30.072  1.00  0.00     0.031 A 
ATOM     64  C   UNL A   1      41.065  32.286  35.548  1.00  0.00     0.049 A 
ATOM     65  C   UNL A   1      41.282  28.740  31.206  1.00  0.00     0.074 A 
ATOM     66  C   UNL A   1      41.971  32.060  36.571  1.00  0.00     0.029 A 
ATOM     67  N   UNL A   1      41.310  31.326  34.578  1.00  0.00    -0.354 N 
ATOM     68  N   UNL A   1      41.348  29.479  32.287  1.00  0.00    -0.248 NA
ATOM     69  C   UNL A   1      42.314  27.699  31.121  1.00  0.00     0.031 C 
ATOM     70  C   UNL A   1      42.810  31.015  36.185  1.00  0.00     0.029 A 
ATOM     71  C   UNL A   1      42.377  30.530  34.962  1.00  0.00     0.049 A 
ATOM     72  H   UNL A   1      40.802  31.226  33.742  1.00  0.00     0.167 HD
ATOM     73  C   UNL A   1      42.419  28.987  33.018  1.00  0.00     0.074 A 
ATOM     74  C   UNL A   1      42.959  27.870  32.269  1.00  0.00     0.031 C 
ATOM     75  C   UNL A   1      42.910  29.426  34.203  1.00  0.00     0.031 A 
BRANCH  62  76
ATOM     76  C   UNL A   1      39.959  34.297  36.595  1.00  0.00    -0.014 A 
ATOM     77  C   UNL A   1      39.178  33.994  37.724  1.00  0.00     0.009 A 
ATOM     78  C   UNL A   1      40.553  35.565  36.507  1.00  0.00     0.009 A 
ATOM     79  C   UNL A   1      38.979  34.942  38.728  1.00  0.00     0.001 A 
ATOM     80  C   UNL A   1      40.380  36.502  37.530  1.00  0.00     0.001 A 
ATOM     81  C   UNL A   1      39.584  36.194  38.633  1.00  0.00     0.000 A 
ENDBRANCH  62  76
BRANCH  63  82
ATOM     82  C   UNL A   1      40.328  27.862  28.935  1.00  0.00    -0.014 A 
ATOM     83  C   UNL A   1      41.018  28.178  27.752  1.00  0.00     0.009 A 
ATOM     84  C   UNL A   1      39.587  26.674  28.989  1.00  0.00     0.009 A 
ATOM     85  C   UNL A   1      40.928  27.348  26.633  1.00  0.00     0.001 A 
ATOM     86  C   UNL A   1      39.528  25.827  27.879  1.00  0.00     0.001 A 
ATOM     87  C   UNL A   1      40.186  26.171  26.698  1.00  0.00     0.000 A 
ENDBRANCH  63  82
BRANCH  75  88
ATOM     88  C   UNL A   1      44.092  28.702  34.784  1.00  0.00    -0.014 A 
ATOM     89  C   UNL A   1      45.393  29.090  34.423  1.00  0.00     0.009 A 
ATOM     90  C   UNL A   1      43.921  27.566  35.589  1.00  0.00     0.009 A 
ATOM     91  C   UNL A   1      46.496  28.343  34.835  1.00  0.00     0.001 A 
ATOM     92  C   UNL A   1      45.029  26.839  36.029  1.00  0.00     0.001 A 
ATOM     93  C   UNL A   1      46.313  27.220  35.641  1.00  0.00     0.000 A 
ENDBRANCH  75  88
ENDBRANCH  49  50
ENDBRANCH  41  44
ENDBRANCH  39  40
ENDBRANCH  38  39
ENDBRANCH   1  38
TORSDOF 16
ENDMDL
