MODEL 1
REMARK VINA RESULT:     -11.7      0.000      0.000
REMARK SMILES Cc1cc(C(=O)N[C@H]2C=C[C@H](C(=O)NCCCNC(=O)c3ccc(-c4c5nc(c(-c6ccccc6)c6ccc([nH]6)c(-c6ccccc6)c6nc(c(-c7ccccc7)c7ccc4[nH]7)C=C6)C=C5)cc3)C2)ccc1F
REMARK SMILES IDX 16 1 15 2 14 3 12 4 13 5 11 7 8 8 9 9 69 10 10 11 7 12 5 13
REMARK SMILES IDX 6 14 4 16 1 17 2 18 3 19 72 20 71 21 73 22 70 23 17 24 18 25
REMARK SMILES IDX 19 26 20 28 21 29 22 30 68 31 23 32 67 33 24 34 25 35 26 36
REMARK SMILES IDX 61 37 27 38 66 39 60 40 62 41 28 42 65 43 59 44 58 45 29 47
REMARK SMILES IDX 51 48 36 49 50 50 37 51 40 52 49 53 63 54 38 55 39 56 48 58
REMARK SMILES IDX 64 59 41 60 30 61 31 62 35 63 32 64 34 65 33 66 52 67 53 68
REMARK SMILES IDX 57 69 54 70 56 71 55 72 42 73 43 74 47 75 44 76 46 77 45 78
REMARK H PARENT 14 6 7 15 18 27 62 46 40 57
REMARK Flexibility Score: inf
ROOT
ATOM      1  C   UNL A   1      33.233  27.794  26.770  1.00  0.00     0.042 C 
ENDROOT
BRANCH   1   2
ATOM      2  C   UNL A   1      31.713  27.909  26.781  1.00  0.00     0.117 C 
BRANCH   2   3
ATOM      3  N   UNL A   1      31.085  26.605  26.855  1.00  0.00    -0.356 N 
ATOM      4  C   UNL A   1      30.263  25.919  26.027  1.00  0.00     0.227 C 
ATOM      5  O   UNL A   1      29.799  24.874  26.503  1.00  0.00    -0.274 OA
ATOM      6  H   UNL A   1      31.303  26.115  27.680  1.00  0.00     0.163 HD
BRANCH   4   7
ATOM      7  C   UNL A   1      29.892  26.344  24.588  1.00  0.00     0.103 C 
ATOM      8  C   UNL A   1      31.702  25.408  23.318  1.00  0.00     0.106 C 
ATOM      9  C   UNL A   1      31.679  26.893  23.155  1.00  0.00    -0.006 C 
ATOM     10  C   UNL A   1      30.234  25.153  23.667  1.00  0.00     0.047 C 
ATOM     11  C   UNL A   1      30.679  27.413  23.881  1.00  0.00    -0.016 C 
BRANCH   8  12
ATOM     12  N   UNL A   1      32.170  24.743  22.135  1.00  0.00    -0.346 N 
ATOM     13  C   UNL A   1      33.142  23.780  21.990  1.00  0.00     0.251 C 
ATOM     14  O   UNL A   1      33.372  23.354  20.858  1.00  0.00    -0.269 OA
ATOM     15  H   UNL A   1      31.728  25.019  21.300  1.00  0.00     0.164 HD
BRANCH  13  16
ATOM     16  C   UNL A   1      33.868  23.178  23.147  1.00  0.00     0.040 A 
ATOM     17  C   UNL A   1      36.884  23.701  25.422  1.00  0.00     0.047 C 
ATOM     18  C   UNL A   1      35.653  23.103  24.812  1.00  0.00    -0.015 A 
ATOM     19  C   UNL A   1      35.091  23.644  23.645  1.00  0.00     0.020 A 
ATOM     20  C   UNL A   1      35.035  22.003  25.404  1.00  0.00     0.126 A 
ATOM     21  C   UNL A   1      33.868  21.465  24.876  1.00  0.00     0.040 A 
ATOM     22  F   UNL A   1      35.571  21.447  26.500  1.00  0.00    -0.207 F 
ATOM     23  C   UNL A   1      33.278  22.060  23.757  1.00  0.00     0.017 A 
ENDBRANCH  13  16
ENDBRANCH   8  12
ENDBRANCH   4   7
ENDBRANCH   2   3
ENDBRANCH   1   2
BRANCH   1  24
ATOM     24  C   UNL A   1      33.923  28.909  25.987  1.00  0.00     0.118 C 
BRANCH  24  25
ATOM     25  N   UNL A   1      33.752  30.215  26.611  1.00  0.00    -0.352 N 
ATOM     26  C   UNL A   1      34.471  30.831  27.603  1.00  0.00     0.251 C 
ATOM     27  H   UNL A   1      32.996  30.742  26.262  1.00  0.00     0.163 HD
ATOM     28  O   UNL A   1      34.022  31.842  28.134  1.00  0.00    -0.269 OA
BRANCH  26  29
ATOM     29  C   UNL A   1      35.775  30.290  28.045  1.00  0.00     0.039 A 
ATOM     30  C   UNL A   1      35.867  29.699  29.309  1.00  0.00     0.014 A 
ATOM     31  C   UNL A   1      36.919  30.420  27.254  1.00  0.00     0.014 A 
ATOM     32  C   UNL A   1      37.093  29.202  29.759  1.00  0.00     0.010 A 
ATOM     33  C   UNL A   1      38.120  29.852  27.668  1.00  0.00     0.010 A 
ATOM     34  C   UNL A   1      38.225  29.257  28.933  1.00  0.00    -0.014 A 
BRANCH  34  35
ATOM     35  C   UNL A   1      39.539  28.743  29.390  1.00  0.00     0.031 A 
ATOM     36  C   UNL A   1      40.400  29.577  30.299  1.00  0.00     0.074 A 
ATOM     37  C   UNL A   1      39.992  27.557  28.937  1.00  0.00     0.049 A 
ATOM     38  N   UNL A   1      41.606  29.337  30.748  1.00  0.00    -0.248 NA
ATOM     39  C   UNL A   1      39.843  30.869  30.733  1.00  0.00     0.031 C 
ATOM     40  C   UNL A   1      39.277  26.671  28.016  1.00  0.00     0.029 A 
ATOM     41  N   UNL A   1      41.169  26.900  29.188  1.00  0.00    -0.354 N 
ATOM     42  C   UNL A   1      41.962  30.458  31.487  1.00  0.00     0.074 A 
ATOM     43  C   UNL A   1      40.866  31.396  31.389  1.00  0.00     0.031 C 
ATOM     44  C   UNL A   1      40.022  25.574  27.799  1.00  0.00     0.029 A 
ATOM     45  C   UNL A   1      41.275  25.695  28.538  1.00  0.00     0.049 A 
ATOM     46  H   UNL A   1      41.872  27.258  29.778  1.00  0.00     0.167 HD
ATOM     47  C   UNL A   1      43.092  30.683  32.200  1.00  0.00     0.031 A 
ATOM     48  C   UNL A   1      42.268  24.787  28.539  1.00  0.00     0.031 A 
ATOM     49  C   UNL A   1      44.171  29.741  32.323  1.00  0.00     0.049 A 
ATOM     50  C   UNL A   1      43.495  25.038  29.369  1.00  0.00     0.074 A 
ATOM     51  C   UNL A   1      45.332  29.849  33.070  1.00  0.00     0.029 A 
ATOM     52  N   UNL A   1      44.219  28.513  31.684  1.00  0.00    -0.354 N 
ATOM     53  N   UNL A   1      43.793  26.078  30.109  1.00  0.00    -0.248 NA
ATOM     54  C   UNL A   1      44.514  23.978  29.378  1.00  0.00     0.031 C 
ATOM     55  C   UNL A   1      46.097  28.696  32.857  1.00  0.00     0.029 A 
ATOM     56  C   UNL A   1      45.391  27.854  32.013  1.00  0.00     0.049 A 
ATOM     57  H   UNL A   1      43.521  28.160  31.085  1.00  0.00     0.167 HD
ATOM     58  C   UNL A   1      45.018  25.787  30.695  1.00  0.00     0.074 A 
ATOM     59  C   UNL A   1      45.402  24.470  30.231  1.00  0.00     0.031 C 
ATOM     60  C   UNL A   1      45.756  26.542  31.543  1.00  0.00     0.031 A 
BRANCH  47  61
ATOM     61  C   UNL A   1      43.209  32.012  32.893  1.00  0.00    -0.014 A 
ATOM     62  C   UNL A   1      43.791  33.119  32.255  1.00  0.00     0.009 A 
ATOM     63  C   UNL A   1      42.733  32.160  34.205  1.00  0.00     0.009 A 
ATOM     64  C   UNL A   1      43.940  34.331  32.933  1.00  0.00     0.001 A 
ATOM     65  C   UNL A   1      42.855  33.381  34.871  1.00  0.00     0.001 A 
ATOM     66  C   UNL A   1      43.470  34.461  34.239  1.00  0.00     0.000 A 
ENDBRANCH  47  61
BRANCH  48  67
ATOM     67  C   UNL A   1      42.120  23.535  27.756  1.00  0.00    -0.014 A 
ATOM     68  C   UNL A   1      42.652  23.444  26.461  1.00  0.00     0.009 A 
ATOM     69  C   UNL A   1      41.467  22.421  28.305  1.00  0.00     0.009 A 
ATOM     70  C   UNL A   1      42.517  22.267  25.722  1.00  0.00     0.001 A 
ATOM     71  C   UNL A   1      41.354  21.236  27.573  1.00  0.00     0.001 A 
ATOM     72  C   UNL A   1      41.873  21.163  26.280  1.00  0.00     0.000 A 
ENDBRANCH  48  67
BRANCH  60  73
ATOM     73  C   UNL A   1      47.034  25.944  32.056  1.00  0.00    -0.014 A 
ATOM     74  C   UNL A   1      48.251  26.134  31.384  1.00  0.00     0.009 A 
ATOM     75  C   UNL A   1      47.022  25.206  33.250  1.00  0.00     0.009 A 
ATOM     76  C   UNL A   1      49.426  25.566  31.880  1.00  0.00     0.001 A 
ATOM     77  C   UNL A   1      48.203  24.661  33.757  1.00  0.00     0.001 A 
ATOM     78  C   UNL A   1      49.401  24.834  33.068  1.00  0.00     0.000 A 
ENDBRANCH  60  73
ENDBRANCH  34  35
ENDBRANCH  26  29
ENDBRANCH  24  25
ENDBRANCH   1  24
TORSDOF 12
ENDMDL
MODEL 2
REMARK VINA RESULT:     -11.6      4.855     10.312
REMARK SMILES Cc1cc(C(=O)N[C@H]2C=C[C@H](C(=O)NCCCNC(=O)c3ccc(-c4c5nc(c(-c6ccccc6)c6ccc([nH]6)c(-c6ccccc6)c6nc(c(-c7ccccc7)c7ccc4[nH]7)C=C6)C=C5)cc3)C2)ccc1F
REMARK SMILES IDX 16 1 15 2 14 3 12 4 13 5 11 7 8 8 9 9 69 10 10 11 7 12 5 13
REMARK SMILES IDX 6 14 4 16 1 17 2 18 3 19 72 20 71 21 73 22 70 23 17 24 18 25
REMARK SMILES IDX 19 26 20 28 21 29 22 30 68 31 23 32 67 33 24 34 25 35 26 36
REMARK SMILES IDX 61 37 27 38 66 39 60 40 62 41 28 42 65 43 59 44 58 45 29 47
REMARK SMILES IDX 51 48 36 49 50 50 37 51 40 52 49 53 63 54 38 55 39 56 48 58
REMARK SMILES IDX 64 59 41 60 30 61 31 62 35 63 32 64 34 65 33 66 52 67 53 68
REMARK SMILES IDX 57 69 54 70 56 71 55 72 42 73 43 74 47 75 44 76 46 77 45 78
REMARK H PARENT 14 6 7 15 18 27 62 46 40 57
REMARK Flexibility Score: inf
ROOT
ATOM      1  C   UNL A   1      44.946  19.787  24.516  1.00  0.00     0.042 C 
ENDROOT
BRANCH   1   2
ATOM      2  C   UNL A   1      45.857  20.950  24.887  1.00  0.00     0.117 C 
BRANCH   2   3
ATOM      3  N   UNL A   1      45.242  22.224  24.573  1.00  0.00    -0.356 N 
ATOM      4  C   UNL A   1      45.675  23.505  24.621  1.00  0.00     0.227 C 
ATOM      5  O   UNL A   1      44.801  24.358  24.418  1.00  0.00    -0.274 OA
ATOM      6  H   UNL A   1      44.313  22.140  24.260  1.00  0.00     0.163 HD
BRANCH   4   7
ATOM      7  C   UNL A   1      47.132  23.942  24.896  1.00  0.00     0.103 C 
ATOM      8  C   UNL A   1      46.819  26.130  25.834  1.00  0.00     0.106 C 
ATOM      9  C   UNL A   1      47.628  26.224  24.581  1.00  0.00    -0.006 C 
ATOM     10  C   UNL A   1      47.128  24.690  26.247  1.00  0.00     0.047 C 
ATOM     11  C   UNL A   1      47.784  25.002  24.051  1.00  0.00    -0.016 C 
BRANCH   8  12
ATOM     12  N   UNL A   1      47.192  27.132  26.792  1.00  0.00    -0.346 N 
ATOM     13  C   UNL A   1      46.474  28.198  27.280  1.00  0.00     0.251 C 
ATOM     14  O   UNL A   1      47.014  28.932  28.109  1.00  0.00    -0.269 OA
ATOM     15  H   UNL A   1      48.102  27.040  27.156  1.00  0.00     0.164 HD
BRANCH  13  16
ATOM     16  C   UNL A   1      45.051  28.457  26.909  1.00  0.00     0.040 A 
ATOM     17  C   UNL A   1      42.068  26.899  25.114  1.00  0.00     0.047 C 
ATOM     18  C   UNL A   1      42.917  27.870  25.877  1.00  0.00    -0.015 A 
ATOM     19  C   UNL A   1      44.283  27.626  26.083  1.00  0.00     0.020 A 
ATOM     20  C   UNL A   1      42.356  29.030  26.409  1.00  0.00     0.126 A 
ATOM     21  C   UNL A   1      43.121  29.918  27.157  1.00  0.00     0.040 A 
ATOM     22  F   UNL A   1      41.061  29.303  26.199  1.00  0.00    -0.207 F 
ATOM     23  C   UNL A   1      44.462  29.625  27.418  1.00  0.00     0.017 A 
ENDBRANCH  13  16
ENDBRANCH   8  12
ENDBRANCH   4   7
ENDBRANCH   2   3
ENDBRANCH   1   2
BRANCH   1  24
ATOM     24  C   UNL A   1      44.223  19.174  25.713  1.00  0.00     0.118 C 
BRANCH  24  25
ATOM     25  N   UNL A   1      42.798  18.992  25.469  1.00  0.00    -0.352 N 
ATOM     26  C   UNL A   1      41.718  19.718  25.904  1.00  0.00     0.251 C 
ATOM     27  H   UNL A   1      42.573  18.223  24.896  1.00  0.00     0.163 HD
ATOM     28  O   UNL A   1      40.588  19.261  25.760  1.00  0.00    -0.269 OA
BRANCH  26  29
ATOM     29  C   UNL A   1      41.898  21.037  26.549  1.00  0.00     0.039 A 
ATOM     30  C   UNL A   1      42.111  22.158  25.741  1.00  0.00     0.014 A 
ATOM     31  C   UNL A   1      41.924  21.167  27.939  1.00  0.00     0.014 A 
ATOM     32  C   UNL A   1      42.307  23.412  26.326  1.00  0.00     0.010 A 
ATOM     33  C   UNL A   1      42.038  22.427  28.519  1.00  0.00     0.010 A 
ATOM     34  C   UNL A   1      42.252  23.559  27.720  1.00  0.00    -0.014 A 
BRANCH  34  35
ATOM     35  C   UNL A   1      42.463  24.877  28.366  1.00  0.00     0.031 A 
ATOM     36  C   UNL A   1      43.792  25.206  28.990  1.00  0.00     0.074 A 
ATOM     37  C   UNL A   1      41.445  25.755  28.453  1.00  0.00     0.049 A 
ATOM     38  N   UNL A   1      44.152  26.270  29.663  1.00  0.00    -0.248 NA
ATOM     39  C   UNL A   1      44.848  24.187  28.870  1.00  0.00     0.031 C 
ATOM     40  C   UNL A   1      40.094  25.542  27.931  1.00  0.00     0.029 A 
ATOM     41  N   UNL A   1      41.391  27.002  29.023  1.00  0.00    -0.354 N 
ATOM     42  C   UNL A   1      45.458  26.033  30.072  1.00  0.00     0.074 A 
ATOM     43  C   UNL A   1      45.812  24.709  29.613  1.00  0.00     0.031 C 
ATOM     44  C   UNL A   1      39.351  26.632  28.184  1.00  0.00     0.029 A 
ATOM     45  C   UNL A   1      40.162  27.603  28.911  1.00  0.00     0.049 A 
ATOM     46  H   UNL A   1      42.160  27.424  29.470  1.00  0.00     0.167 HD
ATOM     47  C   UNL A   1      46.296  26.850  30.754  1.00  0.00     0.031 A 
ATOM     48  C   UNL A   1      39.737  28.805  29.343  1.00  0.00     0.031 A 
ATOM     49  C   UNL A   1      45.957  28.178  31.188  1.00  0.00     0.049 A 
ATOM     50  C   UNL A   1      40.695  29.711  30.062  1.00  0.00     0.074 A 
ATOM     51  C   UNL A   1      46.755  29.108  31.832  1.00  0.00     0.029 A 
ATOM     52  N   UNL A   1      44.714  28.767  31.015  1.00  0.00    -0.354 N 
ATOM     53  N   UNL A   1      41.946  29.496  30.391  1.00  0.00    -0.248 NA
ATOM     54  C   UNL A   1      40.187  31.035  30.450  1.00  0.00     0.031 C 
ATOM     55  C   UNL A   1      45.983  30.250  32.077  1.00  0.00     0.029 A 
ATOM     56  C   UNL A   1      44.720  30.045  31.546  1.00  0.00     0.049 A 
ATOM     57  H   UNL A   1      43.942  28.339  30.578  1.00  0.00     0.167 HD
ATOM     58  C   UNL A   1      42.383  30.666  30.999  1.00  0.00     0.074 A 
ATOM     59  C   UNL A   1      41.266  31.590  30.983  1.00  0.00     0.031 C 
ATOM     60  C   UNL A   1      43.601  30.951  31.520  1.00  0.00     0.031 A 
BRANCH  47  61
ATOM     61  C   UNL A   1      47.663  26.311  31.075  1.00  0.00    -0.014 A 
ATOM     62  C   UNL A   1      48.707  26.363  30.137  1.00  0.00     0.009 A 
ATOM     63  C   UNL A   1      47.911  25.742  32.334  1.00  0.00     0.009 A 
ATOM     64  C   UNL A   1      49.954  25.810  30.434  1.00  0.00     0.001 A 
ATOM     65  C   UNL A   1      49.168  25.216  32.638  1.00  0.00     0.001 A 
ATOM     66  C   UNL A   1      50.185  25.239  31.685  1.00  0.00     0.000 A 
ENDBRANCH  47  61
BRANCH  48  67
ATOM     67  C   UNL A   1      38.342  29.233  29.068  1.00  0.00    -0.014 A 
ATOM     68  C   UNL A   1      37.376  29.192  30.084  1.00  0.00     0.009 A 
ATOM     69  C   UNL A   1      37.976  29.704  27.798  1.00  0.00     0.009 A 
ATOM     70  C   UNL A   1      36.065  29.597  29.830  1.00  0.00     0.001 A 
ATOM     71  C   UNL A   1      36.669  30.130  27.552  1.00  0.00     0.001 A 
ATOM     72  C   UNL A   1      35.713  30.070  28.566  1.00  0.00     0.000 A 
ENDBRANCH  48  67
BRANCH  60  73
ATOM     73  C   UNL A   1      43.800  32.330  32.078  1.00  0.00    -0.014 A 
ATOM     74  C   UNL A   1      44.266  33.383  31.275  1.00  0.00     0.009 A 
ATOM     75  C   UNL A   1      43.486  32.585  33.422  1.00  0.00     0.009 A 
ATOM     76  C   UNL A   1      44.444  34.657  31.818  1.00  0.00     0.001 A 
ATOM     77  C   UNL A   1      43.641  33.865  33.955  1.00  0.00     0.001 A 
ATOM     78  C   UNL A   1      44.128  34.897  33.156  1.00  0.00     0.000 A 
ENDBRANCH  60  73
ENDBRANCH  34  35
ENDBRANCH  26  29
ENDBRANCH  24  25
ENDBRANCH   1  24
TORSDOF 12
ENDMDL
MODEL 3
REMARK VINA RESULT:     -11.6      1.451      2.255
REMARK SMILES Cc1cc(C(=O)N[C@H]2C=C[C@H](C(=O)NCCCNC(=O)c3ccc(-c4c5nc(c(-c6ccccc6)c6ccc([nH]6)c(-c6ccccc6)c6nc(c(-c7ccccc7)c7ccc4[nH]7)C=C6)C=C5)cc3)C2)ccc1F
REMARK SMILES IDX 16 1 15 2 14 3 12 4 13 5 11 7 8 8 9 9 69 10 10 11 7 12 5 13
REMARK SMILES IDX 6 14 4 16 1 17 2 18 3 19 72 20 71 21 73 22 70 23 17 24 18 25
REMARK SMILES IDX 19 26 20 28 21 29 22 30 68 31 23 32 67 33 24 34 25 35 26 36
REMARK SMILES IDX 61 37 27 38 66 39 60 40 62 41 28 42 65 43 59 44 58 45 29 47
REMARK SMILES IDX 51 48 36 49 50 50 37 51 40 52 49 53 63 54 38 55 39 56 48 58
REMARK SMILES IDX 64 59 41 60 30 61 31 62 35 63 32 64 34 65 33 66 52 67 53 68
REMARK SMILES IDX 57 69 54 70 56 71 55 72 42 73 43 74 47 75 44 76 46 77 45 78
REMARK H PARENT 14 6 7 15 18 27 62 46 40 57
REMARK Flexibility Score: inf
ROOT
ATOM      1  C   UNL A   1      34.032  28.332  25.864  1.00  0.00     0.042 C 
ENDROOT
BRANCH   1   2
ATOM      2  C   UNL A   1      33.338  29.245  24.861  1.00  0.00     0.117 C 
BRANCH   2   3
ATOM      3  N   UNL A   1      32.927  28.515  23.679  1.00  0.00    -0.356 N 
ATOM      4  C   UNL A   1      31.778  27.899  23.318  1.00  0.00     0.227 C 
ATOM      5  O   UNL A   1      31.847  27.237  22.274  1.00  0.00    -0.274 OA
ATOM      6  H   UNL A   1      33.631  28.454  22.995  1.00  0.00     0.163 HD
BRANCH   4   7
ATOM      7  C   UNL A   1      30.443  27.976  24.095  1.00  0.00     0.103 C 
ATOM      8  C   UNL A   1      30.276  25.760  25.004  1.00  0.00     0.106 C 
ATOM      9  C   UNL A   1      29.113  26.031  24.106  1.00  0.00    -0.006 C 
ATOM     10  C   UNL A   1      30.644  27.190  25.408  1.00  0.00     0.047 C 
ATOM     11  C   UNL A   1      29.221  27.263  23.586  1.00  0.00    -0.016 C 
BRANCH   8  12
ATOM     12  N   UNL A   1      29.926  24.892  26.092  1.00  0.00    -0.346 N 
ATOM     13  C   UNL A   1      30.530  23.735  26.528  1.00  0.00     0.251 C 
ATOM     14  O   UNL A   1      30.040  23.154  27.496  1.00  0.00    -0.269 OA
ATOM     15  H   UNL A   1      29.132  25.166  26.604  1.00  0.00     0.164 HD
BRANCH  13  16
ATOM     16  C   UNL A   1      31.790  23.202  25.930  1.00  0.00     0.040 A 
ATOM     17  C   UNL A   1      35.546  23.838  25.736  1.00  0.00     0.047 C 
ATOM     18  C   UNL A   1      34.198  23.218  25.523  1.00  0.00    -0.015 A 
ATOM     19  C   UNL A   1      33.035  23.840  26.004  1.00  0.00     0.020 A 
ATOM     20  C   UNL A   1      34.079  22.002  24.854  1.00  0.00     0.126 A 
ATOM     21  C   UNL A   1      32.841  21.392  24.688  1.00  0.00     0.040 A 
ATOM     22  F   UNL A   1      35.171  21.405  24.356  1.00  0.00    -0.207 F 
ATOM     23  C   UNL A   1      31.700  21.984  25.236  1.00  0.00     0.017 A 
ENDBRANCH  13  16
ENDBRANCH   8  12
ENDBRANCH   4   7
ENDBRANCH   2   3
ENDBRANCH   1   2
BRANCH   1  24
ATOM     24  C   UNL A   1      33.608  28.580  27.310  1.00  0.00     0.118 C 
BRANCH  24  25
ATOM     25  N   UNL A   1      33.601  29.996  27.653  1.00  0.00    -0.352 N 
ATOM     26  C   UNL A   1      34.551  30.768  28.271  1.00  0.00     0.251 C 
ATOM     27  H   UNL A   1      32.781  30.477  27.398  1.00  0.00     0.163 HD
ATOM     28  O   UNL A   1      34.253  31.893  28.661  1.00  0.00    -0.269 OA
BRANCH  26  29
ATOM     29  C   UNL A   1      35.926  30.263  28.479  1.00  0.00     0.039 A 
ATOM     30  C   UNL A   1      36.249  29.674  29.706  1.00  0.00     0.014 A 
ATOM     31  C   UNL A   1      36.912  30.423  27.503  1.00  0.00     0.014 A 
ATOM     32  C   UNL A   1      37.547  29.210  29.935  1.00  0.00     0.010 A 
ATOM     33  C   UNL A   1      38.181  29.888  27.701  1.00  0.00     0.010 A 
ATOM     34  C   UNL A   1      38.518  29.296  28.927  1.00  0.00    -0.014 A 
BRANCH  34  35
ATOM     35  C   UNL A   1      39.905  28.816  29.147  1.00  0.00     0.031 A 
ATOM     36  C   UNL A   1      40.930  29.733  29.757  1.00  0.00     0.074 A 
ATOM     37  C   UNL A   1      40.263  27.582  28.742  1.00  0.00     0.049 A 
ATOM     38  N   UNL A   1      42.207  29.528  29.963  1.00  0.00    -0.248 NA
ATOM     39  C   UNL A   1      40.466  31.072  30.156  1.00  0.00     0.031 C 
ATOM     40  C   UNL A   1      39.378  26.611  28.096  1.00  0.00     0.029 A 
ATOM     41  N   UNL A   1      41.473  26.941  28.808  1.00  0.00    -0.354 N 
ATOM     42  C   UNL A   1      42.700  30.717  30.483  1.00  0.00     0.074 A 
ATOM     43  C   UNL A   1      41.599  31.654  30.518  1.00  0.00     0.031 C 
ATOM     44  C   UNL A   1      40.071  25.488  27.847  1.00  0.00     0.029 A 
ATOM     45  C   UNL A   1      41.450  25.671  28.285  1.00  0.00     0.049 A 
ATOM     46  H   UNL A   1      42.281  27.351  29.192  1.00  0.00     0.167 HD
ATOM     47  C   UNL A   1      43.953  31.003  30.911  1.00  0.00     0.031 A 
ATOM     48  C   UNL A   1      42.431  24.756  28.175  1.00  0.00     0.031 A 
ATOM     49  C   UNL A   1      45.044  30.066  30.905  1.00  0.00     0.049 A 
ATOM     50  C   UNL A   1      43.803  25.079  28.693  1.00  0.00     0.074 A 
ATOM     51  C   UNL A   1      46.335  30.239  31.372  1.00  0.00     0.029 A 
ATOM     52  N   UNL A   1      44.966  28.775  30.408  1.00  0.00    -0.354 N 
ATOM     53  N   UNL A   1      44.240  26.190  29.235  1.00  0.00    -0.248 NA
ATOM     54  C   UNL A   1      44.811  24.013  28.601  1.00  0.00     0.031 C 
ATOM     55  C   UNL A   1      47.049  29.060  31.129  1.00  0.00     0.029 A 
ATOM     56  C   UNL A   1      46.188  28.141  30.551  1.00  0.00     0.049 A 
ATOM     57  H   UNL A   1      44.161  28.369  30.012  1.00  0.00     0.167 HD
ATOM     58  C   UNL A   1      45.565  25.948  29.576  1.00  0.00     0.074 A 
ATOM     59  C   UNL A   1      45.855  24.582  29.187  1.00  0.00     0.031 C 
ATOM     60  C   UNL A   1      46.459  26.781  30.161  1.00  0.00     0.031 A 
BRANCH  47  61
ATOM     61  C   UNL A   1      44.201  32.398  31.414  1.00  0.00    -0.014 A 
ATOM     62  C   UNL A   1      44.624  33.421  30.550  1.00  0.00     0.009 A 
ATOM     63  C   UNL A   1      44.012  32.695  32.773  1.00  0.00     0.009 A 
ATOM     64  C   UNL A   1      44.901  34.697  31.045  1.00  0.00     0.001 A 
ATOM     65  C   UNL A   1      44.261  33.980  33.260  1.00  0.00     0.001 A 
ATOM     66  C   UNL A   1      44.717  34.976  32.398  1.00  0.00     0.000 A 
ENDBRANCH  47  61
BRANCH  48  67
ATOM     67  C   UNL A   1      42.132  23.427  27.583  1.00  0.00    -0.014 A 
ATOM     68  C   UNL A   1      41.549  22.420  28.364  1.00  0.00     0.009 A 
ATOM     69  C   UNL A   1      42.410  23.168  26.232  1.00  0.00     0.009 A 
ATOM     70  C   UNL A   1      41.264  21.170  27.810  1.00  0.00     0.001 A 
ATOM     71  C   UNL A   1      42.103  21.925  25.674  1.00  0.00     0.001 A 
ATOM     72  C   UNL A   1      41.538  20.926  26.464  1.00  0.00     0.000 A 
ENDBRANCH  48  67
BRANCH  60  73
ATOM     73  C   UNL A   1      47.823  26.225  30.453  1.00  0.00    -0.014 A 
ATOM     74  C   UNL A   1      48.158  25.748  31.730  1.00  0.00     0.009 A 
ATOM     75  C   UNL A   1      48.774  26.148  29.424  1.00  0.00     0.009 A 
ATOM     76  C   UNL A   1      49.434  25.236  31.976  1.00  0.00     0.001 A 
ATOM     77  C   UNL A   1      50.039  25.612  29.668  1.00  0.00     0.001 A 
ATOM     78  C   UNL A   1      50.371  25.165  30.945  1.00  0.00     0.000 A 
ENDBRANCH  60  73
ENDBRANCH  34  35
ENDBRANCH  26  29
ENDBRANCH  24  25
ENDBRANCH   1  24
TORSDOF 12
ENDMDL
