MODEL 1
REMARK VINA RESULT:     -12.2      0.000      0.000
REMARK SMILES C[C@H]1C[N@H+]2CCCC[C@@H]2CN1c1ccc(C(=O)NCCCNC(=O)c2ccc(-c3c4nc(c(-c5ccccc5)c5ccc([nH]5)c(-c5ccccc5)c5nc(c(-c6ccccc6)c6ccc3[nH]6)C=C5)C=C4)cc2)cc1Cl
REMARK SMILES IDX 20 1 19 2 18 3 16 4 17 5 15 7 12 8 13 9 74 10 14 11 73 12
REMARK SMILES IDX 75 13 11 14 1 15 2 16 3 17 4 18 10 19 5 20 9 21 6 23 8 24
REMARK SMILES IDX 7 25 21 26 22 27 23 28 24 30 25 31 26 32 72 33 27 34 71 35
REMARK SMILES IDX 28 36 29 37 30 38 65 39 31 40 70 41 64 42 66 43 32 44 69 45
REMARK SMILES IDX 63 46 62 47 33 49 55 50 40 51 54 52 41 53 44 54 53 55 67 56
REMARK SMILES IDX 42 57 43 58 52 60 68 61 45 62 34 63 35 64 39 65 36 66 38 67
REMARK SMILES IDX 37 68 56 69 57 70 61 71 58 72 60 73 59 74 46 75 47 76 51 77
REMARK SMILES IDX 48 78 50 79 49 80
REMARK H PARENT 18 6 4 22 22 29 66 48 44 59
REMARK Flexibility Score: inf
ROOT
ATOM      1  C   UNL A   1      37.298  19.492  24.981  1.00  0.00     0.042 C 
ENDROOT
BRANCH   1   2
ATOM      2  C   UNL A   1      36.046  20.373  24.976  1.00  0.00     0.118 C 
BRANCH   2   3
ATOM      3  N   UNL A   1      34.827  19.582  24.984  1.00  0.00    -0.352 N 
ATOM      4  C   UNL A   1      33.503  19.927  24.885  1.00  0.00     0.251 C 
ATOM      5  O   UNL A   1      32.680  19.015  24.797  1.00  0.00    -0.269 OA
ATOM      6  H   UNL A   1      34.981  18.614  25.080  1.00  0.00     0.163 HD
BRANCH   4   7
ATOM      7  C   UNL A   1      33.018  21.335  24.855  1.00  0.00     0.041 A 
ATOM      8  C   UNL A   1      32.154  24.042  24.975  1.00  0.00     0.056 A 
ATOM      9  C   UNL A   1      32.120  23.225  26.110  1.00  0.00     0.028 A 
ATOM     10  C   UNL A   1      32.632  23.470  23.780  1.00  0.00     0.065 A 
ATOM     11  C   UNL A   1      32.546  21.890  26.053  1.00  0.00     0.016 A 
ATOM     12  C   UNL A   1      33.083  22.150  23.729  1.00  0.00     0.036 A 
ATOM     13  Cl  UNL A   1      32.747  24.389  22.311  1.00  0.00    -0.082 Cl
BRANCH   8  14
ATOM     14  N   UNL A   1      31.748  25.362  25.028  1.00  0.00    -0.356 N 
ATOM     15  C   UNL A   1      34.007  26.231  25.651  1.00  0.00     0.037 C 
ATOM     16  C   UNL A   1      32.486  26.432  25.722  1.00  0.00     0.134 C 
ATOM     17  C   UNL A   1      32.171  27.818  25.054  1.00  0.00     0.287 C 
ATOM     18  N   UNL A   1      30.762  28.094  24.665  1.00  0.00    -0.329 N 
ATOM     19  C   UNL A   1      30.320  25.628  24.816  1.00  0.00     0.182 C 
ATOM     20  C   UNL A   1      30.725  29.264  23.768  1.00  0.00     0.262 C 
ATOM     21  C   UNL A   1      30.182  26.913  23.973  1.00  0.00     0.203 C 
ATOM     22  H   UNL A   1      30.214  28.285  25.504  1.00  0.00     0.348 HD
ATOM     23  C   UNL A   1      29.303  29.597  23.310  1.00  0.00     0.062 C 
ATOM     24  C   UNL A   1      28.711  27.180  23.630  1.00  0.00     0.067 C 
ATOM     25  C   UNL A   1      28.598  28.387  22.706  1.00  0.00     0.012 C 
ENDBRANCH   8  14
ENDBRANCH   4   7
ENDBRANCH   2   3
ENDBRANCH   1   2
BRANCH   1  26
ATOM     26  C   UNL A   1      38.589  20.242  25.298  1.00  0.00     0.118 C 
BRANCH  26  27
ATOM     27  N   UNL A   1      39.686  19.338  25.601  1.00  0.00    -0.352 N 
ATOM     28  C   UNL A   1      40.955  19.587  26.055  1.00  0.00     0.251 C 
ATOM     29  H   UNL A   1      39.483  18.385  25.456  1.00  0.00     0.163 HD
ATOM     30  O   UNL A   1      41.779  18.676  26.031  1.00  0.00    -0.269 OA
BRANCH  28  31
ATOM     31  C   UNL A   1      41.357  20.917  26.569  1.00  0.00     0.039 A 
ATOM     32  C   UNL A   1      41.150  21.186  27.927  1.00  0.00     0.014 A 
ATOM     33  C   UNL A   1      41.841  21.928  25.733  1.00  0.00     0.014 A 
ATOM     34  C   UNL A   1      41.457  22.445  28.449  1.00  0.00     0.010 A 
ATOM     35  C   UNL A   1      42.206  23.167  26.266  1.00  0.00     0.010 A 
ATOM     36  C   UNL A   1      42.006  23.442  27.627  1.00  0.00    -0.014 A 
BRANCH  36  37
ATOM     37  C   UNL A   1      42.371  24.764  28.195  1.00  0.00     0.031 A 
ATOM     38  C   UNL A   1      43.792  25.076  28.577  1.00  0.00     0.074 A 
ATOM     39  C   UNL A   1      41.409  25.688  28.384  1.00  0.00     0.049 A 
ATOM     40  N   UNL A   1      44.294  26.190  29.050  1.00  0.00    -0.248 NA
ATOM     41  C   UNL A   1      44.776  23.991  28.427  1.00  0.00     0.031 C 
ATOM     42  C   UNL A   1      39.986  25.498  28.096  1.00  0.00     0.029 A 
ATOM     43  N   UNL A   1      41.485  26.976  28.853  1.00  0.00    -0.354 N 
ATOM     44  C   UNL A   1      45.644  25.938  29.263  1.00  0.00     0.074 A 
ATOM     45  C   UNL A   1      45.875  24.554  28.910  1.00  0.00     0.031 C 
ATOM     46  C   UNL A   1      39.330  26.638  28.360  1.00  0.00     0.029 A 
ATOM     47  C   UNL A   1      40.278  27.629  28.859  1.00  0.00     0.049 A 
ATOM     48  H   UNL A   1      42.326  27.391  29.155  1.00  0.00     0.167 HD
ATOM     49  C   UNL A   1      46.609  26.786  29.697  1.00  0.00     0.031 A 
ATOM     50  C   UNL A   1      39.967  28.889  29.216  1.00  0.00     0.031 A 
ATOM     51  C   UNL A   1      46.384  28.165  30.043  1.00  0.00     0.049 A 
ATOM     52  C   UNL A   1      41.057  29.813  29.680  1.00  0.00     0.074 A 
ATOM     53  C   UNL A   1      47.308  29.117  30.441  1.00  0.00     0.029 A 
ATOM     54  N   UNL A   1      45.147  28.790  30.033  1.00  0.00    -0.354 N 
ATOM     55  N   UNL A   1      42.341  29.579  29.807  1.00  0.00    -0.248 NA
ATOM     56  C   UNL A   1      40.654  31.182  30.031  1.00  0.00     0.031 C 
ATOM     57  C   UNL A   1      46.622  30.307  30.712  1.00  0.00     0.029 A 
ATOM     58  C   UNL A   1      45.280  30.109  30.437  1.00  0.00     0.049 A 
ATOM     59  H   UNL A   1      44.299  28.359  29.776  1.00  0.00     0.167 HD
ATOM     60  C   UNL A   1      42.901  30.774  30.237  1.00  0.00     0.074 A 
ATOM     61  C   UNL A   1      41.822  31.736  30.324  1.00  0.00     0.031 C 
ATOM     62  C   UNL A   1      44.195  31.049  30.533  1.00  0.00     0.031 A 
BRANCH  49  63
ATOM     63  C   UNL A   1      48.002  26.237  29.828  1.00  0.00    -0.014 A 
ATOM     64  C   UNL A   1      48.477  25.746  31.055  1.00  0.00     0.009 A 
ATOM     65  C   UNL A   1      48.840  26.177  28.703  1.00  0.00     0.009 A 
ATOM     66  C   UNL A   1      49.774  25.239  31.160  1.00  0.00     0.001 A 
ATOM     67  C   UNL A   1      50.127  25.646  28.806  1.00  0.00     0.001 A 
ATOM     68  C   UNL A   1      50.596  25.186  30.036  1.00  0.00     0.000 A 
ENDBRANCH  49  63
BRANCH  50  69
ATOM     69  C   UNL A   1      38.564  29.362  29.117  1.00  0.00    -0.014 A 
ATOM     70  C   UNL A   1      37.711  29.289  30.229  1.00  0.00     0.009 A 
ATOM     71  C   UNL A   1      38.071  29.889  27.913  1.00  0.00     0.009 A 
ATOM     72  C   UNL A   1      36.384  29.715  30.130  1.00  0.00     0.001 A 
ATOM     73  C   UNL A   1      36.752  30.338  27.826  1.00  0.00     0.001 A 
ATOM     74  C   UNL A   1      35.907  30.243  28.931  1.00  0.00     0.000 A 
ENDBRANCH  50  69
BRANCH  62  75
ATOM     75  C   UNL A   1      44.506  32.454  30.965  1.00  0.00    -0.014 A 
ATOM     76  C   UNL A   1      44.788  33.457  30.025  1.00  0.00     0.009 A 
ATOM     77  C   UNL A   1      44.510  32.778  32.330  1.00  0.00     0.009 A 
ATOM     78  C   UNL A   1      45.108  34.749  30.447  1.00  0.00     0.001 A 
ATOM     79  C   UNL A   1      44.805  34.077  32.748  1.00  0.00     0.001 A 
ATOM     80  C   UNL A   1      45.115  35.058  31.807  1.00  0.00     0.000 A 
ENDBRANCH  62  75
ENDBRANCH  36  37
ENDBRANCH  28  31
ENDBRANCH  26  27
ENDBRANCH   1  26
TORSDOF 11
ENDMDL
MODEL 2
REMARK VINA RESULT:     -12.2      0.350      5.880
REMARK SMILES C[C@H]1C[N@H+]2CCCC[C@@H]2CN1c1ccc(C(=O)NCCCNC(=O)c2ccc(-c3c4nc(c(-c5ccccc5)c5ccc([nH]5)c(-c5ccccc5)c5nc(c(-c6ccccc6)c6ccc3[nH]6)C=C5)C=C4)cc2)cc1Cl
REMARK SMILES IDX 20 1 19 2 18 3 16 4 17 5 15 7 12 8 13 9 74 10 14 11 73 12
REMARK SMILES IDX 75 13 11 14 1 15 2 16 3 17 4 18 10 19 5 20 9 21 6 23 8 24
REMARK SMILES IDX 7 25 21 26 22 27 23 28 24 30 25 31 26 32 72 33 27 34 71 35
REMARK SMILES IDX 28 36 29 37 30 38 65 39 31 40 70 41 64 42 66 43 32 44 69 45
REMARK SMILES IDX 63 46 62 47 33 49 55 50 40 51 54 52 41 53 44 54 53 55 67 56
REMARK SMILES IDX 42 57 43 58 52 60 68 61 45 62 34 63 35 64 39 65 36 66 38 67
REMARK SMILES IDX 37 68 56 69 57 70 61 71 58 72 60 73 59 74 46 75 47 76 51 77
REMARK SMILES IDX 48 78 50 79 49 80
REMARK H PARENT 18 6 4 22 22 29 66 48 44 59
REMARK Flexibility Score: inf
ROOT
ATOM      1  C   UNL A   1      37.353  19.495  24.977  1.00  0.00     0.042 C 
ENDROOT
BRANCH   1   2
ATOM      2  C   UNL A   1      36.102  20.378  24.982  1.00  0.00     0.118 C 
BRANCH   2   3
ATOM      3  N   UNL A   1      34.882  19.587  24.962  1.00  0.00    -0.352 N 
ATOM      4  C   UNL A   1      33.560  19.934  24.847  1.00  0.00     0.251 C 
ATOM      5  O   UNL A   1      32.738  19.023  24.736  1.00  0.00    -0.269 OA
ATOM      6  H   UNL A   1      35.034  18.618  25.049  1.00  0.00     0.163 HD
BRANCH   4   7
ATOM      7  C   UNL A   1      33.076  21.342  24.826  1.00  0.00     0.041 A 
ATOM      8  C   UNL A   1      32.213  24.049  24.963  1.00  0.00     0.056 A 
ATOM      9  C   UNL A   1      32.175  23.224  26.092  1.00  0.00     0.028 A 
ATOM     10  C   UNL A   1      32.695  23.486  23.765  1.00  0.00     0.065 A 
ATOM     11  C   UNL A   1      32.600  21.889  26.026  1.00  0.00     0.016 A 
ATOM     12  C   UNL A   1      33.145  22.165  23.706  1.00  0.00     0.036 A 
ATOM     13  Cl  UNL A   1      32.815  24.415  22.304  1.00  0.00    -0.082 Cl
BRANCH   8  14
ATOM     14  N   UNL A   1      31.808  25.368  25.024  1.00  0.00    -0.356 N 
ATOM     15  C   UNL A   1      34.062  26.230  25.675  1.00  0.00     0.037 C 
ATOM     16  C   UNL A   1      32.541  26.432  25.734  1.00  0.00     0.134 C 
ATOM     17  C   UNL A   1      32.233  27.824  25.076  1.00  0.00     0.287 C 
ATOM     18  N   UNL A   1      30.828  28.105  24.678  1.00  0.00    -0.329 N 
ATOM     19  C   UNL A   1      30.382  25.638  24.802  1.00  0.00     0.182 C 
ATOM     20  C   UNL A   1      30.799  29.283  23.791  1.00  0.00     0.262 C 
ATOM     21  C   UNL A   1      30.252  26.931  23.970  1.00  0.00     0.203 C 
ATOM     22  H   UNL A   1      30.273  28.289  25.514  1.00  0.00     0.348 HD
ATOM     23  C   UNL A   1      29.382  29.621  23.324  1.00  0.00     0.062 C 
ATOM     24  C   UNL A   1      28.784  27.202  23.617  1.00  0.00     0.067 C 
ATOM     25  C   UNL A   1      28.680  28.418  22.703  1.00  0.00     0.012 C 
ENDBRANCH   8  14
ENDBRANCH   4   7
ENDBRANCH   2   3
ENDBRANCH   1   2
BRANCH   1  26
ATOM     26  C   UNL A   1      38.639  20.235  25.337  1.00  0.00     0.118 C 
BRANCH  26  27
ATOM     27  N   UNL A   1      39.731  19.321  25.630  1.00  0.00    -0.352 N 
ATOM     28  C   UNL A   1      41.011  19.559  26.057  1.00  0.00     0.251 C 
ATOM     29  H   UNL A   1      39.514  18.369  25.500  1.00  0.00     0.163 HD
ATOM     30  O   UNL A   1      41.824  18.639  26.028  1.00  0.00    -0.269 OA
BRANCH  28  31
ATOM     31  C   UNL A   1      41.439  20.891  26.546  1.00  0.00     0.039 A 
ATOM     32  C   UNL A   1      41.232  21.191  27.898  1.00  0.00     0.014 A 
ATOM     33  C   UNL A   1      41.949  21.875  25.693  1.00  0.00     0.014 A 
ATOM     34  C   UNL A   1      41.563  22.454  28.396  1.00  0.00     0.010 A 
ATOM     35  C   UNL A   1      42.337  23.116  26.203  1.00  0.00     0.010 A 
ATOM     36  C   UNL A   1      42.137  23.422  27.557  1.00  0.00    -0.014 A 
BRANCH  36  37
ATOM     37  C   UNL A   1      42.527  24.747  28.101  1.00  0.00     0.031 A 
ATOM     38  C   UNL A   1      41.503  25.827  28.318  1.00  0.00     0.074 A 
ATOM     39  C   UNL A   1      43.822  24.985  28.388  1.00  0.00     0.049 A 
ATOM     40  N   UNL A   1      41.661  27.027  28.821  1.00  0.00    -0.248 NA
ATOM     41  C   UNL A   1      40.123  25.530  27.901  1.00  0.00     0.031 C 
ATOM     42  C   UNL A   1      44.921  24.040  28.183  1.00  0.00     0.029 A 
ATOM     43  N   UNL A   1      44.430  26.093  28.923  1.00  0.00    -0.354 N 
ATOM     44  C   UNL A   1      40.411  27.629  28.770  1.00  0.00     0.074 A 
ATOM     45  C   UNL A   1      39.512  26.679  28.149  1.00  0.00     0.031 C 
ATOM     46  C   UNL A   1      46.062  24.594  28.621  1.00  0.00     0.029 A 
ATOM     47  C   UNL A   1      45.781  25.939  29.111  1.00  0.00     0.049 A 
ATOM     48  H   UNL A   1      43.944  26.919  29.149  1.00  0.00     0.167 HD
ATOM     49  C   UNL A   1      40.038  28.854  29.215  1.00  0.00     0.031 A 
ATOM     50  C   UNL A   1      46.693  26.782  29.631  1.00  0.00     0.031 A 
ATOM     51  C   UNL A   1      40.927  29.797  29.839  1.00  0.00     0.049 A 
ATOM     52  C   UNL A   1      46.252  28.128  30.130  1.00  0.00     0.074 A 
ATOM     53  C   UNL A   1      40.632  31.041  30.371  1.00  0.00     0.029 A 
ATOM     54  N   UNL A   1      42.288  29.603  30.014  1.00  0.00    -0.354 N 
ATOM     55  N   UNL A   1      45.051  28.653  30.140  1.00  0.00    -0.248 NA
ATOM     56  C   UNL A   1      47.293  28.989  30.708  1.00  0.00     0.031 C 
ATOM     57  C   UNL A   1      41.823  31.616  30.830  1.00  0.00     0.029 A 
ATOM     58  C   UNL A   1      42.850  30.710  30.628  1.00  0.00     0.049 A 
ATOM     59  H   UNL A   1      42.782  28.795  29.743  1.00  0.00     0.167 HD
ATOM     60  C   UNL A   1      45.188  29.898  30.738  1.00  0.00     0.074 A 
ATOM     61  C   UNL A   1      46.584  30.038  31.099  1.00  0.00     0.031 C 
ATOM     62  C   UNL A   1      44.242  30.841  30.968  1.00  0.00     0.031 A 
BRANCH  49  63
ATOM     63  C   UNL A   1      38.597  29.245  29.034  1.00  0.00    -0.014 A 
ATOM     64  C   UNL A   1      37.685  29.169  30.099  1.00  0.00     0.009 A 
ATOM     65  C   UNL A   1      38.153  29.727  27.793  1.00  0.00     0.009 A 
ATOM     66  C   UNL A   1      36.350  29.535  29.913  1.00  0.00     0.001 A 
ATOM     67  C   UNL A   1      36.824  30.117  27.618  1.00  0.00     0.001 A 
ATOM     68  C   UNL A   1      35.921  30.012  28.675  1.00  0.00     0.000 A 
ENDBRANCH  49  63
BRANCH  50  69
ATOM     69  C   UNL A   1      48.113  26.362  29.735  1.00  0.00    -0.014 A 
ATOM     70  C   UNL A   1      48.581  25.725  30.894  1.00  0.00     0.009 A 
ATOM     71  C   UNL A   1      49.006  26.595  28.678  1.00  0.00     0.009 A 
ATOM     72  C   UNL A   1      49.923  25.349  31.001  1.00  0.00     0.001 A 
ATOM     73  C   UNL A   1      50.339  26.194  28.777  1.00  0.00     0.001 A 
ATOM     74  C   UNL A   1      50.799  25.579  29.942  1.00  0.00     0.000 A 
ENDBRANCH  50  69
BRANCH  62  75
ATOM     75  C   UNL A   1      44.693  32.099  31.654  1.00  0.00    -0.014 A 
ATOM     76  C   UNL A   1      45.134  33.209  30.918  1.00  0.00     0.009 A 
ATOM     77  C   UNL A   1      44.669  32.175  33.055  1.00  0.00     0.009 A 
ATOM     78  C   UNL A   1      45.582  34.358  31.575  1.00  0.00     0.001 A 
ATOM     79  C   UNL A   1      45.091  33.334  33.708  1.00  0.00     0.001 A 
ATOM     80  C   UNL A   1      45.558  34.419  32.968  1.00  0.00     0.000 A 
ENDBRANCH  62  75
ENDBRANCH  36  37
ENDBRANCH  28  31
ENDBRANCH  26  27
ENDBRANCH   1  26
TORSDOF 11
ENDMDL
MODEL 3
REMARK VINA RESULT:     -12.1      3.588      9.034
REMARK SMILES C[C@H]1C[N@H+]2CCCC[C@@H]2CN1c1ccc(C(=O)NCCCNC(=O)c2ccc(-c3c4nc(c(-c5ccccc5)c5ccc([nH]5)c(-c5ccccc5)c5nc(c(-c6ccccc6)c6ccc3[nH]6)C=C5)C=C4)cc2)cc1Cl
REMARK SMILES IDX 20 1 19 2 18 3 16 4 17 5 15 7 12 8 13 9 74 10 14 11 73 12
REMARK SMILES IDX 75 13 11 14 1 15 2 16 3 17 4 18 10 19 5 20 9 21 6 23 8 24
REMARK SMILES IDX 7 25 21 26 22 27 23 28 24 30 25 31 26 32 72 33 27 34 71 35
REMARK SMILES IDX 28 36 29 37 30 38 65 39 31 40 70 41 64 42 66 43 32 44 69 45
REMARK SMILES IDX 63 46 62 47 33 49 55 50 40 51 54 52 41 53 44 54 53 55 67 56
REMARK SMILES IDX 42 57 43 58 52 60 68 61 45 62 34 63 35 64 39 65 36 66 38 67
REMARK SMILES IDX 37 68 56 69 57 70 61 71 58 72 60 73 59 74 46 75 47 76 51 77
REMARK SMILES IDX 48 78 50 79 49 80
REMARK H PARENT 18 6 4 22 22 29 66 48 44 59
REMARK Flexibility Score: inf
ROOT
ATOM      1  C   UNL A   1      31.481  32.151  26.834  1.00  0.00     0.042 C 
ENDROOT
BRANCH   1   2
ATOM      2  C   UNL A   1      31.753  30.765  26.243  1.00  0.00     0.118 C 
BRANCH   2   3
ATOM      3  N   UNL A   1      30.978  30.530  25.036  1.00  0.00    -0.352 N 
ATOM      4  C   UNL A   1      30.762  29.404  24.284  1.00  0.00     0.251 C 
ATOM      5  O   UNL A   1      29.946  29.479  23.365  1.00  0.00    -0.269 OA
ATOM      6  H   UNL A   1      30.522  31.333  24.693  1.00  0.00     0.163 HD
BRANCH   4   7
ATOM      7  C   UNL A   1      31.442  28.102  24.534  1.00  0.00     0.041 A 
ATOM      8  C   UNL A   1      32.601  25.574  25.128  1.00  0.00     0.056 A 
ATOM      9  C   UNL A   1      31.880  26.280  26.097  1.00  0.00     0.028 A 
ATOM     10  C   UNL A   1      32.726  26.164  23.855  1.00  0.00     0.065 A 
ATOM     11  C   UNL A   1      31.308  27.527  25.805  1.00  0.00     0.016 A 
ATOM     12  C   UNL A   1      32.133  27.393  23.556  1.00  0.00     0.036 A 
ATOM     13  Cl  UNL A   1      33.575  25.375  22.563  1.00  0.00    -0.082 Cl
BRANCH   8  14
ATOM     14  N   UNL A   1      33.157  24.340  25.405  1.00  0.00    -0.356 N 
ATOM     15  C   UNL A   1      31.028  23.084  25.028  1.00  0.00     0.037 C 
ATOM     16  C   UNL A   1      32.379  23.137  25.756  1.00  0.00     0.134 C 
ATOM     17  C   UNL A   1      33.176  21.848  25.347  1.00  0.00     0.287 C 
ATOM     18  N   UNL A   1      34.638  21.824  25.615  1.00  0.00    -0.329 N 
ATOM     19  C   UNL A   1      34.558  24.323  25.840  1.00  0.00     0.182 C 
ATOM     20  C   UNL A   1      35.252  20.708  24.870  1.00  0.00     0.262 C 
ATOM     21  C   UNL A   1      35.257  23.108  25.193  1.00  0.00     0.203 C 
ATOM     22  H   UNL A   1      34.794  21.697  26.615  1.00  0.00     0.348 HD
ATOM     23  C   UNL A   1      36.766  20.633  25.084  1.00  0.00     0.062 C 
ATOM     24  C   UNL A   1      36.754  23.103  25.529  1.00  0.00     0.067 C 
ATOM     25  C   UNL A   1      37.452  21.964  24.795  1.00  0.00     0.012 C 
ENDBRANCH   8  14
ENDBRANCH   4   7
ENDBRANCH   2   3
ENDBRANCH   1   2
BRANCH   1  26
ATOM     26  C   UNL A   1      32.723  33.030  26.961  1.00  0.00     0.118 C 
BRANCH  26  27
ATOM     27  N   UNL A   1      32.511  34.148  27.866  1.00  0.00    -0.352 N 
ATOM     28  C   UNL A   1      33.172  34.516  29.008  1.00  0.00     0.251 C 
ATOM     29  H   UNL A   1      31.766  34.741  27.616  1.00  0.00     0.163 HD
ATOM     30  O   UNL A   1      32.674  35.378  29.727  1.00  0.00    -0.269 OA
BRANCH  28  31
ATOM     31  C   UNL A   1      34.464  33.901  29.399  1.00  0.00     0.039 A 
ATOM     32  C   UNL A   1      35.595  34.212  28.636  1.00  0.00     0.014 A 
ATOM     33  C   UNL A   1      34.565  32.963  30.431  1.00  0.00     0.014 A 
ATOM     34  C   UNL A   1      36.824  33.614  28.926  1.00  0.00     0.010 A 
ATOM     35  C   UNL A   1      35.806  32.412  30.760  1.00  0.00     0.010 A 
ATOM     36  C   UNL A   1      36.945  32.722  30.003  1.00  0.00    -0.014 A 
BRANCH  36  37
ATOM     37  C   UNL A   1      38.262  32.123  30.334  1.00  0.00     0.031 A 
ATOM     38  C   UNL A   1      39.200  32.799  31.296  1.00  0.00     0.074 A 
ATOM     39  C   UNL A   1      38.624  30.964  29.750  1.00  0.00     0.049 A 
ATOM     40  N   UNL A   1      40.370  32.398  31.728  1.00  0.00    -0.248 NA
ATOM     41  C   UNL A   1      38.780  34.105  31.829  1.00  0.00     0.031 C 
ATOM     42  C   UNL A   1      37.826  30.228  28.767  1.00  0.00     0.029 A 
ATOM     43  N   UNL A   1      39.751  30.197  29.907  1.00  0.00    -0.354 N 
ATOM     44  C   UNL A   1      40.829  33.402  32.571  1.00  0.00     0.074 A 
ATOM     45  C   UNL A   1      39.832  34.452  32.557  1.00  0.00     0.031 C 
ATOM     46  C   UNL A   1      38.472  29.099  28.437  1.00  0.00     0.029 A 
ATOM     47  C   UNL A   1      39.737  29.044  29.161  1.00  0.00     0.049 A 
ATOM     48  H   UNL A   1      40.498  30.450  30.497  1.00  0.00     0.167 HD
ATOM     49  C   UNL A   1      41.968  33.442  33.305  1.00  0.00     0.031 A 
ATOM     50  C   UNL A   1      40.637  28.047  29.076  1.00  0.00     0.031 A 
ATOM     51  C   UNL A   1      42.958  32.397  33.327  1.00  0.00     0.049 A 
ATOM     52  C   UNL A   1      41.885  28.108  29.911  1.00  0.00     0.074 A 
ATOM     53  C   UNL A   1      44.119  32.323  34.079  1.00  0.00     0.029 A 
ATOM     54  N   UNL A   1      42.907  31.245  32.560  1.00  0.00    -0.354 N 
ATOM     55  N   UNL A   1      42.268  29.032  30.757  1.00  0.00    -0.248 NA
ATOM     56  C   UNL A   1      42.814  26.975  29.789  1.00  0.00     0.031 C 
ATOM     57  C   UNL A   1      44.789  31.143  33.735  1.00  0.00     0.029 A 
ATOM     58  C   UNL A   1      44.023  30.462  32.805  1.00  0.00     0.049 A 
ATOM     59  H   UNL A   1      42.182  31.016  31.933  1.00  0.00     0.167 HD
ATOM     60  C   UNL A   1      43.474  28.586  31.282  1.00  0.00     0.074 A 
ATOM     61  C   UNL A   1      43.744  27.299  30.677  1.00  0.00     0.031 C 
ATOM     62  C   UNL A   1      44.285  29.190  32.185  1.00  0.00     0.031 A 
BRANCH  49  63
ATOM     63  C   UNL A   1      42.206  34.667  34.144  1.00  0.00    -0.014 A 
ATOM     64  C   UNL A   1      42.834  35.803  33.609  1.00  0.00     0.009 A 
ATOM     65  C   UNL A   1      41.766  34.699  35.477  1.00  0.00     0.009 A 
ATOM     66  C   UNL A   1      43.048  36.932  34.402  1.00  0.00     0.001 A 
ATOM     67  C   UNL A   1      41.958  35.839  36.259  1.00  0.00     0.001 A 
ATOM     68  C   UNL A   1      42.608  36.952  35.724  1.00  0.00     0.000 A 
ENDBRANCH  49  63
BRANCH  50  69
ATOM     69  C   UNL A   1      40.375  26.886  28.189  1.00  0.00    -0.014 A 
ATOM     70  C   UNL A   1      39.597  25.810  28.641  1.00  0.00     0.009 A 
ATOM     71  C   UNL A   1      40.898  26.850  26.887  1.00  0.00     0.009 A 
ATOM     72  C   UNL A   1      39.367  24.708  27.813  1.00  0.00     0.001 A 
ATOM     73  C   UNL A   1      40.644  25.759  26.054  1.00  0.00     0.001 A 
ATOM     74  C   UNL A   1      39.886  24.686  26.520  1.00  0.00     0.000 A 
ENDBRANCH  50  69
BRANCH  62  75
ATOM     75  C   UNL A   1      45.532  28.450  32.576  1.00  0.00    -0.014 A 
ATOM     76  C   UNL A   1      45.532  27.543  33.647  1.00  0.00     0.009 A 
ATOM     77  C   UNL A   1      46.719  28.658  31.858  1.00  0.00     0.009 A 
ATOM     78  C   UNL A   1      46.710  26.890  34.018  1.00  0.00     0.001 A 
ATOM     79  C   UNL A   1      47.889  27.983  32.215  1.00  0.00     0.001 A 
ATOM     80  C   UNL A   1      47.885  27.110  33.301  1.00  0.00     0.000 A 
ENDBRANCH  62  75
ENDBRANCH  36  37
ENDBRANCH  28  31
ENDBRANCH  26  27
ENDBRANCH   1  26
TORSDOF 11
ENDMDL
