MODEL 1
REMARK VINA RESULT:     -11.6      0.000      0.000
REMARK SMILES O=C(NCCCNC(=O)c1ccc(F)cc1NC(=O)[C@H]1CCS(=O)(=O)C1)c1ccc(-c2c3nc(c(-c4ccccc4)c4ccc([nH]4)c(-c4ccccc4)c4nc(c(-c5ccccc5)c5ccc2[nH]5)C=C4)C=C3)cc1
REMARK SMILES IDX 5 1 4 2 3 3 1 4 2 5 27 7 28 8 74 9 29 10 73 11 30 12 31 13
REMARK SMILES IDX 32 14 67 15 33 16 72 17 66 18 68 19 34 20 71 21 65 22 64 23
REMARK SMILES IDX 35 25 57 26 42 27 56 28 43 29 46 30 55 31 69 32 44 33 45 34
REMARK SMILES IDX 54 36 70 37 47 38 36 39 37 40 41 41 38 42 40 43 39 44 58 45
REMARK SMILES IDX 59 46 63 47 60 48 62 49 61 50 48 51 49 52 53 53 50 54 52 55
REMARK SMILES IDX 51 56 6 57 7 58 8 59 9 61 10 62 11 63 16 64 12 65 15 66
REMARK SMILES IDX 13 67 14 68 17 69 18 70 19 72 20 73 21 74 26 75 22 76 23 77
REMARK SMILES IDX 24 78 25 79
REMARK H PARENT 3 6 68 24 46 35 7 60 17 71
REMARK Flexibility Score: inf
ROOT
ATOM      1  C   UNL A   1      37.291  19.846  25.026  1.00  0.00     0.042 C 
ENDROOT
BRANCH   1   2
ATOM      2  C   UNL A   1      38.605  20.437  25.498  1.00  0.00     0.118 C 
BRANCH   2   3
ATOM      3  N   UNL A   1      39.654  19.436  25.658  1.00  0.00    -0.352 N 
ATOM      4  O   UNL A   1      41.751  18.653  25.953  1.00  0.00    -0.269 OA
ATOM      5  C   UNL A   1      40.962  19.586  26.056  1.00  0.00     0.251 C 
ATOM      6  H   UNL A   1      39.385  18.513  25.447  1.00  0.00     0.163 HD
BRANCH   5   7
ATOM      7  C   UNL A   1      41.416  20.888  26.585  1.00  0.00     0.039 A 
ATOM      8  C   UNL A   1      41.285  21.174  27.943  1.00  0.00     0.014 A 
ATOM      9  C   UNL A   1      41.960  21.837  25.717  1.00  0.00     0.014 A 
ATOM     10  C   UNL A   1      41.492  22.466  28.397  1.00  0.00     0.010 A 
ATOM     11  C   UNL A   1      42.308  23.099  26.208  1.00  0.00     0.010 A 
ATOM     12  C   UNL A   1      42.044  23.433  27.544  1.00  0.00    -0.014 A 
BRANCH  12  13
ATOM     13  C   UNL A   1      42.420  24.748  28.114  1.00  0.00     0.031 A 
ATOM     14  C   UNL A   1      43.835  25.060  28.508  1.00  0.00     0.074 A 
ATOM     15  C   UNL A   1      41.455  25.679  28.251  1.00  0.00     0.049 A 
ATOM     16  N   UNL A   1      44.320  26.166  29.014  1.00  0.00    -0.248 NA
ATOM     17  C   UNL A   1      44.834  23.996  28.322  1.00  0.00     0.031 C 
ATOM     18  C   UNL A   1      40.042  25.487  27.902  1.00  0.00     0.029 A 
ATOM     19  N   UNL A   1      41.511  26.974  28.693  1.00  0.00    -0.354 N 
ATOM     20  C   UNL A   1      45.671  25.926  29.230  1.00  0.00     0.074 A 
ATOM     21  C   UNL A   1      45.925  24.560  28.824  1.00  0.00     0.031 C 
ATOM     22  C   UNL A   1      39.380  26.635  28.093  1.00  0.00     0.029 A 
ATOM     23  C   UNL A   1      40.296  27.614  28.660  1.00  0.00     0.049 A 
ATOM     24  H   UNL A   1      42.340  27.403  29.004  1.00  0.00     0.167 HD
ATOM     25  C   UNL A   1      46.609  26.770  29.724  1.00  0.00     0.031 A 
ATOM     26  C   UNL A   1      39.942  28.843  29.072  1.00  0.00     0.031 A 
ATOM     27  C   UNL A   1      46.340  28.124  30.135  1.00  0.00     0.049 A 
ATOM     28  C   UNL A   1      40.992  29.735  29.660  1.00  0.00     0.074 A 
ATOM     29  C   UNL A   1      47.229  29.071  30.617  1.00  0.00     0.029 A 
ATOM     30  N   UNL A   1      45.089  28.722  30.127  1.00  0.00    -0.354 N 
ATOM     31  N   UNL A   1      42.272  29.506  29.820  1.00  0.00    -0.248 NA
ATOM     32  C   UNL A   1      40.548  31.055  30.122  1.00  0.00     0.031 C 
ATOM     33  C   UNL A   1      46.504  30.215  30.964  1.00  0.00     0.029 A 
ATOM     34  C   UNL A   1      45.175  30.010  30.629  1.00  0.00     0.049 A 
ATOM     35  H   UNL A   1      44.260  28.294  29.809  1.00  0.00     0.167 HD
ATOM     36  C   UNL A   1      42.793  30.662  30.384  1.00  0.00     0.074 A 
ATOM     37  C   UNL A   1      41.692  31.596  30.514  1.00  0.00     0.031 C 
ATOM     38  C   UNL A   1      44.068  30.925  30.762  1.00  0.00     0.031 A 
BRANCH  25  39
ATOM     39  C   UNL A   1      48.008  26.237  29.888  1.00  0.00    -0.014 A 
ATOM     40  C   UNL A   1      48.926  26.233  28.826  1.00  0.00     0.009 A 
ATOM     41  C   UNL A   1      48.425  25.764  31.144  1.00  0.00     0.009 A 
ATOM     42  C   UNL A   1      50.217  25.729  29.007  1.00  0.00     0.001 A 
ATOM     43  C   UNL A   1      49.727  25.293  31.331  1.00  0.00     0.001 A 
ATOM     44  C   UNL A   1      50.618  25.265  30.260  1.00  0.00     0.000 A 
ENDBRANCH  25  39
BRANCH  26  45
ATOM     45  C   UNL A   1      38.523  29.271  28.974  1.00  0.00    -0.014 A 
ATOM     46  C   UNL A   1      37.668  29.185  30.082  1.00  0.00     0.009 A 
ATOM     47  C   UNL A   1      38.024  29.795  27.769  1.00  0.00     0.009 A 
ATOM     48  C   UNL A   1      36.335  29.590  29.977  1.00  0.00     0.001 A 
ATOM     49  C   UNL A   1      36.702  30.234  27.679  1.00  0.00     0.001 A 
ATOM     50  C   UNL A   1      35.856  30.121  28.779  1.00  0.00     0.000 A 
ENDBRANCH  26  45
BRANCH  38  51
ATOM     51  C   UNL A   1      44.344  32.292  31.320  1.00  0.00    -0.014 A 
ATOM     52  C   UNL A   1      44.680  33.370  30.488  1.00  0.00     0.009 A 
ATOM     53  C   UNL A   1      44.242  32.507  32.704  1.00  0.00     0.009 A 
ATOM     54  C   UNL A   1      44.943  34.628  31.034  1.00  0.00     0.001 A 
ATOM     55  C   UNL A   1      44.472  33.773  33.244  1.00  0.00     0.001 A 
ATOM     56  C   UNL A   1      44.833  34.829  32.409  1.00  0.00     0.000 A 
ENDBRANCH  38  51
ENDBRANCH  12  13
ENDBRANCH   5   7
ENDBRANCH   2   3
ENDBRANCH   1   2
BRANCH   1  57
ATOM     57  C   UNL A   1      36.140  20.830  25.063  1.00  0.00     0.118 C 
BRANCH  57  58
ATOM     58  N   UNL A   1      36.584  22.192  25.319  1.00  0.00    -0.352 N 
ATOM     59  C   UNL A   1      35.856  23.294  25.687  1.00  0.00     0.253 C 
ATOM     60  H   UNL A   1      37.551  22.345  25.212  1.00  0.00     0.163 HD
ATOM     61  O   UNL A   1      36.376  24.405  25.626  1.00  0.00    -0.269 OA
BRANCH  59  62
ATOM     62  C   UNL A   1      34.445  23.170  26.135  1.00  0.00     0.063 A 
ATOM     63  C   UNL A   1      34.195  22.699  27.437  1.00  0.00     0.019 A 
ATOM     64  C   UNL A   1      33.374  23.535  25.275  1.00  0.00     0.056 A 
ATOM     65  C   UNL A   1      32.895  22.469  27.856  1.00  0.00     0.040 A 
ATOM     66  C   UNL A   1      32.085  23.467  25.794  1.00  0.00     0.066 A 
ATOM     67  C   UNL A   1      31.854  22.870  27.036  1.00  0.00     0.125 A 
ATOM     68  F   UNL A   1      30.593  22.674  27.441  1.00  0.00    -0.207 F 
BRANCH  64  69
ATOM     69  N   UNL A   1      33.671  23.932  23.952  1.00  0.00    -0.325 N 
ATOM     70  C   UNL A   1      33.580  25.034  23.173  1.00  0.00     0.228 C 
ATOM     71  H   UNL A   1      34.061  23.183  23.448  1.00  0.00     0.169 HD
ATOM     72  O   UNL A   1      34.019  24.895  22.019  1.00  0.00    -0.274 OA
BRANCH  70  73
ATOM     73  C   UNL A   1      33.069  26.422  23.532  1.00  0.00     0.095 C 
ATOM     74  C   UNL A   1      33.713  27.685  22.967  1.00  0.00     0.030 C 
ATOM     75  C   UNL A   1      31.558  26.428  23.368  1.00  0.00     0.150 C 
ATOM     76  C   UNL A   1      32.672  28.795  22.835  1.00  0.00     0.138 C 
ATOM     77  S   UNL A   1      31.069  28.113  23.186  1.00  0.00     0.151 S 
ATOM     78  O   UNL A   1      30.632  28.613  24.469  1.00  0.00    -0.229 OA
ATOM     79  O   UNL A   1      30.251  28.215  21.992  1.00  0.00    -0.229 OA
ENDBRANCH  70  73
ENDBRANCH  64  69
ENDBRANCH  59  62
ENDBRANCH  57  58
ENDBRANCH   1  57
TORSDOF 12
ENDMDL
MODEL 2
REMARK VINA RESULT:     -11.5      0.269      5.955
REMARK SMILES O=C(NCCCNC(=O)c1ccc(F)cc1NC(=O)[C@H]1CCS(=O)(=O)C1)c1ccc(-c2c3nc(c(-c4ccccc4)c4ccc([nH]4)c(-c4ccccc4)c4nc(c(-c5ccccc5)c5ccc2[nH]5)C=C4)C=C3)cc1
REMARK SMILES IDX 5 1 4 2 3 3 1 4 2 5 27 7 28 8 74 9 29 10 73 11 30 12 31 13
REMARK SMILES IDX 32 14 67 15 33 16 72 17 66 18 68 19 34 20 71 21 65 22 64 23
REMARK SMILES IDX 35 25 57 26 42 27 56 28 43 29 46 30 55 31 69 32 44 33 45 34
REMARK SMILES IDX 54 36 70 37 47 38 36 39 37 40 41 41 38 42 40 43 39 44 58 45
REMARK SMILES IDX 59 46 63 47 60 48 62 49 61 50 48 51 49 52 53 53 50 54 52 55
REMARK SMILES IDX 51 56 6 57 7 58 8 59 9 61 10 62 11 63 16 64 12 65 15 66
REMARK SMILES IDX 13 67 14 68 17 69 18 70 19 72 20 73 21 74 26 75 22 76 23 77
REMARK SMILES IDX 24 78 25 79
REMARK H PARENT 3 6 68 24 46 35 7 60 17 71
REMARK Flexibility Score: inf
ROOT
ATOM      1  C   UNL A   1      37.309  19.828  25.004  1.00  0.00     0.042 C 
ENDROOT
BRANCH   1   2
ATOM      2  C   UNL A   1      38.599  20.414  25.543  1.00  0.00     0.118 C 
BRANCH   2   3
ATOM      3  N   UNL A   1      39.656  19.420  25.696  1.00  0.00    -0.352 N 
ATOM      4  O   UNL A   1      41.761  18.650  25.965  1.00  0.00    -0.269 OA
ATOM      5  C   UNL A   1      40.969  19.581  26.072  1.00  0.00     0.251 C 
ATOM      6  H   UNL A   1      39.388  18.494  25.499  1.00  0.00     0.163 HD
BRANCH   5   7
ATOM      7  C   UNL A   1      41.425  20.890  26.580  1.00  0.00     0.039 A 
ATOM      8  C   UNL A   1      41.304  21.194  27.935  1.00  0.00     0.014 A 
ATOM      9  C   UNL A   1      41.961  21.829  25.695  1.00  0.00     0.014 A 
ATOM     10  C   UNL A   1      41.513  22.492  28.369  1.00  0.00     0.010 A 
ATOM     11  C   UNL A   1      42.311  23.097  26.166  1.00  0.00     0.010 A 
ATOM     12  C   UNL A   1      42.056  23.449  27.500  1.00  0.00    -0.014 A 
BRANCH  12  13
ATOM     13  C   UNL A   1      42.435  24.772  28.050  1.00  0.00     0.031 A 
ATOM     14  C   UNL A   1      41.416  25.849  28.284  1.00  0.00     0.074 A 
ATOM     15  C   UNL A   1      43.730  24.981  28.361  1.00  0.00     0.049 A 
ATOM     16  N   UNL A   1      41.594  27.054  28.765  1.00  0.00    -0.248 NA
ATOM     17  C   UNL A   1      40.022  25.544  27.927  1.00  0.00     0.031 C 
ATOM     18  C   UNL A   1      44.811  24.005  28.175  1.00  0.00     0.029 A 
ATOM     19  N   UNL A   1      44.357  26.062  28.919  1.00  0.00    -0.354 N 
ATOM     20  C   UNL A   1      40.344  27.660  28.745  1.00  0.00     0.074 A 
ATOM     21  C   UNL A   1      39.419  26.698  28.181  1.00  0.00     0.031 C 
ATOM     22  C   UNL A   1      45.951  24.512  28.657  1.00  0.00     0.029 A 
ATOM     23  C   UNL A   1      45.705  25.875  29.104  1.00  0.00     0.049 A 
ATOM     24  H   UNL A   1      43.888  26.893  29.163  1.00  0.00     0.167 HD
ATOM     25  C   UNL A   1      40.003  28.905  29.158  1.00  0.00     0.031 A 
ATOM     26  C   UNL A   1      46.653  26.716  29.550  1.00  0.00     0.031 A 
ATOM     27  C   UNL A   1      40.935  29.857  29.706  1.00  0.00     0.049 A 
ATOM     28  C   UNL A   1      46.254  28.103  29.952  1.00  0.00     0.074 A 
ATOM     29  C   UNL A   1      40.683  31.131  30.186  1.00  0.00     0.029 A 
ATOM     30  N   UNL A   1      42.299  29.645  29.838  1.00  0.00    -0.354 N 
ATOM     31  N   UNL A   1      45.061  28.646  29.965  1.00  0.00    -0.248 NA
ATOM     32  C   UNL A   1      47.331  28.992  30.404  1.00  0.00     0.031 C 
ATOM     33  C   UNL A   1      41.903  31.714  30.540  1.00  0.00     0.029 A 
ATOM     34  C   UNL A   1      42.907  30.777  30.354  1.00  0.00     0.049 A 
ATOM     35  H   UNL A   1      42.767  28.812  29.599  1.00  0.00     0.167 HD
ATOM     36  C   UNL A   1      45.240  29.936  30.444  1.00  0.00     0.074 A 
ATOM     37  C   UNL A   1      46.653  30.082  30.732  1.00  0.00     0.031 C 
ATOM     38  C   UNL A   1      44.317  30.911  30.627  1.00  0.00     0.031 A 
BRANCH  25  39
ATOM     39  C   UNL A   1      38.566  29.326  28.991  1.00  0.00    -0.014 A 
ATOM     40  C   UNL A   1      38.057  29.739  27.750  1.00  0.00     0.009 A 
ATOM     41  C   UNL A   1      37.697  29.271  30.093  1.00  0.00     0.009 A 
ATOM     42  C   UNL A   1      36.721  30.127  27.625  1.00  0.00     0.001 A 
ATOM     43  C   UNL A   1      36.353  29.627  29.958  1.00  0.00     0.001 A 
ATOM     44  C   UNL A   1      35.869  30.066  28.727  1.00  0.00     0.000 A 
ENDBRANCH  25  39
BRANCH  26  45
ATOM     45  C   UNL A   1      48.070  26.272  29.595  1.00  0.00    -0.014 A 
ATOM     46  C   UNL A   1      48.907  26.423  28.481  1.00  0.00     0.009 A 
ATOM     47  C   UNL A   1      48.598  25.712  30.772  1.00  0.00     0.009 A 
ATOM     48  C   UNL A   1      50.238  26.000  28.537  1.00  0.00     0.001 A 
ATOM     49  C   UNL A   1      49.937  25.325  30.835  1.00  0.00     0.001 A 
ATOM     50  C   UNL A   1      50.753  25.458  29.715  1.00  0.00     0.000 A 
ENDBRANCH  26  45
BRANCH  38  51
ATOM     51  C   UNL A   1      44.806  32.212  31.197  1.00  0.00    -0.014 A 
ATOM     52  C   UNL A   1      45.224  33.265  30.369  1.00  0.00     0.009 A 
ATOM     53  C   UNL A   1      44.826  32.394  32.589  1.00  0.00     0.009 A 
ATOM     54  C   UNL A   1      45.684  34.460  30.924  1.00  0.00     0.001 A 
ATOM     55  C   UNL A   1      45.254  33.602  33.141  1.00  0.00     0.001 A 
ATOM     56  C   UNL A   1      45.694  34.629  32.308  1.00  0.00     0.000 A 
ENDBRANCH  38  51
ENDBRANCH  12  13
ENDBRANCH   5   7
ENDBRANCH   2   3
ENDBRANCH   1   2
BRANCH   1  57
ATOM     57  C   UNL A   1      36.149  20.801  25.028  1.00  0.00     0.118 C 
BRANCH  57  58
ATOM     58  N   UNL A   1      36.584  22.178  25.208  1.00  0.00    -0.352 N 
ATOM     59  C   UNL A   1      35.853  23.290  25.537  1.00  0.00     0.253 C 
ATOM     60  H   UNL A   1      37.546  22.334  25.074  1.00  0.00     0.163 HD
ATOM     61  O   UNL A   1      36.360  24.401  25.412  1.00  0.00    -0.269 OA
BRANCH  59  62
ATOM     62  C   UNL A   1      34.452  23.175  26.021  1.00  0.00     0.063 A 
ATOM     63  C   UNL A   1      34.232  22.699  27.326  1.00  0.00     0.019 A 
ATOM     64  C   UNL A   1      33.363  23.555  25.190  1.00  0.00     0.056 A 
ATOM     65  C   UNL A   1      32.940  22.478  27.776  1.00  0.00     0.040 A 
ATOM     66  C   UNL A   1      32.087  23.495  25.741  1.00  0.00     0.066 A 
ATOM     67  C   UNL A   1      31.882  22.892  26.985  1.00  0.00     0.125 A 
ATOM     68  F   UNL A   1      30.630  22.704  27.421  1.00  0.00    -0.207 F 
BRANCH  64  69
ATOM     69  N   UNL A   1      33.630  23.957  23.862  1.00  0.00    -0.325 N 
ATOM     70  C   UNL A   1      33.521  25.062  23.090  1.00  0.00     0.228 C 
ATOM     71  H   UNL A   1      34.009  23.210  23.346  1.00  0.00     0.169 HD
ATOM     72  O   UNL A   1      33.933  24.928  21.925  1.00  0.00    -0.274 OA
BRANCH  70  73
ATOM     73  C   UNL A   1      33.015  26.447  23.465  1.00  0.00     0.095 C 
ATOM     74  C   UNL A   1      33.652  27.714  22.898  1.00  0.00     0.030 C 
ATOM     75  C   UNL A   1      31.502  26.455  23.324  1.00  0.00     0.150 C 
ATOM     76  C   UNL A   1      32.610  28.825  22.788  1.00  0.00     0.138 C 
ATOM     77  S   UNL A   1      31.012  28.142  23.160  1.00  0.00     0.151 S 
ATOM     78  O   UNL A   1      30.595  28.634  24.453  1.00  0.00    -0.229 OA
ATOM     79  O   UNL A   1      30.176  28.252  21.980  1.00  0.00    -0.229 OA
ENDBRANCH  70  73
ENDBRANCH  64  69
ENDBRANCH  59  62
ENDBRANCH  57  58
ENDBRANCH   1  57
TORSDOF 12
ENDMDL
MODEL 3
REMARK VINA RESULT:     -11.5      3.382      8.722
REMARK SMILES O=C(NCCCNC(=O)c1ccc(F)cc1NC(=O)[C@H]1CCS(=O)(=O)C1)c1ccc(-c2c3nc(c(-c4ccccc4)c4ccc([nH]4)c(-c4ccccc4)c4nc(c(-c5ccccc5)c5ccc2[nH]5)C=C4)C=C3)cc1
REMARK SMILES IDX 5 1 4 2 3 3 1 4 2 5 27 7 28 8 74 9 29 10 73 11 30 12 31 13
REMARK SMILES IDX 32 14 67 15 33 16 72 17 66 18 68 19 34 20 71 21 65 22 64 23
REMARK SMILES IDX 35 25 57 26 42 27 56 28 43 29 46 30 55 31 69 32 44 33 45 34
REMARK SMILES IDX 54 36 70 37 47 38 36 39 37 40 41 41 38 42 40 43 39 44 58 45
REMARK SMILES IDX 59 46 63 47 60 48 62 49 61 50 48 51 49 52 53 53 50 54 52 55
REMARK SMILES IDX 51 56 6 57 7 58 8 59 9 61 10 62 11 63 16 64 12 65 15 66
REMARK SMILES IDX 13 67 14 68 17 69 18 70 19 72 20 73 21 74 26 75 22 76 23 77
REMARK SMILES IDX 24 78 25 79
REMARK H PARENT 3 6 68 24 46 35 7 60 17 71
REMARK Flexibility Score: inf
ROOT
ATOM      1  C   UNL A   1      31.406  31.513  26.218  1.00  0.00     0.042 C 
ENDROOT
BRANCH   1   2
ATOM      2  C   UNL A   1      32.605  32.092  26.943  1.00  0.00     0.118 C 
BRANCH   2   3
ATOM      3  N   UNL A   1      32.376  33.449  27.429  1.00  0.00    -0.352 N 
ATOM      4  O   UNL A   1      32.640  35.248  28.765  1.00  0.00    -0.269 OA
ATOM      5  C   UNL A   1      33.091  34.191  28.340  1.00  0.00     0.251 C 
ATOM      6  H   UNL A   1      31.589  33.900  27.049  1.00  0.00     0.163 HD
BRANCH   5   7
ATOM      7  C   UNL A   1      34.395  33.690  28.821  1.00  0.00     0.039 A 
ATOM      8  C   UNL A   1      35.540  33.866  28.046  1.00  0.00     0.014 A 
ATOM      9  C   UNL A   1      34.472  33.026  30.047  1.00  0.00     0.014 A 
ATOM     10  C   UNL A   1      36.707  33.201  28.384  1.00  0.00     0.010 A 
ATOM     11  C   UNL A   1      35.691  32.479  30.458  1.00  0.00     0.010 A 
ATOM     12  C   UNL A   1      36.809  32.533  29.612  1.00  0.00    -0.014 A 
BRANCH  12  13
ATOM     13  C   UNL A   1      38.128  31.992  30.017  1.00  0.00     0.031 A 
ATOM     14  C   UNL A   1      39.025  32.732  30.965  1.00  0.00     0.074 A 
ATOM     15  C   UNL A   1      38.497  30.792  29.526  1.00  0.00     0.049 A 
ATOM     16  N   UNL A   1      40.203  32.384  31.419  1.00  0.00    -0.248 NA
ATOM     17  C   UNL A   1      38.550  34.031  31.465  1.00  0.00     0.031 C 
ATOM     18  C   UNL A   1      37.705  29.981  28.593  1.00  0.00     0.029 A 
ATOM     19  N   UNL A   1      39.613  30.033  29.754  1.00  0.00    -0.354 N 
ATOM     20  C   UNL A   1      40.622  33.428  32.234  1.00  0.00     0.074 A 
ATOM     21  C   UNL A   1      39.582  34.434  32.194  1.00  0.00     0.031 C 
ATOM     22  C   UNL A   1      38.334  28.820  28.373  1.00  0.00     0.029 A 
ATOM     23  C   UNL A   1      39.610  28.840  29.073  1.00  0.00     0.049 A 
ATOM     24  H   UNL A   1      40.346  30.314  30.349  1.00  0.00     0.167 HD
ATOM     25  C   UNL A   1      41.769  33.534  32.946  1.00  0.00     0.031 A 
ATOM     26  C   UNL A   1      40.543  27.877  28.988  1.00  0.00     0.031 A 
ATOM     27  C   UNL A   1      42.802  32.530  32.968  1.00  0.00     0.049 A 
ATOM     28  C   UNL A   1      41.824  28.046  29.748  1.00  0.00     0.074 A 
ATOM     29  C   UNL A   1      43.987  32.527  33.685  1.00  0.00     0.029 A 
ATOM     30  N   UNL A   1      42.781  31.355  32.231  1.00  0.00    -0.354 N 
ATOM     31  N   UNL A   1      42.185  29.021  30.545  1.00  0.00    -0.248 NA
ATOM     32  C   UNL A   1      42.822  26.982  29.597  1.00  0.00     0.031 C 
ATOM     33  C   UNL A   1      44.712  31.387  33.327  1.00  0.00     0.029 A 
ATOM     34  C   UNL A   1      43.947  30.639  32.446  1.00  0.00     0.049 A 
ATOM     35  H   UNL A   1      42.045  31.071  31.641  1.00  0.00     0.167 HD
ATOM     36  C   UNL A   1      43.448  28.679  31.008  1.00  0.00     0.074 A 
ATOM     37  C   UNL A   1      43.775  27.395  30.420  1.00  0.00     0.031 C 
ATOM     38  C   UNL A   1      44.263  29.366  31.845  1.00  0.00     0.031 A 
BRANCH  25  39
ATOM     39  C   UNL A   1      41.989  34.802  33.729  1.00  0.00    -0.014 A 
ATOM     40  C   UNL A   1      41.495  34.961  35.032  1.00  0.00     0.009 A 
ATOM     41  C   UNL A   1      42.740  35.845  33.160  1.00  0.00     0.009 A 
ATOM     42  C   UNL A   1      41.711  36.150  35.734  1.00  0.00     0.001 A 
ATOM     43  C   UNL A   1      42.984  37.019  33.875  1.00  0.00     0.001 A 
ATOM     44  C   UNL A   1      42.460  37.175  35.157  1.00  0.00     0.000 A 
ENDBRANCH  25  39
BRANCH  26  45
ATOM     45  C   UNL A   1      40.306  26.697  28.118  1.00  0.00    -0.014 A 
ATOM     46  C   UNL A   1      40.836  26.641  26.821  1.00  0.00     0.009 A 
ATOM     47  C   UNL A   1      39.563  25.604  28.596  1.00  0.00     0.009 A 
ATOM     48  C   UNL A   1      40.605  25.525  26.013  1.00  0.00     0.001 A 
ATOM     49  C   UNL A   1      39.366  24.476  27.799  1.00  0.00     0.001 A 
ATOM     50  C   UNL A   1      39.877  24.442  26.504  1.00  0.00     0.000 A 
ENDBRANCH  26  45
BRANCH  38  51
ATOM     51  C   UNL A   1      45.574  28.724  32.198  1.00  0.00    -0.014 A 
ATOM     52  C   UNL A   1      45.700  27.875  33.308  1.00  0.00     0.009 A 
ATOM     53  C   UNL A   1      46.698  28.956  31.389  1.00  0.00     0.009 A 
ATOM     54  C   UNL A   1      46.932  27.300  33.621  1.00  0.00     0.001 A 
ATOM     55  C   UNL A   1      47.921  28.353  31.684  1.00  0.00     0.001 A 
ATOM     56  C   UNL A   1      48.040  27.534  32.806  1.00  0.00     0.000 A 
ENDBRANCH  38  51
ENDBRANCH  12  13
ENDBRANCH   5   7
ENDBRANCH   2   3
ENDBRANCH   1   2
BRANCH   1  57
ATOM     57  C   UNL A   1      31.651  30.128  25.657  1.00  0.00     0.118 C 
BRANCH  57  58
ATOM     58  N   UNL A   1      32.713  29.426  26.362  1.00  0.00    -0.352 N 
ATOM     59  C   UNL A   1      33.386  28.282  26.015  1.00  0.00     0.253 C 
ATOM     60  H   UNL A   1      32.990  29.831  27.215  1.00  0.00     0.163 HD
ATOM     61  O   UNL A   1      34.084  27.717  26.853  1.00  0.00    -0.269 OA
BRANCH  59  62
ATOM     62  C   UNL A   1      33.267  27.704  24.651  1.00  0.00     0.063 A 
ATOM     63  C   UNL A   1      33.881  28.381  23.581  1.00  0.00     0.019 A 
ATOM     64  C   UNL A   1      32.567  26.486  24.436  1.00  0.00     0.056 A 
ATOM     65  C   UNL A   1      33.705  27.932  22.282  1.00  0.00     0.040 A 
ATOM     66  C   UNL A   1      32.568  25.967  23.145  1.00  0.00     0.066 A 
ATOM     67  C   UNL A   1      33.064  26.722  22.080  1.00  0.00     0.125 A 
ATOM     68  F   UNL A   1      32.909  26.268  20.830  1.00  0.00    -0.207 F 
BRANCH  64  69
ATOM     69  N   UNL A   1      31.905  25.882  25.529  1.00  0.00    -0.325 N 
ATOM     70  C   UNL A   1      31.969  24.744  26.257  1.00  0.00     0.228 C 
ATOM     71  H   UNL A   1      31.182  26.463  25.857  1.00  0.00     0.169 HD
ATOM     72  O   UNL A   1      31.147  24.672  27.186  1.00  0.00    -0.274 OA
BRANCH  70  73
ATOM     73  C   UNL A   1      32.937  23.577  26.129  1.00  0.00     0.095 C 
ATOM     74  C   UNL A   1      33.398  22.779  27.345  1.00  0.00     0.030 C 
ATOM     75  C   UNL A   1      32.449  22.677  25.005  1.00  0.00     0.150 C 
ATOM     76  C   UNL A   1      33.695  21.335  26.948  1.00  0.00     0.138 C 
ATOM     77  S   UNL A   1      33.180  21.092  25.265  1.00  0.00     0.151 S 
ATOM     78  O   UNL A   1      34.360  20.981  24.438  1.00  0.00    -0.229 OA
ATOM     79  O   UNL A   1      32.119  20.103  25.244  1.00  0.00    -0.229 OA
ENDBRANCH  70  73
ENDBRANCH  64  69
ENDBRANCH  59  62
ENDBRANCH  57  58
ENDBRANCH   1  57
TORSDOF 12
ENDMDL
