MODEL 1
REMARK VINA RESULT:     -11.9      0.000      0.000
REMARK SMILES C[C@@H](C(=O)NCCCNC(=O)c1ccc(-c2c3nc(c(-c4ccccc4)c4ccc([nH]4)c(-c4ccccc4)c4nc(c(-c5ccccc5)c5ccc2[nH]5)C=C4)C=C3)cc1)N1C(=O)/C(=C/c2ccc(F)cc2)SC1=S
REMARK SMILES IDX 7 1 6 2 5 3 3 4 4 5 2 7 1 8 60 9 61 10 73 11 62 12 63 13
REMARK SMILES IDX 72 14 74 15 64 16 65 17 66 18 71 19 67 20 70 21 68 22 69 23
REMARK SMILES IDX 8 24 9 25 10 26 11 28 12 29 13 30 59 31 14 32 58 33 15 34
REMARK SMILES IDX 16 35 17 36 52 37 18 38 57 39 51 40 53 41 19 42 56 43 50 44
REMARK SMILES IDX 49 45 20 47 42 48 27 49 41 50 28 51 31 52 40 53 54 54 29 55
REMARK SMILES IDX 30 56 39 58 55 59 32 60 21 61 22 62 26 63 23 64 25 65 24 66
REMARK SMILES IDX 43 67 44 68 48 69 45 70 47 71 46 72 33 73 34 74 38 75 35 76
REMARK SMILES IDX 37 77 36 78
REMARK H PARENT 5 6 9 27 53 46 31 57
REMARK Flexibility Score: inf
ROOT
ATOM      1  C   UNL A   1      33.953  28.871  25.813  1.00  0.00     0.042 C 
ENDROOT
BRANCH   1   2
ATOM      2  C   UNL A   1      33.443  27.573  25.188  1.00  0.00     0.117 C 
BRANCH   2   3
ATOM      3  N   UNL A   1      32.688  26.789  26.150  1.00  0.00    -0.354 N 
ATOM      4  C   UNL A   1      31.599  25.985  25.965  1.00  0.00     0.242 C 
ATOM      5  O   UNL A   1      31.069  25.502  26.968  1.00  0.00    -0.273 OA
ATOM      6  H   UNL A   1      33.010  26.847  27.079  1.00  0.00     0.163 HD
BRANCH   4   7
ATOM      7  C   UNL A   1      31.093  25.687  24.537  1.00  0.00     0.178 C 
ATOM      8  C   UNL A   1      29.565  25.752  24.468  1.00  0.00     0.042 C 
BRANCH   7   9
ATOM      9  N   UNL A   1      31.691  24.401  24.105  1.00  0.00    -0.281 N 
ATOM     10  C   UNL A   1      31.438  23.222  24.786  1.00  0.00     0.266 C 
ATOM     11  C   UNL A   1      32.637  24.322  23.095  1.00  0.00     0.149 C 
ATOM     12  O   UNL A   1      30.700  23.066  25.745  1.00  0.00    -0.268 OA
ATOM     13  C   UNL A   1      32.184  22.093  24.169  1.00  0.00     0.081 C 
ATOM     14  S   UNL A   1      33.212  22.666  22.927  1.00  0.00    -0.054 SA
ATOM     15  S   UNL A   1      33.211  25.546  22.113  1.00  0.00    -0.052 S 
ATOM     16  C   UNL A   1      31.985  20.831  24.572  1.00  0.00     0.029 C 
BRANCH  16  17
ATOM     17  C   UNL A   1      32.679  19.639  24.081  1.00  0.00    -0.024 A 
ATOM     18  C   UNL A   1      32.148  18.916  23.004  1.00  0.00     0.011 A 
ATOM     19  C   UNL A   1      33.830  19.170  24.728  1.00  0.00     0.011 A 
ATOM     20  C   UNL A   1      32.771  17.742  22.574  1.00  0.00     0.040 A 
ATOM     21  C   UNL A   1      34.450  17.997  24.297  1.00  0.00     0.040 A 
ATOM     22  C   UNL A   1      33.913  17.293  23.226  1.00  0.00     0.123 A 
ATOM     23  F   UNL A   1      34.502  16.160  22.822  1.00  0.00    -0.207 F 
ENDBRANCH  16  17
ENDBRANCH   7   9
ENDBRANCH   4   7
ENDBRANCH   2   3
ENDBRANCH   1   2
BRANCH   1  24
ATOM     24  C   UNL A   1      33.579  29.033  27.286  1.00  0.00     0.118 C 
BRANCH  24  25
ATOM     25  N   UNL A   1      33.687  30.412  27.737  1.00  0.00    -0.352 N 
ATOM     26  C   UNL A   1      34.697  31.046  28.419  1.00  0.00     0.251 C 
ATOM     27  H   UNL A   1      32.915  30.982  27.518  1.00  0.00     0.163 HD
ATOM     28  O   UNL A   1      34.500  32.167  28.881  1.00  0.00    -0.269 OA
BRANCH  26  29
ATOM     29  C   UNL A   1      36.006  30.389  28.623  1.00  0.00     0.039 A 
ATOM     30  C   UNL A   1      36.924  30.387  27.567  1.00  0.00     0.014 A 
ATOM     31  C   UNL A   1      36.325  29.750  29.824  1.00  0.00     0.014 A 
ATOM     32  C   UNL A   1      38.186  29.818  27.745  1.00  0.00     0.010 A 
ATOM     33  C   UNL A   1      37.608  29.240  30.022  1.00  0.00     0.010 A 
ATOM     34  C   UNL A   1      38.556  29.280  28.988  1.00  0.00    -0.014 A 
BRANCH  34  35
ATOM     35  C   UNL A   1      39.944  28.813  29.237  1.00  0.00     0.031 A 
ATOM     36  C   UNL A   1      40.967  29.724  29.857  1.00  0.00     0.074 A 
ATOM     37  C   UNL A   1      40.299  27.574  28.838  1.00  0.00     0.049 A 
ATOM     38  N   UNL A   1      42.235  29.495  30.094  1.00  0.00    -0.248 NA
ATOM     39  C   UNL A   1      40.516  31.069  30.246  1.00  0.00     0.031 C 
ATOM     40  C   UNL A   1      39.411  26.605  28.191  1.00  0.00     0.029 A 
ATOM     41  N   UNL A   1      41.504  26.920  28.911  1.00  0.00    -0.354 N 
ATOM     42  C   UNL A   1      42.735  30.668  30.646  1.00  0.00     0.074 A 
ATOM     43  C   UNL A   1      41.644  31.618  30.676  1.00  0.00     0.031 C 
ATOM     44  C   UNL A   1      40.095  25.476  27.945  1.00  0.00     0.029 A 
ATOM     45  C   UNL A   1      41.478  25.655  28.373  1.00  0.00     0.049 A 
ATOM     46  H   UNL A   1      42.311  27.320  29.310  1.00  0.00     0.167 HD
ATOM     47  C   UNL A   1      43.986  30.925  31.097  1.00  0.00     0.031 A 
ATOM     48  C   UNL A   1      42.458  24.745  28.226  1.00  0.00     0.031 A 
ATOM     49  C   UNL A   1      45.069  29.977  31.076  1.00  0.00     0.049 A 
ATOM     50  C   UNL A   1      43.843  25.073  28.710  1.00  0.00     0.074 A 
ATOM     51  C   UNL A   1      46.352  30.128  31.574  1.00  0.00     0.029 A 
ATOM     52  N   UNL A   1      45.002  28.710  30.522  1.00  0.00    -0.354 N 
ATOM     53  N   UNL A   1      44.276  26.157  29.305  1.00  0.00    -0.248 NA
ATOM     54  C   UNL A   1      44.875  24.045  28.506  1.00  0.00     0.031 C 
ATOM     55  C   UNL A   1      47.080  28.975  31.266  1.00  0.00     0.029 A 
ATOM     56  C   UNL A   1      46.233  28.083  30.631  1.00  0.00     0.049 A 
ATOM     57  H   UNL A   1      44.200  28.314  30.110  1.00  0.00     0.167 HD
ATOM     58  C   UNL A   1      45.621  25.932  29.568  1.00  0.00     0.074 A 
ATOM     59  C   UNL A   1      45.927  24.600  29.091  1.00  0.00     0.031 C 
ATOM     60  C   UNL A   1      46.524  26.758  30.149  1.00  0.00     0.031 A 
BRANCH  47  61
ATOM     61  C   UNL A   1      44.265  32.294  31.653  1.00  0.00    -0.014 A 
ATOM     62  C   UNL A   1      44.687  33.344  30.824  1.00  0.00     0.009 A 
ATOM     63  C   UNL A   1      44.022  32.557  33.012  1.00  0.00     0.009 A 
ATOM     64  C   UNL A   1      44.880  34.624  31.348  1.00  0.00     0.001 A 
ATOM     65  C   UNL A   1      44.190  33.843  33.527  1.00  0.00     0.001 A 
ATOM     66  C   UNL A   1      44.624  34.874  32.696  1.00  0.00     0.000 A 
ENDBRANCH  47  61
BRANCH  48  67
ATOM     67  C   UNL A   1      42.179  23.436  27.578  1.00  0.00    -0.014 A 
ATOM     68  C   UNL A   1      41.726  22.345  28.336  1.00  0.00     0.009 A 
ATOM     69  C   UNL A   1      42.401  23.260  26.203  1.00  0.00     0.009 A 
ATOM     70  C   UNL A   1      41.538  21.097  27.738  1.00  0.00     0.001 A 
ATOM     71  C   UNL A   1      42.179  22.020  25.602  1.00  0.00     0.001 A 
ATOM     72  C   UNL A   1      41.760  20.936  26.372  1.00  0.00     0.000 A 
ENDBRANCH  48  67
BRANCH  60  73
ATOM     73  C   UNL A   1      47.921  26.232  30.326  1.00  0.00    -0.014 A 
ATOM     74  C   UNL A   1      48.845  26.254  29.269  1.00  0.00     0.009 A 
ATOM     75  C   UNL A   1      48.327  25.738  31.576  1.00  0.00     0.009 A 
ATOM     76  C   UNL A   1      50.137  25.757  29.452  1.00  0.00     0.001 A 
ATOM     77  C   UNL A   1      49.628  25.272  31.763  1.00  0.00     0.001 A 
ATOM     78  C   UNL A   1      50.529  25.272  30.699  1.00  0.00     0.000 A 
ENDBRANCH  60  73
ENDBRANCH  34  35
ENDBRANCH  26  29
ENDBRANCH  24  25
ENDBRANCH   1  24
TORSDOF 12
ENDMDL
MODEL 2
REMARK VINA RESULT:     -11.7      3.079      8.038
REMARK SMILES C[C@@H](C(=O)NCCCNC(=O)c1ccc(-c2c3nc(c(-c4ccccc4)c4ccc([nH]4)c(-c4ccccc4)c4nc(c(-c5ccccc5)c5ccc2[nH]5)C=C4)C=C3)cc1)N1C(=O)/C(=C/c2ccc(F)cc2)SC1=S
REMARK SMILES IDX 7 1 6 2 5 3 3 4 4 5 2 7 1 8 60 9 61 10 73 11 62 12 63 13
REMARK SMILES IDX 72 14 74 15 64 16 65 17 66 18 71 19 67 20 70 21 68 22 69 23
REMARK SMILES IDX 8 24 9 25 10 26 11 28 12 29 13 30 59 31 14 32 58 33 15 34
REMARK SMILES IDX 16 35 17 36 52 37 18 38 57 39 51 40 53 41 19 42 56 43 50 44
REMARK SMILES IDX 49 45 20 47 42 48 27 49 41 50 28 51 31 52 40 53 54 54 29 55
REMARK SMILES IDX 30 56 39 58 55 59 32 60 21 61 22 62 26 63 23 64 25 65 24 66
REMARK SMILES IDX 43 67 44 68 48 69 45 70 47 71 46 72 33 73 34 74 38 75 35 76
REMARK SMILES IDX 37 77 36 78
REMARK H PARENT 5 6 9 27 53 46 31 57
REMARK Flexibility Score: inf
ROOT
ATOM      1  C   UNL A   1      37.258  20.125  24.969  1.00  0.00     0.042 C 
ENDROOT
BRANCH   1   2
ATOM      2  C   UNL A   1      36.149  21.176  24.993  1.00  0.00     0.117 C 
BRANCH   2   3
ATOM      3  N   UNL A   1      35.551  21.275  26.313  1.00  0.00    -0.354 N 
ATOM      4  C   UNL A   1      34.292  21.663  26.679  1.00  0.00     0.242 C 
ATOM      5  O   UNL A   1      34.055  21.764  27.885  1.00  0.00    -0.273 OA
ATOM      6  H   UNL A   1      36.143  21.025  27.059  1.00  0.00     0.163 HD
BRANCH   4   7
ATOM      7  C   UNL A   1      33.222  21.930  25.600  1.00  0.00     0.178 C 
ATOM      8  C   UNL A   1      33.738  21.561  24.207  1.00  0.00     0.042 C 
BRANCH   7   9
ATOM      9  N   UNL A   1      32.767  23.333  25.754  1.00  0.00    -0.281 N 
ATOM     10  C   UNL A   1      33.640  24.397  25.594  1.00  0.00     0.266 C 
ATOM     11  C   UNL A   1      31.495  23.659  26.198  1.00  0.00     0.149 C 
ATOM     12  O   UNL A   1      34.817  24.346  25.278  1.00  0.00    -0.268 OA
ATOM     13  C   UNL A   1      32.938  25.687  25.836  1.00  0.00     0.081 C 
ATOM     14  S   UNL A   1      31.338  25.404  26.372  1.00  0.00    -0.054 SA
ATOM     15  S   UNL A   1      30.220  22.633  26.536  1.00  0.00    -0.052 S 
ATOM     16  C   UNL A   1      33.546  26.857  25.602  1.00  0.00     0.029 C 
BRANCH  16  17
ATOM     17  C   UNL A   1      32.989  28.191  25.834  1.00  0.00    -0.024 A 
ATOM     18  C   UNL A   1      33.301  28.883  27.012  1.00  0.00     0.011 A 
ATOM     19  C   UNL A   1      32.086  28.752  24.921  1.00  0.00     0.011 A 
ATOM     20  C   UNL A   1      32.720  30.128  27.267  1.00  0.00     0.040 A 
ATOM     21  C   UNL A   1      31.507  29.994  25.179  1.00  0.00     0.040 A 
ATOM     22  C   UNL A   1      31.828  30.670  26.351  1.00  0.00     0.123 A 
ATOM     23  F   UNL A   1      31.261  31.857  26.603  1.00  0.00    -0.207 F 
ENDBRANCH  16  17
ENDBRANCH   7   9
ENDBRANCH   4   7
ENDBRANCH   2   3
ENDBRANCH   1   2
BRANCH   1  24
ATOM     24  C   UNL A   1      38.630  20.670  25.362  1.00  0.00     0.118 C 
BRANCH  24  25
ATOM     25  N   UNL A   1      39.617  19.614  25.536  1.00  0.00    -0.352 N 
ATOM     26  C   UNL A   1      40.915  19.676  25.978  1.00  0.00     0.251 C 
ATOM     27  H   UNL A   1      39.303  18.711  25.299  1.00  0.00     0.163 HD
ATOM     28  O   UNL A   1      41.641  18.693  25.856  1.00  0.00    -0.269 OA
BRANCH  26  29
ATOM     29  C   UNL A   1      41.456  20.917  26.575  1.00  0.00     0.039 A 
ATOM     30  C   UNL A   1      42.091  21.840  25.738  1.00  0.00     0.014 A 
ATOM     31  C   UNL A   1      41.375  21.163  27.948  1.00  0.00     0.014 A 
ATOM     32  C   UNL A   1      42.569  23.041  26.263  1.00  0.00     0.010 A 
ATOM     33  C   UNL A   1      41.793  22.391  28.460  1.00  0.00     0.010 A 
ATOM     34  C   UNL A   1      42.383  23.348  27.621  1.00  0.00    -0.014 A 
BRANCH  34  35
ATOM     35  C   UNL A   1      42.746  24.684  28.160  1.00  0.00     0.031 A 
ATOM     36  C   UNL A   1      41.699  25.742  28.375  1.00  0.00     0.074 A 
ATOM     37  C   UNL A   1      44.044  24.964  28.395  1.00  0.00     0.049 A 
ATOM     38  N   UNL A   1      41.850  26.976  28.786  1.00  0.00    -0.248 NA
ATOM     39  C   UNL A   1      40.306  25.375  28.075  1.00  0.00     0.031 C 
ATOM     40  C   UNL A   1      45.161  24.039  28.192  1.00  0.00     0.029 A 
ATOM     41  N   UNL A   1      44.645  26.112  28.848  1.00  0.00    -0.354 N 
ATOM     42  C   UNL A   1      40.578  27.535  28.781  1.00  0.00     0.074 A 
ATOM     43  C   UNL A   1      39.672  26.519  28.293  1.00  0.00     0.031 C 
ATOM     44  C   UNL A   1      46.306  24.647  28.539  1.00  0.00     0.029 A 
ATOM     45  C   UNL A   1      46.013  26.018  28.943  1.00  0.00     0.049 A 
ATOM     46  H   UNL A   1      44.143  26.927  29.082  1.00  0.00     0.167 HD
ATOM     47  C   UNL A   1      40.199  28.779  29.161  1.00  0.00     0.031 A 
ATOM     48  C   UNL A   1      46.933  26.934  29.300  1.00  0.00     0.031 A 
ATOM     49  C   UNL A   1      41.099  29.789  29.655  1.00  0.00     0.049 A 
ATOM     50  C   UNL A   1      46.482  28.315  29.687  1.00  0.00     0.074 A 
ATOM     51  C   UNL A   1      40.794  31.055  30.126  1.00  0.00     0.029 A 
ATOM     52  N   UNL A   1      42.475  29.654  29.733  1.00  0.00    -0.354 N 
ATOM     53  N   UNL A   1      45.266  28.798  29.756  1.00  0.00    -0.248 NA
ATOM     54  C   UNL A   1      47.534  29.276  30.050  1.00  0.00     0.031 C 
ATOM     55  C   UNL A   1      41.992  31.708  30.432  1.00  0.00     0.029 A 
ATOM     56  C   UNL A   1      43.037  30.828  30.208  1.00  0.00     0.049 A 
ATOM     57  H   UNL A   1      42.979  28.845  29.486  1.00  0.00     0.167 HD
ATOM     58  C   UNL A   1      45.405  30.109  30.194  1.00  0.00     0.074 A 
ATOM     59  C   UNL A   1      46.820  30.337  30.398  1.00  0.00     0.031 C 
ATOM     60  C   UNL A   1      44.446  31.042  30.404  1.00  0.00     0.031 A 
BRANCH  47  61
ATOM     61  C   UNL A   1      38.742  29.133  29.055  1.00  0.00    -0.014 A 
ATOM     62  C   UNL A   1      37.875  28.986  30.148  1.00  0.00     0.009 A 
ATOM     63  C   UNL A   1      38.248  29.703  27.869  1.00  0.00     0.009 A 
ATOM     64  C   UNL A   1      36.539  29.380  30.051  1.00  0.00     0.001 A 
ATOM     65  C   UNL A   1      36.919  30.121  27.783  1.00  0.00     0.001 A 
ATOM     66  C   UNL A   1      36.065  29.955  28.871  1.00  0.00     0.000 A 
ENDBRANCH  47  61
BRANCH  48  67
ATOM     67  C   UNL A   1      48.380  26.589  29.298  1.00  0.00    -0.014 A 
ATOM     68  C   UNL A   1      49.161  26.796  28.151  1.00  0.00     0.009 A 
ATOM     69  C   UNL A   1      48.978  26.016  30.431  1.00  0.00     0.009 A 
ATOM     70  C   UNL A   1      50.501  26.401  28.127  1.00  0.00     0.001 A 
ATOM     71  C   UNL A   1      50.325  25.654  30.415  1.00  0.00     0.001 A 
ATOM     72  C   UNL A   1      51.083  25.834  29.259  1.00  0.00     0.000 A 
ENDBRANCH  48  67
BRANCH  60  73
ATOM     73  C   UNL A   1      44.895  32.386  30.906  1.00  0.00    -0.014 A 
ATOM     74  C   UNL A   1      45.193  33.432  30.018  1.00  0.00     0.009 A 
ATOM     75  C   UNL A   1      44.989  32.618  32.287  1.00  0.00     0.009 A 
ATOM     76  C   UNL A   1      45.612  34.672  30.503  1.00  0.00     0.001 A 
ATOM     77  C   UNL A   1      45.378  33.868  32.769  1.00  0.00     0.001 A 
ATOM     78  C   UNL A   1      45.699  34.890  31.878  1.00  0.00     0.000 A 
ENDBRANCH  60  73
ENDBRANCH  34  35
ENDBRANCH  26  29
ENDBRANCH  24  25
ENDBRANCH   1  24
TORSDOF 12
ENDMDL
MODEL 3
REMARK VINA RESULT:     -11.6      1.102      6.058
REMARK SMILES C[C@@H](C(=O)NCCCNC(=O)c1ccc(-c2c3nc(c(-c4ccccc4)c4ccc([nH]4)c(-c4ccccc4)c4nc(c(-c5ccccc5)c5ccc2[nH]5)C=C4)C=C3)cc1)N1C(=O)/C(=C/c2ccc(F)cc2)SC1=S
REMARK SMILES IDX 7 1 6 2 5 3 3 4 4 5 2 7 1 8 60 9 61 10 73 11 62 12 63 13
REMARK SMILES IDX 72 14 74 15 64 16 65 17 66 18 71 19 67 20 70 21 68 22 69 23
REMARK SMILES IDX 8 24 9 25 10 26 11 28 12 29 13 30 59 31 14 32 58 33 15 34
REMARK SMILES IDX 16 35 17 36 52 37 18 38 57 39 51 40 53 41 19 42 56 43 50 44
REMARK SMILES IDX 49 45 20 47 42 48 27 49 41 50 28 51 31 52 40 53 54 54 29 55
REMARK SMILES IDX 30 56 39 58 55 59 32 60 21 61 22 62 26 63 23 64 25 65 24 66
REMARK SMILES IDX 43 67 44 68 48 69 45 70 47 71 46 72 33 73 34 74 38 75 35 76
REMARK SMILES IDX 37 77 36 78
REMARK H PARENT 5 6 9 27 53 46 31 57
REMARK Flexibility Score: inf
ROOT
ATOM      1  C   UNL A   1      33.299  29.010  25.751  1.00  0.00     0.042 C 
ENDROOT
BRANCH   1   2
ATOM      2  C   UNL A   1      33.655  27.659  25.132  1.00  0.00     0.117 C 
BRANCH   2   3
ATOM      3  N   UNL A   1      32.863  26.590  25.715  1.00  0.00    -0.354 N 
ATOM      4  C   UNL A   1      32.664  25.309  25.283  1.00  0.00     0.242 C 
ATOM      5  O   UNL A   1      31.856  24.616  25.905  1.00  0.00    -0.273 OA
ATOM      6  H   UNL A   1      32.398  26.824  26.551  1.00  0.00     0.163 HD
BRANCH   4   7
ATOM      7  C   UNL A   1      33.458  24.770  24.074  1.00  0.00     0.178 C 
ATOM      8  C   UNL A   1      32.767  25.127  22.755  1.00  0.00     0.042 C 
BRANCH   7   9
ATOM      9  N   UNL A   1      33.687  23.322  24.294  1.00  0.00    -0.281 N 
ATOM     10  C   UNL A   1      32.736  22.378  23.942  1.00  0.00     0.266 C 
ATOM     11  C   UNL A   1      34.789  22.838  24.983  1.00  0.00     0.149 C 
ATOM     12  O   UNL A   1      31.665  22.578  23.393  1.00  0.00    -0.268 OA
ATOM     13  C   UNL A   1      33.201  21.011  24.300  1.00  0.00     0.081 C 
ATOM     14  S   UNL A   1      34.680  21.090  25.156  1.00  0.00    -0.054 SA
ATOM     15  S   UNL A   1      36.089  23.694  25.591  1.00  0.00    -0.052 S 
ATOM     16  C   UNL A   1      32.508  19.927  23.928  1.00  0.00     0.029 C 
BRANCH  16  17
ATOM     17  C   UNL A   1      32.829  18.534  24.247  1.00  0.00    -0.024 A 
ATOM     18  C   UNL A   1      32.494  18.010  25.502  1.00  0.00     0.011 A 
ATOM     19  C   UNL A   1      33.537  17.742  23.333  1.00  0.00     0.011 A 
ATOM     20  C   UNL A   1      32.857  16.702  25.834  1.00  0.00     0.040 A 
ATOM     21  C   UNL A   1      33.899  16.437  23.667  1.00  0.00     0.040 A 
ATOM     22  C   UNL A   1      33.557  15.930  24.915  1.00  0.00     0.123 A 
ATOM     23  F   UNL A   1      33.916  14.681  25.239  1.00  0.00    -0.207 F 
ENDBRANCH  16  17
ENDBRANCH   7   9
ENDBRANCH   4   7
ENDBRANCH   2   3
ENDBRANCH   1   2
BRANCH   1  24
ATOM     24  C   UNL A   1      33.495  29.063  27.265  1.00  0.00     0.118 C 
BRANCH  24  25
ATOM     25  N   UNL A   1      33.593  30.427  27.764  1.00  0.00    -0.352 N 
ATOM     26  C   UNL A   1      34.604  31.049  28.453  1.00  0.00     0.251 C 
ATOM     27  H   UNL A   1      32.810  30.993  27.577  1.00  0.00     0.163 HD
ATOM     28  O   UNL A   1      34.400  32.150  28.958  1.00  0.00    -0.269 OA
BRANCH  26  29
ATOM     29  C   UNL A   1      35.925  30.402  28.615  1.00  0.00     0.039 A 
ATOM     30  C   UNL A   1      36.825  30.446  27.546  1.00  0.00     0.014 A 
ATOM     31  C   UNL A   1      36.270  29.729  29.790  1.00  0.00     0.014 A 
ATOM     32  C   UNL A   1      38.097  29.886  27.684  1.00  0.00     0.010 A 
ATOM     33  C   UNL A   1      37.562  29.229  29.950  1.00  0.00     0.010 A 
ATOM     34  C   UNL A   1      38.493  29.314  28.904  1.00  0.00    -0.014 A 
BRANCH  34  35
ATOM     35  C   UNL A   1      39.891  28.856  29.115  1.00  0.00     0.031 A 
ATOM     36  C   UNL A   1      40.327  27.481  28.688  1.00  0.00     0.074 A 
ATOM     37  C   UNL A   1      40.755  29.668  29.756  1.00  0.00     0.049 A 
ATOM     38  N   UNL A   1      41.491  26.903  28.845  1.00  0.00    -0.248 NA
ATOM     39  C   UNL A   1      39.324  26.641  28.015  1.00  0.00     0.031 C 
ATOM     40  C   UNL A   1      40.447  31.010  30.255  1.00  0.00     0.029 A 
ATOM     41  N   UNL A   1      42.069  29.478  30.109  1.00  0.00    -0.354 N 
ATOM     42  C   UNL A   1      41.358  25.630  28.304  1.00  0.00     0.074 A 
ATOM     43  C   UNL A   1      39.991  25.507  27.847  1.00  0.00     0.031 C 
ATOM     44  C   UNL A   1      41.545  31.530  30.827  1.00  0.00     0.029 A 
ATOM     45  C   UNL A   1      42.619  30.544  30.781  1.00  0.00     0.049 A 
ATOM     46  H   UNL A   1      42.570  28.656  29.900  1.00  0.00     0.167 HD
ATOM     47  C   UNL A   1      42.294  24.658  28.188  1.00  0.00     0.031 A 
ATOM     48  C   UNL A   1      43.844  30.708  31.313  1.00  0.00     0.031 A 
ATOM     49  C   UNL A   1      43.657  24.783  28.635  1.00  0.00     0.049 A 
ATOM     50  C   UNL A   1      44.850  29.597  31.194  1.00  0.00     0.074 A 
ATOM     51  C   UNL A   1      44.692  23.874  28.497  1.00  0.00     0.029 A 
ATOM     52  N   UNL A   1      44.172  25.876  29.311  1.00  0.00    -0.354 N 
ATOM     53  N   UNL A   1      44.730  28.433  30.604  1.00  0.00    -0.248 NA
ATOM     54  C   UNL A   1      46.165  29.828  31.811  1.00  0.00     0.031 C 
ATOM     55  C   UNL A   1      45.818  24.391  29.145  1.00  0.00     0.029 A 
ATOM     56  C   UNL A   1      45.500  25.648  29.632  1.00  0.00     0.049 A 
ATOM     57  H   UNL A   1      43.668  26.693  29.532  1.00  0.00     0.167 HD
ATOM     58  C   UNL A   1      45.959  27.804  30.758  1.00  0.00     0.074 A 
ATOM     59  C   UNL A   1      46.817  28.725  31.474  1.00  0.00     0.031 C 
ATOM     60  C   UNL A   1      46.342  26.571  30.347  1.00  0.00     0.031 A 
BRANCH  47  61
ATOM     61  C   UNL A   1      41.882  23.358  27.555  1.00  0.00    -0.014 A 
ATOM     62  C   UNL A   1      42.144  23.091  26.203  1.00  0.00     0.009 A 
ATOM     63  C   UNL A   1      41.300  22.352  28.345  1.00  0.00     0.009 A 
ATOM     64  C   UNL A   1      41.812  21.853  25.649  1.00  0.00     0.001 A 
ATOM     65  C   UNL A   1      40.994  21.106  27.796  1.00  0.00     0.001 A 
ATOM     66  C   UNL A   1      41.245  20.859  26.448  1.00  0.00     0.000 A 
ENDBRANCH  47  61
BRANCH  48  67
ATOM     67  C   UNL A   1      44.194  31.965  32.026  1.00  0.00    -0.014 A 
ATOM     68  C   UNL A   1      43.980  32.087  33.408  1.00  0.00     0.009 A 
ATOM     69  C   UNL A   1      44.709  33.064  31.321  1.00  0.00     0.009 A 
ATOM     70  C   UNL A   1      44.239  33.295  34.060  1.00  0.00     0.001 A 
ATOM     71  C   UNL A   1      44.998  34.259  31.981  1.00  0.00     0.001 A 
ATOM     72  C   UNL A   1      44.751  34.378  33.348  1.00  0.00     0.000 A 
ENDBRANCH  48  67
BRANCH  60  73
ATOM     73  C   UNL A   1      47.758  26.160  30.636  1.00  0.00    -0.014 A 
ATOM     74  C   UNL A   1      48.765  26.285  29.666  1.00  0.00     0.009 A 
ATOM     75  C   UNL A   1      48.095  25.670  31.908  1.00  0.00     0.009 A 
ATOM     76  C   UNL A   1      50.073  25.893  29.953  1.00  0.00     0.001 A 
ATOM     77  C   UNL A   1      49.410  25.309  32.201  1.00  0.00     0.001 A 
ATOM     78  C   UNL A   1      50.396  25.410  31.222  1.00  0.00     0.000 A 
ENDBRANCH  60  73
ENDBRANCH  34  35
ENDBRANCH  26  29
ENDBRANCH  24  25
ENDBRANCH   1  24
TORSDOF 12
ENDMDL
