MODEL 1
REMARK VINA RESULT:     -10.7      0.000      0.000
REMARK SMILES CC(C)C[C@@H](CNc1ccc(C(N)=O)cc1)C(=O)NCCCNC(=O)c1ccc(-c2c3nc(c(-c4ccccc4)c4ccc([nH]4)c(-c4ccccc4)c4nc(c(-c5ccccc5)c5ccc2[nH]5)C=C4)C=C3)cc1
REMARK SMILES IDX 20 1 19 2 17 3 18 4 5 6 4 7 2 8 1 9 3 10 6 11 7 12 8 14 9 15
REMARK SMILES IDX 16 16 10 17 15 18 11 19 12 20 13 21 14 22 21 25 22 26 23 27
REMARK SMILES IDX 24 28 25 30 26 31 27 32 73 33 28 34 72 35 29 36 30 37 31 38
REMARK SMILES IDX 66 39 32 40 71 41 65 42 67 43 33 44 70 45 64 46 63 47 34 49
REMARK SMILES IDX 56 50 41 51 55 52 42 53 45 54 54 55 68 56 43 57 44 58 53 60
REMARK SMILES IDX 69 61 46 62 35 63 36 64 40 65 37 66 39 67 38 68 57 69 58 70
REMARK SMILES IDX 62 71 59 72 61 73 60 74 47 75 48 76 52 77 49 78 51 79 50 80
REMARK H PARENT 19 5 7 13 13 23 13 24 23 29 67 48 45 59
REMARK Flexibility Score: inf
ROOT
ATOM      1  C   UNL A   1      32.078  30.113  25.903  1.00  0.00     0.117 C 
ENDROOT
BRANCH   1   2
ATOM      2  N   UNL A   1      31.709  28.937  26.689  1.00  0.00    -0.356 N 
ATOM      3  C   UNL A   1      31.450  27.648  26.342  1.00  0.00     0.224 C 
ATOM      4  O   UNL A   1      31.237  26.847  27.257  1.00  0.00    -0.275 OA
ATOM      5  H   UNL A   1      31.633  29.112  27.656  1.00  0.00     0.163 HD
BRANCH   3   6
ATOM      6  C   UNL A   1      31.410  27.191  24.897  1.00  0.00     0.098 C 
BRANCH   6   7
ATOM      7  C   UNL A   1      32.711  26.429  24.539  1.00  0.00     0.018 C 
BRANCH   7   8
ATOM      8  C   UNL A   1      33.494  26.851  23.289  1.00  0.00    -0.017 C 
ATOM      9  C   UNL A   1      32.769  26.386  22.028  1.00  0.00     0.007 C 
ATOM     10  C   UNL A   1      33.639  28.379  23.264  1.00  0.00     0.007 C 
ENDBRANCH   7   8
ENDBRANCH   6   7
BRANCH   6  11
ATOM     11  C   UNL A   1      29.988  26.700  24.528  1.00  0.00     0.126 C 
BRANCH  11  12
ATOM     12  N   UNL A   1      29.503  27.098  23.206  1.00  0.00    -0.384 N 
ATOM     13  H   UNL A   1      29.392  26.411  22.510  1.00  0.00     0.160 HD
BRANCH  12  14
ATOM     14  C   UNL A   1      29.195  28.426  22.909  1.00  0.00     0.034 A 
ATOM     15  C   UNL A   1      30.208  29.278  22.460  1.00  0.00     0.026 A 
ATOM     16  C   UNL A   1      27.974  29.027  23.206  1.00  0.00     0.026 A 
ATOM     17  C   UNL A   1      30.049  30.652  22.280  1.00  0.00     0.016 A 
ATOM     18  C   UNL A   1      27.788  30.417  23.028  1.00  0.00     0.016 A 
ATOM     19  C   UNL A   1      28.829  31.240  22.568  1.00  0.00     0.039 A 
BRANCH  19  20
ATOM     20  C   UNL A   1      28.609  32.706  22.407  1.00  0.00     0.248 C 
ATOM     21  N   UNL A   1      29.325  33.569  23.195  1.00  0.00    -0.366 N 
ATOM     22  O   UNL A   1      27.803  33.145  21.591  1.00  0.00    -0.270 OA
ATOM     23  H   UNL A   1      29.971  33.217  23.849  1.00  0.00     0.159 HD
ATOM     24  H   UNL A   1      29.193  34.541  23.107  1.00  0.00     0.159 HD
ENDBRANCH  19  20
ENDBRANCH  12  14
ENDBRANCH  11  12
ENDBRANCH   6  11
ENDBRANCH   3   6
ENDBRANCH   1   2
BRANCH   1  25
ATOM     25  C   UNL A   1      31.673  31.404  26.580  1.00  0.00     0.042 C 
BRANCH  25  26
ATOM     26  C   UNL A   1      32.840  32.149  27.215  1.00  0.00     0.118 C 
BRANCH  26  27
ATOM     27  N   UNL A   1      32.545  33.536  27.579  1.00  0.00    -0.352 N 
ATOM     28  C   UNL A   1      33.162  34.381  28.472  1.00  0.00     0.251 C 
ATOM     29  H   UNL A   1      31.776  33.929  27.107  1.00  0.00     0.163 HD
ATOM     30  O   UNL A   1      32.667  35.466  28.751  1.00  0.00    -0.269 OA
BRANCH  28  31
ATOM     31  C   UNL A   1      34.426  33.947  29.094  1.00  0.00     0.039 A 
ATOM     32  C   UNL A   1      34.413  33.216  30.282  1.00  0.00     0.014 A 
ATOM     33  C   UNL A   1      35.625  34.202  28.432  1.00  0.00     0.014 A 
ATOM     34  C   UNL A   1      35.603  32.645  30.742  1.00  0.00     0.010 A 
ATOM     35  C   UNL A   1      36.764  33.511  28.803  1.00  0.00     0.010 A 
ATOM     36  C   UNL A   1      36.774  32.736  29.971  1.00  0.00    -0.014 A 
BRANCH  36  37
ATOM     37  C   UNL A   1      38.037  32.060  30.351  1.00  0.00     0.031 A 
ATOM     38  C   UNL A   1      38.997  32.758  31.280  1.00  0.00     0.074 A 
ATOM     39  C   UNL A   1      38.374  30.886  29.783  1.00  0.00     0.049 A 
ATOM     40  N   UNL A   1      40.212  32.415  31.624  1.00  0.00    -0.248 NA
ATOM     41  C   UNL A   1      38.551  34.037  31.859  1.00  0.00     0.031 C 
ATOM     42  C   UNL A   1      37.559  30.135  28.825  1.00  0.00     0.029 A 
ATOM     43  N   UNL A   1      39.506  30.123  29.922  1.00  0.00    -0.354 N 
ATOM     44  C   UNL A   1      40.678  33.449  32.427  1.00  0.00     0.074 A 
ATOM     45  C   UNL A   1      39.650  34.463  32.458  1.00  0.00     0.031 C 
ATOM     46  C   UNL A   1      38.200  29.001  28.494  1.00  0.00     0.029 A 
ATOM     47  C   UNL A   1      39.492  28.971  29.172  1.00  0.00     0.049 A 
ATOM     48  H   UNL A   1      40.258  30.375  30.505  1.00  0.00     0.167 HD
ATOM     49  C   UNL A   1      41.846  33.537  33.104  1.00  0.00     0.031 A 
ATOM     50  C   UNL A   1      40.419  28.004  29.038  1.00  0.00     0.031 A 
ATOM     51  C   UNL A   1      42.855  32.514  33.095  1.00  0.00     0.049 A 
ATOM     52  C   UNL A   1      41.710  28.124  29.801  1.00  0.00     0.074 A 
ATOM     53  C   UNL A   1      44.044  32.470  33.799  1.00  0.00     0.029 A 
ATOM     54  N   UNL A   1      42.788  31.352  32.343  1.00  0.00    -0.354 N 
ATOM     55  N   UNL A   1      42.107  29.074  30.612  1.00  0.00    -0.248 NA
ATOM     56  C   UNL A   1      42.678  27.030  29.635  1.00  0.00     0.031 C 
ATOM     57  C   UNL A   1      44.723  31.306  33.431  1.00  0.00     0.029 A 
ATOM     58  C   UNL A   1      43.927  30.594  32.548  1.00  0.00     0.049 A 
ATOM     59  H   UNL A   1      42.041  31.103  31.750  1.00  0.00     0.167 HD
ATOM     60  C   UNL A   1      43.354  28.677  31.080  1.00  0.00     0.074 A 
ATOM     61  C   UNL A   1      43.638  27.394  30.472  1.00  0.00     0.031 C 
ATOM     62  C   UNL A   1      44.188  29.316  31.935  1.00  0.00     0.031 A 
BRANCH  49  63
ATOM     63  C   UNL A   1      42.087  34.784  33.911  1.00  0.00    -0.014 A 
ATOM     64  C   UNL A   1      41.693  34.871  35.256  1.00  0.00     0.009 A 
ATOM     65  C   UNL A   1      42.733  35.883  33.323  1.00  0.00     0.009 A 
ATOM     66  C   UNL A   1      41.900  36.046  35.982  1.00  0.00     0.001 A 
ATOM     67  C   UNL A   1      42.971  37.043  34.060  1.00  0.00     0.001 A 
ATOM     68  C   UNL A   1      42.544  37.128  35.385  1.00  0.00     0.000 A 
ENDBRANCH  49  63
BRANCH  50  69
ATOM     69  C   UNL A   1      40.157  26.828  28.166  1.00  0.00    -0.014 A 
ATOM     70  C   UNL A   1      39.415  25.738  28.648  1.00  0.00     0.009 A 
ATOM     71  C   UNL A   1      40.652  26.783  26.854  1.00  0.00     0.009 A 
ATOM     72  C   UNL A   1      39.203  24.614  27.846  1.00  0.00     0.001 A 
ATOM     73  C   UNL A   1      40.411  25.670  26.043  1.00  0.00     0.001 A 
ATOM     74  C   UNL A   1      39.697  24.583  26.543  1.00  0.00     0.000 A 
ENDBRANCH  50  69
BRANCH  62  75
ATOM     75  C   UNL A   1      45.467  28.617  32.301  1.00  0.00    -0.014 A 
ATOM     76  C   UNL A   1      46.653  28.835  31.582  1.00  0.00     0.009 A 
ATOM     77  C   UNL A   1      45.493  27.763  33.415  1.00  0.00     0.009 A 
ATOM     78  C   UNL A   1      47.830  28.183  31.951  1.00  0.00     0.001 A 
ATOM     79  C   UNL A   1      46.680  27.139  33.802  1.00  0.00     0.001 A 
ATOM     80  C   UNL A   1      47.844  27.341  33.063  1.00  0.00     0.000 A 
ENDBRANCH  62  75
ENDBRANCH  36  37
ENDBRANCH  28  31
ENDBRANCH  26  27
ENDBRANCH  25  26
ENDBRANCH   1  25
TORSDOF 16
ENDMDL
MODEL 2
REMARK VINA RESULT:     -10.6      5.106     10.001
REMARK SMILES CC(C)C[C@@H](CNc1ccc(C(N)=O)cc1)C(=O)NCCCNC(=O)c1ccc(-c2c3nc(c(-c4ccccc4)c4ccc([nH]4)c(-c4ccccc4)c4nc(c(-c5ccccc5)c5ccc2[nH]5)C=C4)C=C3)cc1
REMARK SMILES IDX 20 1 19 2 17 3 18 4 5 6 4 7 2 8 1 9 3 10 6 11 7 12 8 14 9 15
REMARK SMILES IDX 16 16 10 17 15 18 11 19 12 20 13 21 14 22 21 25 22 26 23 27
REMARK SMILES IDX 24 28 25 30 26 31 27 32 73 33 28 34 72 35 29 36 30 37 31 38
REMARK SMILES IDX 66 39 32 40 71 41 65 42 67 43 33 44 70 45 64 46 63 47 34 49
REMARK SMILES IDX 56 50 41 51 55 52 42 53 45 54 54 55 68 56 43 57 44 58 53 60
REMARK SMILES IDX 69 61 46 62 35 63 36 64 40 65 37 66 39 67 38 68 57 69 58 70
REMARK SMILES IDX 62 71 59 72 61 73 60 74 47 75 48 76 52 77 49 78 51 79 50 80
REMARK H PARENT 19 5 7 13 13 23 13 24 23 29 67 48 45 59
REMARK Flexibility Score: inf
ROOT
ATOM      1  C   UNL A   1      36.705  21.323  24.951  1.00  0.00     0.117 C 
ENDROOT
BRANCH   1   2
ATOM      2  N   UNL A   1      35.947  21.396  26.199  1.00  0.00    -0.356 N 
ATOM      3  C   UNL A   1      34.731  21.923  26.503  1.00  0.00     0.224 C 
ATOM      4  O   UNL A   1      34.314  21.758  27.653  1.00  0.00    -0.275 OA
ATOM      5  H   UNL A   1      36.406  20.984  26.967  1.00  0.00     0.163 HD
BRANCH   3   6
ATOM      6  C   UNL A   1      33.908  22.694  25.490  1.00  0.00     0.098 C 
BRANCH   6   7
ATOM      7  C   UNL A   1      34.815  23.661  24.687  1.00  0.00     0.018 C 
BRANCH   7   8
ATOM      8  C   UNL A   1      34.388  25.127  24.546  1.00  0.00    -0.017 C 
ATOM      9  C   UNL A   1      33.475  25.300  23.334  1.00  0.00     0.007 C 
ATOM     10  C   UNL A   1      33.646  25.572  25.815  1.00  0.00     0.007 C 
ENDBRANCH   7   8
ENDBRANCH   6   7
BRANCH   6  11
ATOM     11  C   UNL A   1      32.843  21.770  24.849  1.00  0.00     0.126 C 
BRANCH  11  12
ATOM     12  N   UNL A   1      33.363  20.685  24.018  1.00  0.00    -0.384 N 
ATOM     13  H   UNL A   1      33.758  20.898  23.142  1.00  0.00     0.160 HD
BRANCH  12  14
ATOM     14  C   UNL A   1      33.315  19.355  24.437  1.00  0.00     0.034 A 
ATOM     15  C   UNL A   1      33.554  18.337  23.510  1.00  0.00     0.026 A 
ATOM     16  C   UNL A   1      32.856  18.950  25.689  1.00  0.00     0.026 A 
ATOM     17  C   UNL A   1      33.383  16.979  23.779  1.00  0.00     0.016 A 
ATOM     18  C   UNL A   1      32.679  17.579  25.987  1.00  0.00     0.016 A 
ATOM     19  C   UNL A   1      32.937  16.584  25.029  1.00  0.00     0.039 A 
BRANCH  19  20
ATOM     20  C   UNL A   1      32.723  15.147  25.366  1.00  0.00     0.248 C 
ATOM     21  N   UNL A   1      31.454  14.721  25.656  1.00  0.00    -0.366 N 
ATOM     22  O   UNL A   1      33.659  14.352  25.391  1.00  0.00    -0.270 OA
ATOM     23  H   UNL A   1      30.704  15.359  25.636  1.00  0.00     0.159 HD
ATOM     24  H   UNL A   1      31.291  13.778  25.885  1.00  0.00     0.159 HD
ENDBRANCH  19  20
ENDBRANCH  12  14
ENDBRANCH  11  12
ENDBRANCH   6  11
ENDBRANCH   3   6
ENDBRANCH   1   2
BRANCH   1  25
ATOM     25  C   UNL A   1      37.750  20.230  24.978  1.00  0.00     0.042 C 
BRANCH  25  26
ATOM     26  C   UNL A   1      38.997  20.601  25.770  1.00  0.00     0.118 C 
BRANCH  26  27
ATOM     27  N   UNL A   1      40.003  19.540  25.845  1.00  0.00    -0.352 N 
ATOM     28  C   UNL A   1      41.350  19.597  26.120  1.00  0.00     0.251 C 
ATOM     29  H   UNL A   1      39.659  18.635  25.670  1.00  0.00     0.163 HD
ATOM     30  O   UNL A   1      42.058  18.607  25.984  1.00  0.00    -0.269 OA
BRANCH  28  31
ATOM     31  C   UNL A   1      41.923  20.878  26.571  1.00  0.00     0.039 A 
ATOM     32  C   UNL A   1      42.353  21.825  25.641  1.00  0.00     0.014 A 
ATOM     33  C   UNL A   1      41.948  21.163  27.934  1.00  0.00     0.014 A 
ATOM     34  C   UNL A   1      42.702  23.103  26.084  1.00  0.00     0.010 A 
ATOM     35  C   UNL A   1      42.142  22.467  28.351  1.00  0.00     0.010 A 
ATOM     36  C   UNL A   1      42.538  23.451  27.435  1.00  0.00    -0.014 A 
BRANCH  36  37
ATOM     37  C   UNL A   1      42.786  24.822  27.944  1.00  0.00     0.031 A 
ATOM     38  C   UNL A   1      44.170  25.198  28.405  1.00  0.00     0.074 A 
ATOM     39  C   UNL A   1      41.760  25.682  28.100  1.00  0.00     0.049 A 
ATOM     40  N   UNL A   1      44.573  26.284  29.015  1.00  0.00    -0.248 NA
ATOM     41  C   UNL A   1      45.235  24.200  28.198  1.00  0.00     0.031 C 
ATOM     42  C   UNL A   1      40.363  25.420  27.745  1.00  0.00     0.029 A 
ATOM     43  N   UNL A   1      41.738  26.955  28.611  1.00  0.00    -0.354 N 
ATOM     44  C   UNL A   1      45.919  26.080  29.289  1.00  0.00     0.074 A 
ATOM     45  C   UNL A   1      46.248  24.744  28.850  1.00  0.00     0.031 C 
ATOM     46  C   UNL A   1      39.629  26.512  28.015  1.00  0.00     0.029 A 
ATOM     47  C   UNL A   1      40.489  27.529  28.609  1.00  0.00     0.049 A 
ATOM     48  H   UNL A   1      42.541  27.415  28.949  1.00  0.00     0.167 HD
ATOM     49  C   UNL A   1      46.814  26.937  29.832  1.00  0.00     0.031 A 
ATOM     50  C   UNL A   1      40.082  28.736  29.044  1.00  0.00     0.031 A 
ATOM     51  C   UNL A   1      46.492  28.276  30.241  1.00  0.00     0.049 A 
ATOM     52  C   UNL A   1      41.095  29.673  29.644  1.00  0.00     0.074 A 
ATOM     53  C   UNL A   1      47.336  29.253  30.738  1.00  0.00     0.029 A 
ATOM     54  N   UNL A   1      45.220  28.827  30.195  1.00  0.00    -0.354 N 
ATOM     55  N   UNL A   1      42.379  29.492  29.832  1.00  0.00    -0.248 NA
ATOM     56  C   UNL A   1      40.600  30.985  30.083  1.00  0.00     0.031 C 
ATOM     57  C   UNL A   1      46.565  30.377  31.045  1.00  0.00     0.029 A 
ATOM     58  C   UNL A   1      45.252  30.122  30.678  1.00  0.00     0.049 A 
ATOM     59  H   UNL A   1      44.414  28.364  29.869  1.00  0.00     0.167 HD
ATOM     60  C   UNL A   1      42.853  30.679  30.378  1.00  0.00     0.074 A 
ATOM     61  C   UNL A   1      41.719  31.575  30.477  1.00  0.00     0.031 C 
ATOM     62  C   UNL A   1      44.112  30.999  30.764  1.00  0.00     0.031 A 
BRANCH  49  63
ATOM     63  C   UNL A   1      48.226  26.447  30.009  1.00  0.00    -0.014 A 
ATOM     64  C   UNL A   1      49.195  26.636  29.010  1.00  0.00     0.009 A 
ATOM     65  C   UNL A   1      48.597  25.801  31.198  1.00  0.00     0.009 A 
ATOM     66  C   UNL A   1      50.493  26.150  29.180  1.00  0.00     0.001 A 
ATOM     67  C   UNL A   1      49.904  25.347  31.380  1.00  0.00     0.001 A 
ATOM     68  C   UNL A   1      50.847  25.511  30.367  1.00  0.00     0.000 A 
ENDBRANCH  49  63
BRANCH  50  69
ATOM     69  C   UNL A   1      38.656  29.140  28.913  1.00  0.00    -0.014 A 
ATOM     70  C   UNL A   1      37.773  28.991  29.995  1.00  0.00     0.009 A 
ATOM     71  C   UNL A   1      38.167  29.668  27.708  1.00  0.00     0.009 A 
ATOM     72  C   UNL A   1      36.425  29.331  29.862  1.00  0.00     0.001 A 
ATOM     73  C   UNL A   1      36.824  30.036  27.589  1.00  0.00     0.001 A 
ATOM     74  C   UNL A   1      35.953  29.858  28.662  1.00  0.00     0.000 A 
ENDBRANCH  50  69
BRANCH  62  75
ATOM     75  C   UNL A   1      44.340  32.390  31.285  1.00  0.00    -0.014 A 
ATOM     76  C   UNL A   1      44.633  33.457  30.422  1.00  0.00     0.009 A 
ATOM     77  C   UNL A   1      44.209  32.642  32.660  1.00  0.00     0.009 A 
ATOM     78  C   UNL A   1      44.827  34.742  30.932  1.00  0.00     0.001 A 
ATOM     79  C   UNL A   1      44.370  33.933  33.163  1.00  0.00     0.001 A 
ATOM     80  C   UNL A   1      44.690  34.980  32.299  1.00  0.00     0.000 A 
ENDBRANCH  62  75
ENDBRANCH  36  37
ENDBRANCH  28  31
ENDBRANCH  26  27
ENDBRANCH  25  26
ENDBRANCH   1  25
TORSDOF 16
ENDMDL
MODEL 3
REMARK VINA RESULT:     -10.6      5.019      9.951
REMARK SMILES CC(C)C[C@@H](CNc1ccc(C(N)=O)cc1)C(=O)NCCCNC(=O)c1ccc(-c2c3nc(c(-c4ccccc4)c4ccc([nH]4)c(-c4ccccc4)c4nc(c(-c5ccccc5)c5ccc2[nH]5)C=C4)C=C3)cc1
REMARK SMILES IDX 20 1 19 2 17 3 18 4 5 6 4 7 2 8 1 9 3 10 6 11 7 12 8 14 9 15
REMARK SMILES IDX 16 16 10 17 15 18 11 19 12 20 13 21 14 22 21 25 22 26 23 27
REMARK SMILES IDX 24 28 25 30 26 31 27 32 73 33 28 34 72 35 29 36 30 37 31 38
REMARK SMILES IDX 66 39 32 40 71 41 65 42 67 43 33 44 70 45 64 46 63 47 34 49
REMARK SMILES IDX 56 50 41 51 55 52 42 53 45 54 54 55 68 56 43 57 44 58 53 60
REMARK SMILES IDX 69 61 46 62 35 63 36 64 40 65 37 66 39 67 38 68 57 69 58 70
REMARK SMILES IDX 62 71 59 72 61 73 60 74 47 75 48 76 52 77 49 78 51 79 50 80
REMARK H PARENT 19 5 7 13 13 23 13 24 23 29 67 48 45 59
REMARK Flexibility Score: inf
ROOT
ATOM      1  C   UNL A   1      36.881  22.132  25.077  1.00  0.00     0.117 C 
ENDROOT
BRANCH   1   2
ATOM      2  N   UNL A   1      35.971  21.997  26.214  1.00  0.00    -0.356 N 
ATOM      3  C   UNL A   1      34.644  22.254  26.359  1.00  0.00     0.224 C 
ATOM      4  O   UNL A   1      34.126  21.960  27.441  1.00  0.00    -0.275 OA
ATOM      5  H   UNL A   1      36.403  21.656  27.031  1.00  0.00     0.163 HD
BRANCH   3   6
ATOM      6  C   UNL A   1      33.816  22.883  25.256  1.00  0.00     0.098 C 
BRANCH   6   7
ATOM      7  C   UNL A   1      34.171  24.385  25.110  1.00  0.00     0.018 C 
BRANCH   7   8
ATOM      8  C   UNL A   1      33.058  25.426  25.271  1.00  0.00    -0.017 C 
ATOM      9  C   UNL A   1      31.863  24.817  26.000  1.00  0.00     0.007 C 
ATOM     10  C   UNL A   1      33.587  26.627  26.067  1.00  0.00     0.007 C 
ENDBRANCH   7   8
ENDBRANCH   6   7
BRANCH   6  11
ATOM     11  C   UNL A   1      33.677  21.904  24.064  1.00  0.00     0.126 C 
BRANCH  11  12
ATOM     12  N   UNL A   1      32.455  21.100  24.044  1.00  0.00    -0.384 N 
ATOM     13  H   UNL A   1      31.594  21.540  23.863  1.00  0.00     0.160 HD
BRANCH  12  14
ATOM     14  C   UNL A   1      32.481  19.724  24.275  1.00  0.00     0.034 A 
ATOM     15  C   UNL A   1      32.633  19.253  25.582  1.00  0.00     0.026 A 
ATOM     16  C   UNL A   1      32.554  18.767  23.265  1.00  0.00     0.026 A 
ATOM     17  C   UNL A   1      32.825  17.912  25.911  1.00  0.00     0.016 A 
ATOM     18  C   UNL A   1      32.744  17.400  23.574  1.00  0.00     0.016 A 
ATOM     19  C   UNL A   1      32.886  16.964  24.903  1.00  0.00     0.039 A 
BRANCH  19  20
ATOM     20  C   UNL A   1      33.103  15.519  25.198  1.00  0.00     0.248 C 
ATOM     21  N   UNL A   1      32.011  14.723  25.424  1.00  0.00    -0.366 N 
ATOM     22  O   UNL A   1      34.233  15.040  25.244  1.00  0.00    -0.270 OA
ATOM     23  H   UNL A   1      31.106  15.108  25.386  1.00  0.00     0.159 HD
ATOM     24  H   UNL A   1      32.132  13.767  25.624  1.00  0.00     0.159 HD
ENDBRANCH  19  20
ENDBRANCH  12  14
ENDBRANCH  11  12
ENDBRANCH   6  11
ENDBRANCH   3   6
ENDBRANCH   1   2
BRANCH   1  25
ATOM     25  C   UNL A   1      37.841  20.968  24.972  1.00  0.00     0.042 C 
BRANCH  25  26
ATOM     26  C   UNL A   1      38.989  21.034  25.972  1.00  0.00     0.118 C 
BRANCH  26  27
ATOM     27  N   UNL A   1      39.941  19.926  25.873  1.00  0.00    -0.352 N 
ATOM     28  C   UNL A   1      41.306  19.899  26.037  1.00  0.00     0.251 C 
ATOM     29  H   UNL A   1      39.537  19.056  25.653  1.00  0.00     0.163 HD
ATOM     30  O   UNL A   1      41.949  18.893  25.759  1.00  0.00    -0.269 OA
BRANCH  28  31
ATOM     31  C   UNL A   1      41.980  21.108  26.543  1.00  0.00     0.039 A 
ATOM     32  C   UNL A   1      42.390  22.108  25.660  1.00  0.00     0.014 A 
ATOM     33  C   UNL A   1      42.122  21.275  27.918  1.00  0.00     0.014 A 
ATOM     34  C   UNL A   1      42.839  23.327  26.176  1.00  0.00     0.010 A 
ATOM     35  C   UNL A   1      42.417  22.529  28.422  1.00  0.00     0.010 A 
ATOM     36  C   UNL A   1      42.795  23.567  27.559  1.00  0.00    -0.014 A 
BRANCH  36  37
ATOM     37  C   UNL A   1      43.154  24.876  28.157  1.00  0.00     0.031 A 
ATOM     38  C   UNL A   1      42.075  25.901  28.393  1.00  0.00     0.074 A 
ATOM     39  C   UNL A   1      44.447  25.187  28.379  1.00  0.00     0.049 A 
ATOM     40  N   UNL A   1      42.188  27.150  28.766  1.00  0.00    -0.248 NA
ATOM     41  C   UNL A   1      40.688  25.480  28.126  1.00  0.00     0.031 C 
ATOM     42  C   UNL A   1      45.591  24.304  28.139  1.00  0.00     0.029 A 
ATOM     43  N   UNL A   1      45.015  26.343  28.849  1.00  0.00    -0.354 N 
ATOM     44  C   UNL A   1      40.897  27.664  28.744  1.00  0.00     0.074 A 
ATOM     45  C   UNL A   1      40.030  26.619  28.251  1.00  0.00     0.031 C 
ATOM     46  C   UNL A   1      46.719  24.939  28.499  1.00  0.00     0.029 A 
ATOM     47  C   UNL A   1      46.385  26.287  28.943  1.00  0.00     0.049 A 
ATOM     48  H   UNL A   1      44.492  27.140  29.095  1.00  0.00     0.167 HD
ATOM     49  C   UNL A   1      40.464  28.887  29.127  1.00  0.00     0.031 A 
ATOM     50  C   UNL A   1      47.272  27.220  29.336  1.00  0.00     0.031 A 
ATOM     51  C   UNL A   1      41.324  29.914  29.645  1.00  0.00     0.049 A 
ATOM     52  C   UNL A   1      46.767  28.573  29.758  1.00  0.00     0.074 A 
ATOM     53  C   UNL A   1      40.982  31.163  30.128  1.00  0.00     0.029 A 
ATOM     54  N   UNL A   1      42.702  29.805  29.750  1.00  0.00    -0.354 N 
ATOM     55  N   UNL A   1      45.536  29.020  29.799  1.00  0.00    -0.248 NA
ATOM     56  C   UNL A   1      47.777  29.547  30.197  1.00  0.00     0.031 C 
ATOM     57  C   UNL A   1      42.158  31.832  30.474  1.00  0.00     0.029 A 
ATOM     58  C   UNL A   1      43.228  30.975  30.268  1.00  0.00     0.049 A 
ATOM     59  H   UNL A   1      43.229  29.013  29.493  1.00  0.00     0.167 HD
ATOM     60  C   UNL A   1      45.619  30.314  30.300  1.00  0.00     0.074 A 
ATOM     61  C   UNL A   1      47.020  30.571  30.561  1.00  0.00     0.031 C 
ATOM     62  C   UNL A   1      44.626  31.209  30.524  1.00  0.00     0.031 A 
BRANCH  49  63
ATOM     63  C   UNL A   1      38.992  29.172  29.000  1.00  0.00    -0.014 A 
ATOM     64  C   UNL A   1      38.433  29.597  27.784  1.00  0.00     0.009 A 
ATOM     65  C   UNL A   1      38.148  28.996  30.107  1.00  0.00     0.009 A 
ATOM     66  C   UNL A   1      37.069  29.883  27.691  1.00  0.00     0.001 A 
ATOM     67  C   UNL A   1      36.780  29.249  30.003  1.00  0.00     0.001 A 
ATOM     68  C   UNL A   1      36.243  29.703  28.800  1.00  0.00     0.000 A 
ENDBRANCH  49  63
BRANCH  50  69
ATOM     69  C   UNL A   1      48.726  26.907  29.370  1.00  0.00    -0.014 A 
ATOM     70  C   UNL A   1      49.289  26.269  30.487  1.00  0.00     0.009 A 
ATOM     71  C   UNL A   1      49.560  27.249  28.295  1.00  0.00     0.009 A 
ATOM     72  C   UNL A   1      50.661  26.011  30.541  1.00  0.00     0.001 A 
ATOM     73  C   UNL A   1      50.927  26.961  28.338  1.00  0.00     0.001 A 
ATOM     74  C   UNL A   1      51.478  26.352  29.464  1.00  0.00     0.000 A 
ENDBRANCH  50  69
BRANCH  62  75
ATOM     75  C   UNL A   1      45.013  32.531  31.122  1.00  0.00    -0.014 A 
ATOM     76  C   UNL A   1      45.296  33.645  30.316  1.00  0.00     0.009 A 
ATOM     77  C   UNL A   1      45.047  32.675  32.518  1.00  0.00     0.009 A 
ATOM     78  C   UNL A   1      45.640  34.866  30.898  1.00  0.00     0.001 A 
ATOM     79  C   UNL A   1      45.358  33.906  33.097  1.00  0.00     0.001 A 
ATOM     80  C   UNL A   1      45.666  34.997  32.286  1.00  0.00     0.000 A 
ENDBRANCH  62  75
ENDBRANCH  36  37
ENDBRANCH  28  31
ENDBRANCH  26  27
ENDBRANCH  25  26
ENDBRANCH   1  25
TORSDOF 16
ENDMDL
