MODEL 1
REMARK VINA RESULT:     -13.4      0.000      0.000
REMARK SMILES Cc1ccc(S(=O)(=O)n2cc(C(=O)C(=O)NCC(=O)N[C@H](Cc3c[nH]c4ccccc34)C(=O)NCCCNC(=O)c3ccc(-c4c5nc(c(-c6ccccc6)c6ccc([nH]6)c(-c6ccccc6)c6nc(c(-c7ccccc7)c7ccc4[nH]7)C=C6)C=C5)cc3)c3ccccc32)cc1
REMARK SMILES IDX 32 1 33 2 34 3 21 5 20 6 18 7 19 8 17 10 16 11 14 12 15 13
REMARK SMILES IDX 12 15 13 16 11 17 9 18 10 19 94 20 89 21 93 22 90 23 92 24
REMARK SMILES IDX 91 25 6 26 7 27 8 28 5 29 1 30 2 31 3 32 96 33 4 34 95 35
REMARK SMILES IDX 22 36 23 37 24 38 31 39 25 40 26 41 30 42 27 44 29 45 28 46
REMARK SMILES IDX 35 47 36 48 37 49 38 50 39 51 40 53 41 54 42 55 88 56 43 57
REMARK SMILES IDX 87 58 44 59 45 60 46 61 81 62 47 63 86 64 80 65 82 66 48 67
REMARK SMILES IDX 85 68 79 69 78 70 49 72 71 73 56 74 70 75 57 76 60 77 69 78
REMARK SMILES IDX 83 79 58 80 59 81 68 83 84 84 61 85 50 86 51 87 55 88 52 89
REMARK SMILES IDX 54 90 53 91 72 92 73 93 77 94 74 95 76 96 75 97 62 98 63 99
REMARK SMILES IDX 67 100 64 101 66 102 65 103
REMARK H PARENT 34 4 20 9 16 14 25 43 38 52 82 71 60 82
REMARK Flexibility Score: inf
ROOT
ATOM      1  C   UNL A   1      35.772  22.960  23.924  1.00  0.00     0.242 C 
ATOM      2  O   UNL A   1      35.365  23.311  22.809  1.00  0.00    -0.273 OA
ATOM      3  N   UNL A   1      36.973  23.479  24.290  1.00  0.00    -0.354 N 
ATOM      4  H   UNL A   1      37.384  24.030  23.586  1.00  0.00     0.163 HD
ENDROOT
BRANCH   1   5
ATOM      5  C   UNL A   1      34.949  21.950  24.748  1.00  0.00     0.175 C 
BRANCH   5   6
ATOM      6  N   UNL A   1      34.969  22.387  26.147  1.00  0.00    -0.342 N 
ATOM      7  C   UNL A   1      33.936  22.483  27.034  1.00  0.00     0.240 C 
ATOM      8  O   UNL A   1      34.192  23.008  28.122  1.00  0.00    -0.273 OA
ATOM      9  H   UNL A   1      35.852  22.648  26.496  1.00  0.00     0.164 HD
BRANCH   7  10
ATOM     10  C   UNL A   1      32.576  21.792  26.787  1.00  0.00     0.216 C 
BRANCH  10  11
ATOM     11  N   UNL A   1      31.376  22.418  27.335  1.00  0.00    -0.340 N 
ATOM     12  C   UNL A   1      30.554  23.365  26.743  1.00  0.00     0.292 C 
ATOM     13  O   UNL A   1      29.528  23.763  27.279  1.00  0.00    -0.265 OA
ATOM     14  H   UNL A   1      31.118  22.131  28.241  1.00  0.00     0.164 HD
BRANCH  12  15
ATOM     15  C   UNL A   1      30.929  23.909  25.367  1.00  0.00     0.252 C 
ATOM     16  O   UNL A   1      30.774  23.140  24.419  1.00  0.00    -0.283 OA
BRANCH  15  17
ATOM     17  C   UNL A   1      31.622  25.195  25.223  1.00  0.00     0.054 A 
ATOM     18  N   UNL A   1      32.579  27.226  25.506  1.00  0.00    -0.240 N 
ATOM     19  C   UNL A   1      31.873  26.212  26.153  1.00  0.00     0.117 A 
ATOM     20  C   UNL A   1      32.968  26.731  24.248  1.00  0.00     0.065 A 
ATOM     21  C   UNL A   1      32.106  25.674  23.970  1.00  0.00     0.012 A 
ATOM     22  C   UNL A   1      33.781  27.297  23.246  1.00  0.00     0.028 A 
ATOM     23  C   UNL A   1      31.916  25.292  22.625  1.00  0.00     0.011 A 
ATOM     24  C   UNL A   1      33.521  26.955  21.920  1.00  0.00     0.002 A 
ATOM     25  C   UNL A   1      32.571  25.993  21.609  1.00  0.00     0.001 A 
BRANCH  18  26
ATOM     26  S   UNL A   1      32.100  28.903  25.405  1.00  0.00     0.268 S 
ATOM     27  O   UNL A   1      33.296  29.555  24.901  1.00  0.00    -0.201 OA
ATOM     28  O   UNL A   1      31.610  29.169  26.753  1.00  0.00    -0.201 OA
BRANCH  26  29
ATOM     29  C   UNL A   1      30.784  29.541  24.434  1.00  0.00     0.088 A 
ATOM     30  C   UNL A   1      27.971  30.459  21.286  1.00  0.00     0.044 C 
ATOM     31  C   UNL A   1      28.903  30.151  22.423  1.00  0.00    -0.051 A 
ATOM     32  C   UNL A   1      29.580  28.940  22.380  1.00  0.00     0.005 A 
ATOM     33  C   UNL A   1      29.164  31.043  23.489  1.00  0.00     0.005 A 
ATOM     34  C   UNL A   1      30.491  28.643  23.377  1.00  0.00     0.022 A 
ATOM     35  C   UNL A   1      30.112  30.748  24.503  1.00  0.00     0.022 A 
ENDBRANCH  26  29
ENDBRANCH  18  26
ENDBRANCH  15  17
ENDBRANCH  12  15
ENDBRANCH  10  11
ENDBRANCH   7  10
ENDBRANCH   5   6
BRANCH   5  36
ATOM     36  C   UNL A   1      35.280  20.446  24.605  1.00  0.00     0.072 C 
BRANCH  36  37
ATOM     37  C   UNL A   1      34.198  19.395  24.581  1.00  0.00    -0.020 A 
ATOM     38  C   UNL A   1      32.849  19.518  24.315  1.00  0.00     0.087 A 
ATOM     39  C   UNL A   1      34.408  17.984  24.831  1.00  0.00     0.003 A 
ATOM     40  N   UNL A   1      32.278  18.279  24.291  1.00  0.00    -0.361 N 
ATOM     41  C   UNL A   1      33.213  17.319  24.553  1.00  0.00     0.046 A 
ATOM     42  C   UNL A   1      35.505  17.203  25.254  1.00  0.00     0.010 A 
ATOM     43  H   UNL A   1      31.327  18.101  24.110  1.00  0.00     0.166 HD
ATOM     44  C   UNL A   1      33.070  15.928  24.591  1.00  0.00     0.026 A 
ATOM     45  C   UNL A   1      35.367  15.810  25.353  1.00  0.00     0.001 A 
ATOM     46  C   UNL A   1      34.174  15.183  25.002  1.00  0.00     0.002 A 
ENDBRANCH  36  37
ENDBRANCH   5  36
ENDBRANCH   1   5
BRANCH   3  47
ATOM     47  C   UNL A   1      37.784  23.399  25.494  1.00  0.00     0.117 C 
BRANCH  47  48
ATOM     48  C   UNL A   1      38.599  22.117  25.618  1.00  0.00     0.042 C 
BRANCH  48  49
ATOM     49  C   UNL A   1      39.711  22.181  26.664  1.00  0.00     0.118 C 
BRANCH  49  50
ATOM     50  N   UNL A   1      41.001  22.622  26.142  1.00  0.00    -0.352 N 
ATOM     51  C   UNL A   1      41.551  23.895  26.119  1.00  0.00     0.251 C 
ATOM     52  H   UNL A   1      41.561  21.913  25.752  1.00  0.00     0.163 HD
ATOM     53  O   UNL A   1      42.666  24.072  25.660  1.00  0.00    -0.269 OA
BRANCH  51  54
ATOM     54  C   UNL A   1      40.827  25.016  26.768  1.00  0.00     0.039 A 
ATOM     55  C   UNL A   1      40.836  26.255  26.118  1.00  0.00     0.014 A 
ATOM     56  C   UNL A   1      40.297  24.903  28.050  1.00  0.00     0.014 A 
ATOM     57  C   UNL A   1      40.572  27.413  26.847  1.00  0.00     0.010 A 
ATOM     58  C   UNL A   1      40.074  26.054  28.786  1.00  0.00     0.010 A 
ATOM     59  C   UNL A   1      40.310  27.303  28.212  1.00  0.00    -0.014 A 
BRANCH  59  60
ATOM     60  C   UNL A   1      40.450  28.430  29.127  1.00  0.00     0.031 A 
ATOM     61  C   UNL A   1      39.366  29.406  29.313  1.00  0.00     0.074 A 
ATOM     62  C   UNL A   1      41.609  28.592  29.803  1.00  0.00     0.049 A 
ATOM     63  N   UNL A   1      39.567  30.661  29.545  1.00  0.00    -0.248 NA
ATOM     64  C   UNL A   1      37.958  29.043  29.223  1.00  0.00     0.031 C 
ATOM     65  C   UNL A   1      41.893  29.544  30.873  1.00  0.00     0.029 A 
ATOM     66  N   UNL A   1      42.855  28.056  29.472  1.00  0.00    -0.354 N 
ATOM     67  C   UNL A   1      38.357  31.205  29.902  1.00  0.00     0.074 A 
ATOM     68  C   UNL A   1      37.374  30.184  29.604  1.00  0.00     0.031 C 
ATOM     69  C   UNL A   1      43.221  29.731  30.941  1.00  0.00     0.029 A 
ATOM     70  C   UNL A   1      43.824  29.007  29.834  1.00  0.00     0.049 A 
ATOM     71  H   UNL A   1      43.022  27.178  29.062  1.00  0.00     0.167 HD
ATOM     72  C   UNL A   1      38.310  32.397  30.557  1.00  0.00     0.031 A 
ATOM     73  C   UNL A   1      44.663  29.551  28.906  1.00  0.00     0.031 A 
ATOM     74  C   UNL A   1      39.638  32.952  30.800  1.00  0.00     0.049 A 
ATOM     75  C   UNL A   1      44.536  31.051  28.773  1.00  0.00     0.074 A 
ATOM     76  C   UNL A   1      40.463  32.945  31.912  1.00  0.00     0.029 A 
ATOM     77  N   UNL A   1      40.421  33.366  29.730  1.00  0.00    -0.354 N 
ATOM     78  N   UNL A   1      43.519  31.740  29.210  1.00  0.00    -0.248 NA
ATOM     79  C   UNL A   1      45.521  31.884  28.088  1.00  0.00     0.031 C 
ATOM     80  C   UNL A   1      41.767  33.311  31.496  1.00  0.00     0.029 A 
ATOM     81  C   UNL A   1      41.726  33.562  30.137  1.00  0.00     0.049 A 
ATOM     82  H   UNL A   1      40.092  33.499  28.811  1.00  0.00     0.167 HD
ATOM     83  C   UNL A   1      43.684  33.061  28.877  1.00  0.00     0.074 A 
ATOM     84  C   UNL A   1      44.961  33.103  28.189  1.00  0.00     0.031 C 
ATOM     85  C   UNL A   1      42.742  34.000  29.190  1.00  0.00     0.031 A 
BRANCH  72  86
ATOM     86  C   UNL A   1      37.064  32.875  31.257  1.00  0.00    -0.014 A 
ATOM     87  C   UNL A   1      36.628  32.234  32.430  1.00  0.00     0.009 A 
ATOM     88  C   UNL A   1      36.255  33.919  30.777  1.00  0.00     0.009 A 
ATOM     89  C   UNL A   1      35.399  32.539  33.028  1.00  0.00     0.001 A 
ATOM     90  C   UNL A   1      35.005  34.201  31.346  1.00  0.00     0.001 A 
ATOM     91  C   UNL A   1      34.570  33.500  32.463  1.00  0.00     0.000 A 
ENDBRANCH  72  86
BRANCH  73  92
ATOM     92  C   UNL A   1      45.001  28.635  27.784  1.00  0.00    -0.014 A 
ATOM     93  C   UNL A   1      46.002  27.664  27.985  1.00  0.00     0.009 A 
ATOM     94  C   UNL A   1      44.138  28.492  26.689  1.00  0.00     0.009 A 
ATOM     95  C   UNL A   1      46.070  26.527  27.174  1.00  0.00     0.001 A 
ATOM     96  C   UNL A   1      44.216  27.356  25.875  1.00  0.00     0.001 A 
ATOM     97  C   UNL A   1      45.156  26.360  26.137  1.00  0.00     0.000 A 
ENDBRANCH  73  92
BRANCH  85  98
ATOM     98  C   UNL A   1      42.703  35.435  28.717  1.00  0.00    -0.014 A 
ATOM     99  C   UNL A   1      43.079  36.542  29.488  1.00  0.00     0.009 A 
ATOM    100  C   UNL A   1      42.374  35.696  27.365  1.00  0.00     0.009 A 
ATOM    101  C   UNL A   1      43.086  37.839  28.951  1.00  0.00     0.001 A 
ATOM    102  C   UNL A   1      42.424  36.977  26.813  1.00  0.00     0.001 A 
ATOM    103  C   UNL A   1      42.769  38.055  27.613  1.00  0.00     0.000 A 
ENDBRANCH  85  98
ENDBRANCH  59  60
ENDBRANCH  51  54
ENDBRANCH  49  50
ENDBRANCH  48  49
ENDBRANCH  47  48
ENDBRANCH   3  47
TORSDOF 19
ENDMDL
MODEL 2
REMARK VINA RESULT:     -13.3      3.133      9.907
REMARK SMILES Cc1ccc(S(=O)(=O)n2cc(C(=O)C(=O)NCC(=O)N[C@H](Cc3c[nH]c4ccccc34)C(=O)NCCCNC(=O)c3ccc(-c4c5nc(c(-c6ccccc6)c6ccc([nH]6)c(-c6ccccc6)c6nc(c(-c7ccccc7)c7ccc4[nH]7)C=C6)C=C5)cc3)c3ccccc32)cc1
REMARK SMILES IDX 32 1 33 2 34 3 21 5 20 6 18 7 19 8 17 10 16 11 14 12 15 13
REMARK SMILES IDX 12 15 13 16 11 17 9 18 10 19 94 20 89 21 93 22 90 23 92 24
REMARK SMILES IDX 91 25 6 26 7 27 8 28 5 29 1 30 2 31 3 32 96 33 4 34 95 35
REMARK SMILES IDX 22 36 23 37 24 38 31 39 25 40 26 41 30 42 27 44 29 45 28 46
REMARK SMILES IDX 35 47 36 48 37 49 38 50 39 51 40 53 41 54 42 55 88 56 43 57
REMARK SMILES IDX 87 58 44 59 45 60 46 61 81 62 47 63 86 64 80 65 82 66 48 67
REMARK SMILES IDX 85 68 79 69 78 70 49 72 71 73 56 74 70 75 57 76 60 77 69 78
REMARK SMILES IDX 83 79 58 80 59 81 68 83 84 84 61 85 50 86 51 87 55 88 52 89
REMARK SMILES IDX 54 90 53 91 72 92 73 93 77 94 74 95 76 96 75 97 62 98 63 99
REMARK SMILES IDX 67 100 64 101 66 102 65 103
REMARK H PARENT 34 4 20 9 16 14 25 43 38 52 82 71 60 82
REMARK Flexibility Score: inf
ROOT
ATOM      1  C   UNL A   1      31.987  30.737  26.304  1.00  0.00     0.242 C 
ATOM      2  O   UNL A   1      31.029  31.518  26.250  1.00  0.00    -0.273 OA
ATOM      3  N   UNL A   1      33.024  31.148  27.080  1.00  0.00    -0.354 N 
ATOM      4  H   UNL A   1      32.889  32.047  27.457  1.00  0.00     0.163 HD
ENDROOT
BRANCH   1   5
ATOM      5  C   UNL A   1      31.958  29.443  25.468  1.00  0.00     0.175 C 
BRANCH   5   6
ATOM      6  N   UNL A   1      33.004  29.544  24.444  1.00  0.00    -0.342 N 
ATOM      7  C   UNL A   1      33.868  28.585  24.000  1.00  0.00     0.240 C 
ATOM      8  O   UNL A   1      34.750  28.959  23.220  1.00  0.00    -0.273 OA
ATOM      9  H   UNL A   1      33.096  30.427  24.019  1.00  0.00     0.164 HD
BRANCH   7  10
ATOM     10  C   UNL A   1      33.641  27.082  24.281  1.00  0.00     0.216 C 
BRANCH  10  11
ATOM     11  N   UNL A   1      32.516  26.422  23.624  1.00  0.00    -0.340 N 
ATOM     12  C   UNL A   1      31.747  25.366  24.091  1.00  0.00     0.292 C 
ATOM     13  O   UNL A   1      30.777  24.945  23.474  1.00  0.00    -0.265 OA
ATOM     14  H   UNL A   1      32.271  26.772  22.737  1.00  0.00     0.164 HD
BRANCH  12  15
ATOM     15  C   UNL A   1      32.110  24.726  25.428  1.00  0.00     0.252 C 
ATOM     16  O   UNL A   1      31.477  25.119  26.407  1.00  0.00    -0.283 OA
BRANCH  15  17
ATOM     17  C   UNL A   1      33.280  23.849  25.556  1.00  0.00     0.054 A 
ATOM     18  N   UNL A   1      35.302  22.917  25.964  1.00  0.00    -0.240 N 
ATOM     19  C   UNL A   1      34.561  24.095  26.065  1.00  0.00     0.117 A 
ATOM     20  C   UNL A   1      34.409  21.887  25.615  1.00  0.00     0.065 A 
ATOM     21  C   UNL A   1      33.305  22.516  25.048  1.00  0.00     0.012 A 
ATOM     22  C   UNL A   1      34.609  20.499  25.489  1.00  0.00     0.028 A 
ATOM     23  C   UNL A   1      32.475  21.773  24.180  1.00  0.00     0.011 A 
ATOM     24  C   UNL A   1      33.823  19.805  24.570  1.00  0.00     0.002 A 
ATOM     25  C   UNL A   1      32.793  20.443  23.892  1.00  0.00     0.001 A 
BRANCH  18  26
ATOM     26  S   UNL A   1      36.830  22.738  25.135  1.00  0.00     0.268 S 
ATOM     27  O   UNL A   1      37.492  24.006  25.392  1.00  0.00    -0.201 OA
ATOM     28  O   UNL A   1      36.413  22.366  23.788  1.00  0.00    -0.201 OA
BRANCH  26  29
ATOM     29  C   UNL A   1      38.042  21.512  25.466  1.00  0.00     0.088 A 
ATOM     30  C   UNL A   1      41.675  19.358  26.376  1.00  0.00     0.044 C 
ATOM     31  C   UNL A   1      40.378  20.060  26.088  1.00  0.00    -0.051 A 
ATOM     32  C   UNL A   1      40.267  21.382  26.495  1.00  0.00     0.005 A 
ATOM     33  C   UNL A   1      39.304  19.469  25.383  1.00  0.00     0.005 A 
ATOM     34  C   UNL A   1      39.113  22.082  26.197  1.00  0.00     0.022 A 
ATOM     35  C   UNL A   1      38.126  20.192  25.061  1.00  0.00     0.022 A 
ENDBRANCH  26  29
ENDBRANCH  18  26
ENDBRANCH  15  17
ENDBRANCH  12  15
ENDBRANCH  10  11
ENDBRANCH   7  10
ENDBRANCH   5   6
BRANCH   5  36
ATOM     36  C   UNL A   1      30.606  28.987  24.871  1.00  0.00     0.072 C 
BRANCH  36  37
ATOM     37  C   UNL A   1      30.194  29.359  23.467  1.00  0.00    -0.020 A 
ATOM     38  C   UNL A   1      30.347  28.663  22.285  1.00  0.00     0.087 A 
ATOM     39  C   UNL A   1      29.506  30.580  23.103  1.00  0.00     0.003 A 
ATOM     40  N   UNL A   1      29.714  29.336  21.280  1.00  0.00    -0.361 N 
ATOM     41  C   UNL A   1      29.149  30.483  21.757  1.00  0.00     0.046 A 
ATOM     42  C   UNL A   1      29.139  31.756  23.792  1.00  0.00     0.010 A 
ATOM     43  H   UNL A   1      29.670  29.036  20.344  1.00  0.00     0.166 HD
ATOM     44  C   UNL A   1      28.384  31.442  21.086  1.00  0.00     0.026 A 
ATOM     45  C   UNL A   1      28.419  32.757  23.120  1.00  0.00     0.001 A 
ATOM     46  C   UNL A   1      28.027  32.588  21.794  1.00  0.00     0.002 A 
ENDBRANCH  36  37
ENDBRANCH   5  36
ENDBRANCH   1   5
BRANCH   3  47
ATOM     47  C   UNL A   1      34.289  30.551  27.477  1.00  0.00     0.117 C 
BRANCH  47  48
ATOM     48  C   UNL A   1      35.183  31.467  28.305  1.00  0.00     0.042 C 
BRANCH  48  49
ATOM     49  C   UNL A   1      34.989  32.955  28.018  1.00  0.00     0.118 C 
BRANCH  49  50
ATOM     50  N   UNL A   1      34.117  33.641  28.967  1.00  0.00    -0.352 N 
ATOM     51  C   UNL A   1      34.346  33.961  30.297  1.00  0.00     0.251 C 
ATOM     52  H   UNL A   1      33.242  33.916  28.612  1.00  0.00     0.163 HD
ATOM     53  O   UNL A   1      33.502  34.565  30.936  1.00  0.00    -0.269 OA
BRANCH  51  54
ATOM     54  C   UNL A   1      35.671  33.675  30.901  1.00  0.00     0.039 A 
ATOM     55  C   UNL A   1      36.751  34.468  30.499  1.00  0.00     0.014 A 
ATOM     56  C   UNL A   1      35.884  32.562  31.711  1.00  0.00     0.014 A 
ATOM     57  C   UNL A   1      38.050  33.995  30.673  1.00  0.00     0.010 A 
ATOM     58  C   UNL A   1      37.171  32.072  31.850  1.00  0.00     0.010 A 
ATOM     59  C   UNL A   1      38.238  32.738  31.244  1.00  0.00    -0.014 A 
BRANCH  59  60
ATOM     60  C   UNL A   1      39.474  31.982  31.080  1.00  0.00     0.031 A 
ATOM     61  C   UNL A   1      39.525  30.762  30.260  1.00  0.00     0.074 A 
ATOM     62  C   UNL A   1      40.593  32.398  31.715  1.00  0.00     0.049 A 
ATOM     63  N   UNL A   1      40.278  29.749  30.531  1.00  0.00    -0.248 NA
ATOM     64  C   UNL A   1      38.698  30.580  29.073  1.00  0.00     0.031 C 
ATOM     65  C   UNL A   1      41.951  31.887  31.557  1.00  0.00     0.029 A 
ATOM     66  N   UNL A   1      40.662  33.240  32.826  1.00  0.00    -0.354 N 
ATOM     67  C   UNL A   1      40.248  28.919  29.437  1.00  0.00     0.074 A 
ATOM     68  C   UNL A   1      39.189  29.432  28.594  1.00  0.00     0.031 C 
ATOM     69  C   UNL A   1      42.657  32.196  32.657  1.00  0.00     0.029 A 
ATOM     70  C   UNL A   1      41.741  32.800  33.611  1.00  0.00     0.049 A 
ATOM     71  H   UNL A   1      40.067  33.998  33.023  1.00  0.00     0.167 HD
ATOM     72  C   UNL A   1      41.216  27.976  29.268  1.00  0.00     0.031 A 
ATOM     73  C   UNL A   1      41.558  32.380  34.896  1.00  0.00     0.031 A 
ATOM     74  C   UNL A   1      42.204  27.992  30.342  1.00  0.00     0.049 A 
ATOM     75  C   UNL A   1      41.964  30.943  35.132  1.00  0.00     0.074 A 
ATOM     76  C   UNL A   1      43.468  28.549  30.438  1.00  0.00     0.029 A 
ATOM     77  N   UNL A   1      41.830  27.637  31.631  1.00  0.00    -0.354 N 
ATOM     78  N   UNL A   1      42.139  30.068  34.182  1.00  0.00    -0.248 NA
ATOM     79  C   UNL A   1      42.152  30.369  36.462  1.00  0.00     0.031 C 
ATOM     80  C   UNL A   1      43.837  28.574  31.806  1.00  0.00     0.029 A 
ATOM     81  C   UNL A   1      42.806  28.010  32.535  1.00  0.00     0.049 A 
ATOM     82  H   UNL A   1      40.988  27.184  31.868  1.00  0.00     0.167 HD
ATOM     83  C   UNL A   1      42.442  28.848  34.734  1.00  0.00     0.074 A 
ATOM     84  C   UNL A   1      42.453  29.093  36.164  1.00  0.00     0.031 C 
ATOM     85  C   UNL A   1      42.642  27.743  33.957  1.00  0.00     0.031 A 
BRANCH  72  86
ATOM     86  C   UNL A   1      41.425  27.274  27.951  1.00  0.00    -0.014 A 
ATOM     87  C   UNL A   1      42.244  27.856  26.968  1.00  0.00     0.009 A 
ATOM     88  C   UNL A   1      40.800  26.063  27.608  1.00  0.00     0.009 A 
ATOM     89  C   UNL A   1      42.345  27.323  25.677  1.00  0.00     0.001 A 
ATOM     90  C   UNL A   1      40.863  25.546  26.306  1.00  0.00     0.001 A 
ATOM     91  C   UNL A   1      41.625  26.185  25.336  1.00  0.00     0.000 A 
ENDBRANCH  72  86
BRANCH  73  92
ATOM     92  C   UNL A   1      40.442  33.063  35.603  1.00  0.00    -0.014 A 
ATOM     93  C   UNL A   1      39.361  32.286  36.065  1.00  0.00     0.009 A 
ATOM     94  C   UNL A   1      40.600  34.360  36.110  1.00  0.00     0.009 A 
ATOM     95  C   UNL A   1      38.524  32.756  37.083  1.00  0.00     0.001 A 
ATOM     96  C   UNL A   1      39.754  34.829  37.123  1.00  0.00     0.001 A 
ATOM     97  C   UNL A   1      38.742  34.017  37.632  1.00  0.00     0.000 A 
ENDBRANCH  73  92
BRANCH  85  98
ATOM     98  C   UNL A   1      42.786  26.315  34.434  1.00  0.00    -0.014 A 
ATOM     99  C   UNL A   1      43.919  25.516  34.238  1.00  0.00     0.009 A 
ATOM    100  C   UNL A   1      41.761  25.762  35.238  1.00  0.00     0.009 A 
ATOM    101  C   UNL A   1      44.004  24.223  34.777  1.00  0.00     0.001 A 
ATOM    102  C   UNL A   1      41.860  24.495  35.816  1.00  0.00     0.001 A 
ATOM    103  C   UNL A   1      42.981  23.718  35.574  1.00  0.00     0.000 A 
ENDBRANCH  85  98
ENDBRANCH  59  60
ENDBRANCH  51  54
ENDBRANCH  49  50
ENDBRANCH  48  49
ENDBRANCH  47  48
ENDBRANCH   3  47
TORSDOF 19
ENDMDL
MODEL 3
REMARK VINA RESULT:     -13.2      3.574     10.183
REMARK SMILES Cc1ccc(S(=O)(=O)n2cc(C(=O)C(=O)NCC(=O)N[C@H](Cc3c[nH]c4ccccc34)C(=O)NCCCNC(=O)c3ccc(-c4c5nc(c(-c6ccccc6)c6ccc([nH]6)c(-c6ccccc6)c6nc(c(-c7ccccc7)c7ccc4[nH]7)C=C6)C=C5)cc3)c3ccccc32)cc1
REMARK SMILES IDX 32 1 33 2 34 3 21 5 20 6 18 7 19 8 17 10 16 11 14 12 15 13
REMARK SMILES IDX 12 15 13 16 11 17 9 18 10 19 94 20 89 21 93 22 90 23 92 24
REMARK SMILES IDX 91 25 6 26 7 27 8 28 5 29 1 30 2 31 3 32 96 33 4 34 95 35
REMARK SMILES IDX 22 36 23 37 24 38 31 39 25 40 26 41 30 42 27 44 29 45 28 46
REMARK SMILES IDX 35 47 36 48 37 49 38 50 39 51 40 53 41 54 42 55 88 56 43 57
REMARK SMILES IDX 87 58 44 59 45 60 46 61 81 62 47 63 86 64 80 65 82 66 48 67
REMARK SMILES IDX 85 68 79 69 78 70 49 72 71 73 56 74 70 75 57 76 60 77 69 78
REMARK SMILES IDX 83 79 58 80 59 81 68 83 84 84 61 85 50 86 51 87 55 88 52 89
REMARK SMILES IDX 54 90 53 91 72 92 73 93 77 94 74 95 76 96 75 97 62 98 63 99
REMARK SMILES IDX 67 100 64 101 66 102 65 103
REMARK H PARENT 34 4 20 9 16 14 25 43 38 52 82 71 60 82
REMARK Flexibility Score: inf
ROOT
ATOM      1  C   UNL A   1      32.303  30.176  26.544  1.00  0.00     0.242 C 
ATOM      2  O   UNL A   1      31.567  31.160  26.693  1.00  0.00    -0.273 OA
ATOM      3  N   UNL A   1      33.340  30.093  27.419  1.00  0.00    -0.354 N 
ATOM      4  H   UNL A   1      33.393  30.866  28.026  1.00  0.00     0.163 HD
ENDROOT
BRANCH   1   5
ATOM      5  C   UNL A   1      32.036  29.198  25.384  1.00  0.00     0.175 C 
BRANCH   5   6
ATOM      6  N   UNL A   1      32.958  29.529  24.293  1.00  0.00    -0.342 N 
ATOM      7  C   UNL A   1      33.704  28.694  23.512  1.00  0.00     0.240 C 
ATOM      8  O   UNL A   1      34.509  29.230  22.745  1.00  0.00    -0.273 OA
ATOM      9  H   UNL A   1      33.053  30.489  24.096  1.00  0.00     0.164 HD
BRANCH   7  10
ATOM     10  C   UNL A   1      33.420  27.176  23.432  1.00  0.00     0.216 C 
BRANCH  10  11
ATOM     11  N   UNL A   1      33.417  26.546  22.115  1.00  0.00    -0.340 N 
ATOM     12  C   UNL A   1      32.930  25.296  21.761  1.00  0.00     0.292 C 
ATOM     13  O   UNL A   1      32.919  24.907  20.600  1.00  0.00    -0.265 OA
ATOM     14  H   UNL A   1      33.809  27.077  21.384  1.00  0.00     0.164 HD
BRANCH  12  15
ATOM     15  C   UNL A   1      32.371  24.388  22.853  1.00  0.00     0.252 C 
ATOM     16  O   UNL A   1      31.182  24.545  23.132  1.00  0.00    -0.283 OA
BRANCH  15  17
ATOM     17  C   UNL A   1      33.254  23.530  23.652  1.00  0.00     0.054 A 
ATOM     18  N   UNL A   1      34.862  22.652  24.979  1.00  0.00    -0.240 N 
ATOM     19  C   UNL A   1      34.397  23.833  24.401  1.00  0.00     0.117 A 
ATOM     20  C   UNL A   1      33.875  21.669  24.782  1.00  0.00     0.065 A 
ATOM     21  C   UNL A   1      33.105  22.112  23.711  1.00  0.00     0.012 A 
ATOM     22  C   UNL A   1      33.789  20.343  25.249  1.00  0.00     0.028 A 
ATOM     23  C   UNL A   1      32.365  21.164  22.971  1.00  0.00     0.011 A 
ATOM     24  C   UNL A   1      33.113  19.414  24.461  1.00  0.00     0.002 A 
ATOM     25  C   UNL A   1      32.442  19.811  23.312  1.00  0.00     0.001 A 
BRANCH  18  26
ATOM     26  S   UNL A   1      36.466  21.984  24.792  1.00  0.00     0.268 S 
ATOM     27  O   UNL A   1      36.772  22.254  23.397  1.00  0.00    -0.201 OA
ATOM     28  O   UNL A   1      36.294  20.618  25.274  1.00  0.00    -0.201 OA
BRANCH  26  29
ATOM     29  C   UNL A   1      37.897  22.479  25.680  1.00  0.00     0.088 A 
ATOM     30  C   UNL A   1      41.502  22.632  28.056  1.00  0.00     0.044 C 
ATOM     31  C   UNL A   1      40.269  22.630  27.197  1.00  0.00    -0.051 A 
ATOM     32  C   UNL A   1      39.951  21.448  26.545  1.00  0.00     0.005 A 
ATOM     33  C   UNL A   1      39.401  23.738  27.068  1.00  0.00     0.005 A 
ATOM     34  C   UNL A   1      38.793  21.386  25.793  1.00  0.00     0.022 A 
ATOM     35  C   UNL A   1      38.202  23.671  26.311  1.00  0.00     0.022 A 
ENDBRANCH  26  29
ENDBRANCH  18  26
ENDBRANCH  15  17
ENDBRANCH  12  15
ENDBRANCH  10  11
ENDBRANCH   7  10
ENDBRANCH   5   6
BRANCH   5  36
ATOM     36  C   UNL A   1      30.581  29.036  24.884  1.00  0.00     0.072 C 
BRANCH  36  37
ATOM     37  C   UNL A   1      30.174  29.440  23.488  1.00  0.00    -0.020 A 
ATOM     38  C   UNL A   1      30.285  28.751  22.297  1.00  0.00     0.087 A 
ATOM     39  C   UNL A   1      29.538  30.695  23.142  1.00  0.00     0.003 A 
ATOM     40  N   UNL A   1      29.674  29.462  21.305  1.00  0.00    -0.361 N 
ATOM     41  C   UNL A   1      29.166  30.629  21.799  1.00  0.00     0.046 A 
ATOM     42  C   UNL A   1      29.230  31.879  23.847  1.00  0.00     0.010 A 
ATOM     43  H   UNL A   1      29.608  29.174  20.366  1.00  0.00     0.166 HD
ATOM     44  C   UNL A   1      28.438  31.628  21.144  1.00  0.00     0.026 A 
ATOM     45  C   UNL A   1      28.551  32.918  23.191  1.00  0.00     0.001 A 
ATOM     46  C   UNL A   1      28.140  32.781  21.868  1.00  0.00     0.002 A 
ENDBRANCH  36  37
ENDBRANCH   5  36
ENDBRANCH   1   5
BRANCH   3  47
ATOM     47  C   UNL A   1      34.388  29.113  27.655  1.00  0.00     0.117 C 
BRANCH  47  48
ATOM     48  C   UNL A   1      35.661  29.690  28.263  1.00  0.00     0.042 C 
BRANCH  48  49
ATOM     49  C   UNL A   1      35.525  31.134  28.744  1.00  0.00     0.118 C 
BRANCH  49  50
ATOM     50  N   UNL A   1      35.778  31.318  30.170  1.00  0.00    -0.352 N 
ATOM     51  C   UNL A   1      36.815  30.826  30.950  1.00  0.00     0.251 C 
ATOM     52  H   UNL A   1      35.118  31.870  30.647  1.00  0.00     0.163 HD
ATOM     53  O   UNL A   1      36.878  31.107  32.133  1.00  0.00    -0.269 OA
BRANCH  51  54
ATOM     54  C   UNL A   1      37.913  30.062  30.307  1.00  0.00     0.039 A 
ATOM     55  C   UNL A   1      38.041  28.709  30.641  1.00  0.00     0.014 A 
ATOM     56  C   UNL A   1      38.886  30.686  29.531  1.00  0.00     0.014 A 
ATOM     57  C   UNL A   1      39.260  28.066  30.434  1.00  0.00     0.010 A 
ATOM     58  C   UNL A   1      40.109  30.061  29.362  1.00  0.00     0.010 A 
ATOM     59  C   UNL A   1      40.323  28.793  29.903  1.00  0.00    -0.014 A 
BRANCH  59  60
ATOM     60  C   UNL A   1      41.710  28.367  30.047  1.00  0.00     0.031 A 
ATOM     61  C   UNL A   1      42.243  27.219  29.298  1.00  0.00     0.074 A 
ATOM     62  C   UNL A   1      42.519  29.029  30.905  1.00  0.00     0.049 A 
ATOM     63  N   UNL A   1      43.139  26.415  29.764  1.00  0.00    -0.248 NA
ATOM     64  C   UNL A   1      41.778  26.871  27.961  1.00  0.00     0.031 C 
ATOM     65  C   UNL A   1      43.961  28.870  31.075  1.00  0.00     0.029 A 
ATOM     66  N   UNL A   1      42.127  29.832  31.977  1.00  0.00    -0.354 N 
ATOM     67  C   UNL A   1      43.563  25.632  28.718  1.00  0.00     0.074 A 
ATOM     68  C   UNL A   1      42.630  25.891  27.641  1.00  0.00     0.031 C 
ATOM     69  C   UNL A   1      44.300  29.314  32.296  1.00  0.00     0.029 A 
ATOM     70  C   UNL A   1      43.073  29.651  32.999  1.00  0.00     0.049 A 
ATOM     71  H   UNL A   1      41.335  30.416  32.010  1.00  0.00     0.167 HD
ATOM     72  C   UNL A   1      44.744  24.960  28.801  1.00  0.00     0.031 A 
ATOM     73  C   UNL A   1      42.711  29.165  34.221  1.00  0.00     0.031 A 
ATOM     74  C   UNL A   1      45.427  25.190  30.070  1.00  0.00     0.049 A 
ATOM     75  C   UNL A   1      43.392  27.866  34.588  1.00  0.00     0.074 A 
ATOM     76  C   UNL A   1      46.462  26.037  30.432  1.00  0.00     0.029 A 
ATOM     77  N   UNL A   1      44.869  24.720  31.252  1.00  0.00    -0.354 N 
ATOM     78  N   UNL A   1      43.987  27.085  33.730  1.00  0.00    -0.248 NA
ATOM     79  C   UNL A   1      43.408  27.321  35.943  1.00  0.00     0.031 C 
ATOM     80  C   UNL A   1      46.492  26.115  31.847  1.00  0.00     0.029 A 
ATOM     81  C   UNL A   1      45.493  25.297  32.341  1.00  0.00     0.049 A 
ATOM     82  H   UNL A   1      44.133  24.068  31.305  1.00  0.00     0.167 HD
ATOM     83  C   UNL A   1      44.445  25.963  34.373  1.00  0.00     0.074 A 
ATOM     84  C   UNL A   1      44.071  26.165  35.761  1.00  0.00     0.031 C 
ATOM     85  C   UNL A   1      45.081  24.961  33.697  1.00  0.00     0.031 A 
BRANCH  72  86
ATOM     86  C   UNL A   1      45.411  24.365  27.589  1.00  0.00    -0.014 A 
ATOM     87  C   UNL A   1      46.343  25.123  26.858  1.00  0.00     0.009 A 
ATOM     88  C   UNL A   1      45.124  23.082  27.093  1.00  0.00     0.009 A 
ATOM     89  C   UNL A   1      46.871  24.675  25.641  1.00  0.00     0.001 A 
ATOM     90  C   UNL A   1      45.617  22.643  25.856  1.00  0.00     0.001 A 
ATOM     91  C   UNL A   1      46.479  23.447  25.122  1.00  0.00     0.000 A 
ENDBRANCH  72  86
BRANCH  73  92
ATOM     92  C   UNL A   1      41.331  29.535  34.636  1.00  0.00    -0.014 A 
ATOM     93  C   UNL A   1      41.169  30.470  35.677  1.00  0.00     0.009 A 
ATOM     94  C   UNL A   1      40.234  29.250  33.813  1.00  0.00     0.009 A 
ATOM     95  C   UNL A   1      39.972  31.178  35.823  1.00  0.00     0.001 A 
ATOM     96  C   UNL A   1      39.034  29.954  33.969  1.00  0.00     0.001 A 
ATOM     97  C   UNL A   1      38.915  30.940  34.949  1.00  0.00     0.000 A 
ENDBRANCH  73  92
BRANCH  85  98
ATOM     98  C   UNL A   1      45.458  23.600  34.238  1.00  0.00    -0.014 A 
ATOM     99  C   UNL A   1      44.569  22.530  34.401  1.00  0.00     0.009 A 
ATOM    100  C   UNL A   1      46.822  23.327  34.497  1.00  0.00     0.009 A 
ATOM    101  C   UNL A   1      45.012  21.272  34.839  1.00  0.00     0.001 A 
ATOM    102  C   UNL A   1      47.275  22.065  34.888  1.00  0.00     0.001 A 
ATOM    103  C   UNL A   1      46.364  21.037  35.072  1.00  0.00     0.000 A 
ENDBRANCH  85  98
ENDBRANCH  59  60
ENDBRANCH  51  54
ENDBRANCH  49  50
ENDBRANCH  48  49
ENDBRANCH  47  48
ENDBRANCH   3  47
TORSDOF 19
ENDMDL
