MODEL 1
REMARK VINA RESULT:     -10.0      0.000      0.000
REMARK SMILES C[C@H]([NH2+][C@@H](C)Cc1cccs1)[C@@H](C)C(=O)NCCCNC(=O)c1ccc(-c2c3nc(c(-c4ccccc4)c4ccc([nH]4)c(-c4ccccc4)c4nc(c(-c5ccccc5)c5ccc2[nH]5)C=C4)C=C3)cc1
REMARK SMILES IDX 14 1 15 2 16 3 12 5 13 6 2 7 1 8 3 9 4 12 5 13 6 14 7 15
REMARK SMILES IDX 8 16 11 17 9 18 10 19 17 20 18 21 19 22 20 23 21 24 22 26
REMARK SMILES IDX 23 27 24 28 70 29 25 30 69 31 26 32 27 33 28 34 63 35 29 36
REMARK SMILES IDX 68 37 62 38 64 39 30 40 67 41 61 42 60 43 31 45 53 46 38 47
REMARK SMILES IDX 52 48 39 49 42 50 51 51 65 52 40 53 41 54 50 56 66 57 43 58
REMARK SMILES IDX 32 59 33 60 37 61 34 62 36 63 35 64 54 65 55 66 59 67 56 68
REMARK SMILES IDX 58 69 57 70 44 71 45 72 49 73 46 74 48 75 47 76
REMARK H PARENT 16 4 3 10 3 11 20 25 64 44 42 55
REMARK Flexibility Score: inf
ROOT
ATOM      1  C   UNL A   1      33.727  20.127  25.181  1.00  0.00     0.228 C 
ATOM      2  O   UNL A   1      32.913  19.205  25.287  1.00  0.00    -0.275 OA
ATOM      3  N   UNL A   1      35.032  19.782  25.082  1.00  0.00    -0.356 N 
ATOM      4  H   UNL A   1      35.189  18.813  24.998  1.00  0.00     0.163 HD
ENDROOT
BRANCH   1   5
ATOM      5  C   UNL A   1      33.259  21.574  25.121  1.00  0.00     0.133 C 
ATOM      6  C   UNL A   1      33.373  22.094  23.682  1.00  0.00     0.024 C 
BRANCH   5   7
ATOM      7  C   UNL A   1      33.829  22.509  26.220  1.00  0.00     0.191 C 
ATOM      8  C   UNL A   1      33.772  21.869  27.616  1.00  0.00     0.076 C 
BRANCH   7   9
ATOM      9  N   UNL A   1      33.286  23.881  26.132  1.00  0.00    -0.341 N 
ATOM     10  H   UNL A   1      32.831  24.070  27.024  1.00  0.00     0.346 HD
ATOM     11  H   UNL A   1      32.707  23.837  25.292  1.00  0.00     0.346 HD
BRANCH   9  12
ATOM     12  C   UNL A   1      34.157  25.030  25.856  1.00  0.00     0.184 C 
ATOM     13  C   UNL A   1      35.508  24.411  25.454  1.00  0.00     0.075 C 
BRANCH  12  14
ATOM     14  C   UNL A   1      33.710  25.964  24.699  1.00  0.00     0.111 C 
BRANCH  14  15
ATOM     15  C   UNL A   1      33.399  27.378  25.094  1.00  0.00     0.010 A 
ATOM     16  C   UNL A   1      33.895  28.082  26.175  1.00  0.00     0.015 A 
ATOM     17  S   UNL A   1      32.267  28.312  24.210  1.00  0.00    -0.149 S 
ATOM     18  C   UNL A   1      33.470  29.443  26.174  1.00  0.00     0.012 A 
ATOM     19  C   UNL A   1      32.602  29.709  25.140  1.00  0.00     0.065 A 
ENDBRANCH  14  15
ENDBRANCH  12  14
ENDBRANCH   9  12
ENDBRANCH   7   9
ENDBRANCH   5   7
ENDBRANCH   1   5
BRANCH   3  20
ATOM     20  C   UNL A   1      36.241  20.582  25.078  1.00  0.00     0.117 C 
BRANCH  20  21
ATOM     21  C   UNL A   1      37.486  19.716  24.941  1.00  0.00     0.042 C 
BRANCH  21  22
ATOM     22  C   UNL A   1      38.731  20.355  25.541  1.00  0.00     0.118 C 
BRANCH  22  23
ATOM     23  N   UNL A   1      39.809  19.390  25.721  1.00  0.00    -0.352 N 
ATOM     24  C   UNL A   1      41.124  19.603  26.038  1.00  0.00     0.251 C 
ATOM     25  H   UNL A   1      39.554  18.447  25.597  1.00  0.00     0.163 HD
ATOM     26  O   UNL A   1      41.953  18.705  25.878  1.00  0.00    -0.269 OA
BRANCH  24  27
ATOM     27  C   UNL A   1      41.545  20.914  26.559  1.00  0.00     0.039 A 
ATOM     28  C   UNL A   1      42.062  21.870  25.682  1.00  0.00     0.014 A 
ATOM     29  C   UNL A   1      41.428  21.195  27.923  1.00  0.00     0.014 A 
ATOM     30  C   UNL A   1      42.402  23.133  26.168  1.00  0.00     0.010 A 
ATOM     31  C   UNL A   1      41.668  22.480  28.384  1.00  0.00     0.010 A 
ATOM     32  C   UNL A   1      42.175  23.458  27.515  1.00  0.00    -0.014 A 
BRANCH  32  33
ATOM     33  C   UNL A   1      42.488  24.802  28.054  1.00  0.00     0.031 A 
ATOM     34  C   UNL A   1      43.893  25.125  28.482  1.00  0.00     0.074 A 
ATOM     35  C   UNL A   1      41.500  25.702  28.223  1.00  0.00     0.049 A 
ATOM     36  N   UNL A   1      44.355  26.208  29.051  1.00  0.00    -0.248 NA
ATOM     37  C   UNL A   1      44.909  24.079  28.272  1.00  0.00     0.031 C 
ATOM     38  C   UNL A   1      40.091  25.492  27.883  1.00  0.00     0.029 A 
ATOM     39  N   UNL A   1      41.533  26.977  28.729  1.00  0.00    -0.354 N 
ATOM     40  C   UNL A   1      45.703  25.966  29.283  1.00  0.00     0.074 A 
ATOM     41  C   UNL A   1      45.972  24.613  28.852  1.00  0.00     0.031 C 
ATOM     42  C   UNL A   1      39.401  26.612  28.158  1.00  0.00     0.029 A 
ATOM     43  C   UNL A   1      40.308  27.599  28.734  1.00  0.00     0.049 A 
ATOM     44  H   UNL A   1      42.356  27.404  29.059  1.00  0.00     0.167 HD
ATOM     45  C   UNL A   1      46.642  26.802  29.785  1.00  0.00     0.031 A 
ATOM     46  C   UNL A   1      39.958  28.825  29.161  1.00  0.00     0.031 A 
ATOM     47  C   UNL A   1      46.375  28.152  30.198  1.00  0.00     0.049 A 
ATOM     48  C   UNL A   1      41.014  29.729  29.734  1.00  0.00     0.074 A 
ATOM     49  C   UNL A   1      47.262  29.100  30.676  1.00  0.00     0.029 A 
ATOM     50  N   UNL A   1      45.122  28.746  30.181  1.00  0.00    -0.354 N 
ATOM     51  N   UNL A   1      42.298  29.506  29.887  1.00  0.00    -0.248 NA
ATOM     52  C   UNL A   1      40.575  31.058  30.180  1.00  0.00     0.031 C 
ATOM     53  C   UNL A   1      46.538  30.253  30.994  1.00  0.00     0.029 A 
ATOM     54  C   UNL A   1      45.210  30.042  30.658  1.00  0.00     0.049 A 
ATOM     55  H   UNL A   1      44.294  28.311  29.875  1.00  0.00     0.167 HD
ATOM     56  C   UNL A   1      42.823  30.677  30.417  1.00  0.00     0.074 A 
ATOM     57  C   UNL A   1      41.723  31.611  30.543  1.00  0.00     0.031 C 
ATOM     58  C   UNL A   1      44.102  30.956  30.768  1.00  0.00     0.031 A 
BRANCH  45  59
ATOM     59  C   UNL A   1      48.044  26.273  29.909  1.00  0.00    -0.014 A 
ATOM     60  C   UNL A   1      48.923  26.278  28.812  1.00  0.00     0.009 A 
ATOM     61  C   UNL A   1      48.502  25.785  31.141  1.00  0.00     0.009 A 
ATOM     62  C   UNL A   1      50.216  25.767  28.938  1.00  0.00     0.001 A 
ATOM     63  C   UNL A   1      49.807  25.305  31.273  1.00  0.00     0.001 A 
ATOM     64  C   UNL A   1      50.659  25.286  30.168  1.00  0.00     0.000 A 
ENDBRANCH  45  59
BRANCH  46  65
ATOM     65  C   UNL A   1      38.547  29.285  29.046  1.00  0.00    -0.014 A 
ATOM     66  C   UNL A   1      38.078  29.839  27.844  1.00  0.00     0.009 A 
ATOM     67  C   UNL A   1      37.670  29.189  30.136  1.00  0.00     0.009 A 
ATOM     68  C   UNL A   1      36.768  30.316  27.748  1.00  0.00     0.001 A 
ATOM     69  C   UNL A   1      36.352  29.639  30.028  1.00  0.00     0.001 A 
ATOM     70  C   UNL A   1      35.906  30.212  28.838  1.00  0.00     0.000 A 
ENDBRANCH  46  65
BRANCH  58  71
ATOM     71  C   UNL A   1      44.387  32.341  31.278  1.00  0.00    -0.014 A 
ATOM     72  C   UNL A   1      44.829  33.360  30.421  1.00  0.00     0.009 A 
ATOM     73  C   UNL A   1      44.165  32.637  32.633  1.00  0.00     0.009 A 
ATOM     74  C   UNL A   1      45.078  34.639  30.919  1.00  0.00     0.001 A 
ATOM     75  C   UNL A   1      44.384  33.925  33.120  1.00  0.00     0.001 A 
ATOM     76  C   UNL A   1      44.851  34.923  32.266  1.00  0.00     0.000 A 
ENDBRANCH  58  71
ENDBRANCH  32  33
ENDBRANCH  24  27
ENDBRANCH  22  23
ENDBRANCH  21  22
ENDBRANCH  20  21
ENDBRANCH   3  20
TORSDOF 15
ENDMDL
MODEL 2
REMARK VINA RESULT:      -9.7      4.216      9.282
REMARK SMILES C[C@H]([NH2+][C@@H](C)Cc1cccs1)[C@@H](C)C(=O)NCCCNC(=O)c1ccc(-c2c3nc(c(-c4ccccc4)c4ccc([nH]4)c(-c4ccccc4)c4nc(c(-c5ccccc5)c5ccc2[nH]5)C=C4)C=C3)cc1
REMARK SMILES IDX 14 1 15 2 16 3 12 5 13 6 2 7 1 8 3 9 4 12 5 13 6 14 7 15
REMARK SMILES IDX 8 16 11 17 9 18 10 19 17 20 18 21 19 22 20 23 21 24 22 26
REMARK SMILES IDX 23 27 24 28 70 29 25 30 69 31 26 32 27 33 28 34 63 35 29 36
REMARK SMILES IDX 68 37 62 38 64 39 30 40 67 41 61 42 60 43 31 45 53 46 38 47
REMARK SMILES IDX 52 48 39 49 42 50 51 51 65 52 40 53 41 54 50 56 66 57 43 58
REMARK SMILES IDX 32 59 33 60 37 61 34 62 36 63 35 64 54 65 55 66 59 67 56 68
REMARK SMILES IDX 58 69 57 70 44 71 45 72 49 73 46 74 48 75 47 76
REMARK H PARENT 16 4 3 10 3 11 20 25 64 44 42 55
REMARK Flexibility Score: inf
ROOT
ATOM      1  C   UNL A   1      32.688  29.284  25.024  1.00  0.00     0.228 C 
ATOM      2  O   UNL A   1      33.109  29.144  23.871  1.00  0.00    -0.275 OA
ATOM      3  N   UNL A   1      31.848  30.322  25.246  1.00  0.00    -0.356 N 
ATOM      4  H   UNL A   1      31.574  30.801  24.430  1.00  0.00     0.163 HD
ENDROOT
BRANCH   1   5
ATOM      5  C   UNL A   1      33.074  28.298  26.117  1.00  0.00     0.133 C 
ATOM      6  C   UNL A   1      34.472  28.638  26.648  1.00  0.00     0.024 C 
BRANCH   5   7
ATOM      7  C   UNL A   1      32.825  26.802  25.789  1.00  0.00     0.191 C 
ATOM      8  C   UNL A   1      34.113  26.074  25.375  1.00  0.00     0.076 C 
BRANCH   7   9
ATOM      9  N   UNL A   1      31.672  26.607  24.884  1.00  0.00    -0.341 N 
ATOM     10  H   UNL A   1      31.912  25.827  24.273  1.00  0.00     0.346 HD
ATOM     11  H   UNL A   1      31.558  27.532  24.468  1.00  0.00     0.346 HD
BRANCH   9  12
ATOM     12  C   UNL A   1      30.329  26.327  25.409  1.00  0.00     0.184 C 
ATOM     13  C   UNL A   1      29.397  26.459  24.191  1.00  0.00     0.075 C 
BRANCH  12  14
ATOM     14  C   UNL A   1      30.113  24.912  26.010  1.00  0.00     0.111 C 
BRANCH  14  15
ATOM     15  C   UNL A   1      31.011  23.837  25.470  1.00  0.00     0.010 A 
ATOM     16  C   UNL A   1      31.059  23.346  24.179  1.00  0.00     0.015 A 
ATOM     17  S   UNL A   1      32.108  23.009  26.492  1.00  0.00    -0.149 S 
ATOM     18  C   UNL A   1      32.117  22.407  23.998  1.00  0.00     0.012 A 
ATOM     19  C   UNL A   1      32.786  22.155  25.174  1.00  0.00     0.065 A 
ENDBRANCH  14  15
ENDBRANCH  12  14
ENDBRANCH   9  12
ENDBRANCH   7   9
ENDBRANCH   5   7
ENDBRANCH   1   5
BRANCH   3  20
ATOM     20  C   UNL A   1      31.280  30.854  26.468  1.00  0.00     0.117 C 
BRANCH  20  21
ATOM     21  C   UNL A   1      31.404  32.371  26.530  1.00  0.00     0.042 C 
BRANCH  21  22
ATOM     22  C   UNL A   1      32.678  32.843  27.216  1.00  0.00     0.118 C 
BRANCH  22  23
ATOM     23  N   UNL A   1      32.555  34.205  27.721  1.00  0.00    -0.352 N 
ATOM     24  C   UNL A   1      33.212  34.812  28.759  1.00  0.00     0.251 C 
ATOM     25  H   UNL A   1      31.906  34.772  27.246  1.00  0.00     0.163 HD
ATOM     26  O   UNL A   1      32.791  35.872  29.223  1.00  0.00    -0.269 OA
BRANCH  24  27
ATOM     27  C   UNL A   1      34.418  34.184  29.325  1.00  0.00     0.039 A 
ATOM     28  C   UNL A   1      34.304  33.370  30.454  1.00  0.00     0.014 A 
ATOM     29  C   UNL A   1      35.664  34.404  28.734  1.00  0.00     0.014 A 
ATOM     30  C   UNL A   1      35.438  32.726  30.952  1.00  0.00     0.010 A 
ATOM     31  C   UNL A   1      36.768  33.684  29.166  1.00  0.00     0.010 A 
ATOM     32  C   UNL A   1      36.670  32.851  30.290  1.00  0.00    -0.014 A 
BRANCH  32  33
ATOM     33  C   UNL A   1      37.884  32.150  30.769  1.00  0.00     0.031 A 
ATOM     34  C   UNL A   1      38.672  32.722  31.915  1.00  0.00     0.074 A 
ATOM     35  C   UNL A   1      38.313  31.043  30.131  1.00  0.00     0.049 A 
ATOM     36  N   UNL A   1      39.802  32.308  32.430  1.00  0.00    -0.248 NA
ATOM     37  C   UNL A   1      38.137  33.940  32.548  1.00  0.00     0.031 C 
ATOM     38  C   UNL A   1      37.657  30.416  28.983  1.00  0.00     0.029 A 
ATOM     39  N   UNL A   1      39.411  30.253  30.360  1.00  0.00    -0.354 N 
ATOM     40  C   UNL A   1      40.118  33.222  33.426  1.00  0.00     0.074 A 
ATOM     41  C   UNL A   1      39.098  34.246  33.405  1.00  0.00     0.031 C 
ATOM     42  C   UNL A   1      38.346  29.317  28.629  1.00  0.00     0.029 A 
ATOM     43  C   UNL A   1      39.513  29.191  29.495  1.00  0.00     0.049 A 
ATOM     44  H   UNL A   1      40.063  30.432  31.075  1.00  0.00     0.167 HD
ATOM     45  C   UNL A   1      41.151  33.199  34.301  1.00  0.00     0.031 A 
ATOM     46  C   UNL A   1      40.448  28.227  29.408  1.00  0.00     0.031 A 
ATOM     47  C   UNL A   1      42.156  32.173  34.331  1.00  0.00     0.049 A 
ATOM     48  C   UNL A   1      41.597  28.235  30.378  1.00  0.00     0.074 A 
ATOM     49  C   UNL A   1      43.217  32.029  35.205  1.00  0.00     0.029 A 
ATOM     50  N   UNL A   1      42.220  31.111  33.441  1.00  0.00    -0.354 N 
ATOM     51  N   UNL A   1      41.848  29.073  31.356  1.00  0.00    -0.248 NA
ATOM     52  C   UNL A   1      42.586  27.157  30.239  1.00  0.00     0.031 C 
ATOM     53  C   UNL A   1      43.953  30.905  34.816  1.00  0.00     0.029 A 
ATOM     54  C   UNL A   1      43.315  30.318  33.735  1.00  0.00     0.049 A 
ATOM     55  H   UNL A   1      41.581  30.946  32.710  1.00  0.00     0.167 HD
ATOM     56  C   UNL A   1      43.003  28.604  31.968  1.00  0.00     0.074 A 
ATOM     57  C   UNL A   1      43.393  27.401  31.261  1.00  0.00     0.031 C 
ATOM     58  C   UNL A   1      43.680  29.121  33.022  1.00  0.00     0.031 A 
BRANCH  45  59
ATOM     59  C   UNL A   1      41.237  34.323  35.298  1.00  0.00    -0.014 A 
ATOM     60  C   UNL A   1      41.961  35.494  35.013  1.00  0.00     0.009 A 
ATOM     61  C   UNL A   1      40.570  34.223  36.527  1.00  0.00     0.009 A 
ATOM     62  C   UNL A   1      42.046  36.520  35.954  1.00  0.00     0.001 A 
ATOM     63  C   UNL A   1      40.629  35.265  37.454  1.00  0.00     0.001 A 
ATOM     64  C   UNL A   1      41.377  36.409  37.172  1.00  0.00     0.000 A 
ENDBRANCH  45  59
BRANCH  46  65
ATOM     65  C   UNL A   1      40.331  27.159  28.380  1.00  0.00    -0.014 A 
ATOM     66  C   UNL A   1      40.927  27.319  27.120  1.00  0.00     0.009 A 
ATOM     67  C   UNL A   1      39.613  25.983  28.645  1.00  0.00     0.009 A 
ATOM     68  C   UNL A   1      40.779  26.339  26.135  1.00  0.00     0.001 A 
ATOM     69  C   UNL A   1      39.491  24.991  27.669  1.00  0.00     0.001 A 
ATOM     70  C   UNL A   1      40.064  25.174  26.412  1.00  0.00     0.000 A 
ENDBRANCH  46  65
BRANCH  58  71
ATOM     71  C   UNL A   1      44.886  28.363  33.500  1.00  0.00    -0.014 A 
ATOM     72  C   UNL A   1      46.183  28.729  33.111  1.00  0.00     0.009 A 
ATOM     73  C   UNL A   1      44.718  27.290  34.392  1.00  0.00     0.009 A 
ATOM     74  C   UNL A   1      47.286  28.013  33.578  1.00  0.00     0.001 A 
ATOM     75  C   UNL A   1      45.825  26.597  34.880  1.00  0.00     0.001 A 
ATOM     76  C   UNL A   1      47.108  26.951  34.465  1.00  0.00     0.000 A 
ENDBRANCH  58  71
ENDBRANCH  32  33
ENDBRANCH  24  27
ENDBRANCH  22  23
ENDBRANCH  21  22
ENDBRANCH  20  21
ENDBRANCH   3  20
TORSDOF 15
ENDMDL
MODEL 3
REMARK VINA RESULT:      -9.7      1.434      6.379
REMARK SMILES C[C@H]([NH2+][C@@H](C)Cc1cccs1)[C@@H](C)C(=O)NCCCNC(=O)c1ccc(-c2c3nc(c(-c4ccccc4)c4ccc([nH]4)c(-c4ccccc4)c4nc(c(-c5ccccc5)c5ccc2[nH]5)C=C4)C=C3)cc1
REMARK SMILES IDX 14 1 15 2 16 3 12 5 13 6 2 7 1 8 3 9 4 12 5 13 6 14 7 15
REMARK SMILES IDX 8 16 11 17 9 18 10 19 17 20 18 21 19 22 20 23 21 24 22 26
REMARK SMILES IDX 23 27 24 28 70 29 25 30 69 31 26 32 27 33 28 34 63 35 29 36
REMARK SMILES IDX 68 37 62 38 64 39 30 40 67 41 61 42 60 43 31 45 53 46 38 47
REMARK SMILES IDX 52 48 39 49 42 50 51 51 65 52 40 53 41 54 50 56 66 57 43 58
REMARK SMILES IDX 32 59 33 60 37 61 34 62 36 63 35 64 54 65 55 66 59 67 56 68
REMARK SMILES IDX 58 69 57 70 44 71 45 72 49 73 46 74 48 75 47 76
REMARK H PARENT 16 4 3 10 3 11 20 25 64 44 42 55
REMARK Flexibility Score: inf
ROOT
ATOM      1  C   UNL A   1      35.177  22.455  25.434  1.00  0.00     0.228 C 
ATOM      2  O   UNL A   1      35.130  23.386  26.244  1.00  0.00    -0.275 OA
ATOM      3  N   UNL A   1      35.919  21.378  25.782  1.00  0.00    -0.356 N 
ATOM      4  H   UNL A   1      36.263  21.407  26.704  1.00  0.00     0.163 HD
ENDROOT
BRANCH   1   5
ATOM      5  C   UNL A   1      34.393  22.519  24.130  1.00  0.00     0.133 C 
ATOM      6  C   UNL A   1      35.007  23.583  23.211  1.00  0.00     0.024 C 
BRANCH   5   7
ATOM      7  C   UNL A   1      32.850  22.569  24.279  1.00  0.00     0.191 C 
ATOM      8  C   UNL A   1      32.126  22.148  22.991  1.00  0.00     0.076 C 
BRANCH   7   9
ATOM      9  N   UNL A   1      32.381  23.836  24.881  1.00  0.00    -0.341 N 
ATOM     10  H   UNL A   1      32.518  24.559  24.175  1.00  0.00     0.346 HD
ATOM     11  H   UNL A   1      32.928  23.888  25.741  1.00  0.00     0.346 HD
BRANCH   9  12
ATOM     12  C   UNL A   1      31.005  23.985  25.370  1.00  0.00     0.184 C 
ATOM     13  C   UNL A   1      30.876  22.948  26.500  1.00  0.00     0.075 C 
BRANCH  12  14
ATOM     14  C   UNL A   1      30.639  25.372  25.965  1.00  0.00     0.111 C 
BRANCH  14  15
ATOM     15  C   UNL A   1      30.488  26.483  24.968  1.00  0.00     0.010 A 
ATOM     16  C   UNL A   1      29.596  26.559  23.916  1.00  0.00     0.015 A 
ATOM     17  S   UNL A   1      31.526  27.846  25.003  1.00  0.00    -0.149 S 
ATOM     18  C   UNL A   1      29.657  27.815  23.245  1.00  0.00     0.012 A 
ATOM     19  C   UNL A   1      30.648  28.622  23.756  1.00  0.00     0.065 A 
ENDBRANCH  14  15
ENDBRANCH  12  14
ENDBRANCH   9  12
ENDBRANCH   7   9
ENDBRANCH   5   7
ENDBRANCH   1   5
BRANCH   3  20
ATOM     20  C   UNL A   1      36.298  20.192  25.042  1.00  0.00     0.117 C 
BRANCH  20  21
ATOM     21  C   UNL A   1      37.760  20.237  24.619  1.00  0.00     0.042 C 
BRANCH  21  22
ATOM     22  C   UNL A   1      38.713  20.496  25.776  1.00  0.00     0.118 C 
BRANCH  22  23
ATOM     23  N   UNL A   1      39.762  19.487  25.859  1.00  0.00    -0.352 N 
ATOM     24  C   UNL A   1      41.107  19.643  26.065  1.00  0.00     0.251 C 
ATOM     25  H   UNL A   1      39.460  18.557  25.750  1.00  0.00     0.163 HD
ATOM     26  O   UNL A   1      41.882  18.715  25.830  1.00  0.00    -0.269 OA
BRANCH  24  27
ATOM     27  C   UNL A   1      41.624  20.931  26.559  1.00  0.00     0.039 A 
ATOM     28  C   UNL A   1      42.102  21.876  25.648  1.00  0.00     0.014 A 
ATOM     29  C   UNL A   1      41.635  21.202  27.929  1.00  0.00     0.014 A 
ATOM     30  C   UNL A   1      42.533  23.119  26.112  1.00  0.00     0.010 A 
ATOM     31  C   UNL A   1      41.965  22.472  28.378  1.00  0.00     0.010 A 
ATOM     32  C   UNL A   1      42.434  23.438  27.476  1.00  0.00    -0.014 A 
BRANCH  32  33
ATOM     33  C   UNL A   1      42.846  24.763  27.997  1.00  0.00     0.031 A 
ATOM     34  C   UNL A   1      41.809  25.827  28.228  1.00  0.00     0.074 A 
ATOM     35  C   UNL A   1      44.152  25.029  28.193  1.00  0.00     0.049 A 
ATOM     36  N   UNL A   1      41.970  27.071  28.599  1.00  0.00    -0.248 NA
ATOM     37  C   UNL A   1      40.406  25.454  27.978  1.00  0.00     0.031 C 
ATOM     38  C   UNL A   1      45.254  24.091  27.967  1.00  0.00     0.029 A 
ATOM     39  N   UNL A   1      44.772  26.173  28.626  1.00  0.00    -0.354 N 
ATOM     40  C   UNL A   1      40.698  27.629  28.607  1.00  0.00     0.074 A 
ATOM     41  C   UNL A   1      39.784  26.610  28.144  1.00  0.00     0.031 C 
ATOM     42  C   UNL A   1      46.412  24.688  28.296  1.00  0.00     0.029 A 
ATOM     43  C   UNL A   1      46.139  26.059  28.711  1.00  0.00     0.049 A 
ATOM     44  H   UNL A   1      44.285  26.997  28.852  1.00  0.00     0.167 HD
ATOM     45  C   UNL A   1      40.319  28.871  28.991  1.00  0.00     0.031 A 
ATOM     46  C   UNL A   1      47.065  26.962  29.078  1.00  0.00     0.031 A 
ATOM     47  C   UNL A   1      41.228  29.877  29.465  1.00  0.00     0.049 A 
ATOM     48  C   UNL A   1      46.621  28.342  29.480  1.00  0.00     0.074 A 
ATOM     49  C   UNL A   1      40.944  31.151  29.924  1.00  0.00     0.029 A 
ATOM     50  N   UNL A   1      42.604  29.720  29.542  1.00  0.00    -0.354 N 
ATOM     51  N   UNL A   1      45.407  28.834  29.542  1.00  0.00    -0.248 NA
ATOM     52  C   UNL A   1      47.676  29.286  29.875  1.00  0.00     0.031 C 
ATOM     53  C   UNL A   1      42.152  31.782  30.234  1.00  0.00     0.029 A 
ATOM     54  C   UNL A   1      43.184  30.880  30.023  1.00  0.00     0.049 A 
ATOM     55  H   UNL A   1      43.095  28.903  29.292  1.00  0.00     0.167 HD
ATOM     56  C   UNL A   1      45.550  30.133  30.013  1.00  0.00     0.074 A 
ATOM     57  C   UNL A   1      46.965  30.345  30.235  1.00  0.00     0.031 C 
ATOM     58  C   UNL A   1      44.595  31.067  30.242  1.00  0.00     0.031 A 
BRANCH  45  59
ATOM     59  C   UNL A   1      38.854  29.201  28.912  1.00  0.00    -0.014 A 
ATOM     60  C   UNL A   1      38.011  29.041  30.026  1.00  0.00     0.009 A 
ATOM     61  C   UNL A   1      38.311  29.701  27.719  1.00  0.00     0.009 A 
ATOM     62  C   UNL A   1      36.650  29.336  29.932  1.00  0.00     0.001 A 
ATOM     63  C   UNL A   1      36.956  30.026  27.638  1.00  0.00     0.001 A 
ATOM     64  C   UNL A   1      36.124  29.832  28.741  1.00  0.00     0.000 A 
ENDBRANCH  45  59
BRANCH  46  65
ATOM     65  C   UNL A   1      48.506  26.592  29.105  1.00  0.00    -0.014 A 
ATOM     66  C   UNL A   1      49.071  26.025  30.258  1.00  0.00     0.009 A 
ATOM     67  C   UNL A   1      49.325  26.814  27.988  1.00  0.00     0.009 A 
ATOM     68  C   UNL A   1      50.434  25.721  30.303  1.00  0.00     0.001 A 
ATOM     69  C   UNL A   1      50.681  26.481  28.025  1.00  0.00     0.001 A 
ATOM     70  C   UNL A   1      51.236  25.945  29.186  1.00  0.00     0.000 A 
ENDBRANCH  46  65
BRANCH  58  71
ATOM     71  C   UNL A   1      45.047  32.385  30.803  1.00  0.00    -0.014 A 
ATOM     72  C   UNL A   1      45.388  33.458  29.966  1.00  0.00     0.009 A 
ATOM     73  C   UNL A   1      45.088  32.566  32.195  1.00  0.00     0.009 A 
ATOM     74  C   UNL A   1      45.797  34.676  30.513  1.00  0.00     0.001 A 
ATOM     75  C   UNL A   1      45.466  33.794  32.738  1.00  0.00     0.001 A 
ATOM     76  C   UNL A   1      45.831  34.844  31.897  1.00  0.00     0.000 A 
ENDBRANCH  58  71
ENDBRANCH  32  33
ENDBRANCH  24  27
ENDBRANCH  22  23
ENDBRANCH  21  22
ENDBRANCH  20  21
ENDBRANCH   3  20
TORSDOF 15
ENDMDL
