MODEL 1
REMARK VINA RESULT:     -11.9      0.000      0.000
REMARK SMILES Cc1cc(N2N=C(C(=O)NCCCNC(=O)c3ccc(-c4c5nc(c(-c6ccccc6)c6ccc([nH]6)c(-c6ccccc6)c6nc(c(-c7ccccc7)c7ccc4[nH]7)C=C6)C=C5)cc3)C[C@H]2c2ccccc2)c([N+](=O)[O-])cc1C
REMARK SMILES IDX 12 1 11 2 10 3 8 4 9 5 7 7 5 8 6 9 66 10 65 11 4 12 1 13
REMARK SMILES IDX 2 14 3 15 78 16 77 17 79 18 73 19 74 20 75 21 76 22 67 23
REMARK SMILES IDX 68 24 72 25 69 26 71 27 70 28 13 29 14 30 15 31 16 33 17 34
REMARK SMILES IDX 18 35 64 36 19 37 63 38 20 39 21 40 22 41 57 42 23 43 62 44
REMARK SMILES IDX 56 45 58 46 24 47 61 48 55 49 54 50 25 52 47 53 32 54 46 55
REMARK SMILES IDX 33 56 36 57 45 58 59 59 34 60 35 61 44 63 60 64 37 65 26 66
REMARK SMILES IDX 27 67 31 68 28 69 30 70 29 71 48 72 49 73 53 74 50 75 52 76
REMARK SMILES IDX 51 77 38 78 39 79 43 80 40 81 42 82 41 83
REMARK H PARENT 10 6 14 32 58 51 36 62
REMARK Flexibility Score: inf
ROOT
ATOM      1  C   UNL A   1      35.346  23.233  25.939  1.00  0.00     0.042 C 
ENDROOT
BRANCH   1   2
ATOM      2  C   UNL A   1      34.449  23.578  24.756  1.00  0.00     0.118 C 
BRANCH   2   3
ATOM      3  N   UNL A   1      33.121  23.035  24.940  1.00  0.00    -0.351 N 
ATOM      4  C   UNL A   1      31.903  23.578  25.245  1.00  0.00     0.267 C 
ATOM      5  O   UNL A   1      30.964  22.800  25.400  1.00  0.00    -0.268 OA
ATOM      6  H   UNL A   1      33.087  22.060  24.817  1.00  0.00     0.163 HD
BRANCH   4   7
ATOM      7  C   UNL A   1      31.634  25.070  25.346  1.00  0.00     0.128 C 
ATOM      8  N   UNL A   1      31.316  27.065  24.657  1.00  0.00    -0.250 N 
ATOM      9  N   UNL A   1      31.527  25.785  24.264  1.00  0.00    -0.171 NA
ATOM     10  C   UNL A   1      31.268  27.240  26.113  1.00  0.00     0.144 C 
ATOM     11  C   UNL A   1      31.353  25.797  26.624  1.00  0.00     0.096 C 
BRANCH   8  12
ATOM     12  C   UNL A   1      30.638  27.948  23.821  1.00  0.00     0.138 A 
ATOM     13  C   UNL A   1      26.932  28.570  23.181  1.00  0.00     0.045 C 
ATOM     14  C   UNL A   1      28.423  28.721  23.053  1.00  0.00    -0.046 A 
ATOM     15  C   UNL A   1      29.238  27.979  23.924  1.00  0.00     0.039 A 
ATOM     16  C   UNL A   1      29.025  29.549  22.094  1.00  0.00    -0.041 A 
ATOM     17  C   UNL A   1      30.428  29.580  22.009  1.00  0.00     0.091 A 
ATOM     18  C   UNL A   1      28.237  30.421  21.155  1.00  0.00     0.045 C 
ATOM     19  C   UNL A   1      31.218  28.774  22.852  1.00  0.00     0.294 A 
BRANCH  19  20
ATOM     20  N   UNL A   1      32.656  28.770  22.611  1.00  0.00     0.065 N 
ATOM     21  O   UNL A   1      33.092  27.946  21.792  1.00  0.00    -0.258 OA
ATOM     22  O   UNL A   1      33.369  29.501  23.319  1.00  0.00    -0.258 OA
ENDBRANCH  19  20
ENDBRANCH   8  12
BRANCH  10  23
ATOM     23  C   UNL A   1      32.367  28.194  26.582  1.00  0.00    -0.023 A 
ATOM     24  C   UNL A   1      33.737  27.881  26.579  1.00  0.00     0.006 A 
ATOM     25  C   UNL A   1      31.997  29.488  26.999  1.00  0.00     0.006 A 
ATOM     26  C   UNL A   1      34.690  28.814  27.005  1.00  0.00     0.000 A 
ATOM     27  C   UNL A   1      32.951  30.435  27.377  1.00  0.00     0.000 A 
ATOM     28  C   UNL A   1      34.298  30.092  27.392  1.00  0.00     0.000 A 
ENDBRANCH  10  23
ENDBRANCH   4   7
ENDBRANCH   2   3
ENDBRANCH   1   2
BRANCH   1  29
ATOM     29  C   UNL A   1      36.745  23.819  25.783  1.00  0.00     0.118 C 
BRANCH  29  30
ATOM     30  N   UNL A   1      37.779  22.801  25.952  1.00  0.00    -0.352 N 
ATOM     31  C   UNL A   1      39.090  22.932  26.328  1.00  0.00     0.251 C 
ATOM     32  H   UNL A   1      37.490  21.878  25.766  1.00  0.00     0.163 HD
ATOM     33  O   UNL A   1      39.877  22.003  26.152  1.00  0.00    -0.269 OA
BRANCH  31  34
ATOM     34  C   UNL A   1      39.553  24.190  26.940  1.00  0.00     0.039 A 
ATOM     35  C   UNL A   1      40.227  25.131  26.158  1.00  0.00     0.014 A 
ATOM     36  C   UNL A   1      39.321  24.434  28.295  1.00  0.00     0.014 A 
ATOM     37  C   UNL A   1      40.605  26.350  26.723  1.00  0.00     0.010 A 
ATOM     38  C   UNL A   1      39.604  25.682  28.826  1.00  0.00     0.010 A 
ATOM     39  C   UNL A   1      40.261  26.648  28.051  1.00  0.00    -0.014 A 
BRANCH  39  40
ATOM     40  C   UNL A   1      40.595  27.948  28.678  1.00  0.00     0.031 A 
ATOM     41  C   UNL A   1      41.946  28.138  29.314  1.00  0.00     0.074 A 
ATOM     42  C   UNL A   1      39.660  28.913  28.765  1.00  0.00     0.049 A 
ATOM     43  N   UNL A   1      42.386  29.134  30.037  1.00  0.00    -0.248 NA
ATOM     44  C   UNL A   1      42.917  27.044  29.142  1.00  0.00     0.031 C 
ATOM     45  C   UNL A   1      38.304  28.837  28.214  1.00  0.00     0.029 A 
ATOM     46  N   UNL A   1      39.704  30.145  29.366  1.00  0.00    -0.354 N 
ATOM     47  C   UNL A   1      43.669  28.773  30.428  1.00  0.00     0.074 A 
ATOM     48  C   UNL A   1      43.916  27.447  29.912  1.00  0.00     0.031 C 
ATOM     49  C   UNL A   1      37.656  29.981  28.485  1.00  0.00     0.029 A 
ATOM     50  C   UNL A   1      38.528  30.847  29.273  1.00  0.00     0.049 A 
ATOM     51  H   UNL A   1      40.505  30.493  29.823  1.00  0.00     0.167 HD
ATOM     52  C   UNL A   1      44.570  29.492  31.138  1.00  0.00     0.031 A 
ATOM     53  C   UNL A   1      38.184  32.046  29.780  1.00  0.00     0.031 A 
ATOM     54  C   UNL A   1      44.325  30.817  31.638  1.00  0.00     0.049 A 
ATOM     55  C   UNL A   1      39.194  32.813  30.589  1.00  0.00     0.074 A 
ATOM     56  C   UNL A   1      45.188  31.653  32.322  1.00  0.00     0.029 A 
ATOM     57  N   UNL A   1      43.124  31.497  31.507  1.00  0.00    -0.354 N 
ATOM     58  N   UNL A   1      40.425  32.485  30.901  1.00  0.00    -0.248 NA
ATOM     59  C   UNL A   1      38.769  34.121  31.107  1.00  0.00     0.031 C 
ATOM     60  C   UNL A   1      44.492  32.817  32.657  1.00  0.00     0.029 A 
ATOM     61  C   UNL A   1      43.217  32.735  32.118  1.00  0.00     0.049 A 
ATOM     62  H   UNL A   1      42.325  31.153  31.047  1.00  0.00     0.167 HD
ATOM     63  C   UNL A   1      40.933  33.561  31.618  1.00  0.00     0.074 A 
ATOM     64  C   UNL A   1      39.880  34.554  31.687  1.00  0.00     0.031 C 
ATOM     65  C   UNL A   1      42.163  33.716  32.165  1.00  0.00     0.031 A 
BRANCH  52  66
ATOM     66  C   UNL A   1      45.900  28.849  31.424  1.00  0.00    -0.014 A 
ATOM     67  C   UNL A   1      46.987  28.998  30.548  1.00  0.00     0.009 A 
ATOM     68  C   UNL A   1      46.076  28.106  32.602  1.00  0.00     0.009 A 
ATOM     69  C   UNL A   1      48.210  28.383  30.825  1.00  0.00     0.001 A 
ATOM     70  C   UNL A   1      47.309  27.520  32.893  1.00  0.00     0.001 A 
ATOM     71  C   UNL A   1      48.371  27.649  31.999  1.00  0.00     0.000 A 
ENDBRANCH  52  66
BRANCH  53  72
ATOM     72  C   UNL A   1      36.827  32.601  29.531  1.00  0.00    -0.014 A 
ATOM     73  C   UNL A   1      35.801  32.417  30.470  1.00  0.00     0.009 A 
ATOM     74  C   UNL A   1      36.546  33.308  28.352  1.00  0.00     0.009 A 
ATOM     75  C   UNL A   1      34.515  32.901  30.220  1.00  0.00     0.001 A 
ATOM     76  C   UNL A   1      35.268  33.820  28.119  1.00  0.00     0.001 A 
ATOM     77  C   UNL A   1      34.250  33.605  29.047  1.00  0.00     0.000 A 
ENDBRANCH  53  72
BRANCH  65  78
ATOM     78  C   UNL A   1      42.466  35.027  32.834  1.00  0.00    -0.014 A 
ATOM     79  C   UNL A   1      42.068  35.288  34.153  1.00  0.00     0.009 A 
ATOM     80  C   UNL A   1      43.227  35.987  32.148  1.00  0.00     0.009 A 
ATOM     81  C   UNL A   1      42.405  36.499  34.763  1.00  0.00     0.001 A 
ATOM     82  C   UNL A   1      43.589  37.182  32.771  1.00  0.00     0.001 A 
ATOM     83  C   UNL A   1      43.172  37.440  34.075  1.00  0.00     0.000 A 
ENDBRANCH  65  78
ENDBRANCH  39  40
ENDBRANCH  31  34
ENDBRANCH  29  30
ENDBRANCH   1  29
TORSDOF 13
ENDMDL
MODEL 2
REMARK VINA RESULT:     -11.8      0.650      5.834
REMARK SMILES Cc1cc(N2N=C(C(=O)NCCCNC(=O)c3ccc(-c4c5nc(c(-c6ccccc6)c6ccc([nH]6)c(-c6ccccc6)c6nc(c(-c7ccccc7)c7ccc4[nH]7)C=C6)C=C5)cc3)C[C@H]2c2ccccc2)c([N+](=O)[O-])cc1C
REMARK SMILES IDX 12 1 11 2 10 3 8 4 9 5 7 7 5 8 6 9 66 10 65 11 4 12 1 13
REMARK SMILES IDX 2 14 3 15 78 16 77 17 79 18 73 19 74 20 75 21 76 22 67 23
REMARK SMILES IDX 68 24 72 25 69 26 71 27 70 28 13 29 14 30 15 31 16 33 17 34
REMARK SMILES IDX 18 35 64 36 19 37 63 38 20 39 21 40 22 41 57 42 23 43 62 44
REMARK SMILES IDX 56 45 58 46 24 47 61 48 55 49 54 50 25 52 47 53 32 54 46 55
REMARK SMILES IDX 33 56 36 57 45 58 59 59 34 60 35 61 44 63 60 64 37 65 26 66
REMARK SMILES IDX 27 67 31 68 28 69 30 70 29 71 48 72 49 73 53 74 50 75 52 76
REMARK SMILES IDX 51 77 38 78 39 79 43 80 40 81 42 82 41 83
REMARK H PARENT 10 6 14 32 58 51 36 62
REMARK Flexibility Score: inf
ROOT
ATOM      1  C   UNL A   1      35.032  23.589  25.955  1.00  0.00     0.042 C 
ENDROOT
BRANCH   1   2
ATOM      2  C   UNL A   1      34.287  23.441  24.633  1.00  0.00     0.118 C 
BRANCH   2   3
ATOM      3  N   UNL A   1      32.951  22.932  24.850  1.00  0.00    -0.351 N 
ATOM      4  C   UNL A   1      31.756  23.503  25.192  1.00  0.00     0.267 C 
ATOM      5  O   UNL A   1      30.801  22.749  25.368  1.00  0.00    -0.268 OA
ATOM      6  H   UNL A   1      32.887  21.958  24.721  1.00  0.00     0.163 HD
BRANCH   4   7
ATOM      7  C   UNL A   1      31.529  25.001  25.311  1.00  0.00     0.128 C 
ATOM      8  N   UNL A   1      31.254  27.010  24.645  1.00  0.00    -0.250 N 
ATOM      9  N   UNL A   1      31.423  25.729  24.237  1.00  0.00    -0.171 NA
ATOM     10  C   UNL A   1      31.235  27.173  26.103  1.00  0.00     0.144 C 
ATOM     11  C   UNL A   1      31.289  25.723  26.600  1.00  0.00     0.096 C 
BRANCH   8  12
ATOM     12  C   UNL A   1      30.587  27.919  23.828  1.00  0.00     0.138 A 
ATOM     13  C   UNL A   1      26.891  28.531  23.125  1.00  0.00     0.045 C 
ATOM     14  C   UNL A   1      28.383  28.702  23.039  1.00  0.00    -0.046 A 
ATOM     15  C   UNL A   1      29.185  27.933  23.899  1.00  0.00     0.039 A 
ATOM     16  C   UNL A   1      28.998  29.572  22.127  1.00  0.00    -0.041 A 
ATOM     17  C   UNL A   1      30.402  29.619  22.077  1.00  0.00     0.091 A 
ATOM     18  C   UNL A   1      28.223  30.473  21.205  1.00  0.00     0.045 C 
ATOM     19  C   UNL A   1      31.181  28.788  22.907  1.00  0.00     0.294 A 
BRANCH  19  20
ATOM     20  N   UNL A   1      32.624  28.807  22.700  1.00  0.00     0.065 N 
ATOM     21  O   UNL A   1      33.086  28.029  21.851  1.00  0.00    -0.258 OA
ATOM     22  O   UNL A   1      33.314  29.507  23.460  1.00  0.00    -0.258 OA
ENDBRANCH  19  20
ENDBRANCH   8  12
BRANCH  10  23
ATOM     23  C   UNL A   1      32.367  28.093  26.562  1.00  0.00    -0.023 A 
ATOM     24  C   UNL A   1      33.726  27.735  26.553  1.00  0.00     0.006 A 
ATOM     25  C   UNL A   1      32.041  29.399  26.977  1.00  0.00     0.006 A 
ATOM     26  C   UNL A   1      34.711  28.638  26.970  1.00  0.00     0.000 A 
ATOM     27  C   UNL A   1      33.028  30.316  27.346  1.00  0.00     0.000 A 
ATOM     28  C   UNL A   1      34.363  29.929  27.354  1.00  0.00     0.000 A 
ENDBRANCH  10  23
ENDBRANCH   4   7
ENDBRANCH   2   3
ENDBRANCH   1   2
BRANCH   1  29
ATOM     29  C   UNL A   1      36.472  24.046  25.747  1.00  0.00     0.118 C 
BRANCH  29  30
ATOM     30  N   UNL A   1      37.418  22.944  25.909  1.00  0.00    -0.352 N 
ATOM     31  C   UNL A   1      38.735  22.963  26.285  1.00  0.00     0.251 C 
ATOM     32  H   UNL A   1      37.051  22.050  25.718  1.00  0.00     0.163 HD
ATOM     33  O   UNL A   1      39.441  21.973  26.102  1.00  0.00    -0.269 OA
BRANCH  31  34
ATOM     34  C   UNL A   1      39.302  24.174  26.904  1.00  0.00     0.039 A 
ATOM     35  C   UNL A   1      40.013  25.083  26.117  1.00  0.00     0.014 A 
ATOM     36  C   UNL A   1      39.131  24.404  28.270  1.00  0.00     0.014 A 
ATOM     37  C   UNL A   1      40.491  26.262  26.692  1.00  0.00     0.010 A 
ATOM     38  C   UNL A   1      39.515  25.620  28.815  1.00  0.00     0.010 A 
ATOM     39  C   UNL A   1      40.211  26.555  28.035  1.00  0.00    -0.014 A 
BRANCH  39  40
ATOM     40  C   UNL A   1      40.653  27.816  28.675  1.00  0.00     0.031 A 
ATOM     41  C   UNL A   1      39.666  28.933  28.874  1.00  0.00     0.074 A 
ATOM     42  C   UNL A   1      41.952  27.992  28.985  1.00  0.00     0.049 A 
ATOM     43  N   UNL A   1      39.875  30.159  29.276  1.00  0.00    -0.248 NA
ATOM     44  C   UNL A   1      38.261  28.641  28.538  1.00  0.00     0.031 C 
ATOM     45  C   UNL A   1      43.012  26.995  28.813  1.00  0.00     0.029 A 
ATOM     46  N   UNL A   1      42.606  29.085  29.495  1.00  0.00    -0.354 N 
ATOM     47  C   UNL A   1      38.638  30.789  29.214  1.00  0.00     0.074 A 
ATOM     48  C   UNL A   1      37.697  29.830  28.683  1.00  0.00     0.031 C 
ATOM     49  C   UNL A   1      44.177  27.516  29.231  1.00  0.00     0.029 A 
ATOM     50  C   UNL A   1      43.957  28.897  29.649  1.00  0.00     0.049 A 
ATOM     51  H   UNL A   1      42.148  29.926  29.728  1.00  0.00     0.167 HD
ATOM     52  C   UNL A   1      38.311  32.048  29.586  1.00  0.00     0.031 A 
ATOM     53  C   UNL A   1      44.915  29.747  30.063  1.00  0.00     0.031 A 
ATOM     54  C   UNL A   1      39.248  32.994  30.127  1.00  0.00     0.049 A 
ATOM     55  C   UNL A   1      44.531  31.151  30.444  1.00  0.00     0.074 A 
ATOM     56  C   UNL A   1      39.009  34.277  30.584  1.00  0.00     0.029 A 
ATOM     57  N   UNL A   1      40.605  32.757  30.280  1.00  0.00    -0.354 N 
ATOM     58  N   UNL A   1      43.347  31.715  30.436  1.00  0.00    -0.248 NA
ATOM     59  C   UNL A   1      45.615  32.032  30.900  1.00  0.00     0.031 C 
ATOM     60  C   UNL A   1      40.232  34.839  30.961  1.00  0.00     0.029 A 
ATOM     61  C   UNL A   1      41.221  33.880  30.805  1.00  0.00     0.049 A 
ATOM     62  H   UNL A   1      41.062  31.916  30.052  1.00  0.00     0.167 HD
ATOM     63  C   UNL A   1      43.538  33.002  30.923  1.00  0.00     0.074 A 
ATOM     64  C   UNL A   1      44.949  33.133  31.222  1.00  0.00     0.031 C 
ATOM     65  C   UNL A   1      42.624  33.986  31.110  1.00  0.00     0.031 A 
BRANCH  52  66
ATOM     66  C   UNL A   1      36.879  32.475  29.407  1.00  0.00    -0.014 A 
ATOM     67  C   UNL A   1      35.934  32.311  30.431  1.00  0.00     0.009 A 
ATOM     68  C   UNL A   1      36.477  33.077  28.204  1.00  0.00     0.009 A 
ATOM     69  C   UNL A   1      34.606  32.701  30.241  1.00  0.00     0.001 A 
ATOM     70  C   UNL A   1      35.157  33.498  28.028  1.00  0.00     0.001 A 
ATOM     71  C   UNL A   1      34.221  33.299  29.042  1.00  0.00     0.000 A 
ENDBRANCH  52  66
BRANCH  53  72
ATOM     72  C   UNL A   1      46.330  29.295  30.148  1.00  0.00    -0.014 A 
ATOM     73  C   UNL A   1      47.212  29.516  29.079  1.00  0.00     0.009 A 
ATOM     74  C   UNL A   1      46.804  28.633  31.290  1.00  0.00     0.009 A 
ATOM     75  C   UNL A   1      48.529  29.056  29.140  1.00  0.00     0.001 A 
ATOM     76  C   UNL A   1      48.130  28.203  31.362  1.00  0.00     0.001 A 
ATOM     77  C   UNL A   1      48.989  28.404  30.282  1.00  0.00     0.000 A 
ENDBRANCH  53  72
BRANCH  65  78
ATOM     78  C   UNL A   1      43.105  35.272  31.721  1.00  0.00    -0.014 A 
ATOM     79  C   UNL A   1      43.693  36.281  30.945  1.00  0.00     0.009 A 
ATOM     80  C   UNL A   1      42.897  35.500  33.091  1.00  0.00     0.009 A 
ATOM     81  C   UNL A   1      44.088  37.484  31.535  1.00  0.00     0.001 A 
ATOM     82  C   UNL A   1      43.262  36.714  33.672  1.00  0.00     0.001 A 
ATOM     83  C   UNL A   1      43.864  37.703  32.896  1.00  0.00     0.000 A 
ENDBRANCH  65  78
ENDBRANCH  39  40
ENDBRANCH  31  34
ENDBRANCH  29  30
ENDBRANCH   1  29
TORSDOF 13
ENDMDL
MODEL 3
REMARK VINA RESULT:     -11.7      2.622      8.232
REMARK SMILES Cc1cc(N2N=C(C(=O)NCCCNC(=O)c3ccc(-c4c5nc(c(-c6ccccc6)c6ccc([nH]6)c(-c6ccccc6)c6nc(c(-c7ccccc7)c7ccc4[nH]7)C=C6)C=C5)cc3)C[C@H]2c2ccccc2)c([N+](=O)[O-])cc1C
REMARK SMILES IDX 12 1 11 2 10 3 8 4 9 5 7 7 5 8 6 9 66 10 65 11 4 12 1 13
REMARK SMILES IDX 2 14 3 15 78 16 77 17 79 18 73 19 74 20 75 21 76 22 67 23
REMARK SMILES IDX 68 24 72 25 69 26 71 27 70 28 13 29 14 30 15 31 16 33 17 34
REMARK SMILES IDX 18 35 64 36 19 37 63 38 20 39 21 40 22 41 57 42 23 43 62 44
REMARK SMILES IDX 56 45 58 46 24 47 61 48 55 49 54 50 25 52 47 53 32 54 46 55
REMARK SMILES IDX 33 56 36 57 45 58 59 59 34 60 35 61 44 63 60 64 37 65 26 66
REMARK SMILES IDX 27 67 31 68 28 69 30 70 29 71 48 72 49 73 53 74 50 75 52 76
REMARK SMILES IDX 51 77 38 78 39 79 43 80 40 81 42 82 41 83
REMARK H PARENT 10 6 14 32 58 51 36 62
REMARK Flexibility Score: inf
ROOT
ATOM      1  C   UNL A   1      33.480  27.955  25.365  1.00  0.00     0.042 C 
ENDROOT
BRANCH   1   2
ATOM      2  C   UNL A   1      32.498  26.792  25.434  1.00  0.00     0.118 C 
BRANCH   2   3
ATOM      3  N   UNL A   1      31.980  26.476  24.121  1.00  0.00    -0.351 N 
ATOM      4  C   UNL A   1      32.223  25.481  23.214  1.00  0.00     0.267 C 
ATOM      5  O   UNL A   1      31.644  25.552  22.133  1.00  0.00    -0.268 OA
ATOM      6  H   UNL A   1      31.301  27.119  23.813  1.00  0.00     0.163 HD
BRANCH   4   7
ATOM      7  C   UNL A   1      33.111  24.278  23.485  1.00  0.00     0.128 C 
ATOM      8  N   UNL A   1      33.697  22.417  24.349  1.00  0.00    -0.250 N 
ATOM      9  N   UNL A   1      32.700  23.333  24.278  1.00  0.00    -0.171 NA
ATOM     10  C   UNL A   1      34.874  22.755  23.540  1.00  0.00     0.144 C 
ATOM     11  C   UNL A   1      34.417  24.017  22.800  1.00  0.00     0.096 C 
BRANCH   8  12
ATOM     12  C   UNL A   1      33.403  21.088  24.640  1.00  0.00     0.138 A 
ATOM     13  C   UNL A   1      32.217  18.174  22.486  1.00  0.00     0.045 C 
ATOM     14  C   UNL A   1      32.646  18.927  23.715  1.00  0.00    -0.046 A 
ATOM     15  C   UNL A   1      33.091  20.250  23.556  1.00  0.00     0.039 A 
ATOM     16  C   UNL A   1      32.599  18.372  25.003  1.00  0.00    -0.041 A 
ATOM     17  C   UNL A   1      32.963  19.173  26.100  1.00  0.00     0.091 A 
ATOM     18  C   UNL A   1      32.189  16.949  25.267  1.00  0.00     0.045 C 
ATOM     19  C   UNL A   1      33.342  20.518  25.916  1.00  0.00     0.294 A 
BRANCH  19  20
ATOM     20  N   UNL A   1      33.577  21.312  27.116  1.00  0.00     0.065 N 
ATOM     21  O   UNL A   1      32.596  21.871  27.627  1.00  0.00    -0.258 OA
ATOM     22  O   UNL A   1      34.753  21.478  27.484  1.00  0.00    -0.258 OA
ENDBRANCH  19  20
ENDBRANCH   8  12
BRANCH  10  23
ATOM     23  C   UNL A   1      36.117  22.893  24.420  1.00  0.00    -0.023 A 
ATOM     24  C   UNL A   1      36.369  23.991  25.260  1.00  0.00     0.006 A 
ATOM     25  C   UNL A   1      37.049  21.837  24.432  1.00  0.00     0.006 A 
ATOM     26  C   UNL A   1      37.521  24.040  26.054  1.00  0.00     0.000 A 
ATOM     27  C   UNL A   1      38.172  21.864  25.261  1.00  0.00     0.000 A 
ATOM     28  C   UNL A   1      38.414  22.973  26.063  1.00  0.00     0.000 A 
ENDBRANCH  10  23
ENDBRANCH   4   7
ENDBRANCH   2   3
ENDBRANCH   1   2
BRANCH   1  29
ATOM     29  C   UNL A   1      34.043  28.307  26.738  1.00  0.00     0.118 C 
BRANCH  29  30
ATOM     30  N   UNL A   1      33.844  29.718  27.059  1.00  0.00    -0.352 N 
ATOM     31  C   UNL A   1      34.586  30.554  27.851  1.00  0.00     0.251 C 
ATOM     32  H   UNL A   1      33.053  30.132  26.642  1.00  0.00     0.163 HD
ATOM     33  O   UNL A   1      34.117  31.629  28.221  1.00  0.00    -0.269 OA
BRANCH  31  34
ATOM     34  C   UNL A   1      35.945  30.158  28.260  1.00  0.00     0.039 A 
ATOM     35  C   UNL A   1      36.159  29.649  29.543  1.00  0.00     0.014 A 
ATOM     36  C   UNL A   1      37.011  30.297  27.368  1.00  0.00     0.014 A 
ATOM     37  C   UNL A   1      37.435  29.213  29.905  1.00  0.00     0.010 A 
ATOM     38  C   UNL A   1      38.250  29.769  27.692  1.00  0.00     0.010 A 
ATOM     39  C   UNL A   1      38.479  29.234  28.968  1.00  0.00    -0.014 A 
BRANCH  39  40
ATOM     40  C   UNL A   1      39.837  28.734  29.289  1.00  0.00     0.031 A 
ATOM     41  C   UNL A   1      40.820  29.647  29.970  1.00  0.00     0.074 A 
ATOM     42  C   UNL A   1      40.214  27.507  28.884  1.00  0.00     0.049 A 
ATOM     43  N   UNL A   1      42.091  29.460  30.209  1.00  0.00    -0.248 NA
ATOM     44  C   UNL A   1      40.311  30.959  30.408  1.00  0.00     0.031 C 
ATOM     45  C   UNL A   1      39.361  26.539  28.189  1.00  0.00     0.029 A 
ATOM     46  N   UNL A   1      41.424  26.869  28.985  1.00  0.00    -0.354 N 
ATOM     47  C   UNL A   1      42.538  30.638  30.795  1.00  0.00     0.074 A 
ATOM     48  C   UNL A   1      41.419  31.551  30.825  1.00  0.00     0.031 C 
ATOM     49  C   UNL A   1      40.069  25.424  27.947  1.00  0.00     0.029 A 
ATOM     50  C   UNL A   1      41.437  25.618  28.419  1.00  0.00     0.049 A 
ATOM     51  H   UNL A   1      42.210  27.271  29.422  1.00  0.00     0.167 HD
ATOM     52  C   UNL A   1      43.767  30.927  31.284  1.00  0.00     0.031 A 
ATOM     53  C   UNL A   1      42.442  24.733  28.281  1.00  0.00     0.031 A 
ATOM     54  C   UNL A   1      44.873  30.010  31.265  1.00  0.00     0.049 A 
ATOM     55  C   UNL A   1      43.805  25.088  28.807  1.00  0.00     0.074 A 
ATOM     56  C   UNL A   1      46.144  30.183  31.782  1.00  0.00     0.029 A 
ATOM     57  N   UNL A   1      44.838  28.746  30.695  1.00  0.00    -0.354 N 
ATOM     58  N   UNL A   1      44.199  26.182  29.413  1.00  0.00    -0.248 NA
ATOM     59  C   UNL A   1      44.861  24.079  28.639  1.00  0.00     0.031 C 
ATOM     60  C   UNL A   1      46.897  29.047  31.474  1.00  0.00     0.029 A 
ATOM     61  C   UNL A   1      46.073  28.138  30.829  1.00  0.00     0.049 A 
ATOM     62  H   UNL A   1      44.052  28.342  30.263  1.00  0.00     0.167 HD
ATOM     63  C   UNL A   1      45.535  25.978  29.733  1.00  0.00     0.074 A 
ATOM     64  C   UNL A   1      45.882  24.654  29.261  1.00  0.00     0.031 C 
ATOM     65  C   UNL A   1      46.396  26.812  30.365  1.00  0.00     0.031 A 
BRANCH  52  66
ATOM     66  C   UNL A   1      43.976  32.297  31.870  1.00  0.00    -0.014 A 
ATOM     67  C   UNL A   1      43.748  32.552  33.231  1.00  0.00     0.009 A 
ATOM     68  C   UNL A   1      44.438  33.340  31.053  1.00  0.00     0.009 A 
ATOM     69  C   UNL A   1      43.936  33.834  33.754  1.00  0.00     0.001 A 
ATOM     70  C   UNL A   1      44.658  34.613  31.585  1.00  0.00     0.001 A 
ATOM     71  C   UNL A   1      44.396  34.861  32.932  1.00  0.00     0.000 A 
ENDBRANCH  52  66
BRANCH  53  72
ATOM     72  C   UNL A   1      42.197  23.422  27.623  1.00  0.00    -0.014 A 
ATOM     73  C   UNL A   1      42.512  23.236  26.268  1.00  0.00     0.009 A 
ATOM     74  C   UNL A   1      41.638  22.352  28.340  1.00  0.00     0.009 A 
ATOM     75  C   UNL A   1      42.245  22.019  25.638  1.00  0.00     0.001 A 
ATOM     76  C   UNL A   1      41.402  21.126  27.715  1.00  0.00     0.001 A 
ATOM     77  C   UNL A   1      41.694  20.964  26.362  1.00  0.00     0.000 A 
ENDBRANCH  53  72
BRANCH  65  78
ATOM     78  C   UNL A   1      47.781  26.300  30.643  1.00  0.00    -0.014 A 
ATOM     79  C   UNL A   1      48.809  26.405  29.694  1.00  0.00     0.009 A 
ATOM     80  C   UNL A   1      48.074  25.766  31.909  1.00  0.00     0.009 A 
ATOM     81  C   UNL A   1      50.097  25.961  29.999  1.00  0.00     0.001 A 
ATOM     82  C   UNL A   1      49.369  25.354  32.222  1.00  0.00     0.001 A 
ATOM     83  C   UNL A   1      50.378  25.443  31.265  1.00  0.00     0.000 A 
ENDBRANCH  65  78
ENDBRANCH  39  40
ENDBRANCH  31  34
ENDBRANCH  29  30
ENDBRANCH   1  29
TORSDOF 13
ENDMDL
