MODEL 1
REMARK VINA RESULT:     -12.6      0.000      0.000
REMARK SMILES O=C(NCCCNC(=O)[C@H]1CCCCN1c1cc(-c2ccccc2)nc(-c2cccc(Cl)c2)n1)c1ccc(-c2c3nc(c(-c4ccccc4)c4ccc([nH]4)c(-c4ccccc4)c4nc(c(-c5ccccc5)c5ccc2[nH]5)C=C4)C=C3)cc1
REMARK SMILES IDX 5 1 4 2 3 3 1 4 2 5 35 7 36 8 82 9 37 10 81 11 38 12 39 13
REMARK SMILES IDX 40 14 75 15 41 16 80 17 74 18 76 19 42 20 79 21 73 22 72 23
REMARK SMILES IDX 43 25 65 26 50 27 64 28 51 29 54 30 63 31 77 32 52 33 53 34
REMARK SMILES IDX 62 36 78 37 55 38 44 39 45 40 49 41 46 42 48 43 47 44 66 45
REMARK SMILES IDX 67 46 71 47 68 48 70 49 69 50 56 51 57 52 61 53 58 54 60 55
REMARK SMILES IDX 59 56 6 57 7 58 8 59 9 61 10 62 11 63 15 64 12 65 14 66
REMARK SMILES IDX 13 67 16 68 17 69 34 70 18 71 26 72 25 73 19 74 20 75 24 76
REMARK SMILES IDX 21 77 23 78 22 79 27 80 28 81 33 82 29 83 31 84 30 85 32 86
REMARK H PARENT 3 6 76 24 54 35 7 60
REMARK Flexibility Score: inf
ROOT
ATOM      1  C   UNL A   1      35.981  22.240  24.327  1.00  0.00     0.042 C 
ENDROOT
BRANCH   1   2
ATOM      2  C   UNL A   1      36.619  22.378  25.696  1.00  0.00     0.118 C 
BRANCH   2   3
ATOM      3  N   UNL A   1      37.598  21.324  25.943  1.00  0.00    -0.352 N 
ATOM      4  O   UNL A   1      39.665  20.432  26.086  1.00  0.00    -0.269 OA
ATOM      5  C   UNL A   1      38.950  21.419  26.181  1.00  0.00     0.251 C 
ATOM      6  H   UNL A   1      37.237  20.408  25.941  1.00  0.00     0.163 HD
BRANCH   5   7
ATOM      7  C   UNL A   1      39.525  22.727  26.549  1.00  0.00     0.039 A 
ATOM      8  C   UNL A   1      40.556  22.781  27.487  1.00  0.00     0.014 A 
ATOM      9  C   UNL A   1      39.062  23.898  25.945  1.00  0.00     0.014 A 
ATOM     10  C   UNL A   1      40.992  24.003  27.963  1.00  0.00     0.010 A 
ATOM     11  C   UNL A   1      39.617  25.128  26.313  1.00  0.00     0.010 A 
ATOM     12  C   UNL A   1      40.577  25.185  27.334  1.00  0.00    -0.014 A 
BRANCH  12  13
ATOM     13  C   UNL A   1      41.305  26.430  27.669  1.00  0.00     0.031 A 
ATOM     14  C   UNL A   1      42.648  26.740  27.085  1.00  0.00     0.074 A 
ATOM     15  C   UNL A   1      40.685  27.303  28.491  1.00  0.00     0.049 A 
ATOM     16  N   UNL A   1      43.391  27.802  27.273  1.00  0.00    -0.248 NA
ATOM     17  C   UNL A   1      43.245  25.740  26.185  1.00  0.00     0.031 C 
ATOM     18  C   UNL A   1      39.373  27.087  29.115  1.00  0.00     0.029 A 
ATOM     19  N   UNL A   1      41.048  28.551  28.918  1.00  0.00    -0.354 N 
ATOM     20  C   UNL A   1      44.551  27.587  26.542  1.00  0.00     0.074 A 
ATOM     21  C   UNL A   1      44.421  26.291  25.910  1.00  0.00     0.031 C 
ATOM     22  C   UNL A   1      39.013  28.189  29.785  1.00  0.00     0.029 A 
ATOM     23  C   UNL A   1      40.106  29.145  29.724  1.00  0.00     0.049 A 
ATOM     24  H   UNL A   1      41.898  28.982  28.673  1.00  0.00     0.167 HD
ATOM     25  C   UNL A   1      45.625  28.402  26.423  1.00  0.00     0.031 A 
ATOM     26  C   UNL A   1      40.133  30.317  30.381  1.00  0.00     0.031 A 
ATOM     27  C   UNL A   1      45.731  29.693  27.054  1.00  0.00     0.049 A 
ATOM     28  C   UNL A   1      41.356  31.172  30.255  1.00  0.00     0.074 A 
ATOM     29  C   UNL A   1      46.759  30.616  26.958  1.00  0.00     0.029 A 
ATOM     30  N   UNL A   1      44.781  30.238  27.905  1.00  0.00    -0.354 N 
ATOM     31  N   UNL A   1      42.426  30.973  29.524  1.00  0.00    -0.248 NA
ATOM     32  C   UNL A   1      41.382  32.405  31.051  1.00  0.00     0.031 C 
ATOM     33  C   UNL A   1      46.460  31.690  27.801  1.00  0.00     0.029 A 
ATOM     34  C   UNL A   1      45.219  31.466  28.374  1.00  0.00     0.049 A 
ATOM     35  H   UNL A   1      43.924  29.816  28.140  1.00  0.00     0.167 HD
ATOM     36  C   UNL A   1      43.253  32.058  29.770  1.00  0.00     0.074 A 
ATOM     37  C   UNL A   1      42.542  32.929  30.685  1.00  0.00     0.031 C 
ATOM     38  C   UNL A   1      44.496  32.307  29.292  1.00  0.00     0.031 A 
BRANCH  25  39
ATOM     39  C   UNL A   1      46.796  27.921  25.613  1.00  0.00    -0.014 A 
ATOM     40  C   UNL A   1      47.854  27.213  26.200  1.00  0.00     0.009 A 
ATOM     41  C   UNL A   1      46.789  28.100  24.219  1.00  0.00     0.009 A 
ATOM     42  C   UNL A   1      48.888  26.704  25.409  1.00  0.00     0.001 A 
ATOM     43  C   UNL A   1      47.812  27.571  23.429  1.00  0.00     0.001 A 
ATOM     44  C   UNL A   1      48.861  26.877  24.025  1.00  0.00     0.000 A 
ENDBRANCH  25  39
BRANCH  26  45
ATOM     45  C   UNL A   1      39.005  30.705  31.268  1.00  0.00    -0.014 A 
ATOM     46  C   UNL A   1      37.964  31.517  30.799  1.00  0.00     0.009 A 
ATOM     47  C   UNL A   1      38.972  30.263  32.602  1.00  0.00     0.009 A 
ATOM     48  C   UNL A   1      36.931  31.906  31.656  1.00  0.00     0.001 A 
ATOM     49  C   UNL A   1      37.920  30.621  33.445  1.00  0.00     0.001 A 
ATOM     50  C   UNL A   1      36.907  31.453  32.975  1.00  0.00     0.000 A 
ENDBRANCH  26  45
BRANCH  38  51
ATOM     51  C   UNL A   1      45.148  33.579  29.749  1.00  0.00    -0.014 A 
ATOM     52  C   UNL A   1      45.992  33.596  30.869  1.00  0.00     0.009 A 
ATOM     53  C   UNL A   1      44.926  34.769  29.039  1.00  0.00     0.009 A 
ATOM     54  C   UNL A   1      46.574  34.790  31.293  1.00  0.00     0.001 A 
ATOM     55  C   UNL A   1      45.534  35.955  29.447  1.00  0.00     0.001 A 
ATOM     56  C   UNL A   1      46.348  35.967  30.579  1.00  0.00     0.000 A 
ENDBRANCH  38  51
ENDBRANCH  12  13
ENDBRANCH   5   7
ENDBRANCH   2   3
ENDBRANCH   1   2
BRANCH   1  57
ATOM     57  C   UNL A   1      34.512  21.885  24.430  1.00  0.00     0.117 C 
BRANCH  57  58
ATOM     58  N   UNL A   1      33.887  22.556  25.549  1.00  0.00    -0.354 N 
ATOM     59  C   UNL A   1      33.356  23.783  25.743  1.00  0.00     0.242 C 
ATOM     60  H   UNL A   1      33.838  21.989  26.353  1.00  0.00     0.163 HD
ATOM     61  O   UNL A   1      33.005  23.993  26.916  1.00  0.00    -0.273 OA
BRANCH  59  62
ATOM     62  C   UNL A   1      33.135  24.878  24.655  1.00  0.00     0.173 C 
ATOM     63  C   UNL A   1      33.116  24.543  23.163  1.00  0.00     0.035 C 
ATOM     64  N   UNL A   1      31.859  25.546  24.975  1.00  0.00    -0.344 N 
ATOM     65  C   UNL A   1      31.867  23.753  22.755  1.00  0.00     0.004 C 
ATOM     66  C   UNL A   1      30.628  24.826  24.674  1.00  0.00     0.119 C 
ATOM     67  C   UNL A   1      30.593  24.476  23.185  1.00  0.00     0.022 C 
BRANCH  64  68
ATOM     68  C   UNL A   1      31.843  26.927  24.990  1.00  0.00     0.133 A 
ATOM     69  C   UNL A   1      30.890  27.598  24.259  1.00  0.00     0.076 A 
ATOM     70  N   UNL A   1      32.731  27.583  25.750  1.00  0.00    -0.211 NA
ATOM     71  C   UNL A   1      30.872  28.974  24.350  1.00  0.00     0.076 A 
ATOM     72  C   UNL A   1      32.658  28.924  25.764  1.00  0.00     0.162 A 
ATOM     73  N   UNL A   1      31.760  29.661  25.093  1.00  0.00    -0.228 NA
BRANCH  71  74
ATOM     74  C   UNL A   1      29.864  29.760  23.637  1.00  0.00     0.000 A 
ATOM     75  C   UNL A   1      29.481  31.028  24.100  1.00  0.00     0.010 A 
ATOM     76  C   UNL A   1      29.285  29.279  22.450  1.00  0.00     0.010 A 
ATOM     77  C   UNL A   1      28.566  31.803  23.384  1.00  0.00     0.001 A 
ATOM     78  C   UNL A   1      28.362  30.050  21.739  1.00  0.00     0.001 A 
ATOM     79  C   UNL A   1      28.008  31.313  22.204  1.00  0.00     0.000 A 
ENDBRANCH  71  74
BRANCH  72  80
ATOM     80  C   UNL A   1      33.634  29.631  26.596  1.00  0.00     0.021 A 
ATOM     81  C   UNL A   1      34.849  29.023  26.965  1.00  0.00     0.012 A 
ATOM     82  C   UNL A   1      33.373  30.930  27.063  1.00  0.00     0.032 A 
ATOM     83  C   UNL A   1      35.780  29.695  27.761  1.00  0.00     0.002 A 
ATOM     84  C   UNL A   1      34.297  31.590  27.874  1.00  0.00     0.041 A 
ATOM     85  C   UNL A   1      35.501  30.981  28.219  1.00  0.00     0.020 A 
ATOM     86  Cl  UNL A   1      33.941  33.168  28.463  1.00  0.00    -0.084 Cl
ENDBRANCH  72  80
ENDBRANCH  64  68
ENDBRANCH  59  62
ENDBRANCH  57  58
ENDBRANCH   1  57
TORSDOF 13
ENDMDL
MODEL 2
REMARK VINA RESULT:     -12.4      0.335      5.694
REMARK SMILES O=C(NCCCNC(=O)[C@H]1CCCCN1c1cc(-c2ccccc2)nc(-c2cccc(Cl)c2)n1)c1ccc(-c2c3nc(c(-c4ccccc4)c4ccc([nH]4)c(-c4ccccc4)c4nc(c(-c5ccccc5)c5ccc2[nH]5)C=C4)C=C3)cc1
REMARK SMILES IDX 5 1 4 2 3 3 1 4 2 5 35 7 36 8 82 9 37 10 81 11 38 12 39 13
REMARK SMILES IDX 40 14 75 15 41 16 80 17 74 18 76 19 42 20 79 21 73 22 72 23
REMARK SMILES IDX 43 25 65 26 50 27 64 28 51 29 54 30 63 31 77 32 52 33 53 34
REMARK SMILES IDX 62 36 78 37 55 38 44 39 45 40 49 41 46 42 48 43 47 44 66 45
REMARK SMILES IDX 67 46 71 47 68 48 70 49 69 50 56 51 57 52 61 53 58 54 60 55
REMARK SMILES IDX 59 56 6 57 7 58 8 59 9 61 10 62 11 63 15 64 12 65 14 66
REMARK SMILES IDX 13 67 16 68 17 69 34 70 18 71 26 72 25 73 19 74 20 75 24 76
REMARK SMILES IDX 21 77 23 78 22 79 27 80 28 81 33 82 29 83 31 84 30 85 32 86
REMARK H PARENT 3 6 76 24 54 35 7 60
REMARK Flexibility Score: inf
ROOT
ATOM      1  C   UNL A   1      36.259  22.307  24.331  1.00  0.00     0.042 C 
ENDROOT
BRANCH   1   2
ATOM      2  C   UNL A   1      36.754  22.363  25.763  1.00  0.00     0.118 C 
BRANCH   2   3
ATOM      3  N   UNL A   1      37.754  21.333  26.029  1.00  0.00    -0.352 N 
ATOM      4  O   UNL A   1      39.840  20.488  26.194  1.00  0.00    -0.269 OA
ATOM      5  C   UNL A   1      39.103  21.461  26.273  1.00  0.00     0.251 C 
ATOM      6  H   UNL A   1      37.414  20.409  26.037  1.00  0.00     0.163 HD
BRANCH   5   7
ATOM      7  C   UNL A   1      39.647  22.785  26.628  1.00  0.00     0.039 A 
ATOM      8  C   UNL A   1      40.750  22.867  27.476  1.00  0.00     0.014 A 
ATOM      9  C   UNL A   1      39.082  23.947  26.097  1.00  0.00     0.014 A 
ATOM     10  C   UNL A   1      41.170  24.095  27.948  1.00  0.00     0.010 A 
ATOM     11  C   UNL A   1      39.610  25.193  26.451  1.00  0.00     0.010 A 
ATOM     12  C   UNL A   1      40.650  25.272  27.389  1.00  0.00    -0.014 A 
BRANCH  12  13
ATOM     13  C   UNL A   1      41.346  26.541  27.696  1.00  0.00     0.031 A 
ATOM     14  C   UNL A   1      40.758  27.560  28.623  1.00  0.00     0.074 A 
ATOM     15  C   UNL A   1      42.563  26.726  27.140  1.00  0.00     0.049 A 
ATOM     16  N   UNL A   1      41.266  28.705  28.999  1.00  0.00    -0.248 NA
ATOM     17  C   UNL A   1      39.434  27.270  29.196  1.00  0.00     0.031 C 
ATOM     18  C   UNL A   1      43.220  25.790  26.218  1.00  0.00     0.029 A 
ATOM     19  N   UNL A   1      43.477  27.734  27.288  1.00  0.00    -0.354 N 
ATOM     20  C   UNL A   1      40.317  29.287  29.827  1.00  0.00     0.074 A 
ATOM     21  C   UNL A   1      39.196  28.373  29.897  1.00  0.00     0.031 C 
ATOM     22  C   UNL A   1      44.452  26.232  25.940  1.00  0.00     0.029 A 
ATOM     23  C   UNL A   1      44.634  27.527  26.577  1.00  0.00     0.049 A 
ATOM     24  H   UNL A   1      43.321  28.528  27.848  1.00  0.00     0.167 HD
ATOM     25  C   UNL A   1      40.382  30.481  30.462  1.00  0.00     0.031 A 
ATOM     26  C   UNL A   1      45.714  28.311  26.418  1.00  0.00     0.031 A 
ATOM     27  C   UNL A   1      41.510  31.374  30.386  1.00  0.00     0.049 A 
ATOM     28  C   UNL A   1      45.730  29.641  27.105  1.00  0.00     0.074 A 
ATOM     29  C   UNL A   1      41.693  32.586  31.029  1.00  0.00     0.029 A 
ATOM     30  N   UNL A   1      42.642  31.154  29.615  1.00  0.00    -0.354 N 
ATOM     31  N   UNL A   1      44.842  30.156  27.919  1.00  0.00    -0.248 NA
ATOM     32  C   UNL A   1      46.888  30.503  26.842  1.00  0.00     0.031 C 
ATOM     33  C   UNL A   1      42.905  33.131  30.597  1.00  0.00     0.029 A 
ATOM     34  C   UNL A   1      43.508  32.230  29.733  1.00  0.00     0.049 A 
ATOM     35  H   UNL A   1      42.806  30.355  29.066  1.00  0.00     0.167 HD
ATOM     36  C   UNL A   1      45.336  31.403  28.270  1.00  0.00     0.074 A 
ATOM     37  C   UNL A   1      46.618  31.547  27.611  1.00  0.00     0.031 C 
ATOM     38  C   UNL A   1      44.773  32.352  29.057  1.00  0.00     0.031 A 
BRANCH  25  39
ATOM     39  C   UNL A   1      39.192  30.924  31.266  1.00  0.00    -0.014 A 
ATOM     40  C   UNL A   1      38.158  31.679  30.694  1.00  0.00     0.009 A 
ATOM     41  C   UNL A   1      39.063  30.495  32.598  1.00  0.00     0.009 A 
ATOM     42  C   UNL A   1      37.024  32.005  31.443  1.00  0.00     0.001 A 
ATOM     43  C   UNL A   1      37.919  30.803  33.336  1.00  0.00     0.001 A 
ATOM     44  C   UNL A   1      36.902  31.560  32.760  1.00  0.00     0.000 A 
ENDBRANCH  25  39
BRANCH  26  45
ATOM     45  C   UNL A   1      46.820  27.889  25.519  1.00  0.00    -0.014 A 
ATOM     46  C   UNL A   1      46.733  28.071  24.133  1.00  0.00     0.009 A 
ATOM     47  C   UNL A   1      47.974  27.291  26.053  1.00  0.00     0.009 A 
ATOM     48  C   UNL A   1      47.764  27.632  23.297  1.00  0.00     0.001 A 
ATOM     49  C   UNL A   1      49.019  26.890  25.221  1.00  0.00     0.001 A 
ATOM     50  C   UNL A   1      48.907  27.048  23.842  1.00  0.00     0.000 A 
ENDBRANCH  26  45
BRANCH  38  51
ATOM     51  C   UNL A   1      45.557  33.617  29.248  1.00  0.00    -0.014 A 
ATOM     52  C   UNL A   1      45.374  34.716  28.395  1.00  0.00     0.009 A 
ATOM     53  C   UNL A   1      46.477  33.713  30.303  1.00  0.00     0.009 A 
ATOM     54  C   UNL A   1      46.125  35.877  28.574  1.00  0.00     0.001 A 
ATOM     55  C   UNL A   1      47.204  34.887  30.497  1.00  0.00     0.001 A 
ATOM     56  C   UNL A   1      47.036  35.963  29.627  1.00  0.00     0.000 A 
ENDBRANCH  38  51
ENDBRANCH  12  13
ENDBRANCH   5   7
ENDBRANCH   2   3
ENDBRANCH   1   2
BRANCH   1  57
ATOM     57  C   UNL A   1      34.767  22.058  24.265  1.00  0.00     0.117 C 
BRANCH  57  58
ATOM     58  N   UNL A   1      34.083  22.673  25.382  1.00  0.00    -0.354 N 
ATOM     59  C   UNL A   1      33.528  23.885  25.602  1.00  0.00     0.242 C 
ATOM     60  H   UNL A   1      34.004  22.072  26.158  1.00  0.00     0.163 HD
ATOM     61  O   UNL A   1      33.121  24.041  26.766  1.00  0.00    -0.273 OA
BRANCH  59  62
ATOM     62  C   UNL A   1      33.343  25.023  24.552  1.00  0.00     0.173 C 
ATOM     63  C   UNL A   1      33.462  24.764  23.050  1.00  0.00     0.035 C 
ATOM     64  N   UNL A   1      32.014  25.617  24.795  1.00  0.00    -0.344 N 
ATOM     65  C   UNL A   1      32.291  23.940  22.502  1.00  0.00     0.004 C 
ATOM     66  C   UNL A   1      30.849  24.858  24.359  1.00  0.00     0.119 C 
ATOM     67  C   UNL A   1      30.951  24.583  22.857  1.00  0.00     0.022 C 
BRANCH  64  68
ATOM     68  C   UNL A   1      31.930  26.992  24.874  1.00  0.00     0.133 A 
ATOM     69  C   UNL A   1      30.950  27.649  24.166  1.00  0.00     0.076 A 
ATOM     70  N   UNL A   1      32.778  27.656  25.671  1.00  0.00    -0.211 NA
ATOM     71  C   UNL A   1      30.863  29.017  24.320  1.00  0.00     0.076 A 
ATOM     72  C   UNL A   1      32.639  28.990  25.747  1.00  0.00     0.162 A 
ATOM     73  N   UNL A   1      31.711  29.712  25.102  1.00  0.00    -0.228 NA
BRANCH  71  74
ATOM     74  C   UNL A   1      29.822  29.784  23.634  1.00  0.00     0.000 A 
ATOM     75  C   UNL A   1      29.491  31.081  24.054  1.00  0.00     0.010 A 
ATOM     76  C   UNL A   1      29.158  29.255  22.514  1.00  0.00     0.010 A 
ATOM     77  C   UNL A   1      28.542  31.836  23.360  1.00  0.00     0.001 A 
ATOM     78  C   UNL A   1      28.203  30.006  21.826  1.00  0.00     0.001 A 
ATOM     79  C   UNL A   1      27.900  31.298  22.247  1.00  0.00     0.000 A 
ENDBRANCH  71  74
BRANCH  72  80
ATOM     80  C   UNL A   1      33.573  29.704  26.620  1.00  0.00     0.021 A 
ATOM     81  C   UNL A   1      34.751  29.087  27.082  1.00  0.00     0.012 A 
ATOM     82  C   UNL A   1      33.307  31.020  27.033  1.00  0.00     0.032 A 
ATOM     83  C   UNL A   1      35.642  29.767  27.916  1.00  0.00     0.002 A 
ATOM     84  C   UNL A   1      34.188  31.687  27.883  1.00  0.00     0.041 A 
ATOM     85  C   UNL A   1      35.358  31.070  28.321  1.00  0.00     0.020 A 
ATOM     86  Cl  UNL A   1      33.824  33.287  28.404  1.00  0.00    -0.084 Cl
ENDBRANCH  72  80
ENDBRANCH  64  68
ENDBRANCH  59  62
ENDBRANCH  57  58
ENDBRANCH   1  57
TORSDOF 13
ENDMDL
MODEL 3
REMARK VINA RESULT:     -12.3      3.884      7.742
REMARK SMILES O=C(NCCCNC(=O)[C@H]1CCCCN1c1cc(-c2ccccc2)nc(-c2cccc(Cl)c2)n1)c1ccc(-c2c3nc(c(-c4ccccc4)c4ccc([nH]4)c(-c4ccccc4)c4nc(c(-c5ccccc5)c5ccc2[nH]5)C=C4)C=C3)cc1
REMARK SMILES IDX 5 1 4 2 3 3 1 4 2 5 35 7 36 8 82 9 37 10 81 11 38 12 39 13
REMARK SMILES IDX 40 14 75 15 41 16 80 17 74 18 76 19 42 20 79 21 73 22 72 23
REMARK SMILES IDX 43 25 65 26 50 27 64 28 51 29 54 30 63 31 77 32 52 33 53 34
REMARK SMILES IDX 62 36 78 37 55 38 44 39 45 40 49 41 46 42 48 43 47 44 66 45
REMARK SMILES IDX 67 46 71 47 68 48 70 49 69 50 56 51 57 52 61 53 58 54 60 55
REMARK SMILES IDX 59 56 6 57 7 58 8 59 9 61 10 62 11 63 15 64 12 65 14 66
REMARK SMILES IDX 13 67 16 68 17 69 34 70 18 71 26 72 25 73 19 74 20 75 24 76
REMARK SMILES IDX 21 77 23 78 22 79 27 80 28 81 33 82 29 83 31 84 30 85 32 86
REMARK H PARENT 3 6 76 24 54 35 7 60
REMARK Flexibility Score: inf
ROOT
ATOM      1  C   UNL A   1      34.256  27.899  25.449  1.00  0.00     0.042 C 
ENDROOT
BRANCH   1   2
ATOM      2  C   UNL A   1      33.725  28.321  26.806  1.00  0.00     0.118 C 
BRANCH   2   3
ATOM      3  N   UNL A   1      33.529  29.765  26.883  1.00  0.00    -0.352 N 
ATOM      4  O   UNL A   1      33.751  31.825  27.777  1.00  0.00    -0.269 OA
ATOM      5  C   UNL A   1      34.221  30.708  27.608  1.00  0.00     0.251 C 
ATOM      6  H   UNL A   1      32.792  30.118  26.333  1.00  0.00     0.163 HD
BRANCH   5   7
ATOM      7  C   UNL A   1      35.534  30.355  28.179  1.00  0.00     0.039 A 
ATOM      8  C   UNL A   1      36.693  30.650  27.463  1.00  0.00     0.014 A 
ATOM      9  C   UNL A   1      35.619  29.757  29.439  1.00  0.00     0.014 A 
ATOM     10  C   UNL A   1      37.916  30.182  27.905  1.00  0.00     0.010 A 
ATOM     11  C   UNL A   1      36.874  29.425  29.959  1.00  0.00     0.010 A 
ATOM     12  C   UNL A   1      38.028  29.626  29.187  1.00  0.00    -0.014 A 
BRANCH  12  13
ATOM     13  C   UNL A   1      39.390  29.432  29.732  1.00  0.00     0.031 A 
ATOM     14  C   UNL A   1      40.243  28.269  29.329  1.00  0.00     0.074 A 
ATOM     15  C   UNL A   1      39.855  30.376  30.578  1.00  0.00     0.049 A 
ATOM     16  N   UNL A   1      41.463  27.985  29.709  1.00  0.00    -0.248 NA
ATOM     17  C   UNL A   1      39.664  27.296  28.390  1.00  0.00     0.031 C 
ATOM     18  C   UNL A   1      39.095  31.546  31.036  1.00  0.00     0.029 A 
ATOM     19  N   UNL A   1      41.076  30.526  31.177  1.00  0.00    -0.354 N 
ATOM     20  C   UNL A   1      41.787  26.790  29.084  1.00  0.00     0.074 A 
ATOM     21  C   UNL A   1      40.635  26.395  28.301  1.00  0.00     0.031 C 
ATOM     22  C   UNL A   1      39.886  32.326  31.783  1.00  0.00     0.029 A 
ATOM     23  C   UNL A   1      41.171  31.663  31.942  1.00  0.00     0.049 A 
ATOM     24  H   UNL A   1      41.815  29.884  31.070  1.00  0.00     0.167 HD
ATOM     25  C   UNL A   1      42.942  26.089  29.167  1.00  0.00     0.031 A 
ATOM     26  C   UNL A   1      42.168  32.110  32.725  1.00  0.00     0.031 A 
ATOM     27  C   UNL A   1      44.081  26.505  29.946  1.00  0.00     0.049 A 
ATOM     28  C   UNL A   1      43.414  31.286  32.822  1.00  0.00     0.074 A 
ATOM     29  C   UNL A   1      45.315  25.889  30.060  1.00  0.00     0.029 A 
ATOM     30  N   UNL A   1      44.121  27.635  30.749  1.00  0.00    -0.354 N 
ATOM     31  N   UNL A   1      43.720  30.180  32.188  1.00  0.00    -0.248 NA
ATOM     32  C   UNL A   1      44.448  31.762  33.749  1.00  0.00     0.031 C 
ATOM     33  C   UNL A   1      46.079  26.610  30.982  1.00  0.00     0.029 A 
ATOM     34  C   UNL A   1      45.344  27.710  31.395  1.00  0.00     0.049 A 
ATOM     35  H   UNL A   1      43.390  28.285  30.846  1.00  0.00     0.167 HD
ATOM     36  C   UNL A   1      44.984  29.829  32.637  1.00  0.00     0.074 A 
ATOM     37  C   UNL A   1      45.401  30.861  33.565  1.00  0.00     0.031 C 
ATOM     38  C   UNL A   1      45.729  28.743  32.321  1.00  0.00     0.031 A 
BRANCH  25  39
ATOM     39  C   UNL A   1      43.035  24.781  28.434  1.00  0.00    -0.014 A 
ATOM     40  C   UNL A   1      43.437  24.717  27.092  1.00  0.00     0.009 A 
ATOM     41  C   UNL A   1      42.804  23.583  29.132  1.00  0.00     0.009 A 
ATOM     42  C   UNL A   1      43.596  23.480  26.461  1.00  0.00     0.001 A 
ATOM     43  C   UNL A   1      42.986  22.349  28.505  1.00  0.00     0.001 A 
ATOM     44  C   UNL A   1      43.378  22.298  27.170  1.00  0.00     0.000 A 
ENDBRANCH  25  39
BRANCH  26  45
ATOM     45  C   UNL A   1      41.993  33.348  33.528  1.00  0.00    -0.014 A 
ATOM     46  C   UNL A   1      41.444  33.303  34.815  1.00  0.00     0.009 A 
ATOM     47  C   UNL A   1      42.374  34.592  32.996  1.00  0.00     0.009 A 
ATOM     48  C   UNL A   1      41.249  34.481  35.541  1.00  0.00     0.001 A 
ATOM     49  C   UNL A   1      42.214  35.763  33.738  1.00  0.00     0.001 A 
ATOM     50  C   UNL A   1      41.639  35.707  35.004  1.00  0.00     0.000 A 
ENDBRANCH  26  45
BRANCH  38  51
ATOM     51  C   UNL A   1      47.072  28.635  32.982  1.00  0.00    -0.014 A 
ATOM     52  C   UNL A   1      47.230  27.936  34.188  1.00  0.00     0.009 A 
ATOM     53  C   UNL A   1      48.193  29.227  32.381  1.00  0.00     0.009 A 
ATOM     54  C   UNL A   1      48.481  27.863  34.800  1.00  0.00     0.001 A 
ATOM     55  C   UNL A   1      49.448  29.125  32.979  1.00  0.00     0.001 A 
ATOM     56  C   UNL A   1      49.589  28.453  34.192  1.00  0.00     0.000 A 
ENDBRANCH  38  51
ENDBRANCH  12  13
ENDBRANCH   5   7
ENDBRANCH   2   3
ENDBRANCH   1   2
BRANCH   1  57
ATOM     57  C   UNL A   1      33.382  28.413  24.324  1.00  0.00     0.117 C 
BRANCH  57  58
ATOM     58  N   UNL A   1      33.470  27.561  23.159  1.00  0.00    -0.354 N 
ATOM     59  C   UNL A   1      33.498  26.225  22.961  1.00  0.00     0.242 C 
ATOM     60  H   UNL A   1      33.522  28.071  22.318  1.00  0.00     0.163 HD
ATOM     61  O   UNL A   1      33.686  25.902  21.776  1.00  0.00    -0.273 OA
BRANCH  59  62
ATOM     62  C   UNL A   1      33.289  25.125  24.046  1.00  0.00     0.173 C 
ATOM     63  C   UNL A   1      32.054  25.102  24.948  1.00  0.00     0.035 C 
ATOM     64  N   UNL A   1      33.357  23.824  23.354  1.00  0.00    -0.344 N 
ATOM     65  C   UNL A   1      30.779  24.723  24.185  1.00  0.00     0.004 C 
ATOM     66  C   UNL A   1      32.204  23.426  22.555  1.00  0.00     0.119 C 
ATOM     67  C   UNL A   1      30.955  23.402  23.439  1.00  0.00     0.022 C 
BRANCH  64  68
ATOM     68  C   UNL A   1      34.166  22.847  23.899  1.00  0.00     0.133 A 
ATOM     69  C   UNL A   1      35.396  23.196  24.408  1.00  0.00     0.076 A 
ATOM     70  N   UNL A   1      33.719  21.584  23.958  1.00  0.00    -0.211 NA
ATOM     71  C   UNL A   1      36.147  22.200  24.996  1.00  0.00     0.076 A 
ATOM     72  C   UNL A   1      34.523  20.671  24.527  1.00  0.00     0.162 A 
ATOM     73  N   UNL A   1      35.731  20.921  25.056  1.00  0.00    -0.228 NA
BRANCH  71  74
ATOM     74  C   UNL A   1      37.447  22.498  25.598  1.00  0.00     0.000 A 
ATOM     75  C   UNL A   1      37.723  23.771  26.120  1.00  0.00     0.010 A 
ATOM     76  C   UNL A   1      38.435  21.504  25.705  1.00  0.00     0.010 A 
ATOM     77  C   UNL A   1      38.940  24.035  26.751  1.00  0.00     0.001 A 
ATOM     78  C   UNL A   1      39.656  21.771  26.327  1.00  0.00     0.001 A 
ATOM     79  C   UNL A   1      39.905  23.035  26.855  1.00  0.00     0.000 A 
ENDBRANCH  71  74
BRANCH  72  80
ATOM     80  C   UNL A   1      34.026  19.296  24.585  1.00  0.00     0.021 A 
ATOM     81  C   UNL A   1      32.652  19.014  24.452  1.00  0.00     0.012 A 
ATOM     82  C   UNL A   1      34.906  18.221  24.791  1.00  0.00     0.032 A 
ATOM     83  C   UNL A   1      32.176  17.702  24.509  1.00  0.00     0.002 A 
ATOM     84  C   UNL A   1      34.424  16.914  24.867  1.00  0.00     0.041 A 
ATOM     85  C   UNL A   1      33.064  16.650  24.720  1.00  0.00     0.020 A 
ATOM     86  Cl  UNL A   1      35.518  15.616  25.155  1.00  0.00    -0.084 Cl
ENDBRANCH  72  80
ENDBRANCH  64  68
ENDBRANCH  59  62
ENDBRANCH  57  58
ENDBRANCH   1  57
TORSDOF 13
ENDMDL
