MODEL 1
REMARK VINA RESULT:     -10.6      0.000      0.000
REMARK SMILES CC[C@@H](C)[C@@H](C(=O)NCCCNC(=O)c1ccc(-c2c3nc(c(-c4ccccc4)c4ccc([nH]4)c(-c4ccccc4)c4nc(c(-c5ccccc5)c5ccc2[nH]5)C=C4)C=C3)cc1)S(=O)(=O)c1ccc(OC)cc1
REMARK SMILES IDX 9 1 8 2 6 3 7 4 5 6 3 7 4 8 2 9 1 10 63 11 64 12 65 13 66 14
REMARK SMILES IDX 67 15 73 16 68 17 72 18 69 19 70 20 71 21 10 22 11 23 12 24
REMARK SMILES IDX 13 25 14 27 15 28 16 29 62 30 17 31 61 32 18 33 19 34 20 35
REMARK SMILES IDX 55 36 21 37 60 38 54 39 56 40 22 41 59 42 53 43 52 44 23 46
REMARK SMILES IDX 45 47 30 48 44 49 31 50 34 51 43 52 57 53 32 54 33 55 42 57
REMARK SMILES IDX 58 58 35 59 24 60 25 61 29 62 26 63 28 64 27 65 46 66 47 67
REMARK SMILES IDX 51 68 48 69 50 70 49 71 36 72 37 73 41 74 38 75 40 76 39 77
REMARK H PARENT 8 5 12 26 56 45 34 56
REMARK Flexibility Score: inf
ROOT
ATOM      1  C   UNL A   1      37.185  20.722  24.603  1.00  0.00     0.117 C 
ENDROOT
BRANCH   1   2
ATOM      2  N   UNL A   1      36.098  20.768  25.572  1.00  0.00    -0.355 N 
ATOM      3  C   UNL A   1      34.807  21.202  25.511  1.00  0.00     0.239 C 
ATOM      4  O   UNL A   1      34.274  21.377  26.609  1.00  0.00    -0.274 OA
ATOM      5  H   UNL A   1      36.348  20.412  26.455  1.00  0.00     0.163 HD
BRANCH   3   6
ATOM      6  C   UNL A   1      34.081  21.481  24.195  1.00  0.00     0.205 C 
BRANCH   6   7
ATOM      7  C   UNL A   1      33.790  22.996  23.940  1.00  0.00     0.014 C 
ATOM      8  C   UNL A   1      33.390  23.301  22.490  1.00  0.00     0.009 C 
BRANCH   7   9
ATOM      9  C   UNL A   1      34.992  23.872  24.330  1.00  0.00     0.002 C 
ATOM     10  C   UNL A   1      34.782  24.808  25.513  1.00  0.00     0.004 C 
ENDBRANCH   7   9
ENDBRANCH   6   7
BRANCH   6  11
ATOM     11  S   UNL A   1      32.615  20.401  24.196  1.00  0.00     0.190 S 
ATOM     12  O   UNL A   1      31.686  20.826  25.223  1.00  0.00    -0.223 OA
ATOM     13  O   UNL A   1      32.128  20.356  22.821  1.00  0.00    -0.223 OA
BRANCH  11  14
ATOM     14  C   UNL A   1      33.097  18.735  24.635  1.00  0.00     0.068 A 
ATOM     15  C   UNL A   1      34.145  18.097  23.971  1.00  0.00     0.024 A 
ATOM     16  C   UNL A   1      32.389  18.050  25.628  1.00  0.00     0.024 A 
ATOM     17  C   UNL A   1      34.391  16.743  24.205  1.00  0.00     0.048 A 
ATOM     18  C   UNL A   1      32.678  16.705  25.897  1.00  0.00     0.048 A 
ATOM     19  C   UNL A   1      33.660  16.039  25.163  1.00  0.00     0.118 A 
BRANCH  19  20
ATOM     20  O   UNL A   1      33.991  14.717  25.267  1.00  0.00    -0.497 OA
ATOM     21  C   UNL A   1      32.962  13.830  25.683  1.00  0.00     0.278 C 
ENDBRANCH  19  20
ENDBRANCH  11  14
ENDBRANCH   6  11
ENDBRANCH   3   6
ENDBRANCH   1   2
BRANCH   1  22
ATOM     22  C   UNL A   1      38.196  19.613  24.940  1.00  0.00     0.042 C 
BRANCH  22  23
ATOM     23  C   UNL A   1      39.186  19.964  26.049  1.00  0.00     0.118 C 
BRANCH  23  24
ATOM     24  N   UNL A   1      40.395  19.167  25.969  1.00  0.00    -0.352 N 
ATOM     25  C   UNL A   1      41.715  19.540  26.033  1.00  0.00     0.251 C 
ATOM     26  H   UNL A   1      40.245  18.202  25.849  1.00  0.00     0.163 HD
ATOM     27  O   UNL A   1      42.575  18.727  25.697  1.00  0.00    -0.269 OA
BRANCH  25  28
ATOM     28  C   UNL A   1      42.136  20.893  26.479  1.00  0.00     0.039 A 
ATOM     29  C   UNL A   1      42.284  21.121  27.854  1.00  0.00     0.014 A 
ATOM     30  C   UNL A   1      42.296  21.962  25.594  1.00  0.00     0.014 A 
ATOM     31  C   UNL A   1      42.625  22.392  28.329  1.00  0.00     0.010 A 
ATOM     32  C   UNL A   1      42.716  23.211  26.062  1.00  0.00     0.010 A 
ATOM     33  C   UNL A   1      42.866  23.447  27.436  1.00  0.00    -0.014 A 
BRANCH  33  34
ATOM     34  C   UNL A   1      43.248  24.798  27.930  1.00  0.00     0.031 A 
ATOM     35  C   UNL A   1      42.195  25.834  28.228  1.00  0.00     0.074 A 
ATOM     36  C   UNL A   1      44.549  25.120  28.071  1.00  0.00     0.049 A 
ATOM     37  N   UNL A   1      42.342  27.070  28.641  1.00  0.00    -0.248 NA
ATOM     38  C   UNL A   1      40.795  25.439  28.009  1.00  0.00     0.031 C 
ATOM     39  C   UNL A   1      45.677  24.235  27.776  1.00  0.00     0.029 A 
ATOM     40  N   UNL A   1      45.141  26.285  28.494  1.00  0.00    -0.354 N 
ATOM     41  C   UNL A   1      41.060  27.604  28.704  1.00  0.00     0.074 A 
ATOM     42  C   UNL A   1      40.153  26.574  28.245  1.00  0.00     0.031 C 
ATOM     43  C   UNL A   1      46.822  24.880  28.050  1.00  0.00     0.029 A 
ATOM     44  C   UNL A   1      46.513  26.232  28.507  1.00  0.00     0.049 A 
ATOM     45  H   UNL A   1      44.630  27.083  28.763  1.00  0.00     0.167 HD
ATOM     46  C   UNL A   1      40.668  28.832  29.121  1.00  0.00     0.031 A 
ATOM     47  C   UNL A   1      47.425  27.162  28.846  1.00  0.00     0.031 A 
ATOM     48  C   UNL A   1      41.561  29.855  29.597  1.00  0.00     0.049 A 
ATOM     49  C   UNL A   1      46.969  28.512  29.320  1.00  0.00     0.074 A 
ATOM     50  C   UNL A   1      41.248  31.100  30.116  1.00  0.00     0.029 A 
ATOM     51  N   UNL A   1      42.943  29.753  29.608  1.00  0.00    -0.354 N 
ATOM     52  N   UNL A   1      45.749  28.972  29.450  1.00  0.00    -0.248 NA
ATOM     53  C   UNL A   1      48.018  29.467  29.706  1.00  0.00     0.031 C 
ATOM     54  C   UNL A   1      42.445  31.771  30.394  1.00  0.00     0.029 A 
ATOM     55  C   UNL A   1      43.499  30.924  30.096  1.00  0.00     0.049 A 
ATOM     56  H   UNL A   1      43.453  28.965  29.313  1.00  0.00     0.167 HD
ATOM     57  C   UNL A   1      45.882  30.262  29.947  1.00  0.00     0.074 A 
ATOM     58  C   UNL A   1      47.300  30.504  30.113  1.00  0.00     0.031 C 
ATOM     59  C   UNL A   1      44.912  31.162  30.243  1.00  0.00     0.031 A 
BRANCH  46  60
ATOM     60  C   UNL A   1      39.195  29.140  29.061  1.00  0.00    -0.014 A 
ATOM     61  C   UNL A   1      38.598  29.634  27.891  1.00  0.00     0.009 A 
ATOM     62  C   UNL A   1      38.392  28.919  30.191  1.00  0.00     0.009 A 
ATOM     63  C   UNL A   1      37.237  29.947  27.868  1.00  0.00     0.001 A 
ATOM     64  C   UNL A   1      37.026  29.205  30.157  1.00  0.00     0.001 A 
ATOM     65  C   UNL A   1      36.452  29.731  29.000  1.00  0.00     0.000 A 
ENDBRANCH  46  60
BRANCH  47  66
ATOM     66  C   UNL A   1      48.871  26.831  28.764  1.00  0.00    -0.014 A 
ATOM     67  C   UNL A   1      49.599  27.113  27.599  1.00  0.00     0.009 A 
ATOM     68  C   UNL A   1      49.535  26.261  29.861  1.00  0.00     0.009 A 
ATOM     69  C   UNL A   1      50.963  26.819  27.531  1.00  0.00     0.001 A 
ATOM     70  C   UNL A   1      50.903  25.990  29.798  1.00  0.00     0.001 A 
ATOM     71  C   UNL A   1      51.615  26.265  28.631  1.00  0.00     0.000 A 
ENDBRANCH  47  66
BRANCH  59  72
ATOM     72  C   UNL A   1      45.352  32.491  30.787  1.00  0.00    -0.014 A 
ATOM     73  C   UNL A   1      45.461  33.617  29.956  1.00  0.00     0.009 A 
ATOM     74  C   UNL A   1      45.625  32.628  32.157  1.00  0.00     0.009 A 
ATOM     75  C   UNL A   1      45.865  34.847  30.481  1.00  0.00     0.001 A 
ATOM     76  C   UNL A   1      46.004  33.864  32.684  1.00  0.00     0.001 A 
ATOM     77  C   UNL A   1      46.131  34.969  31.845  1.00  0.00     0.000 A 
ENDBRANCH  59  72
ENDBRANCH  33  34
ENDBRANCH  25  28
ENDBRANCH  23  24
ENDBRANCH  22  23
ENDBRANCH   1  22
TORSDOF 15
ENDMDL
MODEL 2
REMARK VINA RESULT:     -10.6      1.798      7.136
REMARK SMILES CC[C@@H](C)[C@@H](C(=O)NCCCNC(=O)c1ccc(-c2c3nc(c(-c4ccccc4)c4ccc([nH]4)c(-c4ccccc4)c4nc(c(-c5ccccc5)c5ccc2[nH]5)C=C4)C=C3)cc1)S(=O)(=O)c1ccc(OC)cc1
REMARK SMILES IDX 9 1 8 2 6 3 7 4 5 6 3 7 4 8 2 9 1 10 63 11 64 12 65 13 66 14
REMARK SMILES IDX 67 15 73 16 68 17 72 18 69 19 70 20 71 21 10 22 11 23 12 24
REMARK SMILES IDX 13 25 14 27 15 28 16 29 62 30 17 31 61 32 18 33 19 34 20 35
REMARK SMILES IDX 55 36 21 37 60 38 54 39 56 40 22 41 59 42 53 43 52 44 23 46
REMARK SMILES IDX 45 47 30 48 44 49 31 50 34 51 43 52 57 53 32 54 33 55 42 57
REMARK SMILES IDX 58 58 35 59 24 60 25 61 29 62 26 63 28 64 27 65 46 66 47 67
REMARK SMILES IDX 51 68 48 69 50 70 49 71 36 72 37 73 41 74 38 75 40 76 39 77
REMARK H PARENT 8 5 12 26 56 45 34 56
REMARK Flexibility Score: inf
ROOT
ATOM      1  C   UNL A   1      36.386  20.381  24.580  1.00  0.00     0.117 C 
ENDROOT
BRANCH   1   2
ATOM      2  N   UNL A   1      35.638  20.710  25.786  1.00  0.00    -0.355 N 
ATOM      3  C   UNL A   1      34.669  21.628  26.065  1.00  0.00     0.239 C 
ATOM      4  O   UNL A   1      34.490  21.833  27.267  1.00  0.00    -0.274 OA
ATOM      5  H   UNL A   1      35.883  20.154  26.560  1.00  0.00     0.163 HD
BRANCH   3   6
ATOM      6  C   UNL A   1      33.884  22.369  24.983  1.00  0.00     0.205 C 
BRANCH   6   7
ATOM      7  C   UNL A   1      33.228  21.428  23.920  1.00  0.00     0.014 C 
ATOM      8  C   UNL A   1      32.263  22.159  22.976  1.00  0.00     0.009 C 
BRANCH   7   9
ATOM      9  C   UNL A   1      32.492  20.253  24.586  1.00  0.00     0.002 C 
ATOM     10  C   UNL A   1      32.881  18.862  24.106  1.00  0.00     0.004 C 
ENDBRANCH   7   9
ENDBRANCH   6   7
BRANCH   6  11
ATOM     11  S   UNL A   1      35.019  23.623  24.311  1.00  0.00     0.190 S 
ATOM     12  O   UNL A   1      36.159  23.782  25.191  1.00  0.00    -0.223 OA
ATOM     13  O   UNL A   1      35.281  23.250  22.924  1.00  0.00    -0.223 OA
BRANCH  11  14
ATOM     14  C   UNL A   1      34.203  25.215  24.279  1.00  0.00     0.068 A 
ATOM     15  C   UNL A   1      34.020  25.946  25.452  1.00  0.00     0.024 A 
ATOM     16  C   UNL A   1      33.706  25.711  23.070  1.00  0.00     0.024 A 
ATOM     17  C   UNL A   1      33.230  27.097  25.435  1.00  0.00     0.048 A 
ATOM     18  C   UNL A   1      32.958  26.898  23.050  1.00  0.00     0.048 A 
ATOM     19  C   UNL A   1      32.693  27.578  24.240  1.00  0.00     0.118 A 
BRANCH  19  20
ATOM     20  O   UNL A   1      31.921  28.696  24.377  1.00  0.00    -0.497 OA
ATOM     21  C   UNL A   1      32.265  29.586  25.430  1.00  0.00     0.278 C 
ENDBRANCH  19  20
ENDBRANCH  11  14
ENDBRANCH   6  11
ENDBRANCH   3   6
ENDBRANCH   1   2
BRANCH   1  22
ATOM     22  C   UNL A   1      37.594  19.482  24.893  1.00  0.00     0.042 C 
BRANCH  22  23
ATOM     23  C   UNL A   1      38.691  20.148  25.722  1.00  0.00     0.118 C 
BRANCH  23  24
ATOM     24  N   UNL A   1      39.883  19.326  25.805  1.00  0.00    -0.352 N 
ATOM     25  C   UNL A   1      41.189  19.670  26.057  1.00  0.00     0.251 C 
ATOM     26  H   UNL A   1      39.731  18.365  25.658  1.00  0.00     0.163 HD
ATOM     27  O   UNL A   1      42.070  18.840  25.839  1.00  0.00    -0.269 OA
BRANCH  25  28
ATOM     28  C   UNL A   1      41.570  21.012  26.568  1.00  0.00     0.039 A 
ATOM     29  C   UNL A   1      41.431  21.262  27.939  1.00  0.00     0.014 A 
ATOM     30  C   UNL A   1      41.970  22.053  25.726  1.00  0.00     0.014 A 
ATOM     31  C   UNL A   1      41.724  22.526  28.463  1.00  0.00     0.010 A 
ATOM     32  C   UNL A   1      42.342  23.290  26.259  1.00  0.00     0.010 A 
ATOM     33  C   UNL A   1      42.204  23.549  27.630  1.00  0.00    -0.014 A 
BRANCH  33  34
ATOM     34  C   UNL A   1      42.537  24.892  28.180  1.00  0.00     0.031 A 
ATOM     35  C   UNL A   1      43.946  25.222  28.600  1.00  0.00     0.074 A 
ATOM     36  C   UNL A   1      41.566  25.811  28.349  1.00  0.00     0.049 A 
ATOM     37  N   UNL A   1      44.417  26.330  29.122  1.00  0.00    -0.248 NA
ATOM     38  C   UNL A   1      44.954  24.163  28.436  1.00  0.00     0.031 C 
ATOM     39  C   UNL A   1      40.151  25.614  28.030  1.00  0.00     0.029 A 
ATOM     40  N   UNL A   1      41.623  27.093  28.836  1.00  0.00    -0.354 N 
ATOM     41  C   UNL A   1      45.763  26.089  29.373  1.00  0.00     0.074 A 
ATOM     42  C   UNL A   1      46.023  24.719  28.987  1.00  0.00     0.031 C 
ATOM     43  C   UNL A   1      39.479  26.743  28.307  1.00  0.00     0.029 A 
ATOM     44  C   UNL A   1      40.407  27.730  28.853  1.00  0.00     0.049 A 
ATOM     45  H   UNL A   1      42.458  27.516  29.144  1.00  0.00     0.167 HD
ATOM     46  C   UNL A   1      46.703  26.932  29.862  1.00  0.00     0.031 A 
ATOM     47  C   UNL A   1      40.068  28.968  29.262  1.00  0.00     0.031 A 
ATOM     48  C   UNL A   1      46.458  28.302  30.229  1.00  0.00     0.049 A 
ATOM     49  C   UNL A   1      41.128  29.892  29.787  1.00  0.00     0.074 A 
ATOM     50  C   UNL A   1      47.365  29.256  30.658  1.00  0.00     0.029 A 
ATOM     51  N   UNL A   1      45.213  28.911  30.216  1.00  0.00    -0.354 N 
ATOM     52  N   UNL A   1      42.411  29.674  29.941  1.00  0.00    -0.248 NA
ATOM     53  C   UNL A   1      40.693  31.240  30.183  1.00  0.00     0.031 C 
ATOM     54  C   UNL A   1      46.660  30.429  30.953  1.00  0.00     0.029 A 
ATOM     55  C   UNL A   1      45.323  30.220  30.658  1.00  0.00     0.049 A 
ATOM     56  H   UNL A   1      44.376  28.478  29.934  1.00  0.00     0.167 HD
ATOM     57  C   UNL A   1      42.940  30.859  30.436  1.00  0.00     0.074 A 
ATOM     58  C   UNL A   1      41.842  31.799  30.539  1.00  0.00     0.031 C 
ATOM     59  C   UNL A   1      44.223  31.142  30.772  1.00  0.00     0.031 A 
BRANCH  46  60
ATOM     60  C   UNL A   1      48.092  26.382  30.045  1.00  0.00    -0.014 A 
ATOM     61  C   UNL A   1      49.044  26.441  29.014  1.00  0.00     0.009 A 
ATOM     62  C   UNL A   1      48.458  25.807  31.271  1.00  0.00     0.009 A 
ATOM     63  C   UNL A   1      50.315  25.891  29.191  1.00  0.00     0.001 A 
ATOM     64  C   UNL A   1      49.740  25.284  31.456  1.00  0.00     0.001 A 
ATOM     65  C   UNL A   1      50.662  25.315  30.412  1.00  0.00     0.000 A 
ENDBRANCH  46  60
BRANCH  47  66
ATOM     66  C   UNL A   1      38.652  29.406  29.168  1.00  0.00    -0.014 A 
ATOM     67  C   UNL A   1      38.148  29.929  27.967  1.00  0.00     0.009 A 
ATOM     68  C   UNL A   1      37.791  29.276  30.268  1.00  0.00     0.009 A 
ATOM     69  C   UNL A   1      36.812  30.322  27.875  1.00  0.00     0.001 A 
ATOM     70  C   UNL A   1      36.450  29.648  30.166  1.00  0.00     0.001 A 
ATOM     71  C   UNL A   1      35.962  30.176  28.971  1.00  0.00     0.000 A 
ENDBRANCH  47  66
BRANCH  59  72
ATOM     72  C   UNL A   1      44.512  32.529  31.271  1.00  0.00    -0.014 A 
ATOM     73  C   UNL A   1      44.814  33.573  30.382  1.00  0.00     0.009 A 
ATOM     74  C   UNL A   1      44.445  32.804  32.646  1.00  0.00     0.009 A 
ATOM     75  C   UNL A   1      45.073  34.858  30.864  1.00  0.00     0.001 A 
ATOM     76  C   UNL A   1      44.680  34.095  33.122  1.00  0.00     0.001 A 
ATOM     77  C   UNL A   1      45.001  35.118  32.233  1.00  0.00     0.000 A 
ENDBRANCH  59  72
ENDBRANCH  33  34
ENDBRANCH  25  28
ENDBRANCH  23  24
ENDBRANCH  22  23
ENDBRANCH   1  22
TORSDOF 15
ENDMDL
MODEL 3
REMARK VINA RESULT:     -10.5      1.651      3.982
REMARK SMILES CC[C@@H](C)[C@@H](C(=O)NCCCNC(=O)c1ccc(-c2c3nc(c(-c4ccccc4)c4ccc([nH]4)c(-c4ccccc4)c4nc(c(-c5ccccc5)c5ccc2[nH]5)C=C4)C=C3)cc1)S(=O)(=O)c1ccc(OC)cc1
REMARK SMILES IDX 9 1 8 2 6 3 7 4 5 6 3 7 4 8 2 9 1 10 63 11 64 12 65 13 66 14
REMARK SMILES IDX 67 15 73 16 68 17 72 18 69 19 70 20 71 21 10 22 11 23 12 24
REMARK SMILES IDX 13 25 14 27 15 28 16 29 62 30 17 31 61 32 18 33 19 34 20 35
REMARK SMILES IDX 55 36 21 37 60 38 54 39 56 40 22 41 59 42 53 43 52 44 23 46
REMARK SMILES IDX 45 47 30 48 44 49 31 50 34 51 43 52 57 53 32 54 33 55 42 57
REMARK SMILES IDX 58 58 35 59 24 60 25 61 29 62 26 63 28 64 27 65 46 66 47 67
REMARK SMILES IDX 51 68 48 69 50 70 49 71 36 72 37 73 41 74 38 75 40 76 39 77
REMARK H PARENT 8 5 12 26 56 45 34 56
REMARK Flexibility Score: inf
ROOT
ATOM      1  C   UNL A   1      36.473  20.429  24.640  1.00  0.00     0.117 C 
ENDROOT
BRANCH   1   2
ATOM      2  N   UNL A   1      35.667  20.752  25.809  1.00  0.00    -0.355 N 
ATOM      3  C   UNL A   1      34.657  21.640  26.034  1.00  0.00     0.239 C 
ATOM      4  O   UNL A   1      34.424  21.859  27.225  1.00  0.00    -0.274 OA
ATOM      5  H   UNL A   1      35.900  20.218  26.603  1.00  0.00     0.163 HD
BRANCH   3   6
ATOM      6  C   UNL A   1      33.890  22.335  24.909  1.00  0.00     0.205 C 
BRANCH   6   7
ATOM      7  C   UNL A   1      33.235  21.351  23.886  1.00  0.00     0.014 C 
ATOM      8  C   UNL A   1      32.261  22.039  22.920  1.00  0.00     0.009 C 
BRANCH   7   9
ATOM      9  C   UNL A   1      32.510  20.198  24.601  1.00  0.00     0.002 C 
ATOM     10  C   UNL A   1      33.029  18.797  24.308  1.00  0.00     0.004 C 
ENDBRANCH   7   9
ENDBRANCH   6   7
BRANCH   6  11
ATOM     11  S   UNL A   1      35.046  23.544  24.189  1.00  0.00     0.190 S 
ATOM     12  O   UNL A   1      36.125  23.811  25.117  1.00  0.00    -0.223 OA
ATOM     13  O   UNL A   1      35.400  23.045  22.864  1.00  0.00    -0.223 OA
BRANCH  11  14
ATOM     14  C   UNL A   1      34.208  25.107  23.953  1.00  0.00     0.068 A 
ATOM     15  C   UNL A   1      34.020  25.984  25.021  1.00  0.00     0.024 A 
ATOM     16  C   UNL A   1      33.699  25.434  22.692  1.00  0.00     0.024 A 
ATOM     17  C   UNL A   1      33.215  27.113  24.858  1.00  0.00     0.048 A 
ATOM     18  C   UNL A   1      32.936  26.598  22.521  1.00  0.00     0.048 A 
ATOM     19  C   UNL A   1      32.666  27.425  23.613  1.00  0.00     0.118 A 
BRANCH  19  20
ATOM     20  O   UNL A   1      31.880  28.542  23.606  1.00  0.00    -0.497 OA
ATOM     21  C   UNL A   1      31.032  28.735  24.730  1.00  0.00     0.278 C 
ENDBRANCH  19  20
ENDBRANCH  11  14
ENDBRANCH   6  11
ENDBRANCH   3   6
ENDBRANCH   1   2
BRANCH   1  22
ATOM     22  C   UNL A   1      37.637  19.490  24.998  1.00  0.00     0.042 C 
BRANCH  22  23
ATOM     23  C   UNL A   1      38.796  20.158  25.736  1.00  0.00     0.118 C 
BRANCH  23  24
ATOM     24  N   UNL A   1      39.950  19.285  25.837  1.00  0.00    -0.352 N 
ATOM     25  C   UNL A   1      41.272  19.577  26.070  1.00  0.00     0.251 C 
ATOM     26  H   UNL A   1      39.754  18.328  25.720  1.00  0.00     0.163 HD
ATOM     27  O   UNL A   1      42.113  18.702  25.872  1.00  0.00    -0.269 OA
BRANCH  25  28
ATOM     28  C   UNL A   1      41.717  20.915  26.539  1.00  0.00     0.039 A 
ATOM     29  C   UNL A   1      41.659  21.189  27.911  1.00  0.00     0.014 A 
ATOM     30  C   UNL A   1      42.100  21.931  25.660  1.00  0.00     0.014 A 
ATOM     31  C   UNL A   1      42.015  22.452  28.398  1.00  0.00     0.010 A 
ATOM     32  C   UNL A   1      42.534  23.165  26.152  1.00  0.00     0.010 A 
ATOM     33  C   UNL A   1      42.478  23.448  27.525  1.00  0.00    -0.014 A 
BRANCH  33  34
ATOM     34  C   UNL A   1      42.878  24.789  28.034  1.00  0.00     0.031 A 
ATOM     35  C   UNL A   1      41.840  25.844  28.318  1.00  0.00     0.074 A 
ATOM     36  C   UNL A   1      44.182  25.083  28.202  1.00  0.00     0.049 A 
ATOM     37  N   UNL A   1      42.005  27.074  28.741  1.00  0.00    -0.248 NA
ATOM     38  C   UNL A   1      40.437  25.480  28.071  1.00  0.00     0.031 C 
ATOM     39  C   UNL A   1      45.297  24.177  27.923  1.00  0.00     0.029 A 
ATOM     40  N   UNL A   1      44.789  26.233  28.643  1.00  0.00    -0.354 N 
ATOM     41  C   UNL A   1      40.733  27.634  28.783  1.00  0.00     0.074 A 
ATOM     42  C   UNL A   1      39.815  26.626  28.301  1.00  0.00     0.031 C 
ATOM     43  C   UNL A   1      46.449  24.796  28.222  1.00  0.00     0.029 A 
ATOM     44  C   UNL A   1      46.159  26.152  28.682  1.00  0.00     0.049 A 
ATOM     45  H   UNL A   1      44.289  27.040  28.907  1.00  0.00     0.167 HD
ATOM     46  C   UNL A   1      40.358  28.868  29.200  1.00  0.00     0.031 A 
ATOM     47  C   UNL A   1      47.084  27.061  29.044  1.00  0.00     0.031 A 
ATOM     48  C   UNL A   1      41.262  29.869  29.699  1.00  0.00     0.049 A 
ATOM     49  C   UNL A   1      46.647  28.418  29.516  1.00  0.00     0.074 A 
ATOM     50  C   UNL A   1      40.965  31.118  30.219  1.00  0.00     0.029 A 
ATOM     51  N   UNL A   1      42.642  29.739  29.735  1.00  0.00    -0.354 N 
ATOM     52  N   UNL A   1      45.434  28.902  29.626  1.00  0.00    -0.248 NA
ATOM     53  C   UNL A   1      47.708  29.349  29.928  1.00  0.00     0.031 C 
ATOM     54  C   UNL A   1      42.170  31.763  30.524  1.00  0.00     0.029 A 
ATOM     55  C   UNL A   1      43.213  30.896  30.241  1.00  0.00     0.049 A 
ATOM     56  H   UNL A   1      43.141  28.942  29.445  1.00  0.00     0.167 HD
ATOM     57  C   UNL A   1      45.583  30.186  30.133  1.00  0.00     0.074 A 
ATOM     58  C   UNL A   1      47.003  30.398  30.327  1.00  0.00     0.031 C 
ATOM     59  C   UNL A   1      44.627  31.104  30.416  1.00  0.00     0.031 A 
BRANCH  46  60
ATOM     60  C   UNL A   1      38.894  29.206  29.114  1.00  0.00    -0.014 A 
ATOM     61  C   UNL A   1      38.041  29.051  30.219  1.00  0.00     0.009 A 
ATOM     62  C   UNL A   1      38.363  29.700  27.913  1.00  0.00     0.009 A 
ATOM     63  C   UNL A   1      36.679  29.335  30.108  1.00  0.00     0.001 A 
ATOM     64  C   UNL A   1      37.005  30.013  27.813  1.00  0.00     0.001 A 
ATOM     65  C   UNL A   1      36.162  29.817  28.906  1.00  0.00     0.000 A 
ENDBRANCH  46  60
BRANCH  47  66
ATOM     66  C   UNL A   1      48.524  26.701  28.987  1.00  0.00    -0.014 A 
ATOM     67  C   UNL A   1      49.143  26.077  30.081  1.00  0.00     0.009 A 
ATOM     68  C   UNL A   1      49.277  26.952  27.830  1.00  0.00     0.009 A 
ATOM     69  C   UNL A   1      50.493  25.722  30.019  1.00  0.00     0.001 A 
ATOM     70  C   UNL A   1      50.619  26.575  27.762  1.00  0.00     0.001 A 
ATOM     71  C   UNL A   1      51.227  25.964  28.859  1.00  0.00     0.000 A 
ENDBRANCH  47  66
BRANCH  59  72
ATOM     72  C   UNL A   1      45.083  32.421  30.977  1.00  0.00    -0.014 A 
ATOM     73  C   UNL A   1      45.240  32.607  32.359  1.00  0.00     0.009 A 
ATOM     74  C   UNL A   1      45.397  33.478  30.108  1.00  0.00     0.009 A 
ATOM     75  C   UNL A   1      45.672  33.836  32.863  1.00  0.00     0.001 A 
ATOM     76  C   UNL A   1      45.853  34.697  30.613  1.00  0.00     0.001 A 
ATOM     77  C   UNL A   1      45.982  34.878  31.988  1.00  0.00     0.000 A 
ENDBRANCH  59  72
ENDBRANCH  33  34
ENDBRANCH  25  28
ENDBRANCH  23  24
ENDBRANCH  22  23
ENDBRANCH   1  22
TORSDOF 15
ENDMDL
