MODEL 1
REMARK VINA RESULT:     -12.8      0.000      0.000
REMARK SMILES O=C(NCCCNC(=O)c1ccc(-c2c3nc(c(-c4ccccc4)c4ccc([nH]4)c(-c4ccccc4)c4nc(c(-c5ccccc5)c5ccc2[nH]5)C=C4)C=C3)cc1)C1=Cc2cc(Cl)cc(-c3ccc(CO)cc3)c2O[C@@H]1C(F)(F)F
REMARK SMILES IDX 4 1 3 2 1 3 2 4 58 6 59 7 76 8 60 9 75 10 61 11 74 12 62 13
REMARK SMILES IDX 65 14 63 15 64 16 77 17 78 18 79 19 80 20 66 21 67 22 73 23
REMARK SMILES IDX 68 24 72 25 69 26 70 27 71 28 5 30 6 31 7 32 8 33 9 35 10 36
REMARK SMILES IDX 11 37 57 38 12 39 56 40 13 41 14 42 15 43 50 44 16 45 55 46
REMARK SMILES IDX 49 47 51 48 17 49 54 50 48 51 47 52 18 54 40 55 25 56 39 57
REMARK SMILES IDX 26 58 29 59 38 60 52 61 27 62 28 63 37 65 53 66 30 67 19 68
REMARK SMILES IDX 20 69 24 70 21 71 23 72 22 73 41 74 42 75 46 76 43 77 45 78
REMARK SMILES IDX 44 79 31 80 32 81 36 82 33 83 35 84 34 85
REMARK H PARENT 3 5 71 29 7 34 51 53 29 64
REMARK Flexibility Score: inf
ROOT
ATOM      1  C   UNL A   1      32.589  27.171  26.257  1.00  0.00     0.118 C 
ENDROOT
BRANCH   1   2
ATOM      2  N   UNL A   1      31.790  26.068  26.798  1.00  0.00    -0.352 N 
ATOM      3  O   UNL A   1      31.264  23.905  27.246  1.00  0.00    -0.270 OA
ATOM      4  C   UNL A   1      31.881  24.719  26.572  1.00  0.00     0.251 C 
ATOM      5  H   UNL A   1      31.077  26.337  27.421  1.00  0.00     0.163 HD
BRANCH   4   6
ATOM      6  C   UNL A   1      32.813  24.290  25.521  1.00  0.00     0.067 C 
ATOM      7  C   UNL A   1      34.118  24.512  25.714  1.00  0.00     0.025 C 
ATOM      8  C   UNL A   1      32.300  23.342  24.486  1.00  0.00     0.314 C 
ATOM      9  C   UNL A   1      34.992  23.437  25.236  1.00  0.00     0.019 A 
ATOM     10  O   UNL A   1      33.072  22.117  24.484  1.00  0.00    -0.475 OA
ATOM     11  C   UNL A   1      36.344  23.490  25.581  1.00  0.00     0.032 A 
ATOM     12  C   UNL A   1      34.404  22.219  24.825  1.00  0.00     0.135 A 
ATOM     13  C   UNL A   1      37.083  22.313  25.616  1.00  0.00     0.042 A 
ATOM     14  C   UNL A   1      35.129  21.020  24.932  1.00  0.00     0.026 A 
ATOM     15  Cl  UNL A   1      38.704  22.353  26.193  1.00  0.00    -0.084 Cl
ATOM     16  C   UNL A   1      36.480  21.091  25.322  1.00  0.00     0.033 A 
BRANCH   8  17
ATOM     17  C   UNL A   1      32.222  23.995  23.096  1.00  0.00     0.429 C 
ATOM     18  F   UNL A   1      32.988  25.110  23.033  1.00  0.00    -0.167 F 
ATOM     19  F   UNL A   1      32.668  23.161  22.127  1.00  0.00    -0.167 F 
ATOM     20  F   UNL A   1      30.961  24.358  22.760  1.00  0.00    -0.167 F 
ENDBRANCH   8  17
BRANCH  14  21
ATOM     21  C   UNL A   1      34.476  19.701  24.891  1.00  0.00    -0.015 A 
ATOM     22  C   UNL A   1      33.256  19.526  25.562  1.00  0.00     0.009 A 
ATOM     23  C   UNL A   1      35.050  18.587  24.276  1.00  0.00     0.009 A 
ATOM     24  C   UNL A   1      32.669  18.272  25.708  1.00  0.00     0.007 A 
ATOM     25  C   UNL A   1      34.457  17.322  24.406  1.00  0.00     0.007 A 
ATOM     26  C   UNL A   1      33.278  17.152  25.148  1.00  0.00    -0.023 A 
BRANCH  26  27
ATOM     27  C   UNL A   1      32.706  15.790  25.426  1.00  0.00     0.191 C 
BRANCH  27  28
ATOM     28  O   UNL A   1      33.730  14.802  25.382  1.00  0.00    -0.392 OA
ATOM     29  H   UNL A   1      34.047  14.625  26.282  1.00  0.00     0.211 HD
ENDBRANCH  27  28
ENDBRANCH  26  27
ENDBRANCH  14  21
ENDBRANCH   4   6
ENDBRANCH   1   2
BRANCH   1  30
ATOM     30  C   UNL A   1      32.824  28.283  27.283  1.00  0.00     0.042 C 
BRANCH  30  31
ATOM     31  C   UNL A   1      33.383  29.555  26.650  1.00  0.00     0.118 C 
BRANCH  31  32
ATOM     32  N   UNL A   1      33.556  30.669  27.564  1.00  0.00    -0.352 N 
ATOM     33  C   UNL A   1      34.635  31.008  28.358  1.00  0.00     0.251 C 
ATOM     34  H   UNL A   1      32.786  31.278  27.629  1.00  0.00     0.163 HD
ATOM     35  O   UNL A   1      34.568  32.013  29.063  1.00  0.00    -0.269 OA
BRANCH  33  36
ATOM     36  C   UNL A   1      35.821  30.122  28.476  1.00  0.00     0.039 A 
ATOM     37  C   UNL A   1      36.697  30.065  27.383  1.00  0.00     0.014 A 
ATOM     38  C   UNL A   1      36.150  29.445  29.647  1.00  0.00     0.014 A 
ATOM     39  C   UNL A   1      37.955  29.481  27.526  1.00  0.00     0.010 A 
ATOM     40  C   UNL A   1      37.440  28.963  29.828  1.00  0.00     0.010 A 
ATOM     41  C   UNL A   1      38.368  29.016  28.781  1.00  0.00    -0.014 A 
BRANCH  41  42
ATOM     42  C   UNL A   1      39.783  28.671  29.050  1.00  0.00     0.031 A 
ATOM     43  C   UNL A   1      40.711  29.681  29.657  1.00  0.00     0.074 A 
ATOM     44  C   UNL A   1      40.251  27.480  28.623  1.00  0.00     0.049 A 
ATOM     45  N   UNL A   1      41.999  29.596  29.866  1.00  0.00    -0.248 NA
ATOM     46  C   UNL A   1      40.124  30.977  30.035  1.00  0.00     0.031 C 
ATOM     47  C   UNL A   1      39.461  26.455  27.933  1.00  0.00     0.029 A 
ATOM     48  N   UNL A   1      41.505  26.931  28.697  1.00  0.00    -0.354 N 
ATOM     49  C   UNL A   1      42.382  30.836  30.360  1.00  0.00     0.074 A 
ATOM     50  C   UNL A   1      41.200  31.670  30.376  1.00  0.00     0.031 C 
ATOM     51  C   UNL A   1      40.236  25.386  27.691  1.00  0.00     0.029 A 
ATOM     52  C   UNL A   1      41.583  25.664  28.170  1.00  0.00     0.049 A 
ATOM     53  H   UNL A   1      42.276  27.400  29.091  1.00  0.00     0.167 HD
ATOM     54  C   UNL A   1      43.605  31.237  30.780  1.00  0.00     0.031 A 
ATOM     55  C   UNL A   1      42.625  24.817  28.091  1.00  0.00     0.031 A 
ATOM     56  C   UNL A   1      44.764  30.387  30.795  1.00  0.00     0.049 A 
ATOM     57  C   UNL A   1      43.948  25.251  28.646  1.00  0.00     0.074 A 
ATOM     58  C   UNL A   1      46.035  30.663  31.266  1.00  0.00     0.029 A 
ATOM     59  N   UNL A   1      44.784  29.083  30.323  1.00  0.00    -0.354 N 
ATOM     60  N   UNL A   1      44.278  26.403  29.179  1.00  0.00    -0.248 NA
ATOM     61  C   UNL A   1      45.038  24.267  28.606  1.00  0.00     0.031 C 
ATOM     62  C   UNL A   1      46.831  29.530  31.058  1.00  0.00     0.029 A 
ATOM     63  C   UNL A   1      46.045  28.539  30.491  1.00  0.00     0.049 A 
ATOM     64  H   UNL A   1      44.015  28.613  29.928  1.00  0.00     0.167 HD
ATOM     65  C   UNL A   1      45.607  26.278  29.556  1.00  0.00     0.074 A 
ATOM     66  C   UNL A   1      46.016  24.932  29.206  1.00  0.00     0.031 C 
ATOM     67  C   UNL A   1      46.420  27.195  30.135  1.00  0.00     0.031 A 
BRANCH  54  68
ATOM     68  C   UNL A   1      43.733  32.658  31.255  1.00  0.00    -0.014 A 
ATOM     69  C   UNL A   1      44.041  33.698  30.362  1.00  0.00     0.009 A 
ATOM     70  C   UNL A   1      43.555  32.961  32.614  1.00  0.00     0.009 A 
ATOM     71  C   UNL A   1      44.221  35.003  30.829  1.00  0.00     0.001 A 
ATOM     72  C   UNL A   1      43.706  34.271  33.072  1.00  0.00     0.001 A 
ATOM     73  C   UNL A   1      44.053  35.287  32.182  1.00  0.00     0.000 A 
ENDBRANCH  54  68
BRANCH  55  74
ATOM     74  C   UNL A   1      42.439  23.461  27.510  1.00  0.00    -0.014 A 
ATOM     75  C   UNL A   1      42.754  23.221  26.164  1.00  0.00     0.009 A 
ATOM     76  C   UNL A   1      41.972  22.399  28.298  1.00  0.00     0.009 A 
ATOM     77  C   UNL A   1      42.582  21.950  25.612  1.00  0.00     0.001 A 
ATOM     78  C   UNL A   1      41.825  21.122  27.749  1.00  0.00     0.001 A 
ATOM     79  C   UNL A   1      42.123  20.900  26.405  1.00  0.00     0.000 A 
ENDBRANCH  55  74
BRANCH  67  80
ATOM     80  C   UNL A   1      47.819  26.756  30.448  1.00  0.00    -0.014 A 
ATOM     81  C   UNL A   1      48.865  26.976  29.539  1.00  0.00     0.009 A 
ATOM     82  C   UNL A   1      48.098  26.152  31.682  1.00  0.00     0.009 A 
ATOM     83  C   UNL A   1      50.163  26.569  29.851  1.00  0.00     0.001 A 
ATOM     84  C   UNL A   1      49.400  25.769  32.001  1.00  0.00     0.001 A 
ATOM     85  C   UNL A   1      50.430  25.972  31.083  1.00  0.00     0.000 A 
ENDBRANCH  67  80
ENDBRANCH  41  42
ENDBRANCH  33  36
ENDBRANCH  31  32
ENDBRANCH  30  31
ENDBRANCH   1  30
TORSDOF 14
ENDMDL
MODEL 2
REMARK VINA RESULT:     -12.6      2.804      6.047
REMARK SMILES O=C(NCCCNC(=O)c1ccc(-c2c3nc(c(-c4ccccc4)c4ccc([nH]4)c(-c4ccccc4)c4nc(c(-c5ccccc5)c5ccc2[nH]5)C=C4)C=C3)cc1)C1=Cc2cc(Cl)cc(-c3ccc(CO)cc3)c2O[C@@H]1C(F)(F)F
REMARK SMILES IDX 4 1 3 2 1 3 2 4 58 6 59 7 76 8 60 9 75 10 61 11 74 12 62 13
REMARK SMILES IDX 65 14 63 15 64 16 77 17 78 18 79 19 80 20 66 21 67 22 73 23
REMARK SMILES IDX 68 24 72 25 69 26 70 27 71 28 5 30 6 31 7 32 8 33 9 35 10 36
REMARK SMILES IDX 11 37 57 38 12 39 56 40 13 41 14 42 15 43 50 44 16 45 55 46
REMARK SMILES IDX 49 47 51 48 17 49 54 50 48 51 47 52 18 54 40 55 25 56 39 57
REMARK SMILES IDX 26 58 29 59 38 60 52 61 27 62 28 63 37 65 53 66 30 67 19 68
REMARK SMILES IDX 20 69 24 70 21 71 23 72 22 73 41 74 42 75 46 76 43 77 45 78
REMARK SMILES IDX 44 79 31 80 32 81 36 82 33 83 35 84 34 85
REMARK H PARENT 3 5 71 29 7 34 51 53 29 64
REMARK Flexibility Score: inf
ROOT
ATOM      1  C   UNL A   1      31.834  26.660  26.046  1.00  0.00     0.118 C 
ENDROOT
BRANCH   1   2
ATOM      2  N   UNL A   1      31.373  25.515  26.838  1.00  0.00    -0.352 N 
ATOM      3  O   UNL A   1      31.400  23.386  27.625  1.00  0.00    -0.270 OA
ATOM      4  C   UNL A   1      31.732  24.193  26.768  1.00  0.00     0.251 C 
ATOM      5  H   UNL A   1      30.703  25.728  27.526  1.00  0.00     0.163 HD
BRANCH   4   6
ATOM      6  C   UNL A   1      32.594  23.804  25.645  1.00  0.00     0.067 C 
ATOM      7  C   UNL A   1      33.904  24.056  25.746  1.00  0.00     0.025 C 
ATOM      8  C   UNL A   1      32.029  22.860  24.634  1.00  0.00     0.314 C 
ATOM      9  C   UNL A   1      34.766  23.011  25.187  1.00  0.00     0.019 A 
ATOM     10  O   UNL A   1      32.828  21.655  24.554  1.00  0.00    -0.475 OA
ATOM     11  C   UNL A   1      36.138  23.092  25.434  1.00  0.00     0.032 A 
ATOM     12  C   UNL A   1      34.179  21.785  24.799  1.00  0.00     0.135 A 
ATOM     13  C   UNL A   1      36.905  21.934  25.395  1.00  0.00     0.042 A 
ATOM     14  C   UNL A   1      34.938  20.603  24.832  1.00  0.00     0.026 A 
ATOM     15  Cl  UNL A   1      38.562  22.005  25.854  1.00  0.00    -0.084 Cl
ATOM     16  C   UNL A   1      36.312  20.701  25.125  1.00  0.00     0.033 A 
BRANCH   8  17
ATOM     17  C   UNL A   1      31.834  23.532  23.264  1.00  0.00     0.429 C 
ATOM     18  F   UNL A   1      30.522  23.608  22.937  1.00  0.00    -0.167 F 
ATOM     19  F   UNL A   1      32.310  24.800  23.257  1.00  0.00    -0.167 F 
ATOM     20  F   UNL A   1      32.457  22.866  22.263  1.00  0.00    -0.167 F 
ENDBRANCH   8  17
BRANCH  14  21
ATOM     21  C   UNL A   1      34.315  19.269  24.817  1.00  0.00    -0.015 A 
ATOM     22  C   UNL A   1      33.082  19.086  25.462  1.00  0.00     0.009 A 
ATOM     23  C   UNL A   1      34.929  18.150  24.251  1.00  0.00     0.009 A 
ATOM     24  C   UNL A   1      32.519  17.825  25.633  1.00  0.00     0.007 A 
ATOM     25  C   UNL A   1      34.361  16.876  24.405  1.00  0.00     0.007 A 
ATOM     26  C   UNL A   1      33.168  16.702  25.123  1.00  0.00    -0.023 A 
BRANCH  26  27
ATOM     27  C   UNL A   1      32.618  15.337  25.429  1.00  0.00     0.191 C 
BRANCH  27  28
ATOM     28  O   UNL A   1      33.653  14.361  25.376  1.00  0.00    -0.392 OA
ATOM     29  H   UNL A   1      33.748  13.942  26.246  1.00  0.00     0.211 HD
ENDBRANCH  27  28
ENDBRANCH  26  27
ENDBRANCH  14  21
ENDBRANCH   4   6
ENDBRANCH   1   2
BRANCH   1  30
ATOM     30  C   UNL A   1      31.864  27.958  26.856  1.00  0.00     0.042 C 
BRANCH  30  31
ATOM     31  C   UNL A   1      32.585  29.088  26.125  1.00  0.00     0.118 C 
BRANCH  31  32
ATOM     32  N   UNL A   1      32.351  30.415  26.665  1.00  0.00    -0.352 N 
ATOM     33  C   UNL A   1      33.231  31.304  27.251  1.00  0.00     0.251 C 
ATOM     34  H   UNL A   1      31.421  30.731  26.605  1.00  0.00     0.163 HD
ATOM     35  O   UNL A   1      32.813  32.393  27.640  1.00  0.00    -0.269 OA
BRANCH  33  36
ATOM     36  C   UNL A   1      34.640  30.929  27.536  1.00  0.00     0.039 A 
ATOM     37  C   UNL A   1      35.525  31.957  27.887  1.00  0.00     0.014 A 
ATOM     38  C   UNL A   1      35.081  29.608  27.574  1.00  0.00     0.014 A 
ATOM     39  C   UNL A   1      36.772  31.650  28.430  1.00  0.00     0.010 A 
ATOM     40  C   UNL A   1      36.273  29.297  28.217  1.00  0.00     0.010 A 
ATOM     41  C   UNL A   1      37.109  30.315  28.688  1.00  0.00    -0.014 A 
BRANCH  41  42
ATOM     42  C   UNL A   1      38.276  29.961  29.530  1.00  0.00     0.031 A 
ATOM     43  C   UNL A   1      39.362  29.077  28.993  1.00  0.00     0.074 A 
ATOM     44  C   UNL A   1      38.280  30.343  30.823  1.00  0.00     0.049 A 
ATOM     45  N   UNL A   1      40.399  28.577  29.613  1.00  0.00    -0.248 NA
ATOM     46  C   UNL A   1      39.241  28.658  27.587  1.00  0.00     0.031 C 
ATOM     47  C   UNL A   1      37.228  31.127  31.482  1.00  0.00     0.029 A 
ATOM     48  N   UNL A   1      39.193  30.120  31.821  1.00  0.00    -0.354 N 
ATOM     49  C   UNL A   1      41.030  27.756  28.688  1.00  0.00     0.074 A 
ATOM     50  C   UNL A   1      40.234  27.788  27.481  1.00  0.00     0.031 C 
ATOM     51  C   UNL A   1      37.578  31.357  32.756  1.00  0.00     0.029 A 
ATOM     52  C   UNL A   1      38.855  30.706  33.018  1.00  0.00     0.049 A 
ATOM     53  H   UNL A   1      40.012  29.590  31.693  1.00  0.00     0.167 HD
ATOM     54  C   UNL A   1      42.179  27.054  28.827  1.00  0.00     0.031 A 
ATOM     55  C   UNL A   1      39.508  30.725  34.194  1.00  0.00     0.031 A 
ATOM     56  C   UNL A   1      42.981  27.060  30.019  1.00  0.00     0.049 A 
ATOM     57  C   UNL A   1      40.825  30.014  34.295  1.00  0.00     0.074 A 
ATOM     58  C   UNL A   1      44.200  26.446  30.247  1.00  0.00     0.029 A 
ATOM     59  N   UNL A   1      42.643  27.730  31.186  1.00  0.00    -0.354 N 
ATOM     60  N   UNL A   1      41.447  29.301  33.386  1.00  0.00    -0.248 NA
ATOM     61  C   UNL A   1      41.538  30.123  35.574  1.00  0.00     0.031 C 
ATOM     62  C   UNL A   1      44.589  26.728  31.562  1.00  0.00     0.029 A 
ATOM     63  C   UNL A   1      43.629  27.545  32.139  1.00  0.00     0.049 A 
ATOM     64  H   UNL A   1      41.824  28.260  31.317  1.00  0.00     0.167 HD
ATOM     65  C   UNL A   1      42.634  28.892  33.976  1.00  0.00     0.074 A 
ATOM     66  C   UNL A   1      42.652  29.451  35.313  1.00  0.00     0.031 C 
ATOM     67  C   UNL A   1      43.620  28.118  33.460  1.00  0.00     0.031 A 
BRANCH  54  68
ATOM     68  C   UNL A   1      42.621  26.227  27.651  1.00  0.00    -0.014 A 
ATOM     69  C   UNL A   1      43.452  26.766  26.655  1.00  0.00     0.009 A 
ATOM     70  C   UNL A   1      42.194  24.896  27.531  1.00  0.00     0.009 A 
ATOM     71  C   UNL A   1      43.801  26.006  25.535  1.00  0.00     0.001 A 
ATOM     72  C   UNL A   1      42.569  24.130  26.426  1.00  0.00     0.001 A 
ATOM     73  C   UNL A   1      43.360  24.689  25.423  1.00  0.00     0.000 A 
ENDBRANCH  54  68
BRANCH  55  74
ATOM     74  C   UNL A   1      38.950  31.482  35.344  1.00  0.00    -0.014 A 
ATOM     75  C   UNL A   1      38.154  30.831  36.299  1.00  0.00     0.009 A 
ATOM     76  C   UNL A   1      39.225  32.848  35.508  1.00  0.00     0.009 A 
ATOM     77  C   UNL A   1      37.627  31.537  37.382  1.00  0.00     0.001 A 
ATOM     78  C   UNL A   1      38.716  33.546  36.607  1.00  0.00     0.001 A 
ATOM     79  C   UNL A   1      37.911  32.892  37.538  1.00  0.00     0.000 A 
ENDBRANCH  55  74
BRANCH  67  80
ATOM     80  C   UNL A   1      44.806  27.860  34.339  1.00  0.00    -0.014 A 
ATOM     81  C   UNL A   1      44.902  26.683  35.097  1.00  0.00     0.009 A 
ATOM     82  C   UNL A   1      45.856  28.788  34.379  1.00  0.00     0.009 A 
ATOM     83  C   UNL A   1      46.018  26.455  35.902  1.00  0.00     0.001 A 
ATOM     84  C   UNL A   1      46.981  28.547  35.166  1.00  0.00     0.001 A 
ATOM     85  C   UNL A   1      47.058  27.384  35.932  1.00  0.00     0.000 A 
ENDBRANCH  67  80
ENDBRANCH  41  42
ENDBRANCH  33  36
ENDBRANCH  31  32
ENDBRANCH  30  31
ENDBRANCH   1  30
TORSDOF 14
ENDMDL
MODEL 3
REMARK VINA RESULT:     -12.6      2.738      3.414
REMARK SMILES O=C(NCCCNC(=O)c1ccc(-c2c3nc(c(-c4ccccc4)c4ccc([nH]4)c(-c4ccccc4)c4nc(c(-c5ccccc5)c5ccc2[nH]5)C=C4)C=C3)cc1)C1=Cc2cc(Cl)cc(-c3ccc(CO)cc3)c2O[C@@H]1C(F)(F)F
REMARK SMILES IDX 4 1 3 2 1 3 2 4 58 6 59 7 76 8 60 9 75 10 61 11 74 12 62 13
REMARK SMILES IDX 65 14 63 15 64 16 77 17 78 18 79 19 80 20 66 21 67 22 73 23
REMARK SMILES IDX 68 24 72 25 69 26 70 27 71 28 5 30 6 31 7 32 8 33 9 35 10 36
REMARK SMILES IDX 11 37 57 38 12 39 56 40 13 41 14 42 15 43 50 44 16 45 55 46
REMARK SMILES IDX 49 47 51 48 17 49 54 50 48 51 47 52 18 54 40 55 25 56 39 57
REMARK SMILES IDX 26 58 29 59 38 60 52 61 27 62 28 63 37 65 53 66 30 67 19 68
REMARK SMILES IDX 20 69 24 70 21 71 23 72 22 73 41 74 42 75 46 76 43 77 45 78
REMARK SMILES IDX 44 79 31 80 32 81 36 82 33 83 35 84 34 85
REMARK H PARENT 3 5 71 29 7 34 51 53 29 64
REMARK Flexibility Score: inf
ROOT
ATOM      1  C   UNL A   1      31.875  26.681  26.021  1.00  0.00     0.118 C 
ENDROOT
BRANCH   1   2
ATOM      2  N   UNL A   1      31.409  25.546  26.826  1.00  0.00    -0.352 N 
ATOM      3  O   UNL A   1      31.417  23.421  27.624  1.00  0.00    -0.270 OA
ATOM      4  C   UNL A   1      31.747  24.219  26.758  1.00  0.00     0.251 C 
ATOM      5  H   UNL A   1      30.753  25.773  27.523  1.00  0.00     0.163 HD
BRANCH   4   6
ATOM      6  C   UNL A   1      32.587  23.812  25.625  1.00  0.00     0.067 C 
ATOM      7  C   UNL A   1      33.901  24.054  25.701  1.00  0.00     0.025 C 
ATOM      8  C   UNL A   1      31.997  22.863  24.633  1.00  0.00     0.314 C 
ATOM      9  C   UNL A   1      34.744  22.996  25.138  1.00  0.00     0.019 A 
ATOM     10  O   UNL A   1      32.786  21.650  24.552  1.00  0.00    -0.475 OA
ATOM     11  C   UNL A   1      36.121  23.068  25.362  1.00  0.00     0.032 A 
ATOM     12  C   UNL A   1      34.141  21.771  24.773  1.00  0.00     0.135 A 
ATOM     13  C   UNL A   1      36.878  21.903  25.322  1.00  0.00     0.042 A 
ATOM     14  C   UNL A   1      34.891  20.584  24.805  1.00  0.00     0.026 A 
ATOM     15  Cl  UNL A   1      38.543  21.966  25.751  1.00  0.00    -0.084 Cl
ATOM     16  C   UNL A   1      36.270  20.673  25.074  1.00  0.00     0.033 A 
BRANCH   8  17
ATOM     17  C   UNL A   1      31.785  23.523  23.260  1.00  0.00     0.429 C 
ATOM     18  F   UNL A   1      30.492  23.433  22.867  1.00  0.00    -0.167 F 
ATOM     19  F   UNL A   1      32.093  24.841  23.286  1.00  0.00    -0.167 F 
ATOM     20  F   UNL A   1      32.537  22.956  22.287  1.00  0.00    -0.167 F 
ENDBRANCH   8  17
BRANCH  14  21
ATOM     21  C   UNL A   1      34.257  19.254  24.813  1.00  0.00    -0.015 A 
ATOM     22  C   UNL A   1      33.076  19.069  25.549  1.00  0.00     0.009 A 
ATOM     23  C   UNL A   1      34.815  18.142  24.181  1.00  0.00     0.009 A 
ATOM     24  C   UNL A   1      32.517  17.809  25.740  1.00  0.00     0.007 A 
ATOM     25  C   UNL A   1      34.249  16.870  24.356  1.00  0.00     0.007 A 
ATOM     26  C   UNL A   1      33.114  16.691  25.161  1.00  0.00    -0.023 A 
BRANCH  26  27
ATOM     27  C   UNL A   1      32.578  15.324  25.483  1.00  0.00     0.191 C 
BRANCH  27  28
ATOM     28  O   UNL A   1      33.609  14.348  25.379  1.00  0.00    -0.392 OA
ATOM     29  H   UNL A   1      34.341  14.587  25.969  1.00  0.00     0.211 HD
ENDBRANCH  27  28
ENDBRANCH  26  27
ENDBRANCH  14  21
ENDBRANCH   4   6
ENDBRANCH   1   2
BRANCH   1  30
ATOM     30  C   UNL A   1      31.789  28.009  26.777  1.00  0.00     0.042 C 
BRANCH  30  31
ATOM     31  C   UNL A   1      32.576  29.124  26.092  1.00  0.00     0.118 C 
BRANCH  31  32
ATOM     32  N   UNL A   1      32.439  30.435  26.702  1.00  0.00    -0.352 N 
ATOM     33  C   UNL A   1      33.381  31.223  27.336  1.00  0.00     0.251 C 
ATOM     34  H   UNL A   1      31.536  30.822  26.657  1.00  0.00     0.163 HD
ATOM     35  O   UNL A   1      33.043  32.318  27.781  1.00  0.00    -0.269 OA
BRANCH  33  36
ATOM     36  C   UNL A   1      34.755  30.727  27.603  1.00  0.00     0.039 A 
ATOM     37  C   UNL A   1      35.733  31.677  27.928  1.00  0.00     0.014 A 
ATOM     38  C   UNL A   1      35.079  29.374  27.650  1.00  0.00     0.014 A 
ATOM     39  C   UNL A   1      36.957  31.267  28.455  1.00  0.00     0.010 A 
ATOM     40  C   UNL A   1      36.249  28.966  28.277  1.00  0.00     0.010 A 
ATOM     41  C   UNL A   1      37.180  29.911  28.724  1.00  0.00    -0.014 A 
BRANCH  41  42
ATOM     42  C   UNL A   1      38.325  29.465  29.551  1.00  0.00     0.031 A 
ATOM     43  C   UNL A   1      38.466  29.929  30.970  1.00  0.00     0.074 A 
ATOM     44  C   UNL A   1      39.301  28.740  28.967  1.00  0.00     0.049 A 
ATOM     45  N   UNL A   1      39.450  29.729  31.809  1.00  0.00    -0.248 NA
ATOM     46  C   UNL A   1      37.380  30.768  31.503  1.00  0.00     0.031 C 
ATOM     47  C   UNL A   1      39.317  28.311  27.564  1.00  0.00     0.029 A 
ATOM     48  N   UNL A   1      40.473  28.242  29.474  1.00  0.00    -0.354 N 
ATOM     49  C   UNL A   1      39.122  30.451  32.950  1.00  0.00     0.074 A 
ATOM     50  C   UNL A   1      37.872  31.127  32.679  1.00  0.00     0.031 C 
ATOM     51  C   UNL A   1      40.417  27.576  27.337  1.00  0.00     0.029 A 
ATOM     52  C   UNL A   1      41.203  27.516  28.563  1.00  0.00     0.049 A 
ATOM     53  H   UNL A   1      40.764  28.390  30.402  1.00  0.00     0.167 HD
ATOM     54  C   UNL A   1      39.793  30.525  34.123  1.00  0.00     0.031 A 
ATOM     55  C   UNL A   1      42.372  26.865  28.704  1.00  0.00     0.031 A 
ATOM     56  C   UNL A   1      41.014  29.817  34.393  1.00  0.00     0.049 A 
ATOM     57  C   UNL A   1      43.050  26.888  30.041  1.00  0.00     0.074 A 
ATOM     58  C   UNL A   1      41.742  29.760  35.568  1.00  0.00     0.029 A 
ATOM     59  N   UNL A   1      41.683  29.029  33.467  1.00  0.00    -0.354 N 
ATOM     60  N   UNL A   1      42.689  27.514  31.135  1.00  0.00    -0.248 NA
ATOM     61  C   UNL A   1      44.285  26.103  30.170  1.00  0.00     0.031 C 
ATOM     62  C   UNL A   1      42.864  28.953  35.345  1.00  0.00     0.029 A 
ATOM     63  C   UNL A   1      42.814  28.480  34.043  1.00  0.00     0.049 A 
ATOM     64  H   UNL A   1      41.394  28.880  32.538  1.00  0.00     0.167 HD
ATOM     65  C   UNL A   1      43.641  27.185  32.089  1.00  0.00     0.074 A 
ATOM     66  C   UNL A   1      44.583  26.289  31.448  1.00  0.00     0.031 C 
ATOM     67  C   UNL A   1      43.731  27.590  33.379  1.00  0.00     0.031 A 
BRANCH  54  68
ATOM     68  C   UNL A   1      39.206  31.406  35.192  1.00  0.00    -0.014 A 
ATOM     69  C   UNL A   1      39.542  32.767  35.277  1.00  0.00     0.009 A 
ATOM     70  C   UNL A   1      38.315  30.866  36.131  1.00  0.00     0.009 A 
ATOM     71  C   UNL A   1      39.040  33.557  36.314  1.00  0.00     0.001 A 
ATOM     72  C   UNL A   1      37.792  31.666  37.150  1.00  0.00     0.001 A 
ATOM     73  C   UNL A   1      38.165  33.005  37.248  1.00  0.00     0.000 A 
ENDBRANCH  54  68
BRANCH  55  74
ATOM     74  C   UNL A   1      42.939  26.100  27.564  1.00  0.00    -0.014 A 
ATOM     75  C   UNL A   1      43.846  26.712  26.684  1.00  0.00     0.009 A 
ATOM     76  C   UNL A   1      42.601  24.754  27.360  1.00  0.00     0.009 A 
ATOM     77  C   UNL A   1      44.384  25.998  25.611  1.00  0.00     0.001 A 
ATOM     78  C   UNL A   1      43.159  24.035  26.299  1.00  0.00     0.001 A 
ATOM     79  C   UNL A   1      44.044  24.660  25.422  1.00  0.00     0.000 A 
ENDBRANCH  55  74
BRANCH  67  80
ATOM     80  C   UNL A   1      44.873  27.042  34.182  1.00  0.00    -0.014 A 
ATOM     81  C   UNL A   1      46.095  27.727  34.259  1.00  0.00     0.009 A 
ATOM     82  C   UNL A   1      44.709  25.848  34.898  1.00  0.00     0.009 A 
ATOM     83  C   UNL A   1      47.144  27.207  35.019  1.00  0.00     0.001 A 
ATOM     84  C   UNL A   1      45.751  25.343  35.674  1.00  0.00     0.001 A 
ATOM     85  C   UNL A   1      46.970  26.020  35.729  1.00  0.00     0.000 A 
ENDBRANCH  67  80
ENDBRANCH  41  42
ENDBRANCH  33  36
ENDBRANCH  31  32
ENDBRANCH  30  31
ENDBRANCH   1  30
TORSDOF 14
ENDMDL
