MODEL 1
REMARK VINA RESULT:     -10.8      0.000      0.000
REMARK SMILES CCN(CC(C)(C)O)C(=O)Nc1ccc(C(=O)NCCCNC(=O)c2ccc(-c3c4nc(c(-c5ccccc5)c5ccc([nH]5)c(-c5ccccc5)c5nc(c(-c6ccccc6)c6ccc3[nH]6)C=C5)C=C4)cc2)c(O)c1
REMARK SMILES IDX 16 1 17 2 18 3 15 5 12 6 13 7 75 8 14 9 73 10 11 11 9 12
REMARK SMILES IDX 10 13 3 15 2 16 1 17 4 18 5 19 6 20 7 21 8 22 74 24 19 26
REMARK SMILES IDX 20 27 21 28 22 29 23 30 24 32 25 33 26 34 72 35 27 36 71 37
REMARK SMILES IDX 28 38 29 39 30 40 65 41 31 42 70 43 64 44 66 45 32 46 69 47
REMARK SMILES IDX 63 48 62 49 33 51 55 52 40 53 54 54 41 55 44 56 53 57 67 58
REMARK SMILES IDX 42 59 43 60 52 62 68 63 45 64 34 65 35 66 39 67 36 68 38 69
REMARK SMILES IDX 37 70 56 71 57 72 61 73 58 74 60 75 59 76 46 77 47 78 51 79
REMARK SMILES IDX 48 80 50 81 49 82
REMARK H PARENT 18 4 11 14 8 23 74 25 22 31 66 50 44 61
REMARK Flexibility Score: inf
ROOT
ATOM      1  C   UNL A   1      33.484  19.451  24.828  1.00  0.00     0.255 C 
ATOM      2  O   UNL A   1      32.762  18.456  24.842  1.00  0.00    -0.269 OA
ATOM      3  N   UNL A   1      34.830  19.282  24.963  1.00  0.00    -0.352 N 
ATOM      4  H   UNL A   1      35.120  18.346  25.066  1.00  0.00     0.163 HD
ENDROOT
BRANCH   1   5
ATOM      5  C   UNL A   1      32.884  20.800  24.787  1.00  0.00     0.081 A 
ATOM      6  C   UNL A   1      31.330  23.133  24.400  1.00  0.00     0.046 A 
ATOM      7  C   UNL A   1      31.916  22.453  23.357  1.00  0.00     0.027 A 
ATOM      8  C   UNL A   1      31.698  22.724  25.684  1.00  0.00     0.073 A 
ATOM      9  C   UNL A   1      32.626  21.272  23.515  1.00  0.00     0.020 A 
ATOM     10  C   UNL A   1      32.530  21.609  25.868  1.00  0.00     0.130 A 
BRANCH   6  11
ATOM     11  N   UNL A   1      30.496  24.253  24.272  1.00  0.00    -0.308 N 
ATOM     12  C   UNL A   1      30.471  25.597  24.403  1.00  0.00     0.321 C 
ATOM     13  O   UNL A   1      29.317  26.051  24.354  1.00  0.00    -0.248 OA
ATOM     14  H   UNL A   1      29.605  23.950  23.982  1.00  0.00     0.171 HD
BRANCH  12  15
ATOM     15  N   UNL A   1      31.536  26.452  24.501  1.00  0.00    -0.322 N 
BRANCH  15  16
ATOM     16  C   UNL A   1      32.181  26.544  25.823  1.00  0.00     0.118 C 
ATOM     17  C   UNL A   1      31.486  27.524  26.763  1.00  0.00     0.027 C 
ENDBRANCH  15  16
BRANCH  15  18
ATOM     18  C   UNL A   1      32.168  27.306  23.491  1.00  0.00     0.155 C 
BRANCH  18  19
ATOM     19  C   UNL A   1      32.928  26.513  22.360  1.00  0.00     0.077 C 
ATOM     20  C   UNL A   1      33.915  25.439  22.877  1.00  0.00     0.043 C 
ATOM     21  C   UNL A   1      31.917  25.946  21.338  1.00  0.00     0.043 C 
BRANCH  19  22
ATOM     22  O   UNL A   1      33.743  27.445  21.620  1.00  0.00    -0.389 OA
ATOM     23  H   UNL A   1      34.470  26.968  21.190  1.00  0.00     0.211 HD
ENDBRANCH  19  22
ENDBRANCH  18  19
ENDBRANCH  15  18
ENDBRANCH  12  15
ENDBRANCH   6  11
BRANCH  10  24
ATOM     24  O   UNL A   1      32.986  21.404  27.142  1.00  0.00    -0.507 OA
ATOM     25  H   UNL A   1      33.072  22.127  27.731  1.00  0.00     0.293 HD
ENDBRANCH  10  24
ENDBRANCH   1   5
BRANCH   3  26
ATOM     26  C   UNL A   1      35.903  20.258  24.978  1.00  0.00     0.118 C 
BRANCH  26  27
ATOM     27  C   UNL A   1      37.268  19.680  24.687  1.00  0.00     0.042 C 
BRANCH  27  28
ATOM     28  C   UNL A   1      38.371  20.273  25.536  1.00  0.00     0.118 C 
BRANCH  28  29
ATOM     29  N   UNL A   1      39.530  19.391  25.658  1.00  0.00    -0.352 N 
ATOM     30  C   UNL A   1      40.830  19.662  26.017  1.00  0.00     0.251 C 
ATOM     31  H   UNL A   1      39.351  18.446  25.448  1.00  0.00     0.163 HD
ATOM     32  O   UNL A   1      41.710  18.836  25.818  1.00  0.00    -0.269 OA
BRANCH  30  33
ATOM     33  C   UNL A   1      41.154  20.967  26.624  1.00  0.00     0.039 A 
ATOM     34  C   UNL A   1      41.236  21.099  28.010  1.00  0.00     0.014 A 
ATOM     35  C   UNL A   1      41.386  22.066  25.802  1.00  0.00     0.014 A 
ATOM     36  C   UNL A   1      41.604  22.331  28.555  1.00  0.00     0.010 A 
ATOM     37  C   UNL A   1      41.946  23.211  26.328  1.00  0.00     0.010 A 
ATOM     38  C   UNL A   1      41.987  23.388  27.713  1.00  0.00    -0.014 A 
BRANCH  38  39
ATOM     39  C   UNL A   1      42.314  24.736  28.231  1.00  0.00     0.031 A 
ATOM     40  C   UNL A   1      43.743  25.049  28.608  1.00  0.00     0.074 A 
ATOM     41  C   UNL A   1      41.337  25.641  28.418  1.00  0.00     0.049 A 
ATOM     42  N   UNL A   1      44.238  26.135  29.144  1.00  0.00    -0.248 NA
ATOM     43  C   UNL A   1      44.743  23.981  28.408  1.00  0.00     0.031 C 
ATOM     44  C   UNL A   1      39.912  25.430  28.151  1.00  0.00     0.029 A 
ATOM     45  N   UNL A   1      41.402  26.932  28.872  1.00  0.00    -0.354 N 
ATOM     46  C   UNL A   1      45.582  25.859  29.372  1.00  0.00     0.074 A 
ATOM     47  C   UNL A   1      45.806  24.480  29.012  1.00  0.00     0.031 C 
ATOM     48  C   UNL A   1      39.246  26.571  28.392  1.00  0.00     0.029 A 
ATOM     49  C   UNL A   1      40.188  27.576  28.869  1.00  0.00     0.049 A 
ATOM     50  H   UNL A   1      42.238  27.357  29.172  1.00  0.00     0.167 HD
ATOM     51  C   UNL A   1      46.561  26.689  29.796  1.00  0.00     0.031 A 
ATOM     52  C   UNL A   1      39.882  28.844  29.201  1.00  0.00     0.031 A 
ATOM     53  C   UNL A   1      46.340  28.074  30.103  1.00  0.00     0.049 A 
ATOM     54  C   UNL A   1      40.990  29.760  29.641  1.00  0.00     0.074 A 
ATOM     55  C   UNL A   1      47.262  29.033  30.480  1.00  0.00     0.029 A 
ATOM     56  N   UNL A   1      45.103  28.696  30.053  1.00  0.00    -0.354 N 
ATOM     57  N   UNL A   1      42.270  29.506  29.784  1.00  0.00    -0.248 NA
ATOM     58  C   UNL A   1      40.614  31.148  29.939  1.00  0.00     0.031 C 
ATOM     59  C   UNL A   1      46.572  30.228  30.704  1.00  0.00     0.029 A 
ATOM     60  C   UNL A   1      45.233  30.027  30.403  1.00  0.00     0.049 A 
ATOM     61  H   UNL A   1      44.258  28.256  29.805  1.00  0.00     0.167 HD
ATOM     62  C   UNL A   1      42.857  30.711  30.149  1.00  0.00     0.074 A 
ATOM     63  C   UNL A   1      41.795  31.696  30.189  1.00  0.00     0.031 C 
ATOM     64  C   UNL A   1      44.157  30.983  30.424  1.00  0.00     0.031 A 
BRANCH  51  65
ATOM     65  C   UNL A   1      47.946  26.117  29.935  1.00  0.00    -0.014 A 
ATOM     66  C   UNL A   1      48.479  25.784  31.191  1.00  0.00     0.009 A 
ATOM     67  C   UNL A   1      48.729  25.903  28.791  1.00  0.00     0.009 A 
ATOM     68  C   UNL A   1      49.782  25.294  31.303  1.00  0.00     0.001 A 
ATOM     69  C   UNL A   1      50.018  25.379  28.902  1.00  0.00     0.001 A 
ATOM     70  C   UNL A   1      50.548  25.086  30.158  1.00  0.00     0.000 A 
ENDBRANCH  51  65
BRANCH  52  71
ATOM     71  C   UNL A   1      38.482  29.331  29.086  1.00  0.00    -0.014 A 
ATOM     72  C   UNL A   1      38.000  29.829  27.863  1.00  0.00     0.009 A 
ATOM     73  C   UNL A   1      37.622  29.310  30.193  1.00  0.00     0.009 A 
ATOM     74  C   UNL A   1      36.700  30.329  27.765  1.00  0.00     0.001 A 
ATOM     75  C   UNL A   1      36.311  29.781  30.083  1.00  0.00     0.001 A 
ATOM     76  C   UNL A   1      35.856  30.302  28.873  1.00  0.00     0.000 A 
ENDBRANCH  52  71
BRANCH  64  77
ATOM     77  C   UNL A   1      44.505  32.412  30.728  1.00  0.00    -0.014 A 
ATOM     78  C   UNL A   1      44.469  32.916  32.037  1.00  0.00     0.009 A 
ATOM     79  C   UNL A   1      44.906  33.258  29.681  1.00  0.00     0.009 A 
ATOM     80  C   UNL A   1      44.781  34.254  32.284  1.00  0.00     0.001 A 
ATOM     81  C   UNL A   1      45.253  34.584  29.937  1.00  0.00     0.001 A 
ATOM     82  C   UNL A   1      45.176  35.085  31.235  1.00  0.00     0.000 A 
ENDBRANCH  64  77
ENDBRANCH  38  39
ENDBRANCH  30  33
ENDBRANCH  28  29
ENDBRANCH  27  28
ENDBRANCH  26  27
ENDBRANCH   3  26
TORSDOF 17
ENDMDL
MODEL 2
REMARK VINA RESULT:     -10.7      1.727      6.262
REMARK SMILES CCN(CC(C)(C)O)C(=O)Nc1ccc(C(=O)NCCCNC(=O)c2ccc(-c3c4nc(c(-c5ccccc5)c5ccc([nH]5)c(-c5ccccc5)c5nc(c(-c6ccccc6)c6ccc3[nH]6)C=C5)C=C4)cc2)c(O)c1
REMARK SMILES IDX 16 1 17 2 18 3 15 5 12 6 13 7 75 8 14 9 73 10 11 11 9 12
REMARK SMILES IDX 10 13 3 15 2 16 1 17 4 18 5 19 6 20 7 21 8 22 74 24 19 26
REMARK SMILES IDX 20 27 21 28 22 29 23 30 24 32 25 33 26 34 72 35 27 36 71 37
REMARK SMILES IDX 28 38 29 39 30 40 65 41 31 42 70 43 64 44 66 45 32 46 69 47
REMARK SMILES IDX 63 48 62 49 33 51 55 52 40 53 54 54 41 55 44 56 53 57 67 58
REMARK SMILES IDX 42 59 43 60 52 62 68 63 45 64 34 65 35 66 39 67 36 68 38 69
REMARK SMILES IDX 37 70 56 71 57 72 61 73 58 74 60 75 59 76 46 77 47 78 51 79
REMARK SMILES IDX 48 80 50 81 49 82
REMARK H PARENT 18 4 11 14 8 23 74 25 22 31 66 50 44 61
REMARK Flexibility Score: inf
ROOT
ATOM      1  C   UNL A   1      33.988  19.726  25.133  1.00  0.00     0.255 C 
ATOM      2  O   UNL A   1      33.187  18.795  25.080  1.00  0.00    -0.269 OA
ATOM      3  N   UNL A   1      35.318  19.449  25.014  1.00  0.00    -0.352 N 
ATOM      4  H   UNL A   1      35.532  18.495  24.893  1.00  0.00     0.163 HD
ENDROOT
BRANCH   1   5
ATOM      5  C   UNL A   1      33.518  21.091  25.442  1.00  0.00     0.081 A 
ATOM      6  C   UNL A   1      32.108  23.507  25.876  1.00  0.00     0.046 A 
ATOM      7  C   UNL A   1      32.217  22.927  24.632  1.00  0.00     0.027 A 
ATOM      8  C   UNL A   1      32.890  22.943  26.887  1.00  0.00     0.073 A 
ATOM      9  C   UNL A   1      32.845  21.712  24.406  1.00  0.00     0.020 A 
ATOM     10  C   UNL A   1      33.646  21.786  26.645  1.00  0.00     0.130 A 
BRANCH   6  11
ATOM     11  N   UNL A   1      31.370  24.662  26.170  1.00  0.00    -0.308 N 
ATOM     12  C   UNL A   1      31.438  26.011  26.170  1.00  0.00     0.321 C 
ATOM     13  O   UNL A   1      30.486  26.528  26.777  1.00  0.00    -0.248 OA
ATOM     14  H   UNL A   1      30.480  24.393  26.494  1.00  0.00     0.171 HD
BRANCH  12  15
ATOM     15  N   UNL A   1      32.358  26.807  25.541  1.00  0.00    -0.322 N 
BRANCH  15  16
ATOM     16  C   UNL A   1      32.285  26.853  24.069  1.00  0.00     0.118 C 
ATOM     17  C   UNL A   1      33.459  26.156  23.388  1.00  0.00     0.027 C 
ENDBRANCH  15  16
BRANCH  15  18
ATOM     18  C   UNL A   1      33.423  27.649  26.091  1.00  0.00     0.155 C 
BRANCH  18  19
ATOM     19  C   UNL A   1      32.908  28.963  26.795  1.00  0.00     0.077 C 
ATOM     20  C   UNL A   1      34.027  29.925  27.263  1.00  0.00     0.043 C 
ATOM     21  C   UNL A   1      31.857  29.664  25.904  1.00  0.00     0.043 C 
BRANCH  19  22
ATOM     22  O   UNL A   1      32.207  28.590  27.998  1.00  0.00    -0.389 OA
ATOM     23  H   UNL A   1      32.800  28.683  28.760  1.00  0.00     0.211 HD
ENDBRANCH  19  22
ENDBRANCH  18  19
ENDBRANCH  15  18
ENDBRANCH  12  15
ENDBRANCH   6  11
BRANCH  10  24
ATOM     24  O   UNL A   1      34.521  21.425  27.633  1.00  0.00    -0.507 OA
ATOM     25  H   UNL A   1      35.444  21.482  27.485  1.00  0.00     0.293 HD
ENDBRANCH  10  24
ENDBRANCH   1   5
BRANCH   3  26
ATOM     26  C   UNL A   1      36.467  20.334  25.035  1.00  0.00     0.118 C 
BRANCH  26  27
ATOM     27  C   UNL A   1      37.785  19.640  24.782  1.00  0.00     0.042 C 
BRANCH  27  28
ATOM     28  C   UNL A   1      38.923  20.174  25.623  1.00  0.00     0.118 C 
BRANCH  28  29
ATOM     29  N   UNL A   1      39.981  19.189  25.838  1.00  0.00    -0.352 N 
ATOM     30  C   UNL A   1      41.320  19.355  26.109  1.00  0.00     0.251 C 
ATOM     31  H   UNL A   1      39.688  18.252  25.780  1.00  0.00     0.163 HD
ATOM     32  O   UNL A   1      42.091  18.411  26.009  1.00  0.00    -0.269 OA
BRANCH  30  33
ATOM     33  C   UNL A   1      41.818  20.687  26.501  1.00  0.00     0.039 A 
ATOM     34  C   UNL A   1      42.067  20.981  27.842  1.00  0.00     0.014 A 
ATOM     35  C   UNL A   1      42.045  21.649  25.521  1.00  0.00     0.014 A 
ATOM     36  C   UNL A   1      42.595  22.229  28.177  1.00  0.00     0.010 A 
ATOM     37  C   UNL A   1      42.754  22.791  25.829  1.00  0.00     0.010 A 
ATOM     38  C   UNL A   1      42.967  23.132  27.167  1.00  0.00    -0.014 A 
BRANCH  38  39
ATOM     39  C   UNL A   1      43.460  24.496  27.465  1.00  0.00     0.031 A 
ATOM     40  C   UNL A   1      42.477  25.547  27.925  1.00  0.00     0.074 A 
ATOM     41  C   UNL A   1      44.755  24.802  27.266  1.00  0.00     0.049 A 
ATOM     42  N   UNL A   1      42.678  26.816  28.171  1.00  0.00    -0.248 NA
ATOM     43  C   UNL A   1      41.069  25.132  28.077  1.00  0.00     0.031 C 
ATOM     44  C   UNL A   1      45.783  23.888  26.762  1.00  0.00     0.029 A 
ATOM     45  N   UNL A   1      45.428  25.977  27.474  1.00  0.00    -0.354 N 
ATOM     46  C   UNL A   1      41.425  27.341  28.466  1.00  0.00     0.074 A 
ATOM     47  C   UNL A   1      40.459  26.288  28.273  1.00  0.00     0.031 C 
ATOM     48  C   UNL A   1      46.968  24.520  26.755  1.00  0.00     0.029 A 
ATOM     49  C   UNL A   1      46.774  25.891  27.212  1.00  0.00     0.049 A 
ATOM     50  H   UNL A   1      44.990  26.803  27.781  1.00  0.00     0.167 HD
ATOM     51  C   UNL A   1      41.104  28.579  28.907  1.00  0.00     0.031 A 
ATOM     52  C   UNL A   1      47.741  26.818  27.344  1.00  0.00     0.031 A 
ATOM     53  C   UNL A   1      42.076  29.606  29.146  1.00  0.00     0.049 A 
ATOM     54  C   UNL A   1      47.368  28.178  27.866  1.00  0.00     0.074 A 
ATOM     55  C   UNL A   1      41.883  30.877  29.654  1.00  0.00     0.029 A 
ATOM     56  N   UNL A   1      43.433  29.468  28.902  1.00  0.00    -0.354 N 
ATOM     57  N   UNL A   1      46.188  28.640  28.208  1.00  0.00    -0.248 NA
ATOM     58  C   UNL A   1      48.466  29.136  28.045  1.00  0.00     0.031 C 
ATOM     59  C   UNL A   1      43.122  31.526  29.672  1.00  0.00     0.029 A 
ATOM     60  C   UNL A   1      44.092  30.635  29.239  1.00  0.00     0.049 A 
ATOM     61  H   UNL A   1      43.864  28.658  28.543  1.00  0.00     0.167 HD
ATOM     62  C   UNL A   1      46.408  29.928  28.681  1.00  0.00     0.074 A 
ATOM     63  C   UNL A   1      47.835  30.164  28.595  1.00  0.00     0.031 C 
ATOM     64  C   UNL A   1      45.515  30.834  29.149  1.00  0.00     0.031 A 
BRANCH  51  65
ATOM     65  C   UNL A   1      39.650  28.867  29.167  1.00  0.00    -0.014 A 
ATOM     66  C   UNL A   1      38.820  29.407  28.169  1.00  0.00     0.009 A 
ATOM     67  C   UNL A   1      39.098  28.591  30.427  1.00  0.00     0.009 A 
ATOM     68  C   UNL A   1      37.484  29.708  28.442  1.00  0.00     0.001 A 
ATOM     69  C   UNL A   1      37.753  28.859  30.686  1.00  0.00     0.001 A 
ATOM     70  C   UNL A   1      36.950  29.428  29.699  1.00  0.00     0.000 A 
ENDBRANCH  51  65
BRANCH  52  71
ATOM     71  C   UNL A   1      49.153  26.479  27.024  1.00  0.00    -0.014 A 
ATOM     72  C   UNL A   1      49.662  26.696  25.733  1.00  0.00     0.009 A 
ATOM     73  C   UNL A   1      49.997  25.932  28.001  1.00  0.00     0.009 A 
ATOM     74  C   UNL A   1      50.975  26.336  25.419  1.00  0.00     0.001 A 
ATOM     75  C   UNL A   1      51.320  25.603  27.692  1.00  0.00     0.001 A 
ATOM     76  C   UNL A   1      51.803  25.793  26.398  1.00  0.00     0.000 A 
ENDBRANCH  52  71
BRANCH  64  77
ATOM     77  C   UNL A   1      46.067  32.135  29.658  1.00  0.00    -0.014 A 
ATOM     78  C   UNL A   1      46.206  33.254  28.823  1.00  0.00     0.009 A 
ATOM     79  C   UNL A   1      46.424  32.245  31.013  1.00  0.00     0.009 A 
ATOM     80  C   UNL A   1      46.738  34.442  29.324  1.00  0.00     0.001 A 
ATOM     81  C   UNL A   1      46.920  33.446  31.517  1.00  0.00     0.001 A 
ATOM     82  C   UNL A   1      47.091  34.539  30.670  1.00  0.00     0.000 A 
ENDBRANCH  64  77
ENDBRANCH  38  39
ENDBRANCH  30  33
ENDBRANCH  28  29
ENDBRANCH  27  28
ENDBRANCH  26  27
ENDBRANCH   3  26
TORSDOF 17
ENDMDL
MODEL 3
REMARK VINA RESULT:     -10.7      1.661      2.388
REMARK SMILES CCN(CC(C)(C)O)C(=O)Nc1ccc(C(=O)NCCCNC(=O)c2ccc(-c3c4nc(c(-c5ccccc5)c5ccc([nH]5)c(-c5ccccc5)c5nc(c(-c6ccccc6)c6ccc3[nH]6)C=C5)C=C4)cc2)c(O)c1
REMARK SMILES IDX 16 1 17 2 18 3 15 5 12 6 13 7 75 8 14 9 73 10 11 11 9 12
REMARK SMILES IDX 10 13 3 15 2 16 1 17 4 18 5 19 6 20 7 21 8 22 74 24 19 26
REMARK SMILES IDX 20 27 21 28 22 29 23 30 24 32 25 33 26 34 72 35 27 36 71 37
REMARK SMILES IDX 28 38 29 39 30 40 65 41 31 42 70 43 64 44 66 45 32 46 69 47
REMARK SMILES IDX 63 48 62 49 33 51 55 52 40 53 54 54 41 55 44 56 53 57 67 58
REMARK SMILES IDX 42 59 43 60 52 62 68 63 45 64 34 65 35 66 39 67 36 68 38 69
REMARK SMILES IDX 37 70 56 71 57 72 61 73 58 74 60 75 59 76 46 77 47 78 51 79
REMARK SMILES IDX 48 80 50 81 49 82
REMARK H PARENT 18 4 11 14 8 23 74 25 22 31 66 50 44 61
REMARK Flexibility Score: inf
ROOT
ATOM      1  C   UNL A   1      37.362  23.093  25.375  1.00  0.00     0.255 C 
ATOM      2  O   UNL A   1      37.967  24.055  25.843  1.00  0.00    -0.269 OA
ATOM      3  N   UNL A   1      38.019  21.904  25.259  1.00  0.00    -0.352 N 
ATOM      4  H   UNL A   1      38.954  21.917  25.568  1.00  0.00     0.163 HD
ENDROOT
BRANCH   1   5
ATOM      5  C   UNL A   1      35.995  23.265  24.842  1.00  0.00     0.081 A 
ATOM      6  C   UNL A   1      33.367  24.056  24.152  1.00  0.00     0.046 A 
ATOM      7  C   UNL A   1      33.720  23.701  25.434  1.00  0.00     0.027 A 
ATOM      8  C   UNL A   1      34.327  23.825  23.164  1.00  0.00     0.073 A 
ATOM      9  C   UNL A   1      35.014  23.373  25.809  1.00  0.00     0.020 A 
ATOM     10  C   UNL A   1      35.607  23.361  23.505  1.00  0.00     0.130 A 
BRANCH   6  11
ATOM     11  N   UNL A   1      32.104  24.521  23.758  1.00  0.00    -0.308 N 
ATOM     12  C   UNL A   1      31.289  25.597  23.811  1.00  0.00     0.321 C 
ATOM     13  O   UNL A   1      30.133  25.327  23.446  1.00  0.00    -0.248 OA
ATOM     14  H   UNL A   1      31.645  23.804  23.265  1.00  0.00     0.171 HD
BRANCH  12  15
ATOM     15  N   UNL A   1      31.617  26.885  24.137  1.00  0.00    -0.322 N 
BRANCH  15  16
ATOM     16  C   UNL A   1      31.651  27.209  25.574  1.00  0.00     0.118 C 
ATOM     17  C   UNL A   1      33.067  27.346  26.126  1.00  0.00     0.027 C 
ENDBRANCH  15  16
BRANCH  15  18
ATOM     18  C   UNL A   1      31.958  28.026  23.282  1.00  0.00     0.155 C 
BRANCH  18  19
ATOM     19  C   UNL A   1      30.783  29.057  23.080  1.00  0.00     0.077 C 
ATOM     20  C   UNL A   1      29.409  28.415  22.767  1.00  0.00     0.043 C 
ATOM     21  C   UNL A   1      30.722  30.032  24.278  1.00  0.00     0.043 C 
BRANCH  19  22
ATOM     22  O   UNL A   1      31.085  29.874  21.931  1.00  0.00    -0.389 OA
ATOM     23  H   UNL A   1      31.703  30.576  22.188  1.00  0.00     0.211 HD
ENDBRANCH  19  22
ENDBRANCH  18  19
ENDBRANCH  15  18
ENDBRANCH  12  15
ENDBRANCH   6  11
BRANCH  10  24
ATOM     24  O   UNL A   1      36.406  22.985  22.461  1.00  0.00    -0.507 OA
ATOM     25  H   UNL A   1      37.076  23.563  22.151  1.00  0.00     0.293 HD
ENDBRANCH  10  24
ENDBRANCH   1   5
BRANCH   3  26
ATOM     26  C   UNL A   1      37.561  20.623  24.755  1.00  0.00     0.118 C 
BRANCH  26  27
ATOM     27  C   UNL A   1      38.522  19.484  25.002  1.00  0.00     0.042 C 
BRANCH  27  28
ATOM     28  C   UNL A   1      39.505  19.752  26.121  1.00  0.00     0.118 C 
BRANCH  28  29
ATOM     29  N   UNL A   1      40.790  19.087  25.919  1.00  0.00    -0.352 N 
ATOM     30  C   UNL A   1      42.071  19.589  25.924  1.00  0.00     0.251 C 
ATOM     31  H   UNL A   1      40.730  18.119  25.751  1.00  0.00     0.163 HD
ATOM     32  O   UNL A   1      42.997  18.920  25.487  1.00  0.00    -0.269 OA
BRANCH  30  33
ATOM     33  C   UNL A   1      42.311  20.949  26.442  1.00  0.00     0.039 A 
ATOM     34  C   UNL A   1      42.581  22.000  25.565  1.00  0.00     0.014 A 
ATOM     35  C   UNL A   1      42.258  21.179  27.813  1.00  0.00     0.014 A 
ATOM     36  C   UNL A   1      42.745  23.289  26.079  1.00  0.00     0.010 A 
ATOM     37  C   UNL A   1      42.213  22.471  28.293  1.00  0.00     0.010 A 
ATOM     38  C   UNL A   1      42.534  23.535  27.446  1.00  0.00    -0.014 A 
BRANCH  38  39
ATOM     39  C   UNL A   1      42.765  24.862  28.058  1.00  0.00     0.031 A 
ATOM     40  C   UNL A   1      44.161  25.229  28.507  1.00  0.00     0.074 A 
ATOM     41  C   UNL A   1      41.733  25.699  28.264  1.00  0.00     0.049 A 
ATOM     42  N   UNL A   1      44.574  26.303  29.128  1.00  0.00    -0.248 NA
ATOM     43  C   UNL A   1      45.226  24.233  28.280  1.00  0.00     0.031 C 
ATOM     44  C   UNL A   1      40.332  25.427  27.931  1.00  0.00     0.029 A 
ATOM     45  N   UNL A   1      41.708  26.960  28.799  1.00  0.00    -0.354 N 
ATOM     46  C   UNL A   1      45.923  26.088  29.389  1.00  0.00     0.074 A 
ATOM     47  C   UNL A   1      46.238  24.749  28.953  1.00  0.00     0.031 C 
ATOM     48  C   UNL A   1      39.594  26.512  28.217  1.00  0.00     0.029 A 
ATOM     49  C   UNL A   1      40.461  27.535  28.790  1.00  0.00     0.049 A 
ATOM     50  H   UNL A   1      42.508  27.410  29.156  1.00  0.00     0.167 HD
ATOM     51  C   UNL A   1      46.838  26.942  29.901  1.00  0.00     0.031 A 
ATOM     52  C   UNL A   1      40.071  28.760  29.189  1.00  0.00     0.031 A 
ATOM     53  C   UNL A   1      46.528  28.289  30.285  1.00  0.00     0.049 A 
ATOM     54  C   UNL A   1      41.109  29.706  29.727  1.00  0.00     0.074 A 
ATOM     55  C   UNL A   1      47.380  29.271  30.755  1.00  0.00     0.029 A 
ATOM     56  N   UNL A   1      45.259  28.845  30.227  1.00  0.00    -0.354 N 
ATOM     57  N   UNL A   1      42.395  29.514  29.902  1.00  0.00    -0.248 NA
ATOM     58  C   UNL A   1      40.645  31.049  30.095  1.00  0.00     0.031 C 
ATOM     59  C   UNL A   1      46.615  30.410  31.027  1.00  0.00     0.029 A 
ATOM     60  C   UNL A   1      45.302  30.156  30.663  1.00  0.00     0.049 A 
ATOM     61  H   UNL A   1      44.450  28.376  29.920  1.00  0.00     0.167 HD
ATOM     62  C   UNL A   1      42.900  30.723  30.363  1.00  0.00     0.074 A 
ATOM     63  C   UNL A   1      41.783  31.643  30.424  1.00  0.00     0.031 C 
ATOM     64  C   UNL A   1      44.172  31.048  30.703  1.00  0.00     0.031 A 
BRANCH  51  65
ATOM     65  C   UNL A   1      48.247  26.439  30.056  1.00  0.00    -0.014 A 
ATOM     66  C   UNL A   1      49.183  26.548  29.013  1.00  0.00     0.009 A 
ATOM     67  C   UNL A   1      48.650  25.852  31.265  1.00  0.00     0.009 A 
ATOM     68  C   UNL A   1      50.474  26.036  29.160  1.00  0.00     0.001 A 
ATOM     69  C   UNL A   1      49.953  25.375  31.422  1.00  0.00     0.001 A 
ATOM     70  C   UNL A   1      50.860  25.456  30.367  1.00  0.00     0.000 A 
ENDBRANCH  51  65
BRANCH  52  71
ATOM     71  C   UNL A   1      38.651  29.176  29.051  1.00  0.00    -0.014 A 
ATOM     72  C   UNL A   1      37.764  29.055  30.135  1.00  0.00     0.009 A 
ATOM     73  C   UNL A   1      38.169  29.690  27.839  1.00  0.00     0.009 A 
ATOM     74  C   UNL A   1      36.419  29.404  29.993  1.00  0.00     0.001 A 
ATOM     75  C   UNL A   1      36.830  30.069  27.710  1.00  0.00     0.001 A 
ATOM     76  C   UNL A   1      35.954  29.912  28.783  1.00  0.00     0.000 A 
ENDBRANCH  52  71
BRANCH  64  77
ATOM     77  C   UNL A   1      44.427  32.471  31.108  1.00  0.00    -0.014 A 
ATOM     78  C   UNL A   1      44.744  33.461  30.165  1.00  0.00     0.009 A 
ATOM     79  C   UNL A   1      44.315  32.830  32.462  1.00  0.00     0.009 A 
ATOM     80  C   UNL A   1      44.993  34.770  30.576  1.00  0.00     0.001 A 
ATOM     81  C   UNL A   1      44.528  34.148  32.864  1.00  0.00     0.001 A 
ATOM     82  C   UNL A   1      44.880  35.114  31.923  1.00  0.00     0.000 A 
ENDBRANCH  64  77
ENDBRANCH  38  39
ENDBRANCH  30  33
ENDBRANCH  28  29
ENDBRANCH  27  28
ENDBRANCH  26  27
ENDBRANCH   3  26
TORSDOF 17
ENDMDL
