MODEL 1
REMARK VINA RESULT:     -10.3      0.000      0.000
REMARK SMILES O=C(C[NH2+][C@H]1CCCC[C@H]1[N@H+](Cc1ccccc1)C1CC1)NCCCNC(=O)c1ccc(-c2c3nc(c(-c4ccccc4)c4ccc([nH]4)c(-c4ccccc4)c4nc(c(-c5ccccc5)c5ccc2[nH]5)C=C4)C=C3)cc1
REMARK SMILES IDX 1 1 2 2 22 3 3 5 4 6 5 9 6 10 10 11 7 12 9 13 8 14 11 15
REMARK SMILES IDX 12 17 13 18 14 19 18 20 15 21 17 22 16 23 19 24 20 25 21 26
REMARK SMILES IDX 23 27 24 28 25 29 26 30 27 31 28 33 29 34 30 35 76 36 31 37
REMARK SMILES IDX 75 38 32 39 33 40 34 41 69 42 35 43 74 44 68 45 70 46 36 47
REMARK SMILES IDX 73 48 67 49 66 50 37 52 59 53 44 54 58 55 45 56 48 57 57 58
REMARK SMILES IDX 71 59 46 60 47 61 56 63 72 64 49 65 38 66 39 67 43 68 40 69
REMARK SMILES IDX 42 70 41 71 60 72 61 73 65 74 62 75 64 76 63 77 50 78 51 79
REMARK SMILES IDX 55 80 52 81 54 82 53 83
REMARK H PARENT 22 4 4 7 4 8 11 16 26 32 70 51 48 62
REMARK Flexibility Score: inf
ROOT
ATOM      1  O   UNL A   1      30.992  27.306  27.367  1.00  0.00    -0.269 OA
ATOM      2  C   UNL A   1      31.027  26.954  26.190  1.00  0.00     0.275 C 
ATOM      3  N   UNL A   1      31.503  27.767  25.189  1.00  0.00    -0.351 N 
ATOM      4  H   UNL A   1      31.464  27.465  24.252  1.00  0.00     0.163 HD
ENDROOT
BRANCH   2   5
ATOM      5  C   UNL A   1      30.626  25.547  25.761  1.00  0.00     0.362 C 
BRANCH   5   6
ATOM      6  N   UNL A   1      31.757  24.772  25.226  1.00  0.00    -0.331 N 
ATOM      7  H   UNL A   1      32.033  24.086  25.930  1.00  0.00     0.347 HD
ATOM      8  H   UNL A   1      32.491  25.446  25.012  1.00  0.00     0.347 HD
BRANCH   6   9
ATOM      9  C   UNL A   1      31.472  24.047  23.964  1.00  0.00     0.241 C 
ATOM     10  C   UNL A   1      30.714  25.010  23.016  1.00  0.00     0.071 C 
ATOM     11  C   UNL A   1      32.589  23.218  23.196  1.00  0.00     0.243 C 
ATOM     12  C   UNL A   1      31.628  25.958  22.254  1.00  0.00     0.007 C 
ATOM     13  C   UNL A   1      33.371  24.156  22.210  1.00  0.00     0.071 C 
ATOM     14  C   UNL A   1      32.573  25.153  21.387  1.00  0.00     0.007 C 
BRANCH  11  15
ATOM     15  N   UNL A   1      33.602  22.439  23.992  1.00  0.00    -0.321 N 
ATOM     16  H   UNL A   1      33.397  22.870  24.892  1.00  0.00     0.349 HD
BRANCH  15  17
ATOM     17  C   UNL A   1      34.995  22.644  23.476  1.00  0.00     0.299 C 
BRANCH  17  18
ATOM     18  C   UNL A   1      36.090  22.687  24.526  1.00  0.00     0.006 A 
ATOM     19  C   UNL A   1      36.276  23.783  25.376  1.00  0.00     0.009 A 
ATOM     20  C   UNL A   1      37.042  21.656  24.572  1.00  0.00     0.009 A 
ATOM     21  C   UNL A   1      37.432  23.923  26.140  1.00  0.00     0.001 A 
ATOM     22  C   UNL A   1      38.177  21.765  25.382  1.00  0.00     0.001 A 
ATOM     23  C   UNL A   1      38.391  22.919  26.134  1.00  0.00     0.000 A 
ENDBRANCH  17  18
ENDBRANCH  15  17
BRANCH  15  24
ATOM     24  C   UNL A   1      33.446  20.996  24.299  1.00  0.00     0.185 C 
ATOM     25  C   UNL A   1      33.305  20.813  25.817  1.00  0.00     0.071 C 
ATOM     26  C   UNL A   1      32.332  20.183  24.897  1.00  0.00     0.071 C 
ENDBRANCH  15  24
ENDBRANCH  11  15
ENDBRANCH   6   9
ENDBRANCH   5   6
ENDBRANCH   2   5
BRANCH   3  27
ATOM     27  C   UNL A   1      32.058  29.065  25.503  1.00  0.00     0.118 C 
BRANCH  27  28
ATOM     28  C   UNL A   1      33.573  29.003  25.691  1.00  0.00     0.042 C 
BRANCH  28  29
ATOM     29  C   UNL A   1      33.993  28.949  27.155  1.00  0.00     0.118 C 
BRANCH  29  30
ATOM     30  N   UNL A   1      33.872  30.246  27.805  1.00  0.00    -0.352 N 
ATOM     31  C   UNL A   1      34.737  30.877  28.654  1.00  0.00     0.251 C 
ATOM     32  H   UNL A   1      33.046  30.742  27.602  1.00  0.00     0.163 HD
ATOM     33  O   UNL A   1      34.365  31.862  29.293  1.00  0.00    -0.269 OA
BRANCH  31  34
ATOM     34  C   UNL A   1      36.115  30.377  28.805  1.00  0.00     0.039 A 
ATOM     35  C   UNL A   1      37.005  30.512  27.738  1.00  0.00     0.014 A 
ATOM     36  C   UNL A   1      36.518  29.751  29.988  1.00  0.00     0.014 A 
ATOM     37  C   UNL A   1      38.312  30.046  27.871  1.00  0.00     0.010 A 
ATOM     38  C   UNL A   1      37.843  29.370  30.151  1.00  0.00     0.010 A 
ATOM     39  C   UNL A   1      38.746  29.490  29.086  1.00  0.00    -0.014 A 
BRANCH  39  40
ATOM     40  C   UNL A   1      40.132  28.989  29.245  1.00  0.00     0.031 A 
ATOM     41  C   UNL A   1      41.188  29.884  29.832  1.00  0.00     0.074 A 
ATOM     42  C   UNL A   1      40.445  27.749  28.825  1.00  0.00     0.049 A 
ATOM     43  N   UNL A   1      42.460  29.643  30.025  1.00  0.00    -0.248 NA
ATOM     44  C   UNL A   1      40.768  31.238  30.233  1.00  0.00     0.031 C 
ATOM     45  C   UNL A   1      39.515  26.802  28.206  1.00  0.00     0.029 A 
ATOM     46  N   UNL A   1      41.638  27.072  28.856  1.00  0.00    -0.354 N 
ATOM     47  C   UNL A   1      42.989  30.816  30.549  1.00  0.00     0.074 A 
ATOM     48  C   UNL A   1      41.919  31.786  30.588  1.00  0.00     0.031 C 
ATOM     49  C   UNL A   1      40.164  25.655  27.949  1.00  0.00     0.029 A 
ATOM     50  C   UNL A   1      41.561  25.801  28.343  1.00  0.00     0.049 A 
ATOM     51  H   UNL A   1      42.469  27.461  29.212  1.00  0.00     0.167 HD
ATOM     52  C   UNL A   1      44.250  31.058  30.982  1.00  0.00     0.031 A 
ATOM     53  C   UNL A   1      42.512  24.860  28.205  1.00  0.00     0.031 A 
ATOM     54  C   UNL A   1      45.310  30.088  30.950  1.00  0.00     0.049 A 
ATOM     55  C   UNL A   1      43.909  25.159  28.676  1.00  0.00     0.074 A 
ATOM     56  C   UNL A   1      46.608  30.214  31.410  1.00  0.00     0.029 A 
ATOM     57  N   UNL A   1      45.193  28.811  30.422  1.00  0.00    -0.354 N 
ATOM     58  N   UNL A   1      44.378  26.249  29.234  1.00  0.00    -0.248 NA
ATOM     59  C   UNL A   1      44.904  24.091  28.510  1.00  0.00     0.031 C 
ATOM     60  C   UNL A   1      47.294  29.033  31.107  1.00  0.00     0.029 A 
ATOM     61  C   UNL A   1      46.403  28.146  30.522  1.00  0.00     0.049 A 
ATOM     62  H   UNL A   1      44.371  28.433  30.034  1.00  0.00     0.167 HD
ATOM     63  C   UNL A   1      45.713  25.987  29.517  1.00  0.00     0.074 A 
ATOM     64  C   UNL A   1      45.972  24.628  29.083  1.00  0.00     0.031 C 
ATOM     65  C   UNL A   1      46.641  26.794  30.086  1.00  0.00     0.031 A 
BRANCH  52  66
ATOM     66  C   UNL A   1      44.546  32.432  31.520  1.00  0.00    -0.014 A 
ATOM     67  C   UNL A   1      45.055  33.447  30.692  1.00  0.00     0.009 A 
ATOM     68  C   UNL A   1      44.290  32.724  32.869  1.00  0.00     0.009 A 
ATOM     69  C   UNL A   1      45.340  34.710  31.214  1.00  0.00     0.001 A 
ATOM     70  C   UNL A   1      44.545  33.998  33.379  1.00  0.00     0.001 A 
ATOM     71  C   UNL A   1      45.080  34.987  32.554  1.00  0.00     0.000 A 
ENDBRANCH  52  66
BRANCH  53  72
ATOM     72  C   UNL A   1      42.176  23.538  27.613  1.00  0.00    -0.014 A 
ATOM     73  C   UNL A   1      42.447  23.271  26.262  1.00  0.00     0.009 A 
ATOM     74  C   UNL A   1      41.571  22.538  28.392  1.00  0.00     0.009 A 
ATOM     75  C   UNL A   1      42.091  22.045  25.696  1.00  0.00     0.001 A 
ATOM     76  C   UNL A   1      41.246  21.301  27.831  1.00  0.00     0.001 A 
ATOM     77  C   UNL A   1      41.496  21.060  26.481  1.00  0.00     0.000 A 
ENDBRANCH  53  72
BRANCH  65  78
ATOM     78  C   UNL A   1      48.009  26.216  30.314  1.00  0.00    -0.014 A 
ATOM     79  C   UNL A   1      48.389  25.698  31.562  1.00  0.00     0.009 A 
ATOM     80  C   UNL A   1      48.919  26.155  29.247  1.00  0.00     0.009 A 
ATOM     81  C   UNL A   1      49.667  25.165  31.745  1.00  0.00     0.001 A 
ATOM     82  C   UNL A   1      50.183  25.590  29.423  1.00  0.00     0.001 A 
ATOM     83  C   UNL A   1      50.560  25.106  30.675  1.00  0.00     0.000 A 
ENDBRANCH  65  78
ENDBRANCH  39  40
ENDBRANCH  31  34
ENDBRANCH  29  30
ENDBRANCH  28  29
ENDBRANCH  27  28
ENDBRANCH   3  27
TORSDOF 16
ENDMDL
MODEL 2
REMARK VINA RESULT:     -10.3      2.613      7.899
REMARK SMILES O=C(C[NH2+][C@H]1CCCC[C@H]1[N@H+](Cc1ccccc1)C1CC1)NCCCNC(=O)c1ccc(-c2c3nc(c(-c4ccccc4)c4ccc([nH]4)c(-c4ccccc4)c4nc(c(-c5ccccc5)c5ccc2[nH]5)C=C4)C=C3)cc1
REMARK SMILES IDX 1 1 2 2 22 3 3 5 4 6 5 9 6 10 10 11 7 12 9 13 8 14 11 15
REMARK SMILES IDX 12 17 13 18 14 19 18 20 15 21 17 22 16 23 19 24 20 25 21 26
REMARK SMILES IDX 23 27 24 28 25 29 26 30 27 31 28 33 29 34 30 35 76 36 31 37
REMARK SMILES IDX 75 38 32 39 33 40 34 41 69 42 35 43 74 44 68 45 70 46 36 47
REMARK SMILES IDX 73 48 67 49 66 50 37 52 59 53 44 54 58 55 45 56 48 57 57 58
REMARK SMILES IDX 71 59 46 60 47 61 56 63 72 64 49 65 38 66 39 67 43 68 40 69
REMARK SMILES IDX 42 70 41 71 60 72 61 73 65 74 62 75 64 76 63 77 50 78 51 79
REMARK SMILES IDX 55 80 52 81 54 82 53 83
REMARK H PARENT 22 4 4 7 4 8 11 16 26 32 70 51 48 62
REMARK Flexibility Score: inf
ROOT
ATOM      1  O   UNL A   1      35.617  23.261  22.616  1.00  0.00    -0.269 OA
ATOM      2  C   UNL A   1      34.498  23.121  23.102  1.00  0.00     0.275 C 
ATOM      3  N   UNL A   1      34.280  22.426  24.269  1.00  0.00    -0.351 N 
ATOM      4  H   UNL A   1      33.361  22.293  24.596  1.00  0.00     0.163 HD
ENDROOT
BRANCH   2   5
ATOM      5  C   UNL A   1      33.268  23.785  22.494  1.00  0.00     0.362 C 
BRANCH   5   6
ATOM      6  N   UNL A   1      32.763  24.902  23.309  1.00  0.00    -0.331 N 
ATOM      7  H   UNL A   1      32.994  25.774  22.832  1.00  0.00     0.347 HD
ATOM      8  H   UNL A   1      33.207  24.814  24.223  1.00  0.00     0.347 HD
BRANCH   6   9
ATOM      9  C   UNL A   1      31.300  24.883  23.551  1.00  0.00     0.241 C 
ATOM     10  C   UNL A   1      30.869  23.413  23.781  1.00  0.00     0.071 C 
ATOM     11  C   UNL A   1      30.601  25.872  24.580  1.00  0.00     0.243 C 
ATOM     12  C   UNL A   1      31.100  22.926  25.203  1.00  0.00     0.007 C 
ATOM     13  C   UNL A   1      30.614  25.246  26.019  1.00  0.00     0.071 C 
ATOM     14  C   UNL A   1      30.284  23.770  26.160  1.00  0.00     0.007 C 
BRANCH  11  15
ATOM     15  N   UNL A   1      31.099  27.289  24.690  1.00  0.00    -0.321 N 
ATOM     16  H   UNL A   1      31.981  27.139  24.200  1.00  0.00     0.349 HD
BRANCH  15  17
ATOM     17  C   UNL A   1      31.216  27.731  26.117  1.00  0.00     0.299 C 
BRANCH  17  18
ATOM     18  C   UNL A   1      32.384  28.649  26.432  1.00  0.00     0.006 A 
ATOM     19  C   UNL A   1      33.702  28.188  26.519  1.00  0.00     0.009 A 
ATOM     20  C   UNL A   1      32.135  29.986  26.782  1.00  0.00     0.009 A 
ATOM     21  C   UNL A   1      34.713  28.975  27.066  1.00  0.00     0.001 A 
ATOM     22  C   UNL A   1      33.159  30.799  27.277  1.00  0.00     0.001 A 
ATOM     23  C   UNL A   1      34.439  30.278  27.458  1.00  0.00     0.000 A 
ENDBRANCH  17  18
ENDBRANCH  15  17
BRANCH  15  24
ATOM     24  C   UNL A   1      30.508  28.411  23.920  1.00  0.00     0.185 C 
ATOM     25  C   UNL A   1      31.428  28.758  22.741  1.00  0.00     0.071 C 
ATOM     26  C   UNL A   1      29.981  28.536  22.518  1.00  0.00     0.071 C 
ENDBRANCH  15  24
ENDBRANCH  11  15
ENDBRANCH   6   9
ENDBRANCH   5   6
ENDBRANCH   2   5
BRANCH   3  27
ATOM     27  C   UNL A   1      35.395  21.888  25.018  1.00  0.00     0.118 C 
BRANCH  27  28
ATOM     28  C   UNL A   1      35.831  22.829  26.141  1.00  0.00     0.042 C 
BRANCH  28  29
ATOM     29  C   UNL A   1      37.096  23.611  25.810  1.00  0.00     0.118 C 
BRANCH  29  30
ATOM     30  N   UNL A   1      38.279  22.762  25.817  1.00  0.00    -0.352 N 
ATOM     31  C   UNL A   1      39.559  23.059  26.191  1.00  0.00     0.251 C 
ATOM     32  H   UNL A   1      38.135  21.838  25.510  1.00  0.00     0.163 HD
ATOM     33  O   UNL A   1      40.478  22.289  25.909  1.00  0.00    -0.269 OA
BRANCH  31  34
ATOM     34  C   UNL A   1      39.839  24.301  26.932  1.00  0.00     0.039 A 
ATOM     35  C   UNL A   1      40.549  25.322  26.299  1.00  0.00     0.014 A 
ATOM     36  C   UNL A   1      39.426  24.445  28.260  1.00  0.00     0.014 A 
ATOM     37  C   UNL A   1      40.817  26.503  26.989  1.00  0.00     0.010 A 
ATOM     38  C   UNL A   1      39.615  25.655  28.914  1.00  0.00     0.010 A 
ATOM     39  C   UNL A   1      40.334  26.686  28.295  1.00  0.00    -0.014 A 
BRANCH  39  40
ATOM     40  C   UNL A   1      40.610  27.935  29.044  1.00  0.00     0.031 A 
ATOM     41  C   UNL A   1      41.919  28.100  29.767  1.00  0.00     0.074 A 
ATOM     42  C   UNL A   1      39.670  28.897  29.107  1.00  0.00     0.049 A 
ATOM     43  N   UNL A   1      42.336  29.100  30.500  1.00  0.00    -0.248 NA
ATOM     44  C   UNL A   1      42.876  26.984  29.676  1.00  0.00     0.031 C 
ATOM     45  C   UNL A   1      38.350  28.835  28.478  1.00  0.00     0.029 A 
ATOM     46  N   UNL A   1      39.685  30.117  29.732  1.00  0.00    -0.354 N 
ATOM     47  C   UNL A   1      43.589  28.726  30.969  1.00  0.00     0.074 A 
ATOM     48  C   UNL A   1      43.840  27.386  30.490  1.00  0.00     0.031 C 
ATOM     49  C   UNL A   1      37.695  29.982  28.719  1.00  0.00     0.029 A 
ATOM     50  C   UNL A   1      38.530  30.839  29.555  1.00  0.00     0.049 A 
ATOM     51  H   UNL A   1      40.450  30.444  30.258  1.00  0.00     0.167 HD
ATOM     52  C   UNL A   1      44.465  29.442  31.713  1.00  0.00     0.031 A 
ATOM     53  C   UNL A   1      38.184  32.054  30.015  1.00  0.00     0.031 A 
ATOM     54  C   UNL A   1      44.215  30.778  32.181  1.00  0.00     0.049 A 
ATOM     55  C   UNL A   1      39.166  32.822  30.857  1.00  0.00     0.074 A 
ATOM     56  C   UNL A   1      45.055  31.612  32.898  1.00  0.00     0.029 A 
ATOM     57  N   UNL A   1      43.033  31.475  31.981  1.00  0.00    -0.354 N 
ATOM     58  N   UNL A   1      40.376  32.484  31.233  1.00  0.00    -0.248 NA
ATOM     59  C   UNL A   1      38.739  34.148  31.324  1.00  0.00     0.031 C 
ATOM     60  C   UNL A   1      44.359  32.791  33.183  1.00  0.00     0.029 A 
ATOM     61  C   UNL A   1      43.111  32.719  32.582  1.00  0.00     0.049 A 
ATOM     62  H   UNL A   1      42.254  31.135  31.485  1.00  0.00     0.167 HD
ATOM     63  C   UNL A   1      40.867  33.566  31.952  1.00  0.00     0.074 A 
ATOM     64  C   UNL A   1      39.829  34.578  31.943  1.00  0.00     0.031 C 
ATOM     65  C   UNL A   1      42.068  33.713  32.562  1.00  0.00     0.031 A 
BRANCH  52  66
ATOM     66  C   UNL A   1      45.770  28.786  32.071  1.00  0.00    -0.014 A 
ATOM     67  C   UNL A   1      46.899  28.903  31.242  1.00  0.00     0.009 A 
ATOM     68  C   UNL A   1      45.882  28.058  33.267  1.00  0.00     0.009 A 
ATOM     69  C   UNL A   1      48.097  28.271  31.582  1.00  0.00     0.001 A 
ATOM     70  C   UNL A   1      47.091  27.457  33.620  1.00  0.00     0.001 A 
ATOM     71  C   UNL A   1      48.194  27.554  32.773  1.00  0.00     0.000 A 
ENDBRANCH  52  66
BRANCH  53  72
ATOM     72  C   UNL A   1      36.856  32.631  29.679  1.00  0.00    -0.014 A 
ATOM     73  C   UNL A   1      35.780  32.517  30.573  1.00  0.00     0.009 A 
ATOM     74  C   UNL A   1      36.653  33.291  28.456  1.00  0.00     0.009 A 
ATOM     75  C   UNL A   1      34.522  33.021  30.236  1.00  0.00     0.001 A 
ATOM     76  C   UNL A   1      35.402  33.824  28.136  1.00  0.00     0.001 A 
ATOM     77  C   UNL A   1      34.334  33.678  29.022  1.00  0.00     0.000 A 
ENDBRANCH  53  72
BRANCH  65  78
ATOM     78  C   UNL A   1      42.344  35.030  33.232  1.00  0.00    -0.014 A 
ATOM     79  C   UNL A   1      41.886  35.303  34.530  1.00  0.00     0.009 A 
ATOM     80  C   UNL A   1      43.111  35.997  32.563  1.00  0.00     0.009 A 
ATOM     81  C   UNL A   1      42.159  36.535  35.129  1.00  0.00     0.001 A 
ATOM     82  C   UNL A   1      43.412  37.213  33.177  1.00  0.00     0.001 A 
ATOM     83  C   UNL A   1      42.927  37.486  34.456  1.00  0.00     0.000 A 
ENDBRANCH  65  78
ENDBRANCH  39  40
ENDBRANCH  31  34
ENDBRANCH  29  30
ENDBRANCH  28  29
ENDBRANCH  27  28
ENDBRANCH   3  27
TORSDOF 16
ENDMDL
MODEL 3
REMARK VINA RESULT:     -10.0      2.534      7.712
REMARK SMILES O=C(C[NH2+][C@H]1CCCC[C@H]1[N@H+](Cc1ccccc1)C1CC1)NCCCNC(=O)c1ccc(-c2c3nc(c(-c4ccccc4)c4ccc([nH]4)c(-c4ccccc4)c4nc(c(-c5ccccc5)c5ccc2[nH]5)C=C4)C=C3)cc1
REMARK SMILES IDX 1 1 2 2 22 3 3 5 4 6 5 9 6 10 10 11 7 12 9 13 8 14 11 15
REMARK SMILES IDX 12 17 13 18 14 19 18 20 15 21 17 22 16 23 19 24 20 25 21 26
REMARK SMILES IDX 23 27 24 28 25 29 26 30 27 31 28 33 29 34 30 35 76 36 31 37
REMARK SMILES IDX 75 38 32 39 33 40 34 41 69 42 35 43 74 44 68 45 70 46 36 47
REMARK SMILES IDX 73 48 67 49 66 50 37 52 59 53 44 54 58 55 45 56 48 57 57 58
REMARK SMILES IDX 71 59 46 60 47 61 56 63 72 64 49 65 38 66 39 67 43 68 40 69
REMARK SMILES IDX 42 70 41 71 60 72 61 73 65 74 62 75 64 76 63 77 50 78 51 79
REMARK SMILES IDX 55 80 52 81 54 82 53 83
REMARK H PARENT 22 4 4 7 4 8 11 16 26 32 70 51 48 62
REMARK Flexibility Score: inf
ROOT
ATOM      1  O   UNL A   1      37.782  24.341  26.472  1.00  0.00    -0.269 OA
ATOM      2  C   UNL A   1      37.240  23.664  25.602  1.00  0.00     0.275 C 
ATOM      3  N   UNL A   1      37.762  22.469  25.163  1.00  0.00    -0.351 N 
ATOM      4  H   UNL A   1      37.323  21.984  24.427  1.00  0.00     0.163 HD
ENDROOT
BRANCH   2   5
ATOM      5  C   UNL A   1      35.894  24.054  25.002  1.00  0.00     0.362 C 
BRANCH   5   6
ATOM      6  N   UNL A   1      35.378  23.048  24.060  1.00  0.00    -0.331 N 
ATOM      7  H   UNL A   1      36.055  22.287  24.005  1.00  0.00     0.347 HD
ATOM      8  H   UNL A   1      35.243  23.530  23.171  1.00  0.00     0.347 HD
BRANCH   6   9
ATOM      9  C   UNL A   1      34.063  22.470  24.427  1.00  0.00     0.241 C 
ATOM     10  C   UNL A   1      34.316  21.185  25.254  1.00  0.00     0.071 C 
ATOM     11  C   UNL A   1      32.896  23.353  25.048  1.00  0.00     0.243 C 
ATOM     12  C   UNL A   1      34.597  21.453  26.725  1.00  0.00     0.007 C 
ATOM     13  C   UNL A   1      33.044  23.418  26.609  1.00  0.00     0.071 C 
ATOM     14  C   UNL A   1      33.399  22.138  27.348  1.00  0.00     0.007 C 
BRANCH  11  15
ATOM     15  N   UNL A   1      32.692  24.758  24.546  1.00  0.00    -0.321 N 
ATOM     16  H   UNL A   1      33.671  25.038  24.587  1.00  0.00     0.349 HD
BRANCH  15  17
ATOM     17  C   UNL A   1      31.757  25.534  25.423  1.00  0.00     0.299 C 
BRANCH  17  18
ATOM     18  C   UNL A   1      32.274  26.873  25.920  1.00  0.00     0.006 A 
ATOM     19  C   UNL A   1      33.624  27.233  25.847  1.00  0.00     0.009 A 
ATOM     20  C   UNL A   1      31.402  27.739  26.599  1.00  0.00     0.009 A 
ATOM     21  C   UNL A   1      34.121  28.334  26.539  1.00  0.00     0.001 A 
ATOM     22  C   UNL A   1      31.888  28.878  27.248  1.00  0.00     0.001 A 
ATOM     23  C   UNL A   1      33.254  29.152  27.252  1.00  0.00     0.000 A 
ENDBRANCH  17  18
ENDBRANCH  15  17
BRANCH  15  24
ATOM     24  C   UNL A   1      32.344  25.065  23.137  1.00  0.00     0.185 C 
ATOM     25  C   UNL A   1      33.518  25.798  22.472  1.00  0.00     0.071 C 
ATOM     26  C   UNL A   1      32.904  24.622  21.815  1.00  0.00     0.071 C 
ENDBRANCH  15  24
ENDBRANCH  11  15
ENDBRANCH   6   9
ENDBRANCH   5   6
ENDBRANCH   2   5
BRANCH   3  27
ATOM     27  C   UNL A   1      38.952  21.922  25.776  1.00  0.00     0.118 C 
BRANCH  27  28
ATOM     28  C   UNL A   1      39.164  20.457  25.396  1.00  0.00     0.042 C 
BRANCH  28  29
ATOM     29  C   UNL A   1      39.882  19.657  26.476  1.00  0.00     0.118 C 
BRANCH  29  30
ATOM     30  N   UNL A   1      41.131  19.089  25.992  1.00  0.00    -0.352 N 
ATOM     31  C   UNL A   1      42.329  19.701  25.753  1.00  0.00     0.251 C 
ATOM     32  H   UNL A   1      41.111  18.121  25.813  1.00  0.00     0.163 HD
ATOM     33  O   UNL A   1      43.208  19.112  25.122  1.00  0.00    -0.269 OA
BRANCH  31  34
ATOM     34  C   UNL A   1      42.568  21.068  26.248  1.00  0.00     0.039 A 
ATOM     35  C   UNL A   1      42.610  21.292  27.625  1.00  0.00     0.014 A 
ATOM     36  C   UNL A   1      42.724  22.131  25.353  1.00  0.00     0.014 A 
ATOM     37  C   UNL A   1      42.839  22.580  28.106  1.00  0.00     0.010 A 
ATOM     38  C   UNL A   1      43.042  23.395  25.832  1.00  0.00     0.010 A 
ATOM     39  C   UNL A   1      43.077  23.637  27.212  1.00  0.00    -0.014 A 
BRANCH  39  40
ATOM     40  C   UNL A   1      43.322  25.014  27.705  1.00  0.00     0.031 A 
ATOM     41  C   UNL A   1      44.731  25.488  27.931  1.00  0.00     0.074 A 
ATOM     42  C   UNL A   1      42.279  25.817  27.985  1.00  0.00     0.049 A 
ATOM     43  N   UNL A   1      45.151  26.641  28.386  1.00  0.00    -0.248 NA
ATOM     44  C   UNL A   1      45.812  24.532  27.634  1.00  0.00     0.031 C 
ATOM     45  C   UNL A   1      40.867  25.457  27.841  1.00  0.00     0.029 A 
ATOM     46  N   UNL A   1      42.248  27.107  28.451  1.00  0.00    -0.354 N 
ATOM     47  C   UNL A   1      46.536  26.540  28.444  1.00  0.00     0.074 A 
ATOM     48  C   UNL A   1      46.882  25.197  28.038  1.00  0.00     0.031 C 
ATOM     49  C   UNL A   1      40.109  26.513  28.176  1.00  0.00     0.029 A 
ATOM     50  C   UNL A   1      40.977  27.606  28.600  1.00  0.00     0.049 A 
ATOM     51  H   UNL A   1      43.059  27.625  28.659  1.00  0.00     0.167 HD
ATOM     52  C   UNL A   1      47.441  27.489  28.782  1.00  0.00     0.031 A 
ATOM     53  C   UNL A   1      40.561  28.810  29.032  1.00  0.00     0.031 A 
ATOM     54  C   UNL A   1      47.093  28.826  29.178  1.00  0.00     0.049 A 
ATOM     55  C   UNL A   1      41.585  29.840  29.421  1.00  0.00     0.074 A 
ATOM     56  C   UNL A   1      47.933  29.879  29.492  1.00  0.00     0.029 A 
ATOM     57  N   UNL A   1      45.795  29.293  29.317  1.00  0.00    -0.354 N 
ATOM     58  N   UNL A   1      42.893  29.754  29.404  1.00  0.00    -0.248 NA
ATOM     59  C   UNL A   1      41.073  31.140  29.876  1.00  0.00     0.031 C 
ATOM     60  C   UNL A   1      47.143  30.966  29.878  1.00  0.00     0.029 A 
ATOM     61  C   UNL A   1      45.811  30.612  29.737  1.00  0.00     0.049 A 
ATOM     62  H   UNL A   1      44.982  28.765  29.143  1.00  0.00     0.167 HD
ATOM     63  C   UNL A   1      43.362  30.997  29.812  1.00  0.00     0.074 A 
ATOM     64  C   UNL A   1      42.195  31.823  30.053  1.00  0.00     0.031 C 
ATOM     65  C   UNL A   1      44.639  31.418  29.971  1.00  0.00     0.031 A 
BRANCH  52  66
ATOM     66  C   UNL A   1      48.895  27.104  28.746  1.00  0.00    -0.014 A 
ATOM     67  C   UNL A   1      49.533  26.549  29.868  1.00  0.00     0.009 A 
ATOM     68  C   UNL A   1      49.633  27.274  27.564  1.00  0.00     0.009 A 
ATOM     69  C   UNL A   1      50.888  26.214  29.820  1.00  0.00     0.001 A 
ATOM     70  C   UNL A   1      50.979  26.907  27.509  1.00  0.00     0.001 A 
ATOM     71  C   UNL A   1      51.608  26.387  28.640  1.00  0.00     0.000 A 
ENDBRANCH  52  66
BRANCH  53  72
ATOM     72  C   UNL A   1      39.107  29.117  29.104  1.00  0.00    -0.014 A 
ATOM     73  C   UNL A   1      38.429  29.628  27.986  1.00  0.00     0.009 A 
ATOM     74  C   UNL A   1      38.391  28.911  30.294  1.00  0.00     0.009 A 
ATOM     75  C   UNL A   1      37.074  29.956  28.068  1.00  0.00     0.001 A 
ATOM     76  C   UNL A   1      37.029  29.209  30.363  1.00  0.00     0.001 A 
ATOM     77  C   UNL A   1      36.374  29.743  29.254  1.00  0.00     0.000 A 
ENDBRANCH  53  72
BRANCH  65  78
ATOM     78  C   UNL A   1      44.846  32.849  30.382  1.00  0.00    -0.014 A 
ATOM     79  C   UNL A   1      44.955  33.216  31.732  1.00  0.00     0.009 A 
ATOM     80  C   UNL A   1      44.974  33.839  29.395  1.00  0.00     0.009 A 
ATOM     81  C   UNL A   1      45.150  34.553  32.086  1.00  0.00     0.001 A 
ATOM     82  C   UNL A   1      45.203  35.169  29.750  1.00  0.00     0.001 A 
ATOM     83  C   UNL A   1      45.280  35.527  31.095  1.00  0.00     0.000 A 
ENDBRANCH  65  78
ENDBRANCH  39  40
ENDBRANCH  31  34
ENDBRANCH  29  30
ENDBRANCH  28  29
ENDBRANCH  27  28
ENDBRANCH   3  27
TORSDOF 16
ENDMDL
