MODEL 1
REMARK VINA RESULT:     -11.6      0.000      0.000
REMARK SMILES O=C(NCCCNC(=O)[C@@H]1CCCC[C@H]1C(=O)Nc1ncccn1)c1ccc(-c2c3nc(c(-c4ccccc4)c4ccc([nH]4)c(-c4ccccc4)c4nc(c(-c5ccccc5)c5ccc2[nH]5)C=C4)C=C3)cc1
REMARK SMILES IDX 5 1 4 2 3 3 1 4 2 5 25 7 26 8 72 9 27 10 71 11 28 12 29 13
REMARK SMILES IDX 30 14 65 15 31 16 70 17 64 18 66 19 32 20 69 21 63 22 62 23
REMARK SMILES IDX 33 25 55 26 40 27 54 28 41 29 44 30 53 31 67 32 42 33 43 34
REMARK SMILES IDX 52 36 68 37 45 38 34 39 35 40 39 41 36 42 38 43 37 44 56 45
REMARK SMILES IDX 57 46 61 47 58 48 60 49 59 50 46 51 47 52 51 53 48 54 50 55
REMARK SMILES IDX 49 56 6 57 7 58 8 59 9 61 10 62 11 63 15 64 12 65 14 66
REMARK SMILES IDX 13 67 16 68 17 69 18 70 19 72 20 73 24 74 21 75 23 76 22 77
REMARK H PARENT 3 6 66 24 44 35 7 60 18 71
REMARK Flexibility Score: inf
ROOT
ATOM      1  C   UNL A   1      37.546  19.756  24.997  1.00  0.00     0.042 C 
ENDROOT
BRANCH   1   2
ATOM      2  C   UNL A   1      38.817  20.311  25.623  1.00  0.00     0.118 C 
BRANCH   2   3
ATOM      3  N   UNL A   1      39.812  19.268  25.822  1.00  0.00    -0.352 N 
ATOM      4  O   UNL A   1      41.897  18.421  25.906  1.00  0.00    -0.269 OA
ATOM      5  C   UNL A   1      41.159  19.391  26.048  1.00  0.00     0.251 C 
ATOM      6  H   UNL A   1      39.471  18.345  25.788  1.00  0.00     0.163 HD
BRANCH   5   7
ATOM      7  C   UNL A   1      41.718  20.692  26.469  1.00  0.00     0.039 A 
ATOM      8  C   UNL A   1      42.077  21.653  25.519  1.00  0.00     0.014 A 
ATOM      9  C   UNL A   1      41.823  20.975  27.833  1.00  0.00     0.014 A 
ATOM     10  C   UNL A   1      42.634  22.857  25.928  1.00  0.00     0.010 A 
ATOM     11  C   UNL A   1      42.308  22.216  28.244  1.00  0.00     0.010 A 
ATOM     12  C   UNL A   1      42.724  23.163  27.293  1.00  0.00    -0.014 A 
BRANCH  12  13
ATOM     13  C   UNL A   1      43.159  24.513  27.718  1.00  0.00     0.031 A 
ATOM     14  C   UNL A   1      42.162  25.553  28.123  1.00  0.00     0.074 A 
ATOM     15  C   UNL A   1      44.474  24.799  27.694  1.00  0.00     0.049 A 
ATOM     16  N   UNL A   1      42.367  26.803  28.453  1.00  0.00    -0.248 NA
ATOM     17  C   UNL A   1      40.749  25.144  28.151  1.00  0.00     0.031 C 
ATOM     18  C   UNL A   1      45.534  23.864  27.305  1.00  0.00     0.029 A 
ATOM     19  N   UNL A   1      45.144  25.956  27.994  1.00  0.00    -0.354 N 
ATOM     20  C   UNL A   1      41.110  27.338  28.703  1.00  0.00     0.074 A 
ATOM     21  C   UNL A   1      40.148  26.283  28.465  1.00  0.00     0.031 C 
ATOM     22  C   UNL A   1      46.720  24.481  27.403  1.00  0.00     0.029 A 
ATOM     23  C   UNL A   1      46.500  25.866  27.799  1.00  0.00     0.049 A 
ATOM     24  H   UNL A   1      44.697  26.772  28.317  1.00  0.00     0.167 HD
ATOM     25  C   UNL A   1      40.792  28.596  29.092  1.00  0.00     0.031 A 
ATOM     26  C   UNL A   1      47.461  26.802  27.892  1.00  0.00     0.031 A 
ATOM     27  C   UNL A   1      41.759  29.639  29.317  1.00  0.00     0.049 A 
ATOM     28  C   UNL A   1      47.082  28.196  28.291  1.00  0.00     0.074 A 
ATOM     29  C   UNL A   1      41.545  30.934  29.758  1.00  0.00     0.029 A 
ATOM     30  N   UNL A   1      43.124  29.510  29.105  1.00  0.00    -0.354 N 
ATOM     31  N   UNL A   1      45.895  28.676  28.571  1.00  0.00    -0.248 NA
ATOM     32  C   UNL A   1      48.172  29.176  28.389  1.00  0.00     0.031 C 
ATOM     33  C   UNL A   1      42.773  31.604  29.757  1.00  0.00     0.029 A 
ATOM     34  C   UNL A   1      43.760  30.710  29.373  1.00  0.00     0.049 A 
ATOM     35  H   UNL A   1      43.574  28.686  28.807  1.00  0.00     0.167 HD
ATOM     36  C   UNL A   1      46.095  30.009  28.897  1.00  0.00     0.074 A 
ATOM     37  C   UNL A   1      47.519  30.259  28.790  1.00  0.00     0.031 C 
ATOM     38  C   UNL A   1      45.178  30.941  29.254  1.00  0.00     0.031 A 
BRANCH  25  39
ATOM     39  C   UNL A   1      39.333  28.921  29.254  1.00  0.00    -0.014 A 
ATOM     40  C   UNL A   1      38.677  28.763  30.485  1.00  0.00     0.009 A 
ATOM     41  C   UNL A   1      38.606  29.410  28.157  1.00  0.00     0.009 A 
ATOM     42  C   UNL A   1      37.314  29.045  30.601  1.00  0.00     0.001 A 
ATOM     43  C   UNL A   1      37.251  29.718  28.283  1.00  0.00     0.001 A 
ATOM     44  C   UNL A   1      36.602  29.524  29.501  1.00  0.00     0.000 A 
ENDBRANCH  25  39
BRANCH  26  45
ATOM     45  C   UNL A   1      48.863  26.435  27.570  1.00  0.00    -0.014 A 
ATOM     46  C   UNL A   1      49.735  25.987  28.572  1.00  0.00     0.009 A 
ATOM     47  C   UNL A   1      49.315  26.471  26.240  1.00  0.00     0.009 A 
ATOM     48  C   UNL A   1      51.035  25.590  28.248  1.00  0.00     0.001 A 
ATOM     49  C   UNL A   1      50.605  26.047  25.917  1.00  0.00     0.001 A 
ATOM     50  C   UNL A   1      51.465  25.611  26.922  1.00  0.00     0.000 A 
ENDBRANCH  26  45
BRANCH  38  51
ATOM     51  C   UNL A   1      45.690  32.314  29.584  1.00  0.00    -0.014 A 
ATOM     52  C   UNL A   1      45.755  33.320  28.607  1.00  0.00     0.009 A 
ATOM     53  C   UNL A   1      46.056  32.619  30.905  1.00  0.00     0.009 A 
ATOM     54  C   UNL A   1      46.195  34.601  28.946  1.00  0.00     0.001 A 
ATOM     55  C   UNL A   1      46.472  33.905  31.244  1.00  0.00     0.001 A 
ATOM     56  C   UNL A   1      46.546  34.894  30.264  1.00  0.00     0.000 A 
ENDBRANCH  38  51
ENDBRANCH  12  13
ENDBRANCH   5   7
ENDBRANCH   2   3
ENDBRANCH   1   2
BRANCH   1  57
ATOM     57  C   UNL A   1      36.348  20.688  25.152  1.00  0.00     0.117 C 
BRANCH  57  58
ATOM     58  N   UNL A   1      36.324  21.694  24.107  1.00  0.00    -0.356 N 
ATOM     59  C   UNL A   1      35.367  22.576  23.721  1.00  0.00     0.223 C 
ATOM     60  H   UNL A   1      37.154  21.747  23.580  1.00  0.00     0.163 HD
ATOM     61  O   UNL A   1      35.583  23.221  22.691  1.00  0.00    -0.275 OA
BRANCH  59  62
ATOM     62  C   UNL A   1      34.113  22.845  24.551  1.00  0.00     0.091 C 
ATOM     63  C   UNL A   1      34.490  23.695  25.777  1.00  0.00     0.014 C 
ATOM     64  C   UNL A   1      33.284  21.583  24.856  1.00  0.00     0.091 C 
ATOM     65  C   UNL A   1      33.380  23.799  26.810  1.00  0.00     0.001 C 
ATOM     66  C   UNL A   1      32.325  21.662  26.059  1.00  0.00     0.014 C 
ATOM     67  C   UNL A   1      32.911  22.418  27.240  1.00  0.00     0.001 C 
BRANCH  64  68
ATOM     68  C   UNL A   1      32.608  20.967  23.621  1.00  0.00     0.230 C 
ATOM     69  O   UNL A   1      32.048  21.719  22.812  1.00  0.00    -0.274 OA
ATOM     70  N   UNL A   1      32.697  19.651  23.303  1.00  0.00    -0.294 N 
ATOM     71  H   UNL A   1      32.467  19.436  22.372  1.00  0.00     0.173 HD
BRANCH  70  72
ATOM     72  C   UNL A   1      33.059  18.563  24.074  1.00  0.00     0.229 A 
ATOM     73  N   UNL A   1      32.139  18.138  24.946  1.00  0.00    -0.221 NA
ATOM     74  N   UNL A   1      34.255  17.990  23.913  1.00  0.00    -0.221 NA
ATOM     75  C   UNL A   1      32.439  17.018  25.636  1.00  0.00     0.117 A 
ATOM     76  C   UNL A   1      34.541  16.920  24.674  1.00  0.00     0.117 A 
ATOM     77  C   UNL A   1      33.644  16.364  25.544  1.00  0.00     0.040 A 
ENDBRANCH  70  72
ENDBRANCH  64  68
ENDBRANCH  59  62
ENDBRANCH  57  58
ENDBRANCH   1  57
TORSDOF 12
ENDMDL
MODEL 2
REMARK VINA RESULT:     -11.5      3.108      7.643
REMARK SMILES O=C(NCCCNC(=O)[C@@H]1CCCC[C@H]1C(=O)Nc1ncccn1)c1ccc(-c2c3nc(c(-c4ccccc4)c4ccc([nH]4)c(-c4ccccc4)c4nc(c(-c5ccccc5)c5ccc2[nH]5)C=C4)C=C3)cc1
REMARK SMILES IDX 5 1 4 2 3 3 1 4 2 5 25 7 26 8 72 9 27 10 71 11 28 12 29 13
REMARK SMILES IDX 30 14 65 15 31 16 70 17 64 18 66 19 32 20 69 21 63 22 62 23
REMARK SMILES IDX 33 25 55 26 40 27 54 28 41 29 44 30 53 31 67 32 42 33 43 34
REMARK SMILES IDX 52 36 68 37 45 38 34 39 35 40 39 41 36 42 38 43 37 44 56 45
REMARK SMILES IDX 57 46 61 47 58 48 60 49 59 50 46 51 47 52 51 53 48 54 50 55
REMARK SMILES IDX 49 56 6 57 7 58 8 59 9 61 10 62 11 63 15 64 12 65 14 66
REMARK SMILES IDX 13 67 16 68 17 69 18 70 19 72 20 73 24 74 21 75 23 76 22 77
REMARK H PARENT 3 6 66 24 44 35 7 60 18 71
REMARK Flexibility Score: inf
ROOT
ATOM      1  C   UNL A   1      33.853  28.293  25.907  1.00  0.00     0.042 C 
ENDROOT
BRANCH   1   2
ATOM      2  C   UNL A   1      33.567  28.590  27.372  1.00  0.00     0.118 C 
BRANCH   2   3
ATOM      3  N   UNL A   1      33.584  30.020  27.640  1.00  0.00    -0.352 N 
ATOM      4  O   UNL A   1      34.272  31.897  28.676  1.00  0.00    -0.269 OA
ATOM      5  C   UNL A   1      34.539  30.767  28.280  1.00  0.00     0.251 C 
ATOM      6  H   UNL A   1      32.801  30.521  27.317  1.00  0.00     0.163 HD
BRANCH   5   7
ATOM      7  C   UNL A   1      35.892  30.211  28.487  1.00  0.00     0.039 A 
ATOM      8  C   UNL A   1      36.857  30.294  27.479  1.00  0.00     0.014 A 
ATOM      9  C   UNL A   1      36.214  29.656  29.728  1.00  0.00     0.014 A 
ATOM     10  C   UNL A   1      38.113  29.735  27.674  1.00  0.00     0.010 A 
ATOM     11  C   UNL A   1      37.500  29.167  29.951  1.00  0.00     0.010 A 
ATOM     12  C   UNL A   1      38.457  29.196  28.923  1.00  0.00    -0.014 A 
BRANCH  12  13
ATOM     13  C   UNL A   1      39.847  28.757  29.177  1.00  0.00     0.031 A 
ATOM     14  C   UNL A   1      40.855  29.693  29.771  1.00  0.00     0.074 A 
ATOM     15  C   UNL A   1      40.199  27.507  28.825  1.00  0.00     0.049 A 
ATOM     16  N   UNL A   1      42.130  29.493  29.993  1.00  0.00    -0.248 NA
ATOM     17  C   UNL A   1      40.376  31.029  30.155  1.00  0.00     0.031 C 
ATOM     18  C   UNL A   1      39.302  26.514  28.228  1.00  0.00     0.029 A 
ATOM     19  N   UNL A   1      41.404  26.859  28.908  1.00  0.00    -0.354 N 
ATOM     20  C   UNL A   1      42.611  30.685  30.518  1.00  0.00     0.074 A 
ATOM     21  C   UNL A   1      41.497  31.608  30.561  1.00  0.00     0.031 C 
ATOM     22  C   UNL A   1      39.983  25.380  28.012  1.00  0.00     0.029 A 
ATOM     23  C   UNL A   1      41.374  25.586  28.395  1.00  0.00     0.049 A 
ATOM     24  H   UNL A   1      42.211  27.266  29.299  1.00  0.00     0.167 HD
ATOM     25  C   UNL A   1      43.870  30.979  30.923  1.00  0.00     0.031 A 
ATOM     26  C   UNL A   1      42.362  24.691  28.217  1.00  0.00     0.031 A 
ATOM     27  C   UNL A   1      44.972  30.053  30.868  1.00  0.00     0.049 A 
ATOM     28  C   UNL A   1      43.754  25.050  28.642  1.00  0.00     0.074 A 
ATOM     29  C   UNL A   1      46.275  30.237  31.298  1.00  0.00     0.029 A 
ATOM     30  N   UNL A   1      44.903  28.773  30.337  1.00  0.00    -0.354 N 
ATOM     31  N   UNL A   1      44.186  26.164  29.182  1.00  0.00    -0.248 NA
ATOM     32  C   UNL A   1      44.792  24.033  28.435  1.00  0.00     0.031 C 
ATOM     33  C   UNL A   1      47.007  29.089  30.974  1.00  0.00     0.029 A 
ATOM     34  C   UNL A   1      46.146  28.168  30.397  1.00  0.00     0.049 A 
ATOM     35  H   UNL A   1      44.088  28.357  29.971  1.00  0.00     0.167 HD
ATOM     36  C   UNL A   1      45.543  25.977  29.398  1.00  0.00     0.074 A 
ATOM     37  C   UNL A   1      45.860  24.638  28.941  1.00  0.00     0.031 C 
ATOM     38  C   UNL A   1      46.444  26.838  29.930  1.00  0.00     0.031 A 
BRANCH  25  39
ATOM     39  C   UNL A   1      44.127  32.375  31.421  1.00  0.00    -0.014 A 
ATOM     40  C   UNL A   1      44.520  33.404  30.551  1.00  0.00     0.009 A 
ATOM     41  C   UNL A   1      43.955  32.668  32.783  1.00  0.00     0.009 A 
ATOM     42  C   UNL A   1      44.779  34.686  31.043  1.00  0.00     0.001 A 
ATOM     43  C   UNL A   1      44.187  33.956  33.267  1.00  0.00     0.001 A 
ATOM     44  C   UNL A   1      44.611  34.961  32.400  1.00  0.00     0.000 A 
ENDBRANCH  25  39
BRANCH  26  45
ATOM     45  C   UNL A   1      42.051  23.387  27.580  1.00  0.00    -0.014 A 
ATOM     46  C   UNL A   1      42.234  23.199  26.203  1.00  0.00     0.009 A 
ATOM     47  C   UNL A   1      41.629  22.301  28.366  1.00  0.00     0.009 A 
ATOM     48  C   UNL A   1      41.993  21.951  25.625  1.00  0.00     0.001 A 
ATOM     49  C   UNL A   1      41.416  21.048  27.789  1.00  0.00     0.001 A 
ATOM     50  C   UNL A   1      41.594  20.876  26.418  1.00  0.00     0.000 A 
ENDBRANCH  26  45
BRANCH  38  51
ATOM     51  C   UNL A   1      47.856  26.349  30.073  1.00  0.00    -0.014 A 
ATOM     52  C   UNL A   1      48.321  25.814  31.285  1.00  0.00     0.009 A 
ATOM     53  C   UNL A   1      48.714  26.370  28.962  1.00  0.00     0.009 A 
ATOM     54  C   UNL A   1      49.626  25.327  31.384  1.00  0.00     0.001 A 
ATOM     55  C   UNL A   1      50.008  25.859  29.057  1.00  0.00     0.001 A 
ATOM     56  C   UNL A   1      50.465  25.344  30.269  1.00  0.00     0.000 A 
ENDBRANCH  38  51
ENDBRANCH  12  13
ENDBRANCH   5   7
ENDBRANCH   2   3
ENDBRANCH   1   2
BRANCH   1  57
ATOM     57  C   UNL A   1      34.039  26.806  25.623  1.00  0.00     0.117 C 
BRANCH  57  58
ATOM     58  N   UNL A   1      32.794  26.078  25.789  1.00  0.00    -0.356 N 
ATOM     59  C   UNL A   1      32.448  24.800  25.493  1.00  0.00     0.223 C 
ATOM     60  H   UNL A   1      32.068  26.609  26.189  1.00  0.00     0.163 HD
ATOM     61  O   UNL A   1      31.256  24.501  25.617  1.00  0.00    -0.275 OA
BRANCH  59  62
ATOM     62  C   UNL A   1      33.474  23.736  25.109  1.00  0.00     0.091 C 
ATOM     63  C   UNL A   1      34.449  23.527  26.281  1.00  0.00     0.014 C 
ATOM     64  C   UNL A   1      34.136  23.973  23.738  1.00  0.00     0.091 C 
ATOM     65  C   UNL A   1      35.666  22.692  25.919  1.00  0.00     0.001 C 
ATOM     66  C   UNL A   1      35.489  23.277  23.496  1.00  0.00     0.014 C 
ATOM     67  C   UNL A   1      36.390  23.283  24.720  1.00  0.00     0.001 C 
BRANCH  64  68
ATOM     68  C   UNL A   1      33.180  23.803  22.546  1.00  0.00     0.230 C 
ATOM     69  O   UNL A   1      32.991  22.666  22.094  1.00  0.00    -0.274 OA
ATOM     70  N   UNL A   1      32.435  24.818  22.040  1.00  0.00    -0.294 N 
ATOM     71  H   UNL A   1      31.679  24.533  21.480  1.00  0.00     0.173 HD
BRANCH  70  72
ATOM     72  C   UNL A   1      32.565  26.186  22.183  1.00  0.00     0.229 A 
ATOM     73  N   UNL A   1      31.508  26.817  22.705  1.00  0.00    -0.221 NA
ATOM     74  N   UNL A   1      33.699  26.796  21.826  1.00  0.00    -0.221 NA
ATOM     75  C   UNL A   1      31.656  28.137  22.940  1.00  0.00     0.117 A 
ATOM     76  C   UNL A   1      33.776  28.125  22.011  1.00  0.00     0.117 A 
ATOM     77  C   UNL A   1      32.780  28.853  22.602  1.00  0.00     0.040 A 
ENDBRANCH  70  72
ENDBRANCH  64  68
ENDBRANCH  59  62
ENDBRANCH  57  58
ENDBRANCH   1  57
TORSDOF 12
ENDMDL
MODEL 3
REMARK VINA RESULT:     -11.5      1.197      6.058
REMARK SMILES O=C(NCCCNC(=O)[C@@H]1CCCC[C@H]1C(=O)Nc1ncccn1)c1ccc(-c2c3nc(c(-c4ccccc4)c4ccc([nH]4)c(-c4ccccc4)c4nc(c(-c5ccccc5)c5ccc2[nH]5)C=C4)C=C3)cc1
REMARK SMILES IDX 5 1 4 2 3 3 1 4 2 5 25 7 26 8 72 9 27 10 71 11 28 12 29 13
REMARK SMILES IDX 30 14 65 15 31 16 70 17 64 18 66 19 32 20 69 21 63 22 62 23
REMARK SMILES IDX 33 25 55 26 40 27 54 28 41 29 44 30 53 31 67 32 42 33 43 34
REMARK SMILES IDX 52 36 68 37 45 38 34 39 35 40 39 41 36 42 38 43 37 44 56 45
REMARK SMILES IDX 57 46 61 47 58 48 60 49 59 50 46 51 47 52 51 53 48 54 50 55
REMARK SMILES IDX 49 56 6 57 7 58 8 59 9 61 10 62 11 63 15 64 12 65 14 66
REMARK SMILES IDX 13 67 16 68 17 69 18 70 19 72 20 73 24 74 21 75 23 76 22 77
REMARK H PARENT 3 6 66 24 44 35 7 60 18 71
REMARK Flexibility Score: inf
ROOT
ATOM      1  C   UNL A   1      37.511  19.782  24.935  1.00  0.00     0.042 C 
ENDROOT
BRANCH   1   2
ATOM      2  C   UNL A   1      38.788  20.421  25.461  1.00  0.00     0.118 C 
BRANCH   2   3
ATOM      3  N   UNL A   1      39.815  19.423  25.722  1.00  0.00    -0.352 N 
ATOM      4  O   UNL A   1      41.926  18.681  25.976  1.00  0.00    -0.269 OA
ATOM      5  C   UNL A   1      41.127  19.606  26.076  1.00  0.00     0.251 C 
ATOM      6  H   UNL A   1      39.529  18.486  25.631  1.00  0.00     0.163 HD
BRANCH   5   7
ATOM      7  C   UNL A   1      41.574  20.920  26.584  1.00  0.00     0.039 A 
ATOM      8  C   UNL A   1      42.117  21.871  25.715  1.00  0.00     0.014 A 
ATOM      9  C   UNL A   1      41.389  21.222  27.935  1.00  0.00     0.014 A 
ATOM     10  C   UNL A   1      42.567  23.088  26.213  1.00  0.00     0.010 A 
ATOM     11  C   UNL A   1      41.767  22.475  28.419  1.00  0.00     0.010 A 
ATOM     12  C   UNL A   1      42.366  23.413  27.562  1.00  0.00    -0.014 A 
BRANCH  12  13
ATOM     13  C   UNL A   1      42.691  24.773  28.047  1.00  0.00     0.031 A 
ATOM     14  C   UNL A   1      44.083  25.129  28.472  1.00  0.00     0.074 A 
ATOM     15  C   UNL A   1      41.697  25.676  28.136  1.00  0.00     0.049 A 
ATOM     16  N   UNL A   1      44.523  26.249  28.987  1.00  0.00    -0.248 NA
ATOM     17  C   UNL A   1      45.112  24.090  28.312  1.00  0.00     0.031 C 
ATOM     18  C   UNL A   1      40.302  25.435  27.759  1.00  0.00     0.029 A 
ATOM     19  N   UNL A   1      41.703  26.974  28.577  1.00  0.00    -0.354 N 
ATOM     20  C   UNL A   1      45.874  26.044  29.236  1.00  0.00     0.074 A 
ATOM     21  C   UNL A   1      46.175  24.685  28.836  1.00  0.00     0.031 C 
ATOM     22  C   UNL A   1      39.590  26.550  27.973  1.00  0.00     0.029 A 
ATOM     23  C   UNL A   1      40.463  27.561  28.557  1.00  0.00     0.049 A 
ATOM     24  H   UNL A   1      42.518  27.439  28.877  1.00  0.00     0.167 HD
ATOM     25  C   UNL A   1      46.776  26.911  29.754  1.00  0.00     0.031 A 
ATOM     26  C   UNL A   1      40.059  28.767  28.994  1.00  0.00     0.031 A 
ATOM     27  C   UNL A   1      46.461  28.258  30.155  1.00  0.00     0.049 A 
ATOM     28  C   UNL A   1      41.068  29.698  29.595  1.00  0.00     0.074 A 
ATOM     29  C   UNL A   1      47.313  29.233  30.647  1.00  0.00     0.029 A 
ATOM     30  N   UNL A   1      45.191  28.815  30.124  1.00  0.00    -0.354 N 
ATOM     31  N   UNL A   1      42.352  29.509  29.779  1.00  0.00    -0.248 NA
ATOM     32  C   UNL A   1      40.576  31.007  30.044  1.00  0.00     0.031 C 
ATOM     33  C   UNL A   1      46.547  30.359  30.966  1.00  0.00     0.029 A 
ATOM     34  C   UNL A   1      45.229  30.108  30.618  1.00  0.00     0.049 A 
ATOM     35  H   UNL A   1      44.382  28.358  29.797  1.00  0.00     0.167 HD
ATOM     36  C   UNL A   1      42.828  30.680  30.350  1.00  0.00     0.074 A 
ATOM     37  C   UNL A   1      41.696  31.578  30.470  1.00  0.00     0.031 C 
ATOM     38  C   UNL A   1      44.091  30.983  30.737  1.00  0.00     0.031 A 
BRANCH  25  39
ATOM     39  C   UNL A   1      48.179  26.409  29.955  1.00  0.00    -0.014 A 
ATOM     40  C   UNL A   1      48.582  25.817  31.162  1.00  0.00     0.009 A 
ATOM     41  C   UNL A   1      49.110  26.516  28.909  1.00  0.00     0.009 A 
ATOM     42  C   UNL A   1      49.899  25.385  31.333  1.00  0.00     0.001 A 
ATOM     43  C   UNL A   1      50.418  26.057  29.072  1.00  0.00     0.001 A 
ATOM     44  C   UNL A   1      50.815  25.503  30.288  1.00  0.00     0.000 A 
ENDBRANCH  25  39
BRANCH  26  45
ATOM     45  C   UNL A   1      38.623  29.130  28.894  1.00  0.00    -0.014 A 
ATOM     46  C   UNL A   1      37.768  28.981  29.995  1.00  0.00     0.009 A 
ATOM     47  C   UNL A   1      38.117  29.689  27.709  1.00  0.00     0.009 A 
ATOM     48  C   UNL A   1      36.432  29.380  29.907  1.00  0.00     0.001 A 
ATOM     49  C   UNL A   1      36.789  30.111  27.634  1.00  0.00     0.001 A 
ATOM     50  C   UNL A   1      35.947  29.952  28.731  1.00  0.00     0.000 A 
ENDBRANCH  26  45
BRANCH  38  51
ATOM     51  C   UNL A   1      44.323  32.355  31.303  1.00  0.00    -0.014 A 
ATOM     52  C   UNL A   1      44.636  33.441  30.471  1.00  0.00     0.009 A 
ATOM     53  C   UNL A   1      44.167  32.572  32.681  1.00  0.00     0.009 A 
ATOM     54  C   UNL A   1      44.807  34.716  31.014  1.00  0.00     0.001 A 
ATOM     55  C   UNL A   1      44.313  33.851  33.216  1.00  0.00     0.001 A 
ATOM     56  C   UNL A   1      44.639  34.921  32.384  1.00  0.00     0.000 A 
ENDBRANCH  38  51
ENDBRANCH  12  13
ENDBRANCH   5   7
ENDBRANCH   2   3
ENDBRANCH   1   2
BRANCH   1  57
ATOM     57  C   UNL A   1      36.291  20.687  25.070  1.00  0.00     0.117 C 
BRANCH  57  58
ATOM     58  N   UNL A   1      36.273  21.704  24.035  1.00  0.00    -0.356 N 
ATOM     59  C   UNL A   1      35.322  22.598  23.662  1.00  0.00     0.223 C 
ATOM     60  H   UNL A   1      37.102  21.756  23.507  1.00  0.00     0.163 HD
ATOM     61  O   UNL A   1      35.541  23.252  22.638  1.00  0.00    -0.275 OA
BRANCH  59  62
ATOM     62  C   UNL A   1      34.072  22.868  24.497  1.00  0.00     0.091 C 
ATOM     63  C   UNL A   1      34.453  23.731  25.712  1.00  0.00     0.014 C 
ATOM     64  C   UNL A   1      33.252  21.605  24.819  1.00  0.00     0.091 C 
ATOM     65  C   UNL A   1      33.349  23.839  26.752  1.00  0.00     0.001 C 
ATOM     66  C   UNL A   1      32.300  21.690  26.027  1.00  0.00     0.014 C 
ATOM     67  C   UNL A   1      32.889  22.460  27.198  1.00  0.00     0.001 C 
BRANCH  64  68
ATOM     68  C   UNL A   1      32.570  20.974  23.594  1.00  0.00     0.230 C 
ATOM     69  O   UNL A   1      32.003  21.716  22.781  1.00  0.00    -0.274 OA
ATOM     70  N   UNL A   1      32.662  19.655  23.289  1.00  0.00    -0.294 N 
ATOM     71  H   UNL A   1      32.427  19.430  22.361  1.00  0.00     0.173 HD
BRANCH  70  72
ATOM     72  C   UNL A   1      33.032  18.576  24.069  1.00  0.00     0.229 A 
ATOM     73  N   UNL A   1      32.136  18.186  24.981  1.00  0.00    -0.221 NA
ATOM     74  N   UNL A   1      34.212  17.979  23.878  1.00  0.00    -0.221 NA
ATOM     75  C   UNL A   1      32.441  17.075  25.683  1.00  0.00     0.117 A 
ATOM     76  C   UNL A   1      34.505  16.919  24.649  1.00  0.00     0.117 A 
ATOM     77  C   UNL A   1      33.630  16.397  25.561  1.00  0.00     0.040 A 
ENDBRANCH  70  72
ENDBRANCH  64  68
ENDBRANCH  59  62
ENDBRANCH  57  58
ENDBRANCH   1  57
TORSDOF 12
ENDMDL
