MODEL 1
REMARK VINA RESULT:     -12.1      0.000      0.000
REMARK SMILES CC(C)Cc1cc2c(cc1Cl)C=C(C(=O)NCCCNC(=O)c1ccc(-c3c4nc(c(-c5ccccc5)c5ccc([nH]5)c(-c5ccccc5)c5nc(c(-c6ccccc6)c6ccc3[nH]6)C=C5)C=C4)cc1)[C@@H](C(F)(F)F)O2
REMARK SMILES IDX 18 1 17 2 16 3 14 4 15 5 13 7 5 8 6 9 10 10 7 11 9 12 11 13
REMARK SMILES IDX 8 14 76 15 12 16 71 17 4 18 2 19 1 20 3 21 72 22 73 23 74 24
REMARK SMILES IDX 75 25 19 26 20 27 21 28 22 30 23 31 24 32 70 33 25 34 69 35
REMARK SMILES IDX 26 36 27 37 28 38 63 39 29 40 68 41 62 42 64 43 30 44 67 45
REMARK SMILES IDX 61 46 60 47 31 49 53 50 38 51 52 52 39 53 42 54 51 55 65 56
REMARK SMILES IDX 40 57 41 58 50 60 66 61 43 62 32 63 33 64 37 65 34 66 36 67
REMARK SMILES IDX 35 68 54 69 55 70 59 71 56 72 58 73 57 74 44 75 45 76 49 77
REMARK SMILES IDX 46 78 48 79 47 80
REMARK H PARENT 16 6 20 29 64 48 42 59
REMARK Flexibility Score: inf
ROOT
ATOM      1  C   UNL A   1      37.773  20.000  24.725  1.00  0.00     0.042 C 
ENDROOT
BRANCH   1   2
ATOM      2  C   UNL A   1      36.432  20.593  25.129  1.00  0.00     0.118 C 
BRANCH   2   3
ATOM      3  N   UNL A   1      35.352  19.629  25.000  1.00  0.00    -0.352 N 
ATOM      4  C   UNL A   1      34.001  19.657  24.932  1.00  0.00     0.251 C 
ATOM      5  O   UNL A   1      33.458  18.552  24.837  1.00  0.00    -0.270 OA
ATOM      6  H   UNL A   1      35.696  18.708  24.946  1.00  0.00     0.163 HD
BRANCH   4   7
ATOM      7  C   UNL A   1      33.167  20.891  24.962  1.00  0.00     0.067 C 
ATOM      8  C   UNL A   1      30.846  25.218  23.870  1.00  0.00    -0.025 A 
ATOM      9  C   UNL A   1      30.736  24.279  24.910  1.00  0.00     0.052 A 
ATOM     10  C   UNL A   1      31.630  24.885  22.751  1.00  0.00     0.045 A 
ATOM     11  C   UNL A   1      31.459  23.093  24.868  1.00  0.00     0.128 A 
ATOM     12  C   UNL A   1      32.321  23.667  22.697  1.00  0.00     0.032 A 
ATOM     13  Cl  UNL A   1      31.813  25.953  21.406  1.00  0.00    -0.084 Cl
ATOM     14  C   UNL A   1      32.259  22.778  23.771  1.00  0.00     0.019 A 
ATOM     15  O   UNL A   1      31.351  22.264  25.949  1.00  0.00    -0.475 OA
ATOM     16  C   UNL A   1      33.017  21.532  23.787  1.00  0.00     0.025 C 
ATOM     17  C   UNL A   1      32.534  21.456  26.204  1.00  0.00     0.314 C 
BRANCH   8  18
ATOM     18  C   UNL A   1      30.171  26.560  24.058  1.00  0.00     0.040 C 
BRANCH  18  19
ATOM     19  C   UNL A   1      31.172  27.689  24.397  1.00  0.00    -0.013 C 
ATOM     20  C   UNL A   1      30.694  29.057  23.902  1.00  0.00     0.008 C 
ATOM     21  C   UNL A   1      31.418  27.737  25.905  1.00  0.00     0.008 C 
ENDBRANCH  18  19
ENDBRANCH   8  18
BRANCH  17  22
ATOM     22  C   UNL A   1      33.528  22.249  27.079  1.00  0.00     0.429 C 
ATOM     23  F   UNL A   1      32.856  23.052  27.942  1.00  0.00    -0.167 F 
ATOM     24  F   UNL A   1      34.309  21.442  27.836  1.00  0.00    -0.167 F 
ATOM     25  F   UNL A   1      34.361  23.033  26.360  1.00  0.00    -0.167 F 
ENDBRANCH  17  22
ENDBRANCH   4   7
ENDBRANCH   2   3
ENDBRANCH   1   2
BRANCH   1  26
ATOM     26  C   UNL A   1      38.858  20.267  25.760  1.00  0.00     0.118 C 
BRANCH  26  27
ATOM     27  N   UNL A   1      39.864  19.206  25.794  1.00  0.00    -0.352 N 
ATOM     28  C   UNL A   1      41.226  19.276  25.959  1.00  0.00     0.251 C 
ATOM     29  H   UNL A   1      39.507  18.296  25.681  1.00  0.00     0.163 HD
ATOM     30  O   UNL A   1      41.919  18.284  25.753  1.00  0.00    -0.269 OA
BRANCH  28  31
ATOM     31  C   UNL A   1      41.856  20.549  26.358  1.00  0.00     0.039 A 
ATOM     32  C   UNL A   1      42.050  20.842  27.707  1.00  0.00     0.014 A 
ATOM     33  C   UNL A   1      42.247  21.464  25.377  1.00  0.00     0.014 A 
ATOM     34  C   UNL A   1      42.430  22.122  28.080  1.00  0.00     0.010 A 
ATOM     35  C   UNL A   1      42.744  22.714  25.756  1.00  0.00     0.010 A 
ATOM     36  C   UNL A   1      42.784  23.074  27.111  1.00  0.00    -0.014 A 
BRANCH  36  37
ATOM     37  C   UNL A   1      43.199  24.428  27.558  1.00  0.00     0.031 A 
ATOM     38  C   UNL A   1      44.631  24.873  27.462  1.00  0.00     0.074 A 
ATOM     39  C   UNL A   1      42.251  25.288  27.978  1.00  0.00     0.049 A 
ATOM     40  N   UNL A   1      45.143  26.048  27.730  1.00  0.00    -0.248 NA
ATOM     41  C   UNL A   1      45.620  23.879  27.015  1.00  0.00     0.031 C 
ATOM     42  C   UNL A   1      40.826  24.969  28.105  1.00  0.00     0.029 A 
ATOM     43  N   UNL A   1      42.327  26.612  28.325  1.00  0.00    -0.354 N 
ATOM     44  C   UNL A   1      46.511  25.924  27.520  1.00  0.00     0.074 A 
ATOM     45  C   UNL A   1      46.754  24.556  27.120  1.00  0.00     0.031 C 
ATOM     46  C   UNL A   1      40.153  26.086  28.412  1.00  0.00     0.029 A 
ATOM     47  C   UNL A   1      41.103  27.179  28.581  1.00  0.00     0.049 A 
ATOM     48  H   UNL A   1      43.176  27.108  28.383  1.00  0.00     0.167 HD
ATOM     49  C   UNL A   1      47.474  26.867  27.646  1.00  0.00     0.031 A 
ATOM     50  C   UNL A   1      40.772  28.440  28.919  1.00  0.00     0.031 A 
ATOM     51  C   UNL A   1      47.220  28.234  28.020  1.00  0.00     0.049 A 
ATOM     52  C   UNL A   1      41.855  29.465  29.061  1.00  0.00     0.074 A 
ATOM     53  C   UNL A   1      48.127  29.274  28.133  1.00  0.00     0.029 A 
ATOM     54  N   UNL A   1      45.975  28.751  28.342  1.00  0.00    -0.354 N 
ATOM     55  N   UNL A   1      43.142  29.333  28.847  1.00  0.00    -0.248 NA
ATOM     56  C   UNL A   1      41.448  30.806  29.499  1.00  0.00     0.031 C 
ATOM     57  C   UNL A   1      47.439  30.404  28.580  1.00  0.00     0.029 A 
ATOM     58  C   UNL A   1      46.094  30.087  28.684  1.00  0.00     0.049 A 
ATOM     59  H   UNL A   1      45.132  28.243  28.328  1.00  0.00     0.167 HD
ATOM     60  C   UNL A   1      43.701  30.573  29.122  1.00  0.00     0.074 A 
ATOM     61  C   UNL A   1      42.609  31.450  29.496  1.00  0.00     0.031 C 
ATOM     62  C   UNL A   1      45.002  30.944  29.072  1.00  0.00     0.031 A 
BRANCH  49  63
ATOM     63  C   UNL A   1      48.901  26.455  27.408  1.00  0.00    -0.014 A 
ATOM     64  C   UNL A   1      49.409  26.455  26.099  1.00  0.00     0.009 A 
ATOM     65  C   UNL A   1      49.721  26.004  28.453  1.00  0.00     0.009 A 
ATOM     66  C   UNL A   1      50.706  26.008  25.840  1.00  0.00     0.001 A 
ATOM     67  C   UNL A   1      51.027  25.583  28.195  1.00  0.00     0.001 A 
ATOM     68  C   UNL A   1      51.516  25.579  26.889  1.00  0.00     0.000 A 
ENDBRANCH  49  63
BRANCH  50  69
ATOM     69  C   UNL A   1      39.339  28.772  29.129  1.00  0.00    -0.014 A 
ATOM     70  C   UNL A   1      38.578  29.326  28.085  1.00  0.00     0.009 A 
ATOM     71  C   UNL A   1      38.757  28.639  30.397  1.00  0.00     0.009 A 
ATOM     72  C   UNL A   1      37.279  29.780  28.318  1.00  0.00     0.001 A 
ATOM     73  C   UNL A   1      37.446  29.067  30.620  1.00  0.00     0.001 A 
ATOM     74  C   UNL A   1      36.714  29.650  29.586  1.00  0.00     0.000 A 
ENDBRANCH  50  69
BRANCH  62  75
ATOM     75  C   UNL A   1      45.336  32.363  29.437  1.00  0.00    -0.014 A 
ATOM     76  C   UNL A   1      45.372  33.350  28.439  1.00  0.00     0.009 A 
ATOM     77  C   UNL A   1      45.712  32.701  30.746  1.00  0.00     0.009 A 
ATOM     78  C   UNL A   1      45.795  34.645  28.741  1.00  0.00     0.001 A 
ATOM     79  C   UNL A   1      46.108  34.005  31.049  1.00  0.00     0.001 A 
ATOM     80  C   UNL A   1      46.158  34.972  30.046  1.00  0.00     0.000 A 
ENDBRANCH  62  75
ENDBRANCH  36  37
ENDBRANCH  28  31
ENDBRANCH  26  27
ENDBRANCH   1  26
TORSDOF 13
ENDMDL
MODEL 2
REMARK VINA RESULT:     -12.0      0.960      5.911
REMARK SMILES CC(C)Cc1cc2c(cc1Cl)C=C(C(=O)NCCCNC(=O)c1ccc(-c3c4nc(c(-c5ccccc5)c5ccc([nH]5)c(-c5ccccc5)c5nc(c(-c6ccccc6)c6ccc3[nH]6)C=C5)C=C4)cc1)[C@@H](C(F)(F)F)O2
REMARK SMILES IDX 18 1 17 2 16 3 14 4 15 5 13 7 5 8 6 9 10 10 7 11 9 12 11 13
REMARK SMILES IDX 8 14 76 15 12 16 71 17 4 18 2 19 1 20 3 21 72 22 73 23 74 24
REMARK SMILES IDX 75 25 19 26 20 27 21 28 22 30 23 31 24 32 70 33 25 34 69 35
REMARK SMILES IDX 26 36 27 37 28 38 63 39 29 40 68 41 62 42 64 43 30 44 67 45
REMARK SMILES IDX 61 46 60 47 31 49 53 50 38 51 52 52 39 53 42 54 51 55 65 56
REMARK SMILES IDX 40 57 41 58 50 60 66 61 43 62 32 63 33 64 37 65 34 66 36 67
REMARK SMILES IDX 35 68 54 69 55 70 59 71 56 72 58 73 57 74 44 75 45 76 49 77
REMARK SMILES IDX 46 78 48 79 47 80
REMARK H PARENT 16 6 20 29 64 48 42 59
REMARK Flexibility Score: inf
ROOT
ATOM      1  C   UNL A   1      37.769  20.058  24.791  1.00  0.00     0.042 C 
ENDROOT
BRANCH   1   2
ATOM      2  C   UNL A   1      36.413  20.613  25.200  1.00  0.00     0.118 C 
BRANCH   2   3
ATOM      3  N   UNL A   1      35.342  19.659  24.958  1.00  0.00    -0.352 N 
ATOM      4  C   UNL A   1      33.997  19.695  24.819  1.00  0.00     0.251 C 
ATOM      5  O   UNL A   1      33.460  18.599  24.632  1.00  0.00    -0.270 OA
ATOM      6  H   UNL A   1      35.689  18.742  24.870  1.00  0.00     0.163 HD
BRANCH   4   7
ATOM      7  C   UNL A   1      33.161  20.928  24.875  1.00  0.00     0.067 C 
ATOM      8  C   UNL A   1      30.852  25.284  23.880  1.00  0.00    -0.025 A 
ATOM      9  C   UNL A   1      30.729  24.315  24.890  1.00  0.00     0.052 A 
ATOM     10  C   UNL A   1      31.651  24.984  22.762  1.00  0.00     0.045 A 
ATOM     11  C   UNL A   1      31.453  23.131  24.823  1.00  0.00     0.128 A 
ATOM     12  C   UNL A   1      32.343  23.768  22.682  1.00  0.00     0.032 A 
ATOM     13  Cl  UNL A   1      31.850  26.091  21.452  1.00  0.00    -0.084 Cl
ATOM     14  C   UNL A   1      32.268  22.849  23.728  1.00  0.00     0.019 A 
ATOM     15  O   UNL A   1      31.332  22.271  25.878  1.00  0.00    -0.475 OA
ATOM     16  C   UNL A   1      33.026  21.603  23.717  1.00  0.00     0.025 C 
ATOM     17  C   UNL A   1      32.512  21.456  26.124  1.00  0.00     0.314 C 
BRANCH   8  18
ATOM     18  C   UNL A   1      30.174  26.619  24.098  1.00  0.00     0.040 C 
BRANCH  18  19
ATOM     19  C   UNL A   1      31.171  27.741  24.473  1.00  0.00    -0.013 C 
ATOM     20  C   UNL A   1      30.693  29.121  24.013  1.00  0.00     0.008 C 
ATOM     21  C   UNL A   1      31.409  27.749  25.983  1.00  0.00     0.008 C 
ENDBRANCH  18  19
ENDBRANCH   8  18
BRANCH  17  22
ATOM     22  C   UNL A   1      33.494  22.223  27.035  1.00  0.00     0.429 C 
ATOM     23  F   UNL A   1      32.811  22.939  27.964  1.00  0.00    -0.167 F 
ATOM     24  F   UNL A   1      34.319  21.395  27.720  1.00  0.00    -0.167 F 
ATOM     25  F   UNL A   1      34.283  23.085  26.359  1.00  0.00    -0.167 F 
ENDBRANCH  17  22
ENDBRANCH   4   7
ENDBRANCH   2   3
ENDBRANCH   1   2
BRANCH   1  26
ATOM     26  C   UNL A   1      38.879  20.485  25.741  1.00  0.00     0.118 C 
BRANCH  26  27
ATOM     27  N   UNL A   1      39.914  19.462  25.880  1.00  0.00    -0.352 N 
ATOM     28  C   UNL A   1      41.252  19.582  26.167  1.00  0.00     0.251 C 
ATOM     29  H   UNL A   1      39.601  18.538  25.745  1.00  0.00     0.163 HD
ATOM     30  O   UNL A   1      41.996  18.614  26.038  1.00  0.00    -0.269 OA
BRANCH  28  31
ATOM     31  C   UNL A   1      41.798  20.880  26.607  1.00  0.00     0.039 A 
ATOM     32  C   UNL A   1      41.746  21.243  27.952  1.00  0.00     0.014 A 
ATOM     33  C   UNL A   1      42.357  21.749  25.665  1.00  0.00     0.014 A 
ATOM     34  C   UNL A   1      42.051  22.544  28.320  1.00  0.00     0.010 A 
ATOM     35  C   UNL A   1      42.776  23.022  26.063  1.00  0.00     0.010 A 
ATOM     36  C   UNL A   1      42.572  23.450  27.382  1.00  0.00    -0.014 A 
BRANCH  36  37
ATOM     37  C   UNL A   1      42.896  24.829  27.826  1.00  0.00     0.031 A 
ATOM     38  C   UNL A   1      41.811  25.824  28.125  1.00  0.00     0.074 A 
ATOM     39  C   UNL A   1      44.187  25.152  28.038  1.00  0.00     0.049 A 
ATOM     40  N   UNL A   1      41.922  27.039  28.602  1.00  0.00    -0.248 NA
ATOM     41  C   UNL A   1      40.423  25.415  27.853  1.00  0.00     0.031 C 
ATOM     42  C   UNL A   1      45.326  24.264  27.790  1.00  0.00     0.029 A 
ATOM     43  N   UNL A   1      44.757  26.287  28.556  1.00  0.00    -0.354 N 
ATOM     44  C   UNL A   1      40.631  27.549  28.651  1.00  0.00     0.074 A 
ATOM     45  C   UNL A   1      39.751  26.521  28.141  1.00  0.00     0.031 C 
ATOM     46  C   UNL A   1      46.444  24.851  28.238  1.00  0.00     0.029 A 
ATOM     47  C   UNL A   1      46.115  26.183  28.731  1.00  0.00     0.049 A 
ATOM     48  H   UNL A   1      44.242  27.096  28.780  1.00  0.00     0.167 HD
ATOM     49  C   UNL A   1      40.217  28.762  29.088  1.00  0.00     0.031 A 
ATOM     50  C   UNL A   1      47.007  27.060  29.229  1.00  0.00     0.031 A 
ATOM     51  C   UNL A   1      41.096  29.771  29.619  1.00  0.00     0.049 A 
ATOM     52  C   UNL A   1      46.528  28.400  29.699  1.00  0.00     0.074 A 
ATOM     53  C   UNL A   1      40.764  31.015  30.126  1.00  0.00     0.029 A 
ATOM     54  N   UNL A   1      42.474  29.653  29.713  1.00  0.00    -0.354 N 
ATOM     55  N   UNL A   1      45.301  28.860  29.749  1.00  0.00    -0.248 NA
ATOM     56  C   UNL A   1      47.549  29.344  30.168  1.00  0.00     0.031 C 
ATOM     57  C   UNL A   1      41.947  31.674  30.470  1.00  0.00     0.029 A 
ATOM     58  C   UNL A   1      43.011  30.815  30.239  1.00  0.00     0.049 A 
ATOM     59  H   UNL A   1      42.993  28.861  29.445  1.00  0.00     0.167 HD
ATOM     60  C   UNL A   1      45.400  30.147  30.258  1.00  0.00     0.074 A 
ATOM     61  C   UNL A   1      46.806  30.385  30.521  1.00  0.00     0.031 C 
ATOM     62  C   UNL A   1      44.413  31.047  30.480  1.00  0.00     0.031 A 
BRANCH  49  63
ATOM     63  C   UNL A   1      38.752  29.087  28.985  1.00  0.00    -0.014 A 
ATOM     64  C   UNL A   1      38.247  29.624  27.790  1.00  0.00     0.009 A 
ATOM     65  C   UNL A   1      37.886  28.931  30.077  1.00  0.00     0.009 A 
ATOM     66  C   UNL A   1      36.907  30.003  27.691  1.00  0.00     0.001 A 
ATOM     67  C   UNL A   1      36.539  29.284  29.967  1.00  0.00     0.001 A 
ATOM     68  C   UNL A   1      36.052  29.826  28.777  1.00  0.00     0.000 A 
ENDBRANCH  49  63
BRANCH  50  69
ATOM     69  C   UNL A   1      48.435  26.662  29.307  1.00  0.00    -0.014 A 
ATOM     70  C   UNL A   1      49.297  26.887  28.220  1.00  0.00     0.009 A 
ATOM     71  C   UNL A   1      48.918  25.959  30.421  1.00  0.00     0.009 A 
ATOM     72  C   UNL A   1      50.597  26.381  28.227  1.00  0.00     0.001 A 
ATOM     73  C   UNL A   1      50.230  25.479  30.438  1.00  0.00     0.001 A 
ATOM     74  C   UNL A   1      51.062  25.677  29.336  1.00  0.00     0.000 A 
ENDBRANCH  50  69
BRANCH  62  75
ATOM     75  C   UNL A   1      44.805  32.389  31.031  1.00  0.00    -0.014 A 
ATOM     76  C   UNL A   1      44.818  32.596  32.419  1.00  0.00     0.009 A 
ATOM     77  C   UNL A   1      45.063  33.472  30.177  1.00  0.00     0.009 A 
ATOM     78  C   UNL A   1      45.064  33.866  32.943  1.00  0.00     0.001 A 
ATOM     79  C   UNL A   1      45.336  34.734  30.705  1.00  0.00     0.001 A 
ATOM     80  C   UNL A   1      45.328  34.933  32.085  1.00  0.00     0.000 A 
ENDBRANCH  62  75
ENDBRANCH  36  37
ENDBRANCH  28  31
ENDBRANCH  26  27
ENDBRANCH   1  26
TORSDOF 13
ENDMDL
MODEL 3
REMARK VINA RESULT:     -12.0      5.376     10.164
REMARK SMILES CC(C)Cc1cc2c(cc1Cl)C=C(C(=O)NCCCNC(=O)c1ccc(-c3c4nc(c(-c5ccccc5)c5ccc([nH]5)c(-c5ccccc5)c5nc(c(-c6ccccc6)c6ccc3[nH]6)C=C5)C=C4)cc1)[C@@H](C(F)(F)F)O2
REMARK SMILES IDX 18 1 17 2 16 3 14 4 15 5 13 7 5 8 6 9 10 10 7 11 9 12 11 13
REMARK SMILES IDX 8 14 76 15 12 16 71 17 4 18 2 19 1 20 3 21 72 22 73 23 74 24
REMARK SMILES IDX 75 25 19 26 20 27 21 28 22 30 23 31 24 32 70 33 25 34 69 35
REMARK SMILES IDX 26 36 27 37 28 38 63 39 29 40 68 41 62 42 64 43 30 44 67 45
REMARK SMILES IDX 61 46 60 47 31 49 53 50 38 51 52 52 39 53 42 54 51 55 65 56
REMARK SMILES IDX 40 57 41 58 50 60 66 61 43 62 32 63 33 64 37 65 34 66 36 67
REMARK SMILES IDX 35 68 54 69 55 70 59 71 56 72 58 73 57 74 44 75 45 76 49 77
REMARK SMILES IDX 46 78 48 79 47 80
REMARK H PARENT 16 6 20 29 64 48 42 59
REMARK Flexibility Score: inf
ROOT
ATOM      1  C   UNL A   1      31.463  31.994  26.641  1.00  0.00     0.042 C 
ENDROOT
BRANCH   1   2
ATOM      2  C   UNL A   1      31.718  30.520  26.362  1.00  0.00     0.118 C 
BRANCH   2   3
ATOM      3  N   UNL A   1      31.276  30.136  25.032  1.00  0.00    -0.352 N 
ATOM      4  C   UNL A   1      31.150  28.991  24.322  1.00  0.00     0.251 C 
ATOM      5  O   UNL A   1      30.731  29.132  23.169  1.00  0.00    -0.270 OA
ATOM      6  H   UNL A   1      30.992  30.918  24.506  1.00  0.00     0.163 HD
BRANCH   4   7
ATOM      7  C   UNL A   1      31.473  27.627  24.829  1.00  0.00     0.067 C 
ATOM      8  C   UNL A   1      33.774  23.375  26.215  1.00  0.00    -0.025 A 
ATOM      9  C   UNL A   1      32.476  23.887  26.378  1.00  0.00     0.052 A 
ATOM     10  C   UNL A   1      34.771  24.231  25.715  1.00  0.00     0.045 A 
ATOM     11  C   UNL A   1      32.172  25.180  25.968  1.00  0.00     0.128 A 
ATOM     12  C   UNL A   1      34.465  25.548  25.345  1.00  0.00     0.032 A 
ATOM     13  Cl  UNL A   1      36.404  23.712  25.500  1.00  0.00    -0.084 Cl
ATOM     14  C   UNL A   1      33.156  26.017  25.445  1.00  0.00     0.019 A 
ATOM     15  O   UNL A   1      30.871  25.580  26.097  1.00  0.00    -0.475 OA
ATOM     16  C   UNL A   1      32.780  27.357  25.007  1.00  0.00     0.025 C 
ATOM     17  C   UNL A   1      30.448  26.563  25.111  1.00  0.00     0.314 C 
BRANCH   8  18
ATOM     18  C   UNL A   1      33.996  21.909  26.519  1.00  0.00     0.040 C 
BRANCH  18  19
ATOM     19  C   UNL A   1      33.991  21.028  25.248  1.00  0.00    -0.013 C 
ATOM     20  C   UNL A   1      35.345  20.358  25.001  1.00  0.00     0.008 C 
ATOM     21  C   UNL A   1      32.895  19.967  25.349  1.00  0.00     0.008 C 
ENDBRANCH  18  19
ENDBRANCH   8  18
BRANCH  17  22
ATOM     22  C   UNL A   1      29.960  25.845  23.835  1.00  0.00     0.429 C 
ATOM     23  F   UNL A   1      28.717  26.274  23.501  1.00  0.00    -0.167 F 
ATOM     24  F   UNL A   1      30.753  26.094  22.765  1.00  0.00    -0.167 F 
ATOM     25  F   UNL A   1      29.903  24.502  23.971  1.00  0.00    -0.167 F 
ENDBRANCH  17  22
ENDBRANCH   4   7
ENDBRANCH   2   3
ENDBRANCH   1   2
BRANCH   1  26
ATOM     26  C   UNL A   1      32.677  32.686  27.246  1.00  0.00     0.118 C 
BRANCH  26  27
ATOM     27  N   UNL A   1      32.397  34.074  27.612  1.00  0.00    -0.352 N 
ATOM     28  C   UNL A   1      32.965  34.872  28.575  1.00  0.00     0.251 C 
ATOM     29  H   UNL A   1      31.688  34.505  27.082  1.00  0.00     0.163 HD
ATOM     30  O   UNL A   1      32.448  35.948  28.862  1.00  0.00    -0.269 OA
BRANCH  28  31
ATOM     31  C   UNL A   1      34.180  34.424  29.282  1.00  0.00     0.039 A 
ATOM     32  C   UNL A   1      35.439  34.655  28.728  1.00  0.00     0.014 A 
ATOM     33  C   UNL A   1      34.062  33.756  30.504  1.00  0.00     0.014 A 
ATOM     34  C   UNL A   1      36.551  34.038  29.279  1.00  0.00     0.010 A 
ATOM     35  C   UNL A   1      35.203  33.236  31.121  1.00  0.00     0.010 A 
ATOM     36  C   UNL A   1      36.449  33.322  30.483  1.00  0.00    -0.014 A 
BRANCH  36  37
ATOM     37  C   UNL A   1      37.670  32.691  31.043  1.00  0.00     0.031 A 
ATOM     38  C   UNL A   1      38.232  33.125  32.368  1.00  0.00     0.074 A 
ATOM     39  C   UNL A   1      38.225  31.657  30.380  1.00  0.00     0.049 A 
ATOM     40  N   UNL A   1      39.239  32.620  33.035  1.00  0.00    -0.248 NA
ATOM     41  C   UNL A   1      37.592  34.273  33.030  1.00  0.00     0.031 C 
ATOM     42  C   UNL A   1      37.760  31.142  29.089  1.00  0.00     0.029 A 
ATOM     43  N   UNL A   1      39.259  30.823  30.717  1.00  0.00    -0.354 N 
ATOM     44  C   UNL A   1      39.376  33.408  34.172  1.00  0.00     0.074 A 
ATOM     45  C   UNL A   1      38.361  34.435  34.098  1.00  0.00     0.031 C 
ATOM     46  C   UNL A   1      38.445  30.031  28.789  1.00  0.00     0.029 A 
ATOM     47  C   UNL A   1      39.447  29.799  29.822  1.00  0.00     0.049 A 
ATOM     48  H   UNL A   1      39.812  30.946  31.523  1.00  0.00     0.167 HD
ATOM     49  C   UNL A   1      40.264  33.281  35.186  1.00  0.00     0.031 A 
ATOM     50  C   UNL A   1      40.329  28.781  29.823  1.00  0.00     0.031 A 
ATOM     51  C   UNL A   1      41.254  32.239  35.266  1.00  0.00     0.049 A 
ATOM     52  C   UNL A   1      41.308  28.665  30.951  1.00  0.00     0.074 A 
ATOM     53  C   UNL A   1      42.171  32.004  36.275  1.00  0.00     0.029 A 
ATOM     54  N   UNL A   1      41.459  31.263  34.302  1.00  0.00    -0.354 N 
ATOM     55  N   UNL A   1      41.414  29.412  32.024  1.00  0.00    -0.248 NA
ATOM     56  C   UNL A   1      42.293  27.580  30.868  1.00  0.00     0.031 C 
ATOM     57  C   UNL A   1      42.968  30.922  35.895  1.00  0.00     0.029 A 
ATOM     58  C   UNL A   1      42.508  30.443  34.679  1.00  0.00     0.049 A 
ATOM     59  H   UNL A   1      40.935  31.168  33.474  1.00  0.00     0.167 HD
ATOM     60  C   UNL A   1      42.476  28.887  32.747  1.00  0.00     0.074 A 
ATOM     61  C   UNL A   1      42.965  27.744  32.001  1.00  0.00     0.031 C 
ATOM     62  C   UNL A   1      42.997  29.320  33.919  1.00  0.00     0.031 A 
BRANCH  49  63
ATOM     63  C   UNL A   1      40.232  34.308  36.284  1.00  0.00    -0.014 A 
ATOM     64  C   UNL A   1      39.387  34.112  37.388  1.00  0.00     0.009 A 
ATOM     65  C   UNL A   1      40.975  35.496  36.203  1.00  0.00     0.009 A 
ATOM     66  C   UNL A   1      39.283  35.082  38.385  1.00  0.00     0.001 A 
ATOM     67  C   UNL A   1      40.891  36.453  37.216  1.00  0.00     0.001 A 
ATOM     68  C   UNL A   1      40.040  36.250  38.302  1.00  0.00     0.000 A 
ENDBRANCH  49  63
BRANCH  50  69
ATOM     69  C   UNL A   1      40.291  27.801  28.708  1.00  0.00    -0.014 A 
ATOM     70  C   UNL A   1      39.598  26.587  28.851  1.00  0.00     0.009 A 
ATOM     71  C   UNL A   1      41.036  28.024  27.540  1.00  0.00     0.009 A 
ATOM     72  C   UNL A   1      39.685  25.600  27.869  1.00  0.00     0.001 A 
ATOM     73  C   UNL A   1      41.096  27.045  26.545  1.00  0.00     0.001 A 
ATOM     74  C   UNL A   1      40.434  25.829  26.717  1.00  0.00     0.000 A 
ENDBRANCH  50  69
BRANCH  62  75
ATOM     75  C   UNL A   1      44.168  28.565  34.481  1.00  0.00    -0.014 A 
ATOM     76  C   UNL A   1      43.951  27.503  35.372  1.00  0.00     0.009 A 
ATOM     77  C   UNL A   1      45.484  28.969  34.209  1.00  0.00     0.009 A 
ATOM     78  C   UNL A   1      45.028  26.869  35.994  1.00  0.00     0.001 A 
ATOM     79  C   UNL A   1      46.560  28.316  34.811  1.00  0.00     0.001 A 
ATOM     80  C   UNL A   1      46.331  27.273  35.709  1.00  0.00     0.000 A 
ENDBRANCH  62  75
ENDBRANCH  36  37
ENDBRANCH  28  31
ENDBRANCH  26  27
ENDBRANCH   1  26
TORSDOF 13
ENDMDL
