MODEL 1
REMARK VINA RESULT:     -12.9      0.000      0.000
REMARK SMILES O=C(NCCCNC(=O)c1cc(N2CCN(c3ccc(F)cc3)CC2)ccc1NC(=O)C1CCCC1)c1ccc(-c2c3nc(c(-c4ccccc4)c4ccc([nH]4)c(-c4ccccc4)c4nc(c(-c5ccccc5)c5ccc2[nH]5)C=C4)C=C3)cc1
REMARK SMILES IDX 5 1 4 2 3 3 1 4 2 5 37 7 38 8 84 9 39 10 83 11 40 12 41 13
REMARK SMILES IDX 42 14 77 15 43 16 82 17 76 18 78 19 44 20 81 21 75 22 74 23
REMARK SMILES IDX 45 25 67 26 52 27 66 28 53 29 56 30 65 31 79 32 54 33 55 34
REMARK SMILES IDX 64 36 80 37 57 38 46 39 47 40 51 41 48 42 50 43 49 44 68 45
REMARK SMILES IDX 69 46 73 47 70 48 72 49 71 50 58 51 59 52 63 53 60 54 62 55
REMARK SMILES IDX 61 56 6 57 7 58 8 59 9 61 10 62 11 63 28 64 12 65 27 66
REMARK SMILES IDX 26 67 29 68 30 69 31 71 32 72 33 73 36 74 34 75 35 76 13 77
REMARK SMILES IDX 14 78 25 79 15 80 24 81 16 82 17 83 18 84 23 85 19 86 22 87
REMARK SMILES IDX 20 88 21 89
REMARK H PARENT 3 6 78 24 56 35 7 60 29 70
REMARK Flexibility Score: inf
ROOT
ATOM      1  C   UNL A   1      37.097  20.224  24.832  1.00  0.00     0.042 C 
ENDROOT
BRANCH   1   2
ATOM      2  C   UNL A   1      38.365  20.770  25.465  1.00  0.00     0.118 C 
BRANCH   2   3
ATOM      3  N   UNL A   1      39.416  19.769  25.613  1.00  0.00    -0.352 N 
ATOM      4  O   UNL A   1      41.471  18.916  25.950  1.00  0.00    -0.269 OA
ATOM      5  C   UNL A   1      40.716  19.875  26.051  1.00  0.00     0.251 C 
ATOM      6  H   UNL A   1      39.147  18.858  25.353  1.00  0.00     0.163 HD
BRANCH   5   7
ATOM      7  C   UNL A   1      41.222  21.148  26.611  1.00  0.00     0.039 A 
ATOM      8  C   UNL A   1      41.248  21.365  27.985  1.00  0.00     0.014 A 
ATOM      9  C   UNL A   1      41.704  22.138  25.748  1.00  0.00     0.014 A 
ATOM     10  C   UNL A   1      41.534  22.628  28.481  1.00  0.00     0.010 A 
ATOM     11  C   UNL A   1      42.129  23.370  26.262  1.00  0.00     0.010 A 
ATOM     12  C   UNL A   1      42.006  23.641  27.631  1.00  0.00    -0.014 A 
BRANCH  12  13
ATOM     13  C   UNL A   1      42.416  24.934  28.239  1.00  0.00     0.031 A 
ATOM     14  C   UNL A   1      43.861  25.276  28.473  1.00  0.00     0.074 A 
ATOM     15  C   UNL A   1      41.456  25.846  28.497  1.00  0.00     0.049 A 
ATOM     16  N   UNL A   1      44.378  26.406  28.891  1.00  0.00    -0.248 NA
ATOM     17  C   UNL A   1      44.856  24.224  28.216  1.00  0.00     0.031 C 
ATOM     18  C   UNL A   1      40.016  25.625  28.329  1.00  0.00     0.029 A 
ATOM     19  N   UNL A   1      41.543  27.153  28.901  1.00  0.00    -0.354 N 
ATOM     20  C   UNL A   1      45.748  26.196  28.964  1.00  0.00     0.074 A 
ATOM     21  C   UNL A   1      45.985  24.824  28.572  1.00  0.00     0.031 C 
ATOM     22  C   UNL A   1      39.365  26.777  28.537  1.00  0.00     0.029 A 
ATOM     23  C   UNL A   1      40.329  27.798  28.928  1.00  0.00     0.049 A 
ATOM     24  H   UNL A   1      42.391  27.588  29.147  1.00  0.00     0.167 HD
ATOM     25  C   UNL A   1      46.722  27.070  29.320  1.00  0.00     0.031 A 
ATOM     26  C   UNL A   1      40.016  29.068  29.238  1.00  0.00     0.031 A 
ATOM     27  C   UNL A   1      46.486  28.436  29.709  1.00  0.00     0.049 A 
ATOM     28  C   UNL A   1      41.115  30.011  29.623  1.00  0.00     0.074 A 
ATOM     29  C   UNL A   1      47.409  29.397  30.087  1.00  0.00     0.029 A 
ATOM     30  N   UNL A   1      45.238  29.037  29.766  1.00  0.00    -0.354 N 
ATOM     31  N   UNL A   1      42.406  29.793  29.675  1.00  0.00    -0.248 NA
ATOM     32  C   UNL A   1      40.712  31.373  29.995  1.00  0.00     0.031 C 
ATOM     33  C   UNL A   1      46.715  30.569  30.408  1.00  0.00     0.029 A 
ATOM     34  C   UNL A   1      45.365  30.351  30.184  1.00  0.00     0.049 A 
ATOM     35  H   UNL A   1      44.387  28.595  29.543  1.00  0.00     0.167 HD
ATOM     36  C   UNL A   1      42.972  30.990  30.088  1.00  0.00     0.074 A 
ATOM     37  C   UNL A   1      41.887  31.939  30.234  1.00  0.00     0.031 C 
ATOM     38  C   UNL A   1      44.273  31.275  30.338  1.00  0.00     0.031 A 
BRANCH  25  39
ATOM     39  C   UNL A   1      48.139  26.568  29.321  1.00  0.00    -0.014 A 
ATOM     40  C   UNL A   1      48.693  25.956  30.457  1.00  0.00     0.009 A 
ATOM     41  C   UNL A   1      48.914  26.659  28.154  1.00  0.00     0.009 A 
ATOM     42  C   UNL A   1      50.001  25.467  30.430  1.00  0.00     0.001 A 
ATOM     43  C   UNL A   1      50.214  26.148  28.123  1.00  0.00     0.001 A 
ATOM     44  C   UNL A   1      50.758  25.558  29.263  1.00  0.00     0.000 A 
ENDBRANCH  25  39
BRANCH  26  45
ATOM     45  C   UNL A   1      38.597  29.507  29.215  1.00  0.00    -0.014 A 
ATOM     46  C   UNL A   1      38.018  30.011  28.041  1.00  0.00     0.009 A 
ATOM     47  C   UNL A   1      37.810  29.407  30.374  1.00  0.00     0.009 A 
ATOM     48  C   UNL A   1      36.684  30.426  28.036  1.00  0.00     0.001 A 
ATOM     49  C   UNL A   1      36.469  29.790  30.356  1.00  0.00     0.001 A 
ATOM     50  C   UNL A   1      35.910  30.309  29.190  1.00  0.00     0.000 A 
ENDBRANCH  26  45
BRANCH  38  51
ATOM     51  C   UNL A   1      44.579  32.674  30.786  1.00  0.00    -0.014 A 
ATOM     52  C   UNL A   1      44.860  33.686  29.854  1.00  0.00     0.009 A 
ATOM     53  C   UNL A   1      44.588  32.983  32.154  1.00  0.00     0.009 A 
ATOM     54  C   UNL A   1      45.183  34.973  30.288  1.00  0.00     0.001 A 
ATOM     55  C   UNL A   1      44.885  34.277  32.583  1.00  0.00     0.001 A 
ATOM     56  C   UNL A   1      45.193  35.267  31.650  1.00  0.00     0.000 A 
ENDBRANCH  38  51
ENDBRANCH  12  13
ENDBRANCH   5   7
ENDBRANCH   2   3
ENDBRANCH   1   2
BRANCH   1  57
ATOM     57  C   UNL A   1      35.912  21.169  24.925  1.00  0.00     0.118 C 
BRANCH  57  58
ATOM     58  N   UNL A   1      35.582  21.527  26.301  1.00  0.00    -0.352 N 
ATOM     59  C   UNL A   1      34.511  22.212  26.821  1.00  0.00     0.253 C 
ATOM     60  H   UNL A   1      36.239  21.228  26.970  1.00  0.00     0.163 HD
ATOM     61  O   UNL A   1      34.547  22.574  27.993  1.00  0.00    -0.269 OA
BRANCH  59  62
ATOM     62  C   UNL A   1      33.319  22.504  25.990  1.00  0.00     0.065 A 
ATOM     63  C   UNL A   1      33.086  23.862  25.702  1.00  0.00     0.042 A 
ATOM     64  C   UNL A   1      32.402  21.509  25.586  1.00  0.00     0.054 A 
ATOM     65  C   UNL A   1      31.974  24.255  24.962  1.00  0.00     0.038 A 
ATOM     66  C   UNL A   1      31.397  21.899  24.705  1.00  0.00     0.029 A 
ATOM     67  C   UNL A   1      31.185  23.251  24.406  1.00  0.00     0.028 A 
BRANCH  64  68
ATOM     68  N   UNL A   1      32.537  20.208  26.125  1.00  0.00    -0.325 N 
ATOM     69  C   UNL A   1      32.906  18.979  25.674  1.00  0.00     0.227 C 
ATOM     70  H   UNL A   1      32.301  20.186  27.080  1.00  0.00     0.169 HD
ATOM     71  O   UNL A   1      32.912  18.065  26.506  1.00  0.00    -0.274 OA
BRANCH  69  72
ATOM     72  C   UNL A   1      33.322  18.735  24.246  1.00  0.00     0.079 C 
ATOM     73  C   UNL A   1      34.068  17.411  24.093  1.00  0.00     0.013 C 
ATOM     74  C   UNL A   1      32.154  18.535  23.283  1.00  0.00     0.013 C 
ATOM     75  C   UNL A   1      34.018  17.129  22.594  1.00  0.00     0.001 C 
ATOM     76  C   UNL A   1      32.825  17.922  22.059  1.00  0.00     0.001 C 
ENDBRANCH  69  72
ENDBRANCH  64  68
BRANCH  65  77
ATOM     77  N   UNL A   1      31.637  25.586  24.870  1.00  0.00    -0.368 N 
ATOM     78  C   UNL A   1      32.077  26.399  23.724  1.00  0.00     0.138 C 
ATOM     79  C   UNL A   1      30.428  26.065  25.566  1.00  0.00     0.138 C 
ATOM     80  C   UNL A   1      30.908  26.660  22.736  1.00  0.00     0.138 C 
ATOM     81  C   UNL A   1      29.270  26.328  24.584  1.00  0.00     0.138 C 
ATOM     82  N   UNL A   1      29.707  27.152  23.445  1.00  0.00    -0.368 N 
BRANCH  82  83
ATOM     83  C   UNL A   1      29.327  28.473  23.328  1.00  0.00     0.037 A 
ATOM     84  C   UNL A   1      28.130  28.806  22.674  1.00  0.00     0.029 A 
ATOM     85  C   UNL A   1      30.083  29.523  23.873  1.00  0.00     0.029 A 
ATOM     86  C   UNL A   1      27.693  30.130  22.583  1.00  0.00     0.041 A 
ATOM     87  C   UNL A   1      29.661  30.853  23.772  1.00  0.00     0.041 A 
ATOM     88  C   UNL A   1      28.465  31.143  23.133  1.00  0.00     0.123 A 
ATOM     89  F   UNL A   1      28.051  32.413  23.050  1.00  0.00    -0.207 F 
ENDBRANCH  82  83
ENDBRANCH  65  77
ENDBRANCH  59  62
ENDBRANCH  57  58
ENDBRANCH   1  57
TORSDOF 14
ENDMDL
MODEL 2
REMARK VINA RESULT:     -12.8      0.581      5.633
REMARK SMILES O=C(NCCCNC(=O)c1cc(N2CCN(c3ccc(F)cc3)CC2)ccc1NC(=O)C1CCCC1)c1ccc(-c2c3nc(c(-c4ccccc4)c4ccc([nH]4)c(-c4ccccc4)c4nc(c(-c5ccccc5)c5ccc2[nH]5)C=C4)C=C3)cc1
REMARK SMILES IDX 5 1 4 2 3 3 1 4 2 5 37 7 38 8 84 9 39 10 83 11 40 12 41 13
REMARK SMILES IDX 42 14 77 15 43 16 82 17 76 18 78 19 44 20 81 21 75 22 74 23
REMARK SMILES IDX 45 25 67 26 52 27 66 28 53 29 56 30 65 31 79 32 54 33 55 34
REMARK SMILES IDX 64 36 80 37 57 38 46 39 47 40 51 41 48 42 50 43 49 44 68 45
REMARK SMILES IDX 69 46 73 47 70 48 72 49 71 50 58 51 59 52 63 53 60 54 62 55
REMARK SMILES IDX 61 56 6 57 7 58 8 59 9 61 10 62 11 63 28 64 12 65 27 66
REMARK SMILES IDX 26 67 29 68 30 69 31 71 32 72 33 73 36 74 34 75 35 76 13 77
REMARK SMILES IDX 14 78 25 79 15 80 24 81 16 82 17 83 18 84 23 85 19 86 22 87
REMARK SMILES IDX 20 88 21 89
REMARK H PARENT 3 6 78 24 56 35 7 60 29 70
REMARK Flexibility Score: inf
ROOT
ATOM      1  C   UNL A   1      37.113  20.128  25.033  1.00  0.00     0.042 C 
ENDROOT
BRANCH   1   2
ATOM      2  C   UNL A   1      38.477  20.729  25.325  1.00  0.00     0.118 C 
BRANCH   2   3
ATOM      3  N   UNL A   1      39.511  19.729  25.566  1.00  0.00    -0.352 N 
ATOM      4  O   UNL A   1      41.542  18.879  26.032  1.00  0.00    -0.269 OA
ATOM      5  C   UNL A   1      40.793  19.847  26.055  1.00  0.00     0.251 C 
ATOM      6  H   UNL A   1      39.245  18.808  25.338  1.00  0.00     0.163 HD
BRANCH   5   7
ATOM      7  C   UNL A   1      41.286  21.142  26.575  1.00  0.00     0.039 A 
ATOM      8  C   UNL A   1      41.187  21.453  27.927  1.00  0.00     0.014 A 
ATOM      9  C   UNL A   1      41.881  22.055  25.698  1.00  0.00     0.014 A 
ATOM     10  C   UNL A   1      41.468  22.739  28.363  1.00  0.00     0.010 A 
ATOM     11  C   UNL A   1      42.297  23.308  26.167  1.00  0.00     0.010 A 
ATOM     12  C   UNL A   1      42.053  23.677  27.497  1.00  0.00    -0.014 A 
BRANCH  12  13
ATOM     13  C   UNL A   1      42.446  24.998  28.054  1.00  0.00     0.031 A 
ATOM     14  C   UNL A   1      41.432  26.070  28.338  1.00  0.00     0.074 A 
ATOM     15  C   UNL A   1      43.739  25.186  28.390  1.00  0.00     0.049 A 
ATOM     16  N   UNL A   1      41.608  27.229  28.927  1.00  0.00    -0.248 NA
ATOM     17  C   UNL A   1      40.047  25.825  27.908  1.00  0.00     0.031 C 
ATOM     18  C   UNL A   1      44.821  24.226  28.146  1.00  0.00     0.029 A 
ATOM     19  N   UNL A   1      44.356  26.215  29.053  1.00  0.00    -0.354 N 
ATOM     20  C   UNL A   1      40.369  27.854  28.919  1.00  0.00     0.074 A 
ATOM     21  C   UNL A   1      39.450  26.961  28.247  1.00  0.00     0.031 C 
ATOM     22  C   UNL A   1      45.943  24.667  28.730  1.00  0.00     0.029 A 
ATOM     23  C   UNL A   1      45.682  25.973  29.322  1.00  0.00     0.049 A 
ATOM     24  H   UNL A   1      43.895  27.045  29.311  1.00  0.00     0.167 HD
ATOM     25  C   UNL A   1      40.024  29.061  29.432  1.00  0.00     0.031 A 
ATOM     26  C   UNL A   1      46.596  26.718  29.968  1.00  0.00     0.031 A 
ATOM     27  C   UNL A   1      40.938  29.950  30.101  1.00  0.00     0.049 A 
ATOM     28  C   UNL A   1      46.185  28.046  30.527  1.00  0.00     0.074 A 
ATOM     29  C   UNL A   1      40.683  31.194  30.654  1.00  0.00     0.029 A 
ATOM     30  N   UNL A   1      42.283  29.688  30.314  1.00  0.00    -0.354 N 
ATOM     31  N   UNL A   1      45.003  28.612  30.518  1.00  0.00    -0.248 NA
ATOM     32  C   UNL A   1      47.235  28.837  31.182  1.00  0.00     0.031 C 
ATOM     33  C   UNL A   1      41.882  31.701  31.168  1.00  0.00     0.029 A 
ATOM     34  C   UNL A   1      42.873  30.751  30.978  1.00  0.00     0.049 A 
ATOM     35  H   UNL A   1      42.749  28.867  30.034  1.00  0.00     0.167 HD
ATOM     36  C   UNL A   1      45.166  29.829  31.163  1.00  0.00     0.074 A 
ATOM     37  C   UNL A   1      46.551  29.899  31.585  1.00  0.00     0.031 C 
ATOM     38  C   UNL A   1      44.254  30.808  31.376  1.00  0.00     0.031 A 
BRANCH  25  39
ATOM     39  C   UNL A   1      38.596  29.502  29.273  1.00  0.00    -0.014 A 
ATOM     40  C   UNL A   1      38.140  30.073  28.075  1.00  0.00     0.009 A 
ATOM     41  C   UNL A   1      37.680  29.295  30.317  1.00  0.00     0.009 A 
ATOM     42  C   UNL A   1      36.802  30.449  27.933  1.00  0.00     0.001 A 
ATOM     43  C   UNL A   1      36.338  29.649  30.165  1.00  0.00     0.001 A 
ATOM     44  C   UNL A   1      35.901  30.232  28.975  1.00  0.00     0.000 A 
ENDBRANCH  25  39
BRANCH  26  45
ATOM     45  C   UNL A   1      47.992  26.228  30.096  1.00  0.00    -0.014 A 
ATOM     46  C   UNL A   1      48.912  26.390  29.049  1.00  0.00     0.009 A 
ATOM     47  C   UNL A   1      48.414  25.605  31.281  1.00  0.00     0.009 A 
ATOM     48  C   UNL A   1      50.220  25.918  29.181  1.00  0.00     0.001 A 
ATOM     49  C   UNL A   1      49.730  25.164  31.422  1.00  0.00     0.001 A 
ATOM     50  C   UNL A   1      50.629  25.312  30.368  1.00  0.00     0.000 A 
ENDBRANCH  26  45
BRANCH  38  51
ATOM     51  C   UNL A   1      44.737  32.028  32.105  1.00  0.00    -0.014 A 
ATOM     52  C   UNL A   1      44.676  32.104  33.505  1.00  0.00     0.009 A 
ATOM     53  C   UNL A   1      45.258  33.112  31.384  1.00  0.00     0.009 A 
ATOM     54  C   UNL A   1      45.090  33.261  34.166  1.00  0.00     0.001 A 
ATOM     55  C   UNL A   1      45.697  34.257  32.050  1.00  0.00     0.001 A 
ATOM     56  C   UNL A   1      45.602  34.334  33.438  1.00  0.00     0.000 A 
ENDBRANCH  38  51
ENDBRANCH  12  13
ENDBRANCH   5   7
ENDBRANCH   2   3
ENDBRANCH   1   2
BRANCH   1  57
ATOM     57  C   UNL A   1      35.981  21.139  25.061  1.00  0.00     0.118 C 
BRANCH  57  58
ATOM     58  N   UNL A   1      35.583  21.504  26.417  1.00  0.00    -0.352 N 
ATOM     59  C   UNL A   1      34.487  22.189  26.880  1.00  0.00     0.253 C 
ATOM     60  H   UNL A   1      36.206  21.208  27.120  1.00  0.00     0.163 HD
ATOM     61  O   UNL A   1      34.464  22.557  28.051  1.00  0.00    -0.269 OA
BRANCH  59  62
ATOM     62  C   UNL A   1      33.337  22.477  25.990  1.00  0.00     0.065 A 
ATOM     63  C   UNL A   1      33.109  23.834  25.696  1.00  0.00     0.042 A 
ATOM     64  C   UNL A   1      32.450  21.477  25.533  1.00  0.00     0.054 A 
ATOM     65  C   UNL A   1      32.034  24.223  24.900  1.00  0.00     0.038 A 
ATOM     66  C   UNL A   1      31.490  21.864  24.603  1.00  0.00     0.029 A 
ATOM     67  C   UNL A   1      31.283  23.216  24.299  1.00  0.00     0.028 A 
BRANCH  64  68
ATOM     68  N   UNL A   1      32.567  20.174  26.072  1.00  0.00    -0.325 N 
ATOM     69  C   UNL A   1      32.899  18.936  25.617  1.00  0.00     0.227 C 
ATOM     70  H   UNL A   1      32.350  20.160  27.032  1.00  0.00     0.169 HD
ATOM     71  O   UNL A   1      32.901  18.025  26.450  1.00  0.00    -0.274 OA
BRANCH  69  72
ATOM     72  C   UNL A   1      33.279  18.681  24.181  1.00  0.00     0.079 C 
ATOM     73  C   UNL A   1      34.011  17.350  24.019  1.00  0.00     0.013 C 
ATOM     74  C   UNL A   1      32.088  18.484  23.247  1.00  0.00     0.013 C 
ATOM     75  C   UNL A   1      33.924  17.059  22.523  1.00  0.00     0.001 C 
ATOM     76  C   UNL A   1      32.725  17.859  22.011  1.00  0.00     0.001 C 
ENDBRANCH  69  72
ENDBRANCH  64  68
BRANCH  65  77
ATOM     77  N   UNL A   1      31.692  25.552  24.798  1.00  0.00    -0.368 N 
ATOM     78  C   UNL A   1      32.062  26.337  23.608  1.00  0.00     0.138 C 
ATOM     79  C   UNL A   1      30.527  26.048  25.553  1.00  0.00     0.138 C 
ATOM     80  C   UNL A   1      30.837  26.576  22.686  1.00  0.00     0.138 C 
ATOM     81  C   UNL A   1      29.312  26.290  24.636  1.00  0.00     0.138 C 
ATOM     82  N   UNL A   1      29.680  27.086  23.454  1.00  0.00    -0.368 N 
BRANCH  82  83
ATOM     83  C   UNL A   1      29.293  28.405  23.329  1.00  0.00     0.037 A 
ATOM     84  C   UNL A   1      28.001  28.719  22.878  1.00  0.00     0.029 A 
ATOM     85  C   UNL A   1      30.141  29.471  23.668  1.00  0.00     0.029 A 
ATOM     86  C   UNL A   1      27.564  30.044  22.789  1.00  0.00     0.041 A 
ATOM     87  C   UNL A   1      29.716  30.800  23.565  1.00  0.00     0.041 A 
ATOM     88  C   UNL A   1      28.427  31.073  23.132  1.00  0.00     0.123 A 
ATOM     89  F   UNL A   1      28.012  32.343  23.049  1.00  0.00    -0.207 F 
ENDBRANCH  82  83
ENDBRANCH  65  77
ENDBRANCH  59  62
ENDBRANCH  57  58
ENDBRANCH   1  57
TORSDOF 14
ENDMDL
MODEL 3
REMARK VINA RESULT:     -12.7      3.274      8.903
REMARK SMILES O=C(NCCCNC(=O)c1cc(N2CCN(c3ccc(F)cc3)CC2)ccc1NC(=O)C1CCCC1)c1ccc(-c2c3nc(c(-c4ccccc4)c4ccc([nH]4)c(-c4ccccc4)c4nc(c(-c5ccccc5)c5ccc2[nH]5)C=C4)C=C3)cc1
REMARK SMILES IDX 5 1 4 2 3 3 1 4 2 5 37 7 38 8 84 9 39 10 83 11 40 12 41 13
REMARK SMILES IDX 42 14 77 15 43 16 82 17 76 18 78 19 44 20 81 21 75 22 74 23
REMARK SMILES IDX 45 25 67 26 52 27 66 28 53 29 56 30 65 31 79 32 54 33 55 34
REMARK SMILES IDX 64 36 80 37 57 38 46 39 47 40 51 41 48 42 50 43 49 44 68 45
REMARK SMILES IDX 69 46 73 47 70 48 72 49 71 50 58 51 59 52 63 53 60 54 62 55
REMARK SMILES IDX 61 56 6 57 7 58 8 59 9 61 10 62 11 63 28 64 12 65 27 66
REMARK SMILES IDX 26 67 29 68 30 69 31 71 32 72 33 73 36 74 34 75 35 76 13 77
REMARK SMILES IDX 14 78 25 79 15 80 24 81 16 82 17 83 18 84 23 85 19 86 22 87
REMARK SMILES IDX 20 88 21 89
REMARK H PARENT 3 6 78 24 56 35 7 60 29 70
REMARK Flexibility Score: inf
ROOT
ATOM      1  C   UNL A   1      32.874  28.453  26.754  1.00  0.00     0.042 C 
ENDROOT
BRANCH   1   2
ATOM      2  C   UNL A   1      34.208  28.859  27.356  1.00  0.00     0.118 C 
BRANCH   2   3
ATOM      3  N   UNL A   1      34.156  30.124  28.080  1.00  0.00    -0.352 N 
ATOM      4  O   UNL A   1      34.794  31.778  29.466  1.00  0.00    -0.269 OA
ATOM      5  C   UNL A   1      35.110  30.790  28.816  1.00  0.00     0.251 C 
ATOM      6  H   UNL A   1      33.285  30.582  28.034  1.00  0.00     0.163 HD
BRANCH   5   7
ATOM      7  C   UNL A   1      36.506  30.302  28.859  1.00  0.00     0.039 A 
ATOM      8  C   UNL A   1      37.361  30.488  27.778  1.00  0.00     0.014 A 
ATOM      9  C   UNL A   1      36.980  29.666  30.012  1.00  0.00     0.014 A 
ATOM     10  C   UNL A   1      38.595  29.854  27.754  1.00  0.00     0.010 A 
ATOM     11  C   UNL A   1      38.281  29.147  30.041  1.00  0.00     0.010 A 
ATOM     12  C   UNL A   1      39.085  29.198  28.895  1.00  0.00    -0.014 A 
BRANCH  12  13
ATOM     13  C   UNL A   1      40.464  28.647  28.850  1.00  0.00     0.031 A 
ATOM     14  C   UNL A   1      40.734  27.222  28.455  1.00  0.00     0.074 A 
ATOM     15  C   UNL A   1      41.492  29.488  29.085  1.00  0.00     0.049 A 
ATOM     16  N   UNL A   1      41.888  26.630  28.262  1.00  0.00    -0.248 NA
ATOM     17  C   UNL A   1      39.572  26.342  28.256  1.00  0.00     0.031 C 
ATOM     18  C   UNL A   1      41.357  30.890  29.496  1.00  0.00     0.029 A 
ATOM     19  N   UNL A   1      42.846  29.310  28.963  1.00  0.00    -0.354 N 
ATOM     20  C   UNL A   1      41.593  25.312  27.939  1.00  0.00     0.074 A 
ATOM     21  C   UNL A   1      40.153  25.179  27.986  1.00  0.00     0.031 C 
ATOM     22  C   UNL A   1      42.566  31.466  29.501  1.00  0.00     0.029 A 
ATOM     23  C   UNL A   1      43.568  30.461  29.173  1.00  0.00     0.049 A 
ATOM     24  H   UNL A   1      43.260  28.444  28.747  1.00  0.00     0.167 HD
ATOM     25  C   UNL A   1      42.444  24.304  27.627  1.00  0.00     0.031 A 
ATOM     26  C   UNL A   1      44.892  30.688  29.114  1.00  0.00     0.031 A 
ATOM     27  C   UNL A   1      43.878  24.436  27.580  1.00  0.00     0.049 A 
ATOM     28  C   UNL A   1      45.807  29.556  28.762  1.00  0.00     0.074 A 
ATOM     29  C   UNL A   1      44.823  23.471  27.274  1.00  0.00     0.029 A 
ATOM     30  N   UNL A   1      44.572  25.606  27.842  1.00  0.00    -0.354 N 
ATOM     31  N   UNL A   1      45.505  28.320  28.450  1.00  0.00    -0.248 NA
ATOM     32  C   UNL A   1      47.246  29.850  28.758  1.00  0.00     0.031 C 
ATOM     33  C   UNL A   1      46.092  24.050  27.387  1.00  0.00     0.029 A 
ATOM     34  C   UNL A   1      45.934  25.387  27.717  1.00  0.00     0.049 A 
ATOM     35  H   UNL A   1      44.159  26.467  28.082  1.00  0.00     0.167 HD
ATOM     36  C   UNL A   1      46.716  27.685  28.214  1.00  0.00     0.074 A 
ATOM     37  C   UNL A   1      47.752  28.685  28.380  1.00  0.00     0.031 C 
ATOM     38  C   UNL A   1      46.950  26.388  27.901  1.00  0.00     0.031 A 
BRANCH  25  39
ATOM     39  C   UNL A   1      41.847  22.958  27.326  1.00  0.00    -0.014 A 
ATOM     40  C   UNL A   1      41.516  22.586  26.013  1.00  0.00     0.009 A 
ATOM     41  C   UNL A   1      41.663  22.027  28.360  1.00  0.00     0.009 A 
ATOM     42  C   UNL A   1      40.992  21.319  25.747  1.00  0.00     0.001 A 
ATOM     43  C   UNL A   1      41.161  20.753  28.089  1.00  0.00     0.001 A 
ATOM     44  C   UNL A   1      40.820  20.402  26.783  1.00  0.00     0.000 A 
ENDBRANCH  25  39
BRANCH  26  45
ATOM     45  C   UNL A   1      45.423  32.042  29.419  1.00  0.00    -0.014 A 
ATOM     46  C   UNL A   1      45.582  32.999  28.406  1.00  0.00     0.009 A 
ATOM     47  C   UNL A   1      45.761  32.386  30.738  1.00  0.00     0.009 A 
ATOM     48  C   UNL A   1      46.087  34.265  28.705  1.00  0.00     0.001 A 
ATOM     49  C   UNL A   1      46.234  33.663  31.039  1.00  0.00     0.001 A 
ATOM     50  C   UNL A   1      46.407  34.598  30.021  1.00  0.00     0.000 A 
ENDBRANCH  26  45
BRANCH  38  51
ATOM     51  C   UNL A   1      48.385  25.992  27.713  1.00  0.00    -0.014 A 
ATOM     52  C   UNL A   1      48.985  26.031  26.444  1.00  0.00     0.009 A 
ATOM     53  C   UNL A   1      49.145  25.576  28.816  1.00  0.00     0.009 A 
ATOM     54  C   UNL A   1      50.309  25.621  26.279  1.00  0.00     0.001 A 
ATOM     55  C   UNL A   1      50.476  25.192  28.651  1.00  0.00     0.001 A 
ATOM     56  C   UNL A   1      51.052  25.204  27.381  1.00  0.00     0.000 A 
ENDBRANCH  38  51
ENDBRANCH  12  13
ENDBRANCH   5   7
ENDBRANCH   2   3
ENDBRANCH   1   2
BRANCH   1  57
ATOM     57  C   UNL A   1      32.393  29.380  25.654  1.00  0.00     0.118 C 
BRANCH  57  58
ATOM     58  N   UNL A   1      33.346  29.495  24.555  1.00  0.00    -0.352 N 
ATOM     59  C   UNL A   1      33.646  28.631  23.530  1.00  0.00     0.253 C 
ATOM     60  H   UNL A   1      33.862  30.333  24.546  1.00  0.00     0.163 HD
ATOM     61  O   UNL A   1      34.634  28.851  22.834  1.00  0.00    -0.269 OA
BRANCH  59  62
ATOM     62  C   UNL A   1      32.791  27.453  23.251  1.00  0.00     0.065 A 
ATOM     63  C   UNL A   1      33.298  26.209  23.672  1.00  0.00     0.042 A 
ATOM     64  C   UNL A   1      31.585  27.535  22.521  1.00  0.00     0.054 A 
ATOM     65  C   UNL A   1      32.595  25.032  23.429  1.00  0.00     0.038 A 
ATOM     66  C   UNL A   1      30.818  26.377  22.441  1.00  0.00     0.029 A 
ATOM     67  C   UNL A   1      31.320  25.146  22.882  1.00  0.00     0.028 A 
BRANCH  64  68
ATOM     68  N   UNL A   1      31.258  28.760  21.893  1.00  0.00    -0.325 N 
ATOM     69  C   UNL A   1      30.284  29.703  22.001  1.00  0.00     0.227 C 
ATOM     70  H   UNL A   1      31.909  28.992  21.192  1.00  0.00     0.169 HD
ATOM     71  O   UNL A   1      30.376  30.679  21.248  1.00  0.00    -0.274 OA
BRANCH  69  72
ATOM     72  C   UNL A   1      29.164  29.594  23.003  1.00  0.00     0.079 C 
ATOM     73  C   UNL A   1      28.458  30.933  23.208  1.00  0.00     0.013 C 
ATOM     74  C   UNL A   1      28.005  28.711  22.548  1.00  0.00     0.013 C 
ATOM     75  C   UNL A   1      27.138  30.558  23.876  1.00  0.00     0.001 C 
ATOM     76  C   UNL A   1      26.888  29.093  23.512  1.00  0.00     0.001 C 
ENDBRANCH  69  72
ENDBRANCH  64  68
BRANCH  65  77
ATOM     77  N   UNL A   1      33.192  23.810  23.646  1.00  0.00    -0.368 N 
ATOM     78  C   UNL A   1      33.030  23.108  24.930  1.00  0.00     0.138 C 
ATOM     79  C   UNL A   1      33.510  22.957  22.487  1.00  0.00     0.138 C 
ATOM     80  C   UNL A   1      32.039  21.920  24.802  1.00  0.00     0.138 C 
ATOM     81  C   UNL A   1      32.528  21.774  22.363  1.00  0.00     0.138 C 
ATOM     82  N   UNL A   1      32.376  21.065  23.644  1.00  0.00    -0.368 N 
BRANCH  82  83
ATOM     83  C   UNL A   1      32.933  19.818  23.843  1.00  0.00     0.037 A 
ATOM     84  C   UNL A   1      32.367  18.688  23.230  1.00  0.00     0.029 A 
ATOM     85  C   UNL A   1      34.084  19.625  24.624  1.00  0.00     0.029 A 
ATOM     86  C   UNL A   1      32.937  17.420  23.373  1.00  0.00     0.041 A 
ATOM     87  C   UNL A   1      34.651  18.357  24.785  1.00  0.00     0.041 A 
ATOM     88  C   UNL A   1      34.075  17.267  24.151  1.00  0.00     0.123 A 
ATOM     89  F   UNL A   1      34.625  16.054  24.289  1.00  0.00    -0.207 F 
ENDBRANCH  82  83
ENDBRANCH  65  77
ENDBRANCH  59  62
ENDBRANCH  57  58
ENDBRANCH   1  57
TORSDOF 14
ENDMDL
