MODEL 1
REMARK VINA RESULT:     -13.0      0.000      0.000
REMARK SMILES Cc1cccc(-c2ccccc2C(=O)N2CC[C@H](O)C[C@@H]2C(=O)NCCCNC(=O)c2ccc(-c3c4nc(c(-c5ccccc5)c5ccc([nH]5)c(-c5ccccc5)c5nc(c(-c6ccccc6)c6ccc3[nH]6)C=C5)C=C4)cc2)c1
REMARK SMILES IDX 25 1 24 2 22 3 23 4 21 6 15 7 16 8 17 9 20 10 18 11 13 12
REMARK SMILES IDX 14 13 12 14 7 15 8 16 9 17 11 18 10 19 6 20 1 21 2 22 3 23
REMARK SMILES IDX 79 24 4 25 5 26 19 27 26 29 27 30 28 31 29 32 30 34 31 35
REMARK SMILES IDX 32 36 78 37 33 38 77 39 34 40 35 41 36 42 71 43 37 44 76 45
REMARK SMILES IDX 70 46 72 47 38 48 75 49 69 50 68 51 39 53 61 54 46 55 60 56
REMARK SMILES IDX 47 57 50 58 59 59 73 60 48 61 49 62 58 64 74 65 51 66 40 67
REMARK SMILES IDX 41 68 45 69 42 70 44 71 43 72 62 73 63 74 67 75 64 76 66 77
REMARK SMILES IDX 65 78 52 79 53 80 57 81 54 82 56 83 55 84
REMARK H PARENT 24 5 19 28 28 33 72 52 50 63
REMARK Flexibility Score: inf
ROOT
ATOM      1  C   UNL A   1      33.647  29.630  26.854  1.00  0.00     0.117 C 
ENDROOT
BRANCH   1   2
ATOM      2  N   UNL A   1      33.683  29.729  25.399  1.00  0.00    -0.354 N 
ATOM      3  C   UNL A   1      32.941  29.093  24.443  1.00  0.00     0.242 C 
ATOM      4  O   UNL A   1      33.229  29.328  23.263  1.00  0.00    -0.273 OA
ATOM      5  H   UNL A   1      34.353  30.359  25.046  1.00  0.00     0.163 HD
BRANCH   3   6
ATOM      6  C   UNL A   1      31.876  28.027  24.807  1.00  0.00     0.177 C 
ATOM      7  N   UNL A   1      32.404  26.685  24.490  1.00  0.00    -0.326 N 
ATOM      8  C   UNL A   1      32.412  26.291  23.080  1.00  0.00     0.123 C 
ATOM      9  C   UNL A   1      31.029  26.432  22.458  1.00  0.00     0.053 C 
ATOM     10  C   UNL A   1      30.532  28.296  24.111  1.00  0.00     0.067 C 
ATOM     11  C   UNL A   1      30.447  27.827  22.658  1.00  0.00     0.118 C 
BRANCH   7  12
ATOM     12  C   UNL A   1      32.920  25.936  25.549  1.00  0.00     0.255 C 
ATOM     13  O   UNL A   1      33.967  26.267  26.105  1.00  0.00    -0.269 OA
BRANCH  12  14
ATOM     14  C   UNL A   1      32.328  24.609  25.915  1.00  0.00     0.047 A 
ATOM     15  C   UNL A   1      32.929  23.401  25.495  1.00  0.00    -0.006 A 
ATOM     16  C   UNL A   1      32.188  22.207  25.629  1.00  0.00     0.009 A 
ATOM     17  C   UNL A   1      30.898  22.201  26.161  1.00  0.00     0.001 A 
ATOM     18  C   UNL A   1      31.022  24.588  26.447  1.00  0.00     0.014 A 
ATOM     19  C   UNL A   1      30.318  23.390  26.581  1.00  0.00     0.001 A 
BRANCH  15  20
ATOM     20  C   UNL A   1      34.281  23.313  24.915  1.00  0.00    -0.017 A 
ATOM     21  C   UNL A   1      37.926  23.356  26.059  1.00  0.00     0.044 C 
ATOM     22  C   UNL A   1      36.710  23.267  25.185  1.00  0.00    -0.051 A 
ATOM     23  C   UNL A   1      36.856  23.062  23.809  1.00  0.00     0.003 A 
ATOM     24  C   UNL A   1      35.423  23.393  25.728  1.00  0.00     0.012 A 
ATOM     25  C   UNL A   1      35.734  22.984  22.986  1.00  0.00     0.001 A 
ATOM     26  C   UNL A   1      34.457  23.107  23.536  1.00  0.00     0.009 A 
ENDBRANCH  15  20
ENDBRANCH  12  14
ENDBRANCH   7  12
BRANCH  11  27
ATOM     27  O   UNL A   1      31.047  28.745  21.751  1.00  0.00    -0.393 OA
ATOM     28  H   UNL A   1      30.657  28.632  20.871  1.00  0.00     0.210 HD
ENDBRANCH  11  27
ENDBRANCH   3   6
ENDBRANCH   1   2
BRANCH   1  29
ATOM     29  C   UNL A   1      33.284  30.952  27.521  1.00  0.00     0.042 C 
BRANCH  29  30
ATOM     30  C   UNL A   1      34.441  31.921  27.701  1.00  0.00     0.118 C 
BRANCH  30  31
ATOM     31  N   UNL A   1      34.763  32.241  29.085  1.00  0.00    -0.352 N 
ATOM     32  C   UNL A   1      35.614  31.591  29.967  1.00  0.00     0.251 C 
ATOM     33  H   UNL A   1      34.309  33.036  29.448  1.00  0.00     0.163 HD
ATOM     34  O   UNL A   1      35.723  31.989  31.112  1.00  0.00    -0.269 OA
BRANCH  32  35
ATOM     35  C   UNL A   1      36.499  30.503  29.470  1.00  0.00     0.039 A 
ATOM     36  C   UNL A   1      36.644  29.368  30.279  1.00  0.00     0.014 A 
ATOM     37  C   UNL A   1      37.328  30.677  28.368  1.00  0.00     0.014 A 
ATOM     38  C   UNL A   1      37.781  28.577  30.151  1.00  0.00     0.010 A 
ATOM     39  C   UNL A   1      38.508  29.966  28.306  1.00  0.00     0.010 A 
ATOM     40  C   UNL A   1      38.767  28.968  29.247  1.00  0.00    -0.014 A 
BRANCH  40  41
ATOM     41  C   UNL A   1      40.143  28.498  29.309  1.00  0.00     0.031 A 
ATOM     42  C   UNL A   1      40.537  27.225  28.689  1.00  0.00     0.074 A 
ATOM     43  C   UNL A   1      41.088  29.302  29.845  1.00  0.00     0.049 A 
ATOM     44  N   UNL A   1      41.601  26.571  29.010  1.00  0.00    -0.248 NA
ATOM     45  C   UNL A   1      39.728  26.554  27.679  1.00  0.00     0.031 C 
ATOM     46  C   UNL A   1      42.538  29.183  29.728  1.00  0.00     0.029 A 
ATOM     47  N   UNL A   1      40.901  30.296  30.800  1.00  0.00    -0.354 N 
ATOM     48  C   UNL A   1      41.785  25.595  28.060  1.00  0.00     0.074 A 
ATOM     49  C   UNL A   1      40.545  25.559  27.318  1.00  0.00     0.031 C 
ATOM     50  C   UNL A   1      43.112  29.876  30.724  1.00  0.00     0.029 A 
ATOM     51  C   UNL A   1      42.051  30.328  31.609  1.00  0.00     0.049 A 
ATOM     52  H   UNL A   1      40.108  30.873  30.893  1.00  0.00     0.167 HD
ATOM     53  C   UNL A   1      43.015  25.026  27.924  1.00  0.00     0.031 A 
ATOM     54  C   UNL A   1      41.960  30.028  32.939  1.00  0.00     0.031 A 
ATOM     55  C   UNL A   1      43.961  25.496  28.939  1.00  0.00     0.049 A 
ATOM     56  C   UNL A   1      42.697  28.763  33.348  1.00  0.00     0.074 A 
ATOM     57  C   UNL A   1      45.058  26.343  28.932  1.00  0.00     0.029 A 
ATOM     58  N   UNL A   1      43.656  25.286  30.274  1.00  0.00    -0.354 N 
ATOM     59  N   UNL A   1      43.348  27.988  32.525  1.00  0.00    -0.248 NA
ATOM     60  C   UNL A   1      42.671  28.223  34.708  1.00  0.00     0.031 C 
ATOM     61  C   UNL A   1      45.411  26.627  30.285  1.00  0.00     0.029 A 
ATOM     62  C   UNL A   1      44.538  25.942  31.108  1.00  0.00     0.049 A 
ATOM     63  H   UNL A   1      42.902  24.736  30.589  1.00  0.00     0.167 HD
ATOM     64  C   UNL A   1      43.751  26.856  33.183  1.00  0.00     0.074 A 
ATOM     65  C   UNL A   1      43.318  27.054  34.554  1.00  0.00     0.031 C 
ATOM     66  C   UNL A   1      44.361  25.816  32.544  1.00  0.00     0.031 A 
BRANCH  53  67
ATOM     67  C   UNL A   1      43.427  24.209  26.722  1.00  0.00    -0.014 A 
ATOM     68  C   UNL A   1      42.988  22.877  26.602  1.00  0.00     0.009 A 
ATOM     69  C   UNL A   1      44.272  24.666  25.697  1.00  0.00     0.009 A 
ATOM     70  C   UNL A   1      43.444  22.030  25.582  1.00  0.00     0.001 A 
ATOM     71  C   UNL A   1      44.764  23.818  24.695  1.00  0.00     0.001 A 
ATOM     72  C   UNL A   1      44.357  22.493  24.645  1.00  0.00     0.000 A 
ENDBRANCH  53  67
BRANCH  54  73
ATOM     73  C   UNL A   1      40.687  30.511  33.548  1.00  0.00    -0.014 A 
ATOM     74  C   UNL A   1      40.530  31.899  33.738  1.00  0.00     0.009 A 
ATOM     75  C   UNL A   1      39.544  29.699  33.564  1.00  0.00     0.009 A 
ATOM     76  C   UNL A   1      39.257  32.472  33.814  1.00  0.00     0.001 A 
ATOM     77  C   UNL A   1      38.271  30.277  33.654  1.00  0.00     0.001 A 
ATOM     78  C   UNL A   1      38.128  31.663  33.739  1.00  0.00     0.000 A 
ENDBRANCH  54  73
BRANCH  66  79
ATOM     79  C   UNL A   1      44.814  24.552  33.222  1.00  0.00    -0.014 A 
ATOM     80  C   UNL A   1      43.954  23.476  33.475  1.00  0.00     0.009 A 
ATOM     81  C   UNL A   1      46.120  24.466  33.752  1.00  0.00     0.009 A 
ATOM     82  C   UNL A   1      44.396  22.347  34.181  1.00  0.00     0.001 A 
ATOM     83  C   UNL A   1      46.557  23.355  34.475  1.00  0.00     0.001 A 
ATOM     84  C   UNL A   1      45.695  22.288  34.680  1.00  0.00     0.000 A 
ENDBRANCH  66  79
ENDBRANCH  40  41
ENDBRANCH  32  35
ENDBRANCH  30  31
ENDBRANCH  29  30
ENDBRANCH   1  29
TORSDOF 14
ENDMDL
MODEL 2
REMARK VINA RESULT:     -12.7      1.711      2.888
REMARK SMILES Cc1cccc(-c2ccccc2C(=O)N2CC[C@H](O)C[C@@H]2C(=O)NCCCNC(=O)c2ccc(-c3c4nc(c(-c5ccccc5)c5ccc([nH]5)c(-c5ccccc5)c5nc(c(-c6ccccc6)c6ccc3[nH]6)C=C5)C=C4)cc2)c1
REMARK SMILES IDX 25 1 24 2 22 3 23 4 21 6 15 7 16 8 17 9 20 10 18 11 13 12
REMARK SMILES IDX 14 13 12 14 7 15 8 16 9 17 11 18 10 19 6 20 1 21 2 22 3 23
REMARK SMILES IDX 79 24 4 25 5 26 19 27 26 29 27 30 28 31 29 32 30 34 31 35
REMARK SMILES IDX 32 36 78 37 33 38 77 39 34 40 35 41 36 42 71 43 37 44 76 45
REMARK SMILES IDX 70 46 72 47 38 48 75 49 69 50 68 51 39 53 61 54 46 55 60 56
REMARK SMILES IDX 47 57 50 58 59 59 73 60 48 61 49 62 58 64 74 65 51 66 40 67
REMARK SMILES IDX 41 68 45 69 42 70 44 71 43 72 62 73 63 74 67 75 64 76 66 77
REMARK SMILES IDX 65 78 52 79 53 80 57 81 54 82 56 83 55 84
REMARK H PARENT 24 5 19 28 28 33 72 52 50 63
REMARK Flexibility Score: inf
ROOT
ATOM      1  C   UNL A   1      32.863  30.081  26.878  1.00  0.00     0.117 C 
ENDROOT
BRANCH   1   2
ATOM      2  N   UNL A   1      33.176  30.009  25.455  1.00  0.00    -0.354 N 
ATOM      3  C   UNL A   1      32.721  29.162  24.484  1.00  0.00     0.242 C 
ATOM      4  O   UNL A   1      33.209  29.293  23.354  1.00  0.00    -0.273 OA
ATOM      5  H   UNL A   1      33.823  30.683  25.142  1.00  0.00     0.163 HD
BRANCH   3   6
ATOM      6  C   UNL A   1      31.741  28.004  24.799  1.00  0.00     0.177 C 
ATOM      7  N   UNL A   1      32.395  26.716  24.494  1.00  0.00    -0.326 N 
ATOM      8  C   UNL A   1      32.491  26.338  23.083  1.00  0.00     0.123 C 
ATOM      9  C   UNL A   1      31.125  26.365  22.409  1.00  0.00     0.053 C 
ATOM     10  C   UNL A   1      30.406  28.162  24.053  1.00  0.00     0.067 C 
ATOM     11  C   UNL A   1      30.417  27.701  22.595  1.00  0.00     0.118 C 
BRANCH   7  12
ATOM     12  C   UNL A   1      32.934  26.004  25.568  1.00  0.00     0.255 C 
ATOM     13  O   UNL A   1      33.964  26.385  26.124  1.00  0.00    -0.269 OA
BRANCH  12  14
ATOM     14  C   UNL A   1      32.393  24.661  25.951  1.00  0.00     0.047 A 
ATOM     15  C   UNL A   1      33.054  23.472  25.568  1.00  0.00    -0.006 A 
ATOM     16  C   UNL A   1      32.362  22.249  25.713  1.00  0.00     0.009 A 
ATOM     17  C   UNL A   1      31.064  22.198  26.221  1.00  0.00     0.001 A 
ATOM     18  C   UNL A   1      31.079  24.593  26.459  1.00  0.00     0.014 A 
ATOM     19  C   UNL A   1      30.426  23.369  26.605  1.00  0.00     0.001 A 
BRANCH  15  20
ATOM     20  C   UNL A   1      34.419  23.431  25.014  1.00  0.00    -0.017 A 
ATOM     21  C   UNL A   1      38.032  23.801  26.201  1.00  0.00     0.044 C 
ATOM     22  C   UNL A   1      36.841  23.567  25.321  1.00  0.00    -0.051 A 
ATOM     23  C   UNL A   1      37.025  23.270  23.966  1.00  0.00     0.003 A 
ATOM     24  C   UNL A   1      35.538  23.646  25.834  1.00  0.00     0.012 A 
ATOM     25  C   UNL A   1      35.926  23.056  23.136  1.00  0.00     0.001 A 
ATOM     26  C   UNL A   1      34.634  23.135  23.657  1.00  0.00     0.009 A 
ENDBRANCH  15  20
ENDBRANCH  12  14
ENDBRANCH   7  12
BRANCH  11  27
ATOM     27  O   UNL A   1      30.969  28.677  21.719  1.00  0.00    -0.393 OA
ATOM     28  H   UNL A   1      30.266  29.272  21.415  1.00  0.00     0.210 HD
ENDBRANCH  11  27
ENDBRANCH   3   6
ENDBRANCH   1   2
BRANCH   1  29
ATOM     29  C   UNL A   1      34.095  30.342  27.736  1.00  0.00     0.042 C 
BRANCH  29  30
ATOM     30  C   UNL A   1      34.686  31.736  27.608  1.00  0.00     0.118 C 
BRANCH  30  31
ATOM     31  N   UNL A   1      33.881  32.800  28.191  1.00  0.00    -0.352 N 
ATOM     32  C   UNL A   1      34.121  33.572  29.319  1.00  0.00     0.251 C 
ATOM     33  H   UNL A   1      33.043  33.000  27.715  1.00  0.00     0.163 HD
ATOM     34  O   UNL A   1      33.299  34.396  29.677  1.00  0.00    -0.269 OA
BRANCH  32  35
ATOM     35  C   UNL A   1      35.442  33.496  29.998  1.00  0.00     0.039 A 
ATOM     36  C   UNL A   1      36.530  34.109  29.364  1.00  0.00     0.014 A 
ATOM     37  C   UNL A   1      35.656  32.671  31.096  1.00  0.00     0.014 A 
ATOM     38  C   UNL A   1      37.821  33.674  29.648  1.00  0.00     0.010 A 
ATOM     39  C   UNL A   1      36.918  32.156  31.304  1.00  0.00     0.010 A 
ATOM     40  C   UNL A   1      37.987  32.604  30.524  1.00  0.00    -0.014 A 
BRANCH  40  41
ATOM     41  C   UNL A   1      39.195  31.795  30.583  1.00  0.00     0.031 A 
ATOM     42  C   UNL A   1      39.263  30.488  29.913  1.00  0.00     0.074 A 
ATOM     43  C   UNL A   1      40.301  32.307  31.165  1.00  0.00     0.049 A 
ATOM     44  N   UNL A   1      40.116  29.570  30.219  1.00  0.00    -0.248 NA
ATOM     45  C   UNL A   1      38.333  30.087  28.866  1.00  0.00     0.031 C 
ATOM     46  C   UNL A   1      41.675  31.824  31.061  1.00  0.00     0.029 A 
ATOM     47  N   UNL A   1      40.354  33.278  32.160  1.00  0.00    -0.354 N 
ATOM     48  C   UNL A   1      40.065  28.617  29.231  1.00  0.00     0.074 A 
ATOM     49  C   UNL A   1      38.876  28.930  28.472  1.00  0.00     0.031 C 
ATOM     50  C   UNL A   1      42.384  32.307  32.093  1.00  0.00     0.029 A 
ATOM     51  C   UNL A   1      41.455  32.982  32.984  1.00  0.00     0.049 A 
ATOM     52  H   UNL A   1      39.733  34.036  32.267  1.00  0.00     0.167 HD
ATOM     53  C   UNL A   1      41.111  27.756  29.085  1.00  0.00     0.031 A 
ATOM     54  C   UNL A   1      41.258  32.664  34.298  1.00  0.00     0.031 A 
ATOM     55  C   UNL A   1      42.123  27.928  30.131  1.00  0.00     0.049 A 
ATOM     56  C   UNL A   1      41.637  31.238  34.661  1.00  0.00     0.074 A 
ATOM     57  C   UNL A   1      43.400  28.464  30.175  1.00  0.00     0.029 A 
ATOM     58  N   UNL A   1      41.743  27.752  31.452  1.00  0.00    -0.354 N 
ATOM     59  N   UNL A   1      42.087  30.354  33.814  1.00  0.00    -0.248 NA
ATOM     60  C   UNL A   1      41.442  30.671  35.997  1.00  0.00     0.031 C 
ATOM     61  C   UNL A   1      43.783  28.595  31.543  1.00  0.00     0.029 A 
ATOM     62  C   UNL A   1      42.744  28.126  32.325  1.00  0.00     0.049 A 
ATOM     63  H   UNL A   1      40.866  27.404  31.734  1.00  0.00     0.167 HD
ATOM     64  C   UNL A   1      42.170  29.132  34.427  1.00  0.00     0.074 A 
ATOM     65  C   UNL A   1      41.771  29.382  35.800  1.00  0.00     0.031 C 
ATOM     66  C   UNL A   1      42.507  27.996  33.752  1.00  0.00     0.031 A 
BRANCH  53  67
ATOM     67  C   UNL A   1      41.328  26.908  27.854  1.00  0.00    -0.014 A 
ATOM     68  C   UNL A   1      41.375  25.507  27.974  1.00  0.00     0.009 A 
ATOM     69  C   UNL A   1      41.534  27.415  26.560  1.00  0.00     0.009 A 
ATOM     70  C   UNL A   1      41.705  24.676  26.895  1.00  0.00     0.001 A 
ATOM     71  C   UNL A   1      41.902  26.597  25.483  1.00  0.00     0.001 A 
ATOM     72  C   UNL A   1      41.999  25.225  25.654  1.00  0.00     0.000 A 
ENDBRANCH  53  67
BRANCH  54  73
ATOM     73  C   UNL A   1      40.138  33.435  34.912  1.00  0.00    -0.014 A 
ATOM     74  C   UNL A   1      38.833  32.920  34.783  1.00  0.00     0.009 A 
ATOM     75  C   UNL A   1      40.385  34.394  35.904  1.00  0.00     0.009 A 
ATOM     76  C   UNL A   1      37.835  33.260  35.702  1.00  0.00     0.001 A 
ATOM     77  C   UNL A   1      39.379  34.741  36.814  1.00  0.00     0.001 A 
ATOM     78  C   UNL A   1      38.119  34.146  36.736  1.00  0.00     0.000 A 
ENDBRANCH  54  73
BRANCH  66  79
ATOM     79  C   UNL A   1      42.606  26.632  34.380  1.00  0.00    -0.014 A 
ATOM     80  C   UNL A   1      43.712  25.793  34.201  1.00  0.00     0.009 A 
ATOM     81  C   UNL A   1      41.502  26.097  35.078  1.00  0.00     0.009 A 
ATOM     82  C   UNL A   1      43.731  24.497  34.738  1.00  0.00     0.001 A 
ATOM     83  C   UNL A   1      41.507  24.800  35.595  1.00  0.00     0.001 A 
ATOM     84  C   UNL A   1      42.630  24.002  35.433  1.00  0.00     0.000 A 
ENDBRANCH  66  79
ENDBRANCH  40  41
ENDBRANCH  32  35
ENDBRANCH  30  31
ENDBRANCH  29  30
ENDBRANCH   1  29
TORSDOF 14
ENDMDL
MODEL 3
REMARK VINA RESULT:     -12.7      3.220      8.621
REMARK SMILES Cc1cccc(-c2ccccc2C(=O)N2CC[C@H](O)C[C@@H]2C(=O)NCCCNC(=O)c2ccc(-c3c4nc(c(-c5ccccc5)c5ccc([nH]5)c(-c5ccccc5)c5nc(c(-c6ccccc6)c6ccc3[nH]6)C=C5)C=C4)cc2)c1
REMARK SMILES IDX 25 1 24 2 22 3 23 4 21 6 15 7 16 8 17 9 20 10 18 11 13 12
REMARK SMILES IDX 14 13 12 14 7 15 8 16 9 17 11 18 10 19 6 20 1 21 2 22 3 23
REMARK SMILES IDX 79 24 4 25 5 26 19 27 26 29 27 30 28 31 29 32 30 34 31 35
REMARK SMILES IDX 32 36 78 37 33 38 77 39 34 40 35 41 36 42 71 43 37 44 76 45
REMARK SMILES IDX 70 46 72 47 38 48 75 49 69 50 68 51 39 53 61 54 46 55 60 56
REMARK SMILES IDX 47 57 50 58 59 59 73 60 48 61 49 62 58 64 74 65 51 66 40 67
REMARK SMILES IDX 41 68 45 69 42 70 44 71 43 72 62 73 63 74 67 75 64 76 66 77
REMARK SMILES IDX 65 78 52 79 53 80 57 81 54 82 56 83 55 84
REMARK H PARENT 24 5 19 28 28 33 72 52 50 63
REMARK Flexibility Score: inf
ROOT
ATOM      1  C   UNL A   1      37.373  22.919  25.651  1.00  0.00     0.117 C 
ENDROOT
BRANCH   1   2
ATOM      2  N   UNL A   1      36.374  22.250  26.478  1.00  0.00    -0.354 N 
ATOM      3  C   UNL A   1      35.078  21.911  26.211  1.00  0.00     0.242 C 
ATOM      4  O   UNL A   1      34.434  21.395  27.132  1.00  0.00    -0.273 OA
ATOM      5  H   UNL A   1      36.687  22.002  27.379  1.00  0.00     0.163 HD
BRANCH   3   6
ATOM      6  C   UNL A   1      34.397  22.271  24.866  1.00  0.00     0.177 C 
ATOM      7  N   UNL A   1      33.504  23.429  25.067  1.00  0.00    -0.326 N 
ATOM      8  C   UNL A   1      32.220  23.172  25.723  1.00  0.00     0.123 C 
ATOM      9  C   UNL A   1      31.444  22.074  25.009  1.00  0.00     0.053 C 
ATOM     10  C   UNL A   1      33.653  21.070  24.259  1.00  0.00     0.067 C 
ATOM     11  C   UNL A   1      32.266  20.801  24.843  1.00  0.00     0.118 C 
BRANCH   7  12
ATOM     12  C   UNL A   1      33.988  24.681  24.685  1.00  0.00     0.255 C 
ATOM     13  O   UNL A   1      34.854  25.253  25.349  1.00  0.00    -0.269 OA
BRANCH  12  14
ATOM     14  C   UNL A   1      33.339  25.453  23.577  1.00  0.00     0.047 A 
ATOM     15  C   UNL A   1      32.538  26.586  23.847  1.00  0.00    -0.006 A 
ATOM     16  C   UNL A   1      31.737  27.099  22.805  1.00  0.00     0.009 A 
ATOM     17  C   UNL A   1      31.727  26.520  21.535  1.00  0.00     0.001 A 
ATOM     18  C   UNL A   1      33.315  24.876  22.290  1.00  0.00     0.014 A 
ATOM     19  C   UNL A   1      32.525  25.414  21.274  1.00  0.00     0.001 A 
BRANCH  15  20
ATOM     20  C   UNL A   1      32.479  27.257  25.158  1.00  0.00    -0.017 A 
ATOM     21  C   UNL A   1      34.393  29.905  27.139  1.00  0.00     0.044 C 
ATOM     22  C   UNL A   1      33.362  28.886  26.752  1.00  0.00    -0.051 A 
ATOM     23  C   UNL A   1      32.311  28.594  27.628  1.00  0.00     0.003 A 
ATOM     24  C   UNL A   1      33.439  28.214  25.524  1.00  0.00     0.012 A 
ATOM     25  C   UNL A   1      31.351  27.645  27.284  1.00  0.00     0.001 A 
ATOM     26  C   UNL A   1      31.434  26.983  26.058  1.00  0.00     0.009 A 
ENDBRANCH  15  20
ENDBRANCH  12  14
ENDBRANCH   7  12
BRANCH  11  27
ATOM     27  O   UNL A   1      32.320  20.086  26.072  1.00  0.00    -0.393 OA
ATOM     28  H   UNL A   1      33.100  19.510  26.077  1.00  0.00     0.210 HD
ENDBRANCH  11  27
ENDBRANCH   3   6
ENDBRANCH   1   2
BRANCH   1  29
ATOM     29  C   UNL A   1      38.587  22.040  25.373  1.00  0.00     0.042 C 
BRANCH  29  30
ATOM     30  C   UNL A   1      39.571  21.918  26.525  1.00  0.00     0.118 C 
BRANCH  30  31
ATOM     31  N   UNL A   1      40.941  22.292  26.203  1.00  0.00    -0.352 N 
ATOM     32  C   UNL A   1      41.528  23.549  26.167  1.00  0.00     0.251 C 
ATOM     33  H   UNL A   1      41.538  21.543  25.979  1.00  0.00     0.163 HD
ATOM     34  O   UNL A   1      42.692  23.667  25.830  1.00  0.00    -0.269 OA
BRANCH  32  35
ATOM     35  C   UNL A   1      40.779  24.728  26.679  1.00  0.00     0.039 A 
ATOM     36  C   UNL A   1      40.892  25.926  25.961  1.00  0.00     0.014 A 
ATOM     37  C   UNL A   1      40.171  24.725  27.929  1.00  0.00     0.014 A 
ATOM     38  C   UNL A   1      40.660  27.136  26.609  1.00  0.00     0.010 A 
ATOM     39  C   UNL A   1      40.045  25.918  28.609  1.00  0.00     0.010 A 
ATOM     40  C   UNL A   1      40.366  27.118  27.970  1.00  0.00    -0.014 A 
BRANCH  40  41
ATOM     41  C   UNL A   1      40.516  28.276  28.839  1.00  0.00     0.031 A 
ATOM     42  C   UNL A   1      39.415  29.234  29.020  1.00  0.00     0.074 A 
ATOM     43  C   UNL A   1      41.642  28.405  29.574  1.00  0.00     0.049 A 
ATOM     44  N   UNL A   1      39.577  30.440  29.446  1.00  0.00    -0.248 NA
ATOM     45  C   UNL A   1      38.031  28.920  28.686  1.00  0.00     0.031 C 
ATOM     46  C   UNL A   1      41.871  29.282  30.717  1.00  0.00     0.029 A 
ATOM     47  N   UNL A   1      42.900  27.889  29.280  1.00  0.00    -0.354 N 
ATOM     48  C   UNL A   1      38.333  30.942  29.741  1.00  0.00     0.074 A 
ATOM     49  C   UNL A   1      37.404  30.002  29.157  1.00  0.00     0.031 C 
ATOM     50  C   UNL A   1      43.194  29.441  30.884  1.00  0.00     0.029 A 
ATOM     51  C   UNL A   1      43.856  28.804  29.758  1.00  0.00     0.049 A 
ATOM     52  H   UNL A   1      43.088  27.039  28.820  1.00  0.00     0.167 HD
ATOM     53  C   UNL A   1      38.233  32.022  30.565  1.00  0.00     0.031 A 
ATOM     54  C   UNL A   1      44.695  29.435  28.884  1.00  0.00     0.031 A 
ATOM     55  C   UNL A   1      39.543  32.566  30.933  1.00  0.00     0.049 A 
ATOM     56  C   UNL A   1      44.493  30.938  28.795  1.00  0.00     0.074 A 
ATOM     57  C   UNL A   1      40.313  32.561  32.085  1.00  0.00     0.029 A 
ATOM     58  N   UNL A   1      40.381  33.009  29.922  1.00  0.00    -0.354 N 
ATOM     59  N   UNL A   1      43.586  31.603  29.457  1.00  0.00    -0.248 NA
ATOM     60  C   UNL A   1      45.237  31.795  27.871  1.00  0.00     0.031 C 
ATOM     61  C   UNL A   1      41.621  33.020  31.750  1.00  0.00     0.029 A 
ATOM     62  C   UNL A   1      41.639  33.315  30.400  1.00  0.00     0.049 A 
ATOM     63  H   UNL A   1      40.112  33.094  28.978  1.00  0.00     0.167 HD
ATOM     64  C   UNL A   1      43.562  32.902  29.025  1.00  0.00     0.074 A 
ATOM     65  C   UNL A   1      44.626  32.981  28.041  1.00  0.00     0.031 C 
ATOM     66  C   UNL A   1      42.638  33.803  29.465  1.00  0.00     0.031 A 
BRANCH  53  67
ATOM     67  C   UNL A   1      36.944  32.449  31.226  1.00  0.00    -0.014 A 
ATOM     68  C   UNL A   1      35.972  33.139  30.477  1.00  0.00     0.009 A 
ATOM     69  C   UNL A   1      36.635  32.247  32.582  1.00  0.00     0.009 A 
ATOM     70  C   UNL A   1      34.819  33.676  31.065  1.00  0.00     0.001 A 
ATOM     71  C   UNL A   1      35.505  32.813  33.188  1.00  0.00     0.001 A 
ATOM     72  C   UNL A   1      34.600  33.540  32.428  1.00  0.00     0.000 A 
ENDBRANCH  53  67
BRANCH  54  73
ATOM     73  C   UNL A   1      45.104  28.557  27.749  1.00  0.00    -0.014 A 
ATOM     74  C   UNL A   1      46.051  27.545  28.003  1.00  0.00     0.009 A 
ATOM     75  C   UNL A   1      44.313  28.461  26.595  1.00  0.00     0.009 A 
ATOM     76  C   UNL A   1      46.116  26.406  27.194  1.00  0.00     0.001 A 
ATOM     77  C   UNL A   1      44.392  27.324  25.781  1.00  0.00     0.001 A 
ATOM     78  C   UNL A   1      45.264  26.283  26.102  1.00  0.00     0.000 A 
ENDBRANCH  54  73
BRANCH  66  79
ATOM     79  C   UNL A   1      42.568  35.237  29.015  1.00  0.00    -0.014 A 
ATOM     80  C   UNL A   1      41.873  35.639  27.869  1.00  0.00     0.009 A 
ATOM     81  C   UNL A   1      43.330  36.222  29.681  1.00  0.00     0.009 A 
ATOM     82  C   UNL A   1      41.898  36.974  27.438  1.00  0.00     0.001 A 
ATOM     83  C   UNL A   1      43.377  37.547  29.242  1.00  0.00     0.001 A 
ATOM     84  C   UNL A   1      42.650  37.925  28.124  1.00  0.00     0.000 A 
ENDBRANCH  66  79
ENDBRANCH  40  41
ENDBRANCH  32  35
ENDBRANCH  30  31
ENDBRANCH  29  30
ENDBRANCH   1  29
TORSDOF 14
ENDMDL
