MODEL 1
REMARK VINA RESULT:     -11.3      0.000      0.000
REMARK SMILES COc1cccc(C(=O)N[C@H]2C=C[C@@H](C(=O)NCCCNC(=O)c3ccc(-c4c5nc(c(-c6ccccc6)c6ccc([nH]6)c(-c6ccccc6)c6nc(c(-c7ccccc7)c7ccc4[nH]7)C=C6)C=C5)cc3)C2)c1
REMARK SMILES IDX 18 1 17 2 15 3 16 4 14 6 11 7 12 8 72 9 13 10 10 11 8 12
REMARK SMILES IDX 9 13 7 15 3 16 4 17 73 18 5 19 6 20 2 21 1 22 19 23 20 24
REMARK SMILES IDX 21 25 22 26 23 28 24 29 25 30 71 31 26 32 70 33 27 34 28 35
REMARK SMILES IDX 29 36 64 37 30 38 69 39 63 40 65 41 31 42 68 43 62 44 61 45
REMARK SMILES IDX 32 47 54 48 39 49 53 50 40 51 43 52 52 53 66 54 41 55 42 56
REMARK SMILES IDX 51 58 67 59 44 60 33 61 34 62 38 63 35 64 37 65 36 66 55 67
REMARK SMILES IDX 56 68 60 69 57 70 59 71 58 72 45 73 46 74 50 75 47 76 49 77
REMARK SMILES IDX 48 78
REMARK H PARENT 17 5 10 14 21 27 65 46 43 57
REMARK Flexibility Score: inf
ROOT
ATOM      1  C   UNL A   1      37.196  20.825  24.840  1.00  0.00     0.117 C 
ENDROOT
BRANCH   1   2
ATOM      2  N   UNL A   1      35.856  20.462  25.260  1.00  0.00    -0.356 N 
ATOM      3  C   UNL A   1      34.679  21.137  25.167  1.00  0.00     0.227 C 
ATOM      4  O   UNL A   1      33.660  20.545  25.536  1.00  0.00    -0.274 OA
ATOM      5  H   UNL A   1      35.787  19.577  25.686  1.00  0.00     0.163 HD
BRANCH   3   6
ATOM      6  C   UNL A   1      34.591  22.594  24.711  1.00  0.00     0.103 C 
ATOM      7  C   UNL A   1      32.831  24.326  24.796  1.00  0.00     0.106 C 
ATOM      8  C   UNL A   1      33.960  24.603  25.743  1.00  0.00    -0.006 C 
ATOM      9  C   UNL A   1      33.189  22.951  24.220  1.00  0.00     0.047 C 
ATOM     10  C   UNL A   1      34.906  23.656  25.712  1.00  0.00    -0.016 C 
BRANCH   7  11
ATOM     11  N   UNL A   1      31.591  24.385  25.546  1.00  0.00    -0.346 N 
ATOM     12  C   UNL A   1      30.694  25.398  25.778  1.00  0.00     0.251 C 
ATOM     13  O   UNL A   1      29.744  25.174  26.526  1.00  0.00    -0.269 OA
ATOM     14  H   UNL A   1      31.344  23.531  25.971  1.00  0.00     0.164 HD
BRANCH  12  15
ATOM     15  C   UNL A   1      30.765  26.705  25.081  1.00  0.00     0.043 A 
ATOM     16  C   UNL A   1      30.188  28.248  23.321  1.00  0.00     0.119 A 
ATOM     17  C   UNL A   1      30.856  29.277  23.981  1.00  0.00     0.046 A 
ATOM     18  C   UNL A   1      30.189  26.949  23.833  1.00  0.00     0.060 A 
ATOM     19  C   UNL A   1      31.497  29.022  25.190  1.00  0.00     0.005 A 
ATOM     20  C   UNL A   1      31.445  27.743  25.742  1.00  0.00     0.014 A 
BRANCH  16  21
ATOM     21  O   UNL A   1      29.561  28.552  22.143  1.00  0.00    -0.497 OA
ATOM     22  C   UNL A   1      29.413  29.966  21.992  1.00  0.00     0.278 C 
ENDBRANCH  16  21
ENDBRANCH  12  15
ENDBRANCH   7  11
ENDBRANCH   3   6
ENDBRANCH   1   2
BRANCH   1  23
ATOM     23  C   UNL A   1      38.194  19.677  24.954  1.00  0.00     0.042 C 
BRANCH  23  24
ATOM     24  C   UNL A   1      39.176  19.796  26.115  1.00  0.00     0.118 C 
BRANCH  24  25
ATOM     25  N   UNL A   1      40.467  19.189  25.826  1.00  0.00    -0.352 N 
ATOM     26  C   UNL A   1      41.738  19.699  25.865  1.00  0.00     0.251 C 
ATOM     27  H   UNL A   1      40.419  18.244  25.555  1.00  0.00     0.163 HD
ATOM     28  O   UNL A   1      42.655  19.042  25.370  1.00  0.00    -0.269 OA
BRANCH  26  29
ATOM     29  C   UNL A   1      42.034  21.013  26.476  1.00  0.00     0.039 A 
ATOM     30  C   UNL A   1      42.391  22.071  25.632  1.00  0.00     0.014 A 
ATOM     31  C   UNL A   1      42.043  21.200  27.860  1.00  0.00     0.014 A 
ATOM     32  C   UNL A   1      42.707  23.320  26.172  1.00  0.00     0.010 A 
ATOM     33  C   UNL A   1      42.285  22.466  28.395  1.00  0.00     0.010 A 
ATOM     34  C   UNL A   1      42.630  23.535  27.557  1.00  0.00    -0.014 A 
BRANCH  34  35
ATOM     35  C   UNL A   1      42.904  24.878  28.128  1.00  0.00     0.031 A 
ATOM     36  C   UNL A   1      44.296  25.276  28.527  1.00  0.00     0.074 A 
ATOM     37  C   UNL A   1      41.879  25.729  28.324  1.00  0.00     0.049 A 
ATOM     38  N   UNL A   1      44.718  26.416  29.018  1.00  0.00    -0.248 NA
ATOM     39  C   UNL A   1      45.350  24.259  28.384  1.00  0.00     0.031 C 
ATOM     40  C   UNL A   1      40.472  25.440  28.040  1.00  0.00     0.029 A 
ATOM     41  N   UNL A   1      41.865  27.013  28.806  1.00  0.00    -0.354 N 
ATOM     42  C   UNL A   1      46.075  26.246  29.259  1.00  0.00     0.074 A 
ATOM     43  C   UNL A   1      46.399  24.882  28.901  1.00  0.00     0.031 C 
ATOM     44  C   UNL A   1      39.736  26.527  28.320  1.00  0.00     0.029 A 
ATOM     45  C   UNL A   1      40.614  27.578  28.824  1.00  0.00     0.049 A 
ATOM     46  H   UNL A   1      42.675  27.483  29.112  1.00  0.00     0.167 HD
ATOM     47  C   UNL A   1      46.976  27.147  29.721  1.00  0.00     0.031 A 
ATOM     48  C   UNL A   1      40.218  28.811  29.191  1.00  0.00     0.031 A 
ATOM     49  C   UNL A   1      46.661  28.510  30.061  1.00  0.00     0.049 A 
ATOM     50  C   UNL A   1      41.241  29.808  29.648  1.00  0.00     0.074 A 
ATOM     51  C   UNL A   1      47.518  29.518  30.468  1.00  0.00     0.029 A 
ATOM     52  N   UNL A   1      45.388  29.054  30.031  1.00  0.00    -0.354 N 
ATOM     53  N   UNL A   1      42.535  29.656  29.789  1.00  0.00    -0.248 NA
ATOM     54  C   UNL A   1      40.748  31.152  29.979  1.00  0.00     0.031 C 
ATOM     55  C   UNL A   1      46.754  30.665  30.721  1.00  0.00     0.029 A 
ATOM     56  C   UNL A   1      45.431  30.380  30.429  1.00  0.00     0.049 A 
ATOM     57  H   UNL A   1      44.572  28.570  29.767  1.00  0.00     0.167 HD
ATOM     58  C   UNL A   1      43.015  30.891  30.206  1.00  0.00     0.074 A 
ATOM     59  C   UNL A   1      41.876  31.783  30.275  1.00  0.00     0.031 C 
ATOM     60  C   UNL A   1      44.287  31.251  30.504  1.00  0.00     0.031 A 
BRANCH  47  61
ATOM     61  C   UNL A   1      48.393  26.677  29.891  1.00  0.00    -0.014 A 
ATOM     62  C   UNL A   1      49.329  26.796  28.852  1.00  0.00     0.009 A 
ATOM     63  C   UNL A   1      48.806  26.130  31.116  1.00  0.00     0.009 A 
ATOM     64  C   UNL A   1      50.638  26.341  29.022  1.00  0.00     0.001 A 
ATOM     65  C   UNL A   1      50.122  25.699  31.293  1.00  0.00     0.001 A 
ATOM     66  C   UNL A   1      51.034  25.795  30.243  1.00  0.00     0.000 A 
ENDBRANCH  47  61
BRANCH  48  67
ATOM     67  C   UNL A   1      38.784  29.181  29.091  1.00  0.00    -0.014 A 
ATOM     68  C   UNL A   1      38.257  29.656  27.881  1.00  0.00     0.009 A 
ATOM     69  C   UNL A   1      37.933  29.042  30.198  1.00  0.00     0.009 A 
ATOM     70  C   UNL A   1      36.907  30.003  27.787  1.00  0.00     0.001 A 
ATOM     71  C   UNL A   1      36.579  29.368  30.094  1.00  0.00     0.001 A 
ATOM     72  C   UNL A   1      36.070  29.855  28.891  1.00  0.00     0.000 A 
ENDBRANCH  48  67
BRANCH  60  73
ATOM     73  C   UNL A   1      44.509  32.678  30.915  1.00  0.00    -0.014 A 
ATOM     74  C   UNL A   1      44.776  33.674  29.962  1.00  0.00     0.009 A 
ATOM     75  C   UNL A   1      44.435  33.032  32.271  1.00  0.00     0.009 A 
ATOM     76  C   UNL A   1      45.004  34.991  30.366  1.00  0.00     0.001 A 
ATOM     77  C   UNL A   1      44.639  34.355  32.667  1.00  0.00     0.001 A 
ATOM     78  C   UNL A   1      44.934  35.330  31.716  1.00  0.00     0.000 A 
ENDBRANCH  60  73
ENDBRANCH  34  35
ENDBRANCH  26  29
ENDBRANCH  24  25
ENDBRANCH  23  24
ENDBRANCH   1  23
TORSDOF 13
ENDMDL
MODEL 2
REMARK VINA RESULT:     -11.2      0.455      6.015
REMARK SMILES COc1cccc(C(=O)N[C@H]2C=C[C@@H](C(=O)NCCCNC(=O)c3ccc(-c4c5nc(c(-c6ccccc6)c6ccc([nH]6)c(-c6ccccc6)c6nc(c(-c7ccccc7)c7ccc4[nH]7)C=C6)C=C5)cc3)C2)c1
REMARK SMILES IDX 18 1 17 2 15 3 16 4 14 6 11 7 12 8 72 9 13 10 10 11 8 12
REMARK SMILES IDX 9 13 7 15 3 16 4 17 73 18 5 19 6 20 2 21 1 22 19 23 20 24
REMARK SMILES IDX 21 25 22 26 23 28 24 29 25 30 71 31 26 32 70 33 27 34 28 35
REMARK SMILES IDX 29 36 64 37 30 38 69 39 63 40 65 41 31 42 68 43 62 44 61 45
REMARK SMILES IDX 32 47 54 48 39 49 53 50 40 51 43 52 52 53 66 54 41 55 42 56
REMARK SMILES IDX 51 58 67 59 44 60 33 61 34 62 38 63 35 64 37 65 36 66 55 67
REMARK SMILES IDX 56 68 60 69 57 70 59 71 58 72 45 73 46 74 50 75 47 76 49 77
REMARK SMILES IDX 48 78
REMARK H PARENT 17 5 10 14 21 27 65 46 43 57
REMARK Flexibility Score: inf
ROOT
ATOM      1  C   UNL A   1      37.095  20.684  24.655  1.00  0.00     0.117 C 
ENDROOT
BRANCH   1   2
ATOM      2  N   UNL A   1      35.847  20.430  25.349  1.00  0.00    -0.356 N 
ATOM      3  C   UNL A   1      34.696  21.150  25.406  1.00  0.00     0.227 C 
ATOM      4  O   UNL A   1      33.745  20.647  26.014  1.00  0.00    -0.274 OA
ATOM      5  H   UNL A   1      35.832  19.593  25.869  1.00  0.00     0.163 HD
BRANCH   3   6
ATOM      6  C   UNL A   1      34.568  22.560  24.827  1.00  0.00     0.103 C 
ATOM      7  C   UNL A   1      32.773  24.257  24.795  1.00  0.00     0.106 C 
ATOM      8  C   UNL A   1      33.911  24.638  25.693  1.00  0.00    -0.006 C 
ATOM      9  C   UNL A   1      33.151  22.844  24.332  1.00  0.00     0.047 C 
ATOM     10  C   UNL A   1      34.877  23.711  25.727  1.00  0.00    -0.016 C 
BRANCH   7  11
ATOM     11  N   UNL A   1      31.545  24.356  25.559  1.00  0.00    -0.346 N 
ATOM     12  C   UNL A   1      30.689  25.399  25.809  1.00  0.00     0.251 C 
ATOM     13  O   UNL A   1      29.739  25.204  26.566  1.00  0.00    -0.269 OA
ATOM     14  H   UNL A   1      31.271  23.509  25.981  1.00  0.00     0.164 HD
BRANCH  12  15
ATOM     15  C   UNL A   1      30.799  26.708  25.120  1.00  0.00     0.043 A 
ATOM     16  C   UNL A   1      30.360  28.241  23.313  1.00  0.00     0.119 A 
ATOM     17  C   UNL A   1      30.944  29.283  24.031  1.00  0.00     0.046 A 
ATOM     18  C   UNL A   1      30.338  26.942  23.824  1.00  0.00     0.060 A 
ATOM     19  C   UNL A   1      31.474  29.039  25.295  1.00  0.00     0.005 A 
ATOM     20  C   UNL A   1      31.395  27.758  25.841  1.00  0.00     0.014 A 
BRANCH  16  21
ATOM     21  O   UNL A   1      29.840  28.535  22.081  1.00  0.00    -0.497 OA
ATOM     22  C   UNL A   1      29.398  29.893  22.022  1.00  0.00     0.278 C 
ENDBRANCH  16  21
ENDBRANCH  12  15
ENDBRANCH   7  11
ENDBRANCH   3   6
ENDBRANCH   1   2
BRANCH   1  23
ATOM     23  C   UNL A   1      38.143  19.600  24.883  1.00  0.00     0.042 C 
BRANCH  23  24
ATOM     24  C   UNL A   1      39.090  19.860  26.049  1.00  0.00     0.118 C 
BRANCH  24  25
ATOM     25  N   UNL A   1      40.357  19.155  25.916  1.00  0.00    -0.352 N 
ATOM     26  C   UNL A   1      41.651  19.595  25.993  1.00  0.00     0.251 C 
ATOM     27  H   UNL A   1      40.267  18.191  25.738  1.00  0.00     0.163 HD
ATOM     28  O   UNL A   1      42.556  18.841  25.634  1.00  0.00    -0.269 OA
BRANCH  26  29
ATOM     29  C   UNL A   1      41.989  20.948  26.490  1.00  0.00     0.039 A 
ATOM     30  C   UNL A   1      41.890  21.193  27.863  1.00  0.00     0.014 A 
ATOM     31  C   UNL A   1      42.322  21.992  25.624  1.00  0.00     0.014 A 
ATOM     32  C   UNL A   1      42.171  22.464  28.369  1.00  0.00     0.010 A 
ATOM     33  C   UNL A   1      42.676  23.240  26.135  1.00  0.00     0.010 A 
ATOM     34  C   UNL A   1      42.593  23.492  27.511  1.00  0.00    -0.014 A 
BRANCH  34  35
ATOM     35  C   UNL A   1      42.954  24.826  28.053  1.00  0.00     0.031 A 
ATOM     36  C   UNL A   1      41.898  25.864  28.311  1.00  0.00     0.074 A 
ATOM     37  C   UNL A   1      44.249  25.116  28.275  1.00  0.00     0.049 A 
ATOM     38  N   UNL A   1      42.033  27.071  28.805  1.00  0.00    -0.248 NA
ATOM     39  C   UNL A   1      40.516  25.517  27.946  1.00  0.00     0.031 C 
ATOM     40  C   UNL A   1      45.376  24.220  28.005  1.00  0.00     0.029 A 
ATOM     41  N   UNL A   1      44.837  26.247  28.784  1.00  0.00    -0.354 N 
ATOM     42  C   UNL A   1      40.762  27.631  28.790  1.00  0.00     0.074 A 
ATOM     43  C   UNL A   1      39.876  26.649  28.200  1.00  0.00     0.031 C 
ATOM     44  C   UNL A   1      46.515  24.822  28.382  1.00  0.00     0.029 A 
ATOM     45  C   UNL A   1      46.201  26.151  28.899  1.00  0.00     0.049 A 
ATOM     46  H   UNL A   1      44.328  27.050  29.041  1.00  0.00     0.167 HD
ATOM     47  C   UNL A   1      40.363  28.844  29.240  1.00  0.00     0.031 A 
ATOM     48  C   UNL A   1      47.101  27.029  29.379  1.00  0.00     0.031 A 
ATOM     49  C   UNL A   1      41.237  29.815  29.844  1.00  0.00     0.049 A 
ATOM     50  C   UNL A   1      46.629  28.345  29.921  1.00  0.00     0.074 A 
ATOM     51  C   UNL A   1      40.915  31.043  30.396  1.00  0.00     0.029 A 
ATOM     52  N   UNL A   1      42.608  29.666  29.973  1.00  0.00    -0.354 N 
ATOM     53  N   UNL A   1      45.410  28.825  29.978  1.00  0.00    -0.248 NA
ATOM     54  C   UNL A   1      47.656  29.233  30.484  1.00  0.00     0.031 C 
ATOM     55  C   UNL A   1      42.099  31.653  30.827  1.00  0.00     0.029 A 
ATOM     56  C   UNL A   1      43.150  30.786  30.581  1.00  0.00     0.049 A 
ATOM     57  H   UNL A   1      43.122  28.880  29.677  1.00  0.00     0.167 HD
ATOM     58  C   UNL A   1      45.521  30.062  30.600  1.00  0.00     0.074 A 
ATOM     59  C   UNL A   1      46.922  30.248  30.918  1.00  0.00     0.031 C 
ATOM     60  C   UNL A   1      44.547  30.961  30.881  1.00  0.00     0.031 A 
BRANCH  47  61
ATOM     61  C   UNL A   1      38.908  29.190  29.088  1.00  0.00    -0.014 A 
ATOM     62  C   UNL A   1      38.403  29.697  27.880  1.00  0.00     0.009 A 
ATOM     63  C   UNL A   1      38.024  28.983  30.158  1.00  0.00     0.009 A 
ATOM     64  C   UNL A   1      37.052  30.027  27.759  1.00  0.00     0.001 A 
ATOM     65  C   UNL A   1      36.669  29.290  30.028  1.00  0.00     0.001 A 
ATOM     66  C   UNL A   1      36.186  29.820  28.833  1.00  0.00     0.000 A 
ENDBRANCH  47  61
BRANCH  48  67
ATOM     67  C   UNL A   1      48.540  26.663  29.411  1.00  0.00    -0.014 A 
ATOM     68  C   UNL A   1      49.074  25.984  30.516  1.00  0.00     0.009 A 
ATOM     69  C   UNL A   1      49.378  26.973  28.329  1.00  0.00     0.009 A 
ATOM     70  C   UNL A   1      50.427  25.639  30.545  1.00  0.00     0.001 A 
ATOM     71  C   UNL A   1      50.725  26.606  28.352  1.00  0.00     0.001 A 
ATOM     72  C   UNL A   1      51.249  25.946  29.463  1.00  0.00     0.000 A 
ENDBRANCH  48  67
BRANCH  60  73
ATOM     73  C   UNL A   1      44.970  32.220  31.583  1.00  0.00    -0.014 A 
ATOM     74  C   UNL A   1      45.344  33.363  30.860  1.00  0.00     0.009 A 
ATOM     75  C   UNL A   1      44.981  32.264  32.985  1.00  0.00     0.009 A 
ATOM     76  C   UNL A   1      45.758  34.516  31.531  1.00  0.00     0.001 A 
ATOM     77  C   UNL A   1      45.372  33.426  33.652  1.00  0.00     0.001 A 
ATOM     78  C   UNL A   1      45.770  34.546  32.925  1.00  0.00     0.000 A 
ENDBRANCH  60  73
ENDBRANCH  34  35
ENDBRANCH  26  29
ENDBRANCH  24  25
ENDBRANCH  23  24
ENDBRANCH   1  23
TORSDOF 13
ENDMDL
MODEL 3
REMARK VINA RESULT:     -11.2      3.360      9.153
REMARK SMILES COc1cccc(C(=O)N[C@H]2C=C[C@@H](C(=O)NCCCNC(=O)c3ccc(-c4c5nc(c(-c6ccccc6)c6ccc([nH]6)c(-c6ccccc6)c6nc(c(-c7ccccc7)c7ccc4[nH]7)C=C6)C=C5)cc3)C2)c1
REMARK SMILES IDX 18 1 17 2 15 3 16 4 14 6 11 7 12 8 72 9 13 10 10 11 8 12
REMARK SMILES IDX 9 13 7 15 3 16 4 17 73 18 5 19 6 20 2 21 1 22 19 23 20 24
REMARK SMILES IDX 21 25 22 26 23 28 24 29 25 30 71 31 26 32 70 33 27 34 28 35
REMARK SMILES IDX 29 36 64 37 30 38 69 39 63 40 65 41 31 42 68 43 62 44 61 45
REMARK SMILES IDX 32 47 54 48 39 49 53 50 40 51 43 52 52 53 66 54 41 55 42 56
REMARK SMILES IDX 51 58 67 59 44 60 33 61 34 62 38 63 35 64 37 65 36 66 55 67
REMARK SMILES IDX 56 68 60 69 57 70 59 71 58 72 45 73 46 74 50 75 47 76 49 77
REMARK SMILES IDX 48 78
REMARK H PARENT 17 5 10 14 21 27 65 46 43 57
REMARK Flexibility Score: inf
ROOT
ATOM      1  C   UNL A   1      31.493  30.616  26.361  1.00  0.00     0.117 C 
ENDROOT
BRANCH   1   2
ATOM      2  N   UNL A   1      31.289  30.242  24.974  1.00  0.00    -0.356 N 
ATOM      3  C   UNL A   1      31.327  29.028  24.363  1.00  0.00     0.227 C 
ATOM      4  O   UNL A   1      31.026  28.990  23.166  1.00  0.00    -0.274 OA
ATOM      5  H   UNL A   1      31.091  30.996  24.374  1.00  0.00     0.163 HD
BRANCH   3   6
ATOM      6  C   UNL A   1      31.795  27.756  25.071  1.00  0.00     0.103 C 
ATOM      7  C   UNL A   1      32.442  25.496  24.311  1.00  0.00     0.106 C 
ATOM      8  C   UNL A   1      33.612  26.298  24.796  1.00  0.00    -0.006 C 
ATOM      9  C   UNL A   1      31.282  26.497  24.375  1.00  0.00     0.047 C 
ATOM     10  C   UNL A   1      33.267  27.530  25.191  1.00  0.00    -0.016 C 
BRANCH   7  11
ATOM     11  N   UNL A   1      32.760  24.993  22.988  1.00  0.00    -0.346 N 
ATOM     12  C   UNL A   1      33.320  23.818  22.552  1.00  0.00     0.251 C 
ATOM     13  O   UNL A   1      33.539  23.689  21.349  1.00  0.00    -0.269 OA
ATOM     14  H   UNL A   1      32.528  25.616  22.261  1.00  0.00     0.164 HD
BRANCH  12  15
ATOM     15  C   UNL A   1      33.565  22.665  23.452  1.00  0.00     0.043 A 
ATOM     16  C   UNL A   1      32.956  20.592  24.521  1.00  0.00     0.119 A 
ATOM     17  C   UNL A   1      34.243  20.463  25.041  1.00  0.00     0.046 A 
ATOM     18  C   UNL A   1      32.593  21.718  23.779  1.00  0.00     0.060 A 
ATOM     19  C   UNL A   1      35.195  21.443  24.781  1.00  0.00     0.005 A 
ATOM     20  C   UNL A   1      34.860  22.537  23.983  1.00  0.00     0.014 A 
BRANCH  16  21
ATOM     21  O   UNL A   1      32.059  19.594  24.793  1.00  0.00    -0.497 OA
ATOM     22  C   UNL A   1      32.449  18.371  24.166  1.00  0.00     0.278 C 
ENDBRANCH  16  21
ENDBRANCH  12  15
ENDBRANCH   7  11
ENDBRANCH   3   6
ENDBRANCH   1   2
BRANCH   1  23
ATOM     23  C   UNL A   1      31.384  32.117  26.602  1.00  0.00     0.042 C 
BRANCH  23  24
ATOM     24  C   UNL A   1      32.700  32.809  26.944  1.00  0.00     0.118 C 
BRANCH  24  25
ATOM     25  N   UNL A   1      32.518  33.990  27.775  1.00  0.00    -0.352 N 
ATOM     26  C   UNL A   1      33.225  34.460  28.849  1.00  0.00     0.251 C 
ATOM     27  H   UNL A   1      31.750  34.550  27.519  1.00  0.00     0.163 HD
ATOM     28  O   UNL A   1      32.746  35.376  29.519  1.00  0.00    -0.269 OA
BRANCH  26  29
ATOM     29  C   UNL A   1      34.539  33.895  29.228  1.00  0.00     0.039 A 
ATOM     30  C   UNL A   1      34.584  32.963  30.270  1.00  0.00     0.014 A 
ATOM     31  C   UNL A   1      35.728  34.323  28.631  1.00  0.00     0.014 A 
ATOM     32  C   UNL A   1      35.809  32.428  30.677  1.00  0.00     0.010 A 
ATOM     33  C   UNL A   1      36.942  33.734  28.986  1.00  0.00     0.010 A 
ATOM     34  C   UNL A   1      36.995  32.790  30.020  1.00  0.00    -0.014 A 
BRANCH  34  35
ATOM     35  C   UNL A   1      38.289  32.175  30.408  1.00  0.00     0.031 A 
ATOM     36  C   UNL A   1      39.176  32.827  31.432  1.00  0.00     0.074 A 
ATOM     37  C   UNL A   1      38.685  31.040  29.803  1.00  0.00     0.049 A 
ATOM     38  N   UNL A   1      40.326  32.416  31.906  1.00  0.00    -0.248 NA
ATOM     39  C   UNL A   1      38.731  34.120  31.975  1.00  0.00     0.031 C 
ATOM     40  C   UNL A   1      37.948  30.341  28.747  1.00  0.00     0.029 A 
ATOM     41  N   UNL A   1      39.806  30.271  29.992  1.00  0.00    -0.354 N 
ATOM     42  C   UNL A   1      40.749  33.405  32.785  1.00  0.00     0.074 A 
ATOM     43  C   UNL A   1      39.754  34.456  32.747  1.00  0.00     0.031 C 
ATOM     44  C   UNL A   1      38.618  29.230  28.406  1.00  0.00     0.029 A 
ATOM     45  C   UNL A   1      39.840  29.149  29.201  1.00  0.00     0.049 A 
ATOM     46  H   UNL A   1      40.517  30.502  30.632  1.00  0.00     0.167 HD
ATOM     47  C   UNL A   1      41.856  33.432  33.566  1.00  0.00     0.031 A 
ATOM     48  C   UNL A   1      40.747  28.157  29.132  1.00  0.00     0.031 A 
ATOM     49  C   UNL A   1      42.837  32.381  33.620  1.00  0.00     0.049 A 
ATOM     50  C   UNL A   1      41.937  28.182  30.044  1.00  0.00     0.074 A 
ATOM     51  C   UNL A   1      43.955  32.284  34.433  1.00  0.00     0.029 A 
ATOM     52  N   UNL A   1      42.818  31.244  32.829  1.00  0.00    -0.354 N 
ATOM     53  N   UNL A   1      42.277  29.084  30.932  1.00  0.00    -0.248 NA
ATOM     54  C   UNL A   1      42.857  27.039  29.958  1.00  0.00     0.031 C 
ATOM     55  C   UNL A   1      44.632  31.102  34.105  1.00  0.00     0.029 A 
ATOM     56  C   UNL A   1      43.912  30.447  33.120  1.00  0.00     0.049 A 
ATOM     57  H   UNL A   1      42.129  31.034  32.158  1.00  0.00     0.167 HD
ATOM     58  C   UNL A   1      43.440  28.610  31.523  1.00  0.00     0.074 A 
ATOM     59  C   UNL A   1      43.734  27.331  30.908  1.00  0.00     0.031 C 
ATOM     60  C   UNL A   1      44.197  29.184  32.491  1.00  0.00     0.031 A 
BRANCH  47  61
ATOM     61  C   UNL A   1      42.063  34.649  34.423  1.00  0.00    -0.014 A 
ATOM     62  C   UNL A   1      41.599  34.694  35.747  1.00  0.00     0.009 A 
ATOM     63  C   UNL A   1      42.754  35.757  33.909  1.00  0.00     0.009 A 
ATOM     64  C   UNL A   1      41.788  35.838  36.526  1.00  0.00     0.001 A 
ATOM     65  C   UNL A   1      42.963  36.891  34.696  1.00  0.00     0.001 A 
ATOM     66  C   UNL A   1      42.472  36.934  36.000  1.00  0.00     0.000 A 
ENDBRANCH  47  61
BRANCH  48  67
ATOM     67  C   UNL A   1      40.531  27.030  28.190  1.00  0.00    -0.014 A 
ATOM     68  C   UNL A   1      41.047  27.086  26.888  1.00  0.00     0.009 A 
ATOM     69  C   UNL A   1      39.828  25.886  28.597  1.00  0.00     0.009 A 
ATOM     70  C   UNL A   1      40.846  26.024  26.002  1.00  0.00     0.001 A 
ATOM     71  C   UNL A   1      39.649  24.817  27.717  1.00  0.00     0.001 A 
ATOM     72  C   UNL A   1      40.151  24.890  26.418  1.00  0.00     0.000 A 
ENDBRANCH  48  67
BRANCH  60  73
ATOM     73  C   UNL A   1      45.404  28.418  32.950  1.00  0.00    -0.014 A 
ATOM     74  C   UNL A   1      46.657  28.610  32.347  1.00  0.00     0.009 A 
ATOM     75  C   UNL A   1      45.288  27.504  34.008  1.00  0.00     0.009 A 
ATOM     76  C   UNL A   1      47.763  27.871  32.772  1.00  0.00     0.001 A 
ATOM     77  C   UNL A   1      46.401  26.785  34.446  1.00  0.00     0.001 A 
ATOM     78  C   UNL A   1      47.634  26.961  33.820  1.00  0.00     0.000 A 
ENDBRANCH  60  73
ENDBRANCH  34  35
ENDBRANCH  26  29
ENDBRANCH  24  25
ENDBRANCH  23  24
ENDBRANCH   1  23
TORSDOF 13
ENDMDL
