MODEL 1
REMARK VINA RESULT:     -10.3      0.000      0.000
REMARK SMILES C[C@H](Nc1ccc(F)cc1Br)[C@@H](C)C(=O)NCCCNC(=O)c1ccc(-c2c3nc(c(-c4ccccc4)c4ccc([nH]4)c(-c4ccccc4)c4nc(c(-c5ccccc5)c5ccc2[nH]5)C=C4)C=C3)cc1
REMARK SMILES IDX 17 1 16 2 14 3 15 4 12 6 13 7 2 8 1 9 3 10 4 12 5 13 10 14
REMARK SMILES IDX 6 15 9 16 11 17 7 18 8 19 18 20 19 21 20 22 21 23 22 25
REMARK SMILES IDX 23 26 24 27 70 28 25 29 69 30 26 31 27 32 28 33 63 34 29 35
REMARK SMILES IDX 68 36 62 37 64 38 30 39 67 40 61 41 60 42 31 44 53 45 38 46
REMARK SMILES IDX 52 47 39 48 42 49 51 50 65 51 40 52 41 53 50 55 66 56 43 57
REMARK SMILES IDX 32 58 33 59 37 60 34 61 36 62 35 63 54 64 55 65 59 66 56 67
REMARK SMILES IDX 58 68 57 69 44 70 45 71 49 72 46 73 48 74 47 75
REMARK H PARENT 16 5 3 11 20 24 64 43 42 54
REMARK Flexibility Score: inf
ROOT
ATOM      1  C   UNL A   1      31.430  27.191  26.384  1.00  0.00     0.117 C 
ENDROOT
BRANCH   1   2
ATOM      2  N   UNL A   1      31.164  25.796  26.681  1.00  0.00    -0.356 N 
ATOM      3  C   UNL A   1      31.227  24.676  25.916  1.00  0.00     0.224 C 
ATOM      4  O   UNL A   1      30.942  23.609  26.468  1.00  0.00    -0.275 OA
ATOM      5  H   UNL A   1      30.885  25.630  27.610  1.00  0.00     0.163 HD
BRANCH   3   6
ATOM      6  C   UNL A   1      31.630  24.696  24.446  1.00  0.00     0.097 C 
ATOM      7  C   UNL A   1      30.718  23.763  23.641  1.00  0.00     0.020 C 
BRANCH   6   8
ATOM      8  C   UNL A   1      33.158  24.517  24.240  1.00  0.00     0.088 C 
ATOM      9  C   UNL A   1      33.428  23.834  22.882  1.00  0.00     0.031 C 
BRANCH   8  10
ATOM     10  N   UNL A   1      33.712  23.724  25.346  1.00  0.00    -0.381 N 
ATOM     11  H   UNL A   1      33.092  23.524  26.083  1.00  0.00     0.160 HD
BRANCH  10  12
ATOM     12  C   UNL A   1      34.997  23.222  25.481  1.00  0.00     0.049 A 
ATOM     13  C   UNL A   1      36.122  24.041  25.637  1.00  0.00     0.030 A 
ATOM     14  C   UNL A   1      35.217  21.828  25.378  1.00  0.00     0.044 A 
ATOM     15  C   UNL A   1      37.414  23.503  25.623  1.00  0.00     0.041 A 
ATOM     16  C   UNL A   1      36.501  21.284  25.367  1.00  0.00     0.057 A 
ATOM     17  Br  UNL A   1      33.749  20.623  25.206  1.00  0.00    -0.048 Br
ATOM     18  C   UNL A   1      37.589  22.133  25.475  1.00  0.00     0.124 A 
ATOM     19  F   UNL A   1      38.828  21.627  25.434  1.00  0.00    -0.207 F 
ENDBRANCH  10  12
ENDBRANCH   8  10
ENDBRANCH   6   8
ENDBRANCH   3   6
ENDBRANCH   1   2
BRANCH   1  20
ATOM     20  C   UNL A   1      32.132  27.902  27.534  1.00  0.00     0.042 C 
BRANCH  20  21
ATOM     21  C   UNL A   1      33.436  28.588  27.144  1.00  0.00     0.118 C 
BRANCH  21  22
ATOM     22  N   UNL A   1      33.461  29.999  27.500  1.00  0.00    -0.352 N 
ATOM     23  C   UNL A   1      34.425  30.739  28.137  1.00  0.00     0.251 C 
ATOM     24  H   UNL A   1      32.655  30.504  27.244  1.00  0.00     0.163 HD
ATOM     25  O   UNL A   1      34.161  31.881  28.512  1.00  0.00    -0.269 OA
BRANCH  23  26
ATOM     26  C   UNL A   1      35.766  30.176  28.396  1.00  0.00     0.039 A 
ATOM     27  C   UNL A   1      36.718  30.203  27.372  1.00  0.00     0.014 A 
ATOM     28  C   UNL A   1      36.083  29.593  29.625  1.00  0.00     0.014 A 
ATOM     29  C   UNL A   1      38.005  29.709  27.604  1.00  0.00     0.010 A 
ATOM     30  C   UNL A   1      37.387  29.179  29.883  1.00  0.00     0.010 A 
ATOM     31  C   UNL A   1      38.361  29.229  28.874  1.00  0.00    -0.014 A 
BRANCH  31  32
ATOM     32  C   UNL A   1      39.742  28.768  29.167  1.00  0.00     0.031 A 
ATOM     33  C   UNL A   1      40.721  29.691  29.843  1.00  0.00     0.074 A 
ATOM     34  C   UNL A   1      40.137  27.545  28.764  1.00  0.00     0.049 A 
ATOM     35  N   UNL A   1      41.988  29.497  30.111  1.00  0.00    -0.248 NA
ATOM     36  C   UNL A   1      40.217  31.013  30.248  1.00  0.00     0.031 C 
ATOM     37  C   UNL A   1      39.299  26.568  28.065  1.00  0.00     0.029 A 
ATOM     38  N   UNL A   1      41.353  26.918  28.877  1.00  0.00    -0.354 N 
ATOM     39  C   UNL A   1      42.435  30.678  30.692  1.00  0.00     0.074 A 
ATOM     40  C   UNL A   1      41.318  31.597  30.697  1.00  0.00     0.031 C 
ATOM     41  C   UNL A   1      40.017  25.456  27.837  1.00  0.00     0.029 A 
ATOM     42  C   UNL A   1      41.374  25.657  28.333  1.00  0.00     0.049 A 
ATOM     43  H   UNL A   1      42.135  27.332  29.308  1.00  0.00     0.167 HD
ATOM     44  C   UNL A   1      43.658  30.965  31.195  1.00  0.00     0.031 A 
ATOM     45  C   UNL A   1      42.376  24.763  28.237  1.00  0.00     0.031 A 
ATOM     46  C   UNL A   1      44.765  30.046  31.208  1.00  0.00     0.049 A 
ATOM     47  C   UNL A   1      43.728  25.110  28.795  1.00  0.00     0.074 A 
ATOM     48  C   UNL A   1      46.028  30.226  31.746  1.00  0.00     0.029 A 
ATOM     49  N   UNL A   1      44.741  28.775  30.658  1.00  0.00    -0.354 N 
ATOM     50  N   UNL A   1      44.116  26.207  29.397  1.00  0.00    -0.248 NA
ATOM     51  C   UNL A   1      44.777  24.087  28.671  1.00  0.00     0.031 C 
ATOM     52  C   UNL A   1      46.782  29.078  31.482  1.00  0.00     0.029 A 
ATOM     53  C   UNL A   1      45.972  28.166  30.825  1.00  0.00     0.049 A 
ATOM     54  H   UNL A   1      43.963  28.366  30.214  1.00  0.00     0.167 HD
ATOM     55  C   UNL A   1      45.443  25.998  29.747  1.00  0.00     0.074 A 
ATOM     56  C   UNL A   1      45.788  24.663  29.303  1.00  0.00     0.031 C 
ATOM     57  C   UNL A   1      46.299  26.836  30.380  1.00  0.00     0.031 A 
BRANCH  44  58
ATOM     58  C   UNL A   1      43.865  32.338  31.773  1.00  0.00    -0.014 A 
ATOM     59  C   UNL A   1      44.306  33.404  30.973  1.00  0.00     0.009 A 
ATOM     60  C   UNL A   1      43.582  32.577  33.127  1.00  0.00     0.009 A 
ATOM     61  C   UNL A   1      44.492  34.674  31.525  1.00  0.00     0.001 A 
ATOM     62  C   UNL A   1      43.742  33.853  33.669  1.00  0.00     0.001 A 
ATOM     63  C   UNL A   1      44.205  34.898  32.871  1.00  0.00     0.000 A 
ENDBRANCH  44  58
BRANCH  45  64
ATOM     64  C   UNL A   1      42.139  23.443  27.596  1.00  0.00    -0.014 A 
ATOM     65  C   UNL A   1      42.415  23.256  26.234  1.00  0.00     0.009 A 
ATOM     66  C   UNL A   1      41.630  22.367  28.339  1.00  0.00     0.009 A 
ATOM     67  C   UNL A   1      42.158  22.027  25.621  1.00  0.00     0.001 A 
ATOM     68  C   UNL A   1      41.401  21.131  27.732  1.00  0.00     0.001 A 
ATOM     69  C   UNL A   1      41.656  20.965  26.372  1.00  0.00     0.000 A 
ENDBRANCH  45  64
BRANCH  57  70
ATOM     70  C   UNL A   1      47.681  26.320  30.664  1.00  0.00    -0.014 A 
ATOM     71  C   UNL A   1      48.711  26.439  29.718  1.00  0.00     0.009 A 
ATOM     72  C   UNL A   1      47.963  25.742  31.912  1.00  0.00     0.009 A 
ATOM     73  C   UNL A   1      49.991  25.959  30.007  1.00  0.00     0.001 A 
ATOM     74  C   UNL A   1      49.249  25.290  32.207  1.00  0.00     0.001 A 
ATOM     75  C   UNL A   1      50.259  25.388  31.252  1.00  0.00     0.000 A 
ENDBRANCH  57  70
ENDBRANCH  31  32
ENDBRANCH  23  26
ENDBRANCH  21  22
ENDBRANCH  20  21
ENDBRANCH   1  20
TORSDOF 13
ENDMDL
MODEL 2
REMARK VINA RESULT:     -10.2      0.423      1.080
REMARK SMILES C[C@H](Nc1ccc(F)cc1Br)[C@@H](C)C(=O)NCCCNC(=O)c1ccc(-c2c3nc(c(-c4ccccc4)c4ccc([nH]4)c(-c4ccccc4)c4nc(c(-c5ccccc5)c5ccc2[nH]5)C=C4)C=C3)cc1
REMARK SMILES IDX 17 1 16 2 14 3 15 4 12 6 13 7 2 8 1 9 3 10 4 12 5 13 10 14
REMARK SMILES IDX 6 15 9 16 11 17 7 18 8 19 18 20 19 21 20 22 21 23 22 25
REMARK SMILES IDX 23 26 24 27 70 28 25 29 69 30 26 31 27 32 28 33 63 34 29 35
REMARK SMILES IDX 68 36 62 37 64 38 30 39 67 40 61 41 60 42 31 44 53 45 38 46
REMARK SMILES IDX 52 47 39 48 42 49 51 50 65 51 40 52 41 53 50 55 66 56 43 57
REMARK SMILES IDX 32 58 33 59 37 60 34 61 36 62 35 63 54 64 55 65 59 66 56 67
REMARK SMILES IDX 58 68 57 69 44 70 45 71 49 72 46 73 48 74 47 75
REMARK H PARENT 16 5 3 11 20 24 64 43 42 54
REMARK Flexibility Score: inf
ROOT
ATOM      1  C   UNL A   1      31.670  27.449  26.206  1.00  0.00     0.117 C 
ENDROOT
BRANCH   1   2
ATOM      2  N   UNL A   1      31.126  26.140  26.518  1.00  0.00    -0.356 N 
ATOM      3  C   UNL A   1      31.084  24.982  25.812  1.00  0.00     0.224 C 
ATOM      4  O   UNL A   1      30.549  24.014  26.362  1.00  0.00    -0.275 OA
ATOM      5  H   UNL A   1      30.710  26.081  27.409  1.00  0.00     0.163 HD
BRANCH   3   6
ATOM      6  C   UNL A   1      31.662  24.843  24.408  1.00  0.00     0.097 C 
ATOM      7  C   UNL A   1      30.950  23.711  23.659  1.00  0.00     0.020 C 
BRANCH   6   8
ATOM      8  C   UNL A   1      33.214  24.811  24.399  1.00  0.00     0.088 C 
ATOM      9  C   UNL A   1      33.724  24.518  22.972  1.00  0.00     0.031 C 
BRANCH   8  10
ATOM     10  N   UNL A   1      33.689  23.794  25.346  1.00  0.00    -0.381 N 
ATOM     11  H   UNL A   1      33.027  23.473  26.000  1.00  0.00     0.160 HD
BRANCH  10  12
ATOM     12  C   UNL A   1      34.951  23.228  25.435  1.00  0.00     0.049 A 
ATOM     13  C   UNL A   1      36.093  23.962  25.775  1.00  0.00     0.030 A 
ATOM     14  C   UNL A   1      35.133  21.867  25.090  1.00  0.00     0.044 A 
ATOM     15  C   UNL A   1      37.367  23.388  25.712  1.00  0.00     0.041 A 
ATOM     16  C   UNL A   1      36.399  21.286  25.028  1.00  0.00     0.057 A 
ATOM     17  Br  UNL A   1      33.637  20.769  24.652  1.00  0.00    -0.048 Br
ATOM     18  C   UNL A   1      37.507  22.061  25.326  1.00  0.00     0.124 A 
ATOM     19  F   UNL A   1      38.730  21.524  25.239  1.00  0.00    -0.207 F 
ENDBRANCH  10  12
ENDBRANCH   8  10
ENDBRANCH   6   8
ENDBRANCH   3   6
ENDBRANCH   1   2
BRANCH   1  20
ATOM     20  C   UNL A   1      32.221  28.154  27.439  1.00  0.00     0.042 C 
BRANCH  20  21
ATOM     21  C   UNL A   1      33.579  28.814  27.228  1.00  0.00     0.118 C 
BRANCH  21  22
ATOM     22  N   UNL A   1      33.618  30.190  27.702  1.00  0.00    -0.352 N 
ATOM     23  C   UNL A   1      34.597  30.870  28.381  1.00  0.00     0.251 C 
ATOM     24  H   UNL A   1      32.810  30.718  27.503  1.00  0.00     0.163 HD
ATOM     25  O   UNL A   1      34.346  31.978  28.855  1.00  0.00    -0.269 OA
BRANCH  23  26
ATOM     26  C   UNL A   1      35.940  30.282  28.566  1.00  0.00     0.039 A 
ATOM     27  C   UNL A   1      36.847  30.323  27.502  1.00  0.00     0.014 A 
ATOM     28  C   UNL A   1      36.301  29.663  29.764  1.00  0.00     0.014 A 
ATOM     29  C   UNL A   1      38.135  29.806  27.665  1.00  0.00     0.010 A 
ATOM     30  C   UNL A   1      37.609  29.225  29.955  1.00  0.00     0.010 A 
ATOM     31  C   UNL A   1      38.538  29.287  28.905  1.00  0.00    -0.014 A 
BRANCH  31  32
ATOM     32  C   UNL A   1      39.924  28.800  29.126  1.00  0.00     0.031 A 
ATOM     33  C   UNL A   1      40.965  29.717  29.710  1.00  0.00     0.074 A 
ATOM     34  C   UNL A   1      40.264  27.556  28.738  1.00  0.00     0.049 A 
ATOM     35  N   UNL A   1      42.242  29.499  29.904  1.00  0.00    -0.248 NA
ATOM     36  C   UNL A   1      40.519  31.063  30.105  1.00  0.00     0.031 C 
ATOM     37  C   UNL A   1      39.360  26.580  28.123  1.00  0.00     0.029 A 
ATOM     38  N   UNL A   1      41.469  26.901  28.793  1.00  0.00    -0.354 N 
ATOM     39  C   UNL A   1      42.752  30.684  30.420  1.00  0.00     0.074 A 
ATOM     40  C   UNL A   1      41.660  31.632  30.466  1.00  0.00     0.031 C 
ATOM     41  C   UNL A   1      40.035  25.445  27.885  1.00  0.00     0.029 A 
ATOM     42  C   UNL A   1      41.426  25.625  28.289  1.00  0.00     0.049 A 
ATOM     43  H   UNL A   1      42.287  27.308  29.162  1.00  0.00     0.167 HD
ATOM     44  C   UNL A   1      44.012  30.955  30.836  1.00  0.00     0.031 A 
ATOM     45  C   UNL A   1      42.398  24.703  28.158  1.00  0.00     0.031 A 
ATOM     46  C   UNL A   1      45.094  30.009  30.809  1.00  0.00     0.049 A 
ATOM     47  C   UNL A   1      43.790  25.032  28.620  1.00  0.00     0.074 A 
ATOM     48  C   UNL A   1      46.393  30.171  31.261  1.00  0.00     0.029 A 
ATOM     49  N   UNL A   1      45.006  28.723  30.301  1.00  0.00    -0.354 N 
ATOM     50  N   UNL A   1      44.241  26.136  29.161  1.00  0.00    -0.248 NA
ATOM     51  C   UNL A   1      44.805  23.979  28.462  1.00  0.00     0.031 C 
ATOM     52  C   UNL A   1      47.102  28.998  30.986  1.00  0.00     0.029 A 
ATOM     53  C   UNL A   1      46.230  28.088  30.409  1.00  0.00     0.049 A 
ATOM     54  H   UNL A   1      44.192  28.321  29.919  1.00  0.00     0.167 HD
ATOM     55  C   UNL A   1      45.583  25.903  29.435  1.00  0.00     0.074 A 
ATOM     56  C   UNL A   1      45.867  24.547  29.012  1.00  0.00     0.031 C 
ATOM     57  C   UNL A   1      46.497  26.738  29.986  1.00  0.00     0.031 A 
BRANCH  44  58
ATOM     58  C   UNL A   1      44.287  32.338  31.357  1.00  0.00    -0.014 A 
ATOM     59  C   UNL A   1      44.146  32.642  32.721  1.00  0.00     0.009 A 
ATOM     60  C   UNL A   1      44.725  33.342  30.480  1.00  0.00     0.009 A 
ATOM     61  C   UNL A   1      44.407  33.932  33.190  1.00  0.00     0.001 A 
ATOM     62  C   UNL A   1      45.012  34.623  30.955  1.00  0.00     0.001 A 
ATOM     63  C   UNL A   1      44.844  34.919  32.307  1.00  0.00     0.000 A 
ENDBRANCH  44  58
BRANCH  45  64
ATOM     64  C   UNL A   1      42.090  23.371  27.575  1.00  0.00    -0.014 A 
ATOM     65  C   UNL A   1      41.371  22.421  28.315  1.00  0.00     0.009 A 
ATOM     66  C   UNL A   1      42.519  23.039  26.280  1.00  0.00     0.009 A 
ATOM     67  C   UNL A   1      41.113  21.156  27.783  1.00  0.00     0.001 A 
ATOM     68  C   UNL A   1      42.235  21.785  25.740  1.00  0.00     0.001 A 
ATOM     69  C   UNL A   1      41.542  20.840  26.495  1.00  0.00     0.000 A 
ENDBRANCH  45  64
BRANCH  57  70
ATOM     70  C   UNL A   1      47.882  26.194  30.199  1.00  0.00    -0.014 A 
ATOM     71  C   UNL A   1      48.295  25.728  31.457  1.00  0.00     0.009 A 
ATOM     72  C   UNL A   1      48.769  26.113  29.115  1.00  0.00     0.009 A 
ATOM     73  C   UNL A   1      49.584  25.220  31.630  1.00  0.00     0.001 A 
ATOM     74  C   UNL A   1      50.046  25.579  29.286  1.00  0.00     0.001 A 
ATOM     75  C   UNL A   1      50.457  25.142  30.544  1.00  0.00     0.000 A 
ENDBRANCH  57  70
ENDBRANCH  31  32
ENDBRANCH  23  26
ENDBRANCH  21  22
ENDBRANCH  20  21
ENDBRANCH   1  20
TORSDOF 13
ENDMDL
MODEL 3
REMARK VINA RESULT:      -9.9      1.244      1.906
REMARK SMILES C[C@H](Nc1ccc(F)cc1Br)[C@@H](C)C(=O)NCCCNC(=O)c1ccc(-c2c3nc(c(-c4ccccc4)c4ccc([nH]4)c(-c4ccccc4)c4nc(c(-c5ccccc5)c5ccc2[nH]5)C=C4)C=C3)cc1
REMARK SMILES IDX 17 1 16 2 14 3 15 4 12 6 13 7 2 8 1 9 3 10 4 12 5 13 10 14
REMARK SMILES IDX 6 15 9 16 11 17 7 18 8 19 18 20 19 21 20 22 21 23 22 25
REMARK SMILES IDX 23 26 24 27 70 28 25 29 69 30 26 31 27 32 28 33 63 34 29 35
REMARK SMILES IDX 68 36 62 37 64 38 30 39 67 40 61 41 60 42 31 44 53 45 38 46
REMARK SMILES IDX 52 47 39 48 42 49 51 50 65 51 40 52 41 53 50 55 66 56 43 57
REMARK SMILES IDX 32 58 33 59 37 60 34 61 36 62 35 63 54 64 55 65 59 66 56 67
REMARK SMILES IDX 58 68 57 69 44 70 45 71 49 72 46 73 48 74 47 75
REMARK H PARENT 16 5 3 11 20 24 64 43 42 54
REMARK Flexibility Score: inf
ROOT
ATOM      1  C   UNL A   1      31.848  28.048  26.763  1.00  0.00     0.117 C 
ENDROOT
BRANCH   1   2
ATOM      2  N   UNL A   1      31.031  26.861  26.933  1.00  0.00    -0.356 N 
ATOM      3  C   UNL A   1      30.503  25.987  26.040  1.00  0.00     0.224 C 
ATOM      4  O   UNL A   1      29.844  25.049  26.501  1.00  0.00    -0.275 OA
ATOM      5  H   UNL A   1      30.820  26.650  27.871  1.00  0.00     0.163 HD
BRANCH   3   6
ATOM      6  C   UNL A   1      30.694  26.120  24.533  1.00  0.00     0.097 C 
ATOM      7  C   UNL A   1      29.340  26.353  23.852  1.00  0.00     0.020 C 
BRANCH   6   8
ATOM      8  C   UNL A   1      31.583  24.995  23.939  1.00  0.00     0.088 C 
ATOM      9  C   UNL A   1      30.696  23.841  23.426  1.00  0.00     0.031 C 
BRANCH   8  10
ATOM     10  N   UNL A   1      32.522  24.519  24.964  1.00  0.00    -0.381 N 
ATOM     11  H   UNL A   1      32.277  24.718  25.896  1.00  0.00     0.160 HD
BRANCH  10  12
ATOM     12  C   UNL A   1      33.708  23.826  24.784  1.00  0.00     0.049 A 
ATOM     13  C   UNL A   1      34.535  24.006  23.668  1.00  0.00     0.030 A 
ATOM     14  C   UNL A   1      34.082  22.826  25.714  1.00  0.00     0.044 A 
ATOM     15  C   UNL A   1      35.646  23.184  23.452  1.00  0.00     0.041 A 
ATOM     16  C   UNL A   1      35.190  22.004  25.507  1.00  0.00     0.057 A 
ATOM     17  Br  UNL A   1      33.047  22.530  27.288  1.00  0.00    -0.048 Br
ATOM     18  C   UNL A   1      35.953  22.184  24.366  1.00  0.00     0.124 A 
ATOM     19  F   UNL A   1      37.001  21.382  24.140  1.00  0.00    -0.207 F 
ENDBRANCH  10  12
ENDBRANCH   8  10
ENDBRANCH   6   8
ENDBRANCH   3   6
ENDBRANCH   1   2
BRANCH   1  20
ATOM     20  C   UNL A   1      33.326  27.714  26.608  1.00  0.00     0.042 C 
BRANCH  20  21
ATOM     21  C   UNL A   1      34.160  28.835  25.999  1.00  0.00     0.118 C 
BRANCH  21  22
ATOM     22  N   UNL A   1      33.859  30.139  26.573  1.00  0.00    -0.352 N 
ATOM     23  C   UNL A   1      34.491  30.840  27.568  1.00  0.00     0.251 C 
ATOM     24  H   UNL A   1      33.075  30.589  26.184  1.00  0.00     0.163 HD
ATOM     25  O   UNL A   1      33.954  31.846  28.033  1.00  0.00    -0.269 OA
BRANCH  23  26
ATOM     26  C   UNL A   1      35.795  30.394  28.101  1.00  0.00     0.039 A 
ATOM     27  C   UNL A   1      35.832  29.750  29.342  1.00  0.00     0.014 A 
ATOM     28  C   UNL A   1      36.982  30.635  27.407  1.00  0.00     0.014 A 
ATOM     29  C   UNL A   1      37.049  29.287  29.850  1.00  0.00     0.010 A 
ATOM     30  C   UNL A   1      38.180  30.100  27.871  1.00  0.00     0.010 A 
ATOM     31  C   UNL A   1      38.227  29.425  29.100  1.00  0.00    -0.014 A 
BRANCH  31  32
ATOM     32  C   UNL A   1      39.520  28.876  29.584  1.00  0.00     0.031 A 
ATOM     33  C   UNL A   1      40.349  29.649  30.573  1.00  0.00     0.074 A 
ATOM     34  C   UNL A   1      39.981  27.714  29.081  1.00  0.00     0.049 A 
ATOM     35  N   UNL A   1      41.536  29.372  31.051  1.00  0.00    -0.248 NA
ATOM     36  C   UNL A   1      39.781  30.913  31.073  1.00  0.00     0.031 C 
ATOM     37  C   UNL A   1      39.295  26.885  28.088  1.00  0.00     0.029 A 
ATOM     38  N   UNL A   1      41.147  27.033  29.331  1.00  0.00    -0.354 N 
ATOM     39  C   UNL A   1      41.864  30.434  31.886  1.00  0.00     0.074 A 
ATOM     40  C   UNL A   1      40.773  31.382  31.814  1.00  0.00     0.031 C 
ATOM     41  C   UNL A   1      40.038  25.796  27.835  1.00  0.00     0.029 A 
ATOM     42  C   UNL A   1      41.270  25.870  28.613  1.00  0.00     0.049 A 
ATOM     43  H   UNL A   1      41.830  27.349  29.967  1.00  0.00     0.167 HD
ATOM     44  C   UNL A   1      42.964  30.598  32.657  1.00  0.00     0.031 A 
ATOM     45  C   UNL A   1      42.266  24.965  28.578  1.00  0.00     0.031 A 
ATOM     46  C   UNL A   1      44.041  29.649  32.745  1.00  0.00     0.049 A 
ATOM     47  C   UNL A   1      43.481  25.175  29.438  1.00  0.00     0.074 A 
ATOM     48  C   UNL A   1      45.172  29.699  33.541  1.00  0.00     0.029 A 
ATOM     49  N   UNL A   1      44.121  28.477  32.010  1.00  0.00    -0.354 N 
ATOM     50  N   UNL A   1      43.747  26.154  30.267  1.00  0.00    -0.248 NA
ATOM     51  C   UNL A   1      44.528  24.145  29.364  1.00  0.00     0.031 C 
ATOM     52  C   UNL A   1      45.958  28.578  33.255  1.00  0.00     0.029 A 
ATOM     53  C   UNL A   1      45.291  27.806  32.318  1.00  0.00     0.049 A 
ATOM     54  H   UNL A   1      43.445  28.168  31.364  1.00  0.00     0.167 HD
ATOM     55  C   UNL A   1      44.976  25.847  30.834  1.00  0.00     0.074 A 
ATOM     56  C   UNL A   1      45.396  24.582  30.265  1.00  0.00     0.031 C 
ATOM     57  C   UNL A   1      45.693  26.548  31.745  1.00  0.00     0.031 A 
BRANCH  44  58
ATOM     58  C   UNL A   1      43.058  31.859  33.471  1.00  0.00    -0.014 A 
ATOM     59  C   UNL A   1      42.516  31.931  34.765  1.00  0.00     0.009 A 
ATOM     60  C   UNL A   1      43.728  32.978  32.952  1.00  0.00     0.009 A 
ATOM     61  C   UNL A   1      42.612  33.110  35.508  1.00  0.00     0.001 A 
ATOM     62  C   UNL A   1      43.847  34.145  33.708  1.00  0.00     0.001 A 
ATOM     63  C   UNL A   1      43.282  34.214  34.981  1.00  0.00     0.000 A 
ENDBRANCH  44  58
BRANCH  45  64
ATOM     64  C   UNL A   1      42.155  23.767  27.706  1.00  0.00    -0.014 A 
ATOM     65  C   UNL A   1      41.572  22.587  28.192  1.00  0.00     0.009 A 
ATOM     66  C   UNL A   1      42.638  23.792  26.388  1.00  0.00     0.009 A 
ATOM     67  C   UNL A   1      41.501  21.447  27.387  1.00  0.00     0.001 A 
ATOM     68  C   UNL A   1      42.539  22.662  25.576  1.00  0.00     0.001 A 
ATOM     69  C   UNL A   1      41.981  21.488  26.078  1.00  0.00     0.000 A 
ENDBRANCH  45  64
BRANCH  57  70
ATOM     70  C   UNL A   1      46.988  25.945  32.211  1.00  0.00    -0.014 A 
ATOM     71  C   UNL A   1      47.039  25.114  33.341  1.00  0.00     0.009 A 
ATOM     72  C   UNL A   1      48.165  26.182  31.484  1.00  0.00     0.009 A 
ATOM     73  C   UNL A   1      48.252  24.558  33.752  1.00  0.00     0.001 A 
ATOM     74  C   UNL A   1      49.370  25.602  31.881  1.00  0.00     0.001 A 
ATOM     75  C   UNL A   1      49.415  24.799  33.019  1.00  0.00     0.000 A 
ENDBRANCH  57  70
ENDBRANCH  31  32
ENDBRANCH  23  26
ENDBRANCH  21  22
ENDBRANCH  20  21
ENDBRANCH   1  20
TORSDOF 13
ENDMDL
