MODEL 1
REMARK VINA RESULT:     -10.3      0.000      0.000
REMARK SMILES Cc1cc2c(cc1C)O[C@@H](C(=O)NCCCNC(=O)c1ccc(-c3c4nc(c(-c5ccccc5)c5ccc([nH]5)c(-c5ccccc5)c5nc(c(-c6ccccc6)c6ccc3[nH]6)C=C5)C=C4)cc1)C2
REMARK SMILES IDX 16 1 15 2 14 3 13 4 11 5 12 6 10 8 1 9 2 10 3 11 7 12 4 13
REMARK SMILES IDX 6 14 8 15 5 16 68 17 9 18 17 19 18 20 19 22 20 23 21 24
REMARK SMILES IDX 67 25 22 26 66 27 23 28 24 29 25 30 60 31 26 32 65 33 59 34
REMARK SMILES IDX 61 35 27 36 64 37 58 38 57 39 28 41 50 42 35 43 49 44 36 45
REMARK SMILES IDX 39 46 48 47 62 48 37 49 38 50 47 52 63 53 40 54 29 55 30 56
REMARK SMILES IDX 34 57 31 58 33 59 32 60 51 61 52 62 56 63 53 64 55 65 54 66
REMARK SMILES IDX 41 67 42 68 46 69 43 70 45 71 44 72
REMARK H PARENT 13 7 17 21 61 40 39 51
REMARK Flexibility Score: inf
ROOT
ATOM      1  C   UNL A   1      43.467  18.688  26.436  1.00  0.00     0.118 C 
ENDROOT
BRANCH   1   2
ATOM      2  C   UNL A   1      44.512  18.822  25.333  1.00  0.00     0.042 C 
BRANCH   2   3
ATOM      3  C   UNL A   1      45.201  20.186  25.305  1.00  0.00     0.118 C 
BRANCH   3   4
ATOM      4  N   UNL A   1      44.938  20.853  24.045  1.00  0.00    -0.353 N 
ATOM      5  C   UNL A   1      44.684  22.160  23.770  1.00  0.00     0.261 C 
ATOM      6  O   UNL A   1      44.154  22.396  22.678  1.00  0.00    -0.271 OA
ATOM      7  H   UNL A   1      44.945  20.262  23.258  1.00  0.00     0.163 HD
BRANCH   5   8
ATOM      8  C   UNL A   1      45.080  23.305  24.701  1.00  0.00     0.266 C 
ATOM      9  C   UNL A   1      47.225  28.647  26.426  1.00  0.00     0.044 C 
ATOM     10  C   UNL A   1      46.327  27.525  25.977  1.00  0.00    -0.048 A 
ATOM     11  C   UNL A   1      46.924  26.338  25.504  1.00  0.00     0.011 A 
ATOM     12  C   UNL A   1      44.911  27.655  25.978  1.00  0.00    -0.045 A 
ATOM     13  C   UNL A   1      46.111  25.301  25.088  1.00  0.00    -0.001 A 
ATOM     14  C   UNL A   1      44.115  26.593  25.518  1.00  0.00     0.050 A 
ATOM     15  C   UNL A   1      44.193  28.867  26.507  1.00  0.00     0.045 C 
ATOM     16  C   UNL A   1      44.735  25.444  25.088  1.00  0.00     0.124 A 
ATOM     17  C   UNL A   1      46.457  23.960  24.554  1.00  0.00     0.095 C 
ATOM     18  O   UNL A   1      44.070  24.341  24.623  1.00  0.00    -0.480 OA
ENDBRANCH   5   8
ENDBRANCH   3   4
ENDBRANCH   2   3
ENDBRANCH   1   2
BRANCH   1  19
ATOM     19  N   UNL A   1      42.112  18.566  25.923  1.00  0.00    -0.352 N 
ATOM     20  C   UNL A   1      41.054  19.437  26.034  1.00  0.00     0.251 C 
ATOM     21  H   UNL A   1      41.925  17.738  25.423  1.00  0.00     0.163 HD
ATOM     22  O   UNL A   1      39.931  19.090  25.679  1.00  0.00    -0.269 OA
BRANCH  20  23
ATOM     23  C   UNL A   1      41.258  20.783  26.618  1.00  0.00     0.039 A 
ATOM     24  C   UNL A   1      41.533  21.881  25.803  1.00  0.00     0.014 A 
ATOM     25  C   UNL A   1      41.186  20.947  28.005  1.00  0.00     0.014 A 
ATOM     26  C   UNL A   1      41.927  23.084  26.378  1.00  0.00     0.010 A 
ATOM     27  C   UNL A   1      41.471  22.192  28.577  1.00  0.00     0.010 A 
ATOM     28  C   UNL A   1      41.894  23.260  27.772  1.00  0.00    -0.014 A 
BRANCH  28  29
ATOM     29  C   UNL A   1      42.276  24.582  28.340  1.00  0.00     0.031 A 
ATOM     30  C   UNL A   1      43.712  24.922  28.643  1.00  0.00     0.074 A 
ATOM     31  C   UNL A   1      41.318  25.513  28.514  1.00  0.00     0.049 A 
ATOM     32  N   UNL A   1      44.215  26.062  29.046  1.00  0.00    -0.248 NA
ATOM     33  C   UNL A   1      44.711  23.854  28.482  1.00  0.00     0.031 C 
ATOM     34  C   UNL A   1      39.889  25.303  28.261  1.00  0.00     0.029 A 
ATOM     35  N   UNL A   1      41.397  26.828  28.896  1.00  0.00    -0.354 N 
ATOM     36  C   UNL A   1      45.579  25.846  29.202  1.00  0.00     0.074 A 
ATOM     37  C   UNL A   1      45.823  24.457  28.882  1.00  0.00     0.031 C 
ATOM     38  C   UNL A   1      39.241  26.466  28.411  1.00  0.00     0.029 A 
ATOM     39  C   UNL A   1      40.191  27.486  28.843  1.00  0.00     0.049 A 
ATOM     40  H   UNL A   1      42.234  27.259  29.181  1.00  0.00     0.167 HD
ATOM     41  C   UNL A   1      46.540  26.727  29.569  1.00  0.00     0.031 A 
ATOM     42  C   UNL A   1      39.872  28.767  29.112  1.00  0.00     0.031 A 
ATOM     43  C   UNL A   1      46.297  28.112  29.877  1.00  0.00     0.049 A 
ATOM     44  C   UNL A   1      40.953  29.715  29.538  1.00  0.00     0.074 A 
ATOM     45  C   UNL A   1      47.217  29.088  30.221  1.00  0.00     0.029 A 
ATOM     46  N   UNL A   1      45.051  28.720  29.880  1.00  0.00    -0.354 N 
ATOM     47  N   UNL A   1      42.240  29.498  29.650  1.00  0.00    -0.248 NA
ATOM     48  C   UNL A   1      40.539  31.084  29.876  1.00  0.00     0.031 C 
ATOM     49  C   UNL A   1      46.521  30.267  30.498  1.00  0.00     0.029 A 
ATOM     50  C   UNL A   1      45.175  30.047  30.255  1.00  0.00     0.049 A 
ATOM     51  H   UNL A   1      44.203  28.274  29.649  1.00  0.00     0.167 HD
ATOM     52  C   UNL A   1      42.792  30.700  30.070  1.00  0.00     0.074 A 
ATOM     53  C   UNL A   1      41.703  31.653  30.161  1.00  0.00     0.031 C 
ATOM     54  C   UNL A   1      44.085  30.984  30.363  1.00  0.00     0.031 A 
BRANCH  41  55
ATOM     55  C   UNL A   1      47.957  26.230  29.674  1.00  0.00    -0.014 A 
ATOM     56  C   UNL A   1      48.723  26.061  28.509  1.00  0.00     0.009 A 
ATOM     57  C   UNL A   1      48.501  25.830  30.904  1.00  0.00     0.009 A 
ATOM     58  C   UNL A   1      49.997  25.492  28.571  1.00  0.00     0.001 A 
ATOM     59  C   UNL A   1      49.787  25.288  30.967  1.00  0.00     0.001 A 
ATOM     60  C   UNL A   1      50.529  25.110  29.800  1.00  0.00     0.000 A 
ENDBRANCH  41  55
BRANCH  42  61
ATOM     61  C   UNL A   1      38.459  29.208  28.969  1.00  0.00    -0.014 A 
ATOM     62  C   UNL A   1      37.986  29.692  27.737  1.00  0.00     0.009 A 
ATOM     63  C   UNL A   1      37.598  29.216  30.075  1.00  0.00     0.009 A 
ATOM     64  C   UNL A   1      36.694  30.209  27.626  1.00  0.00     0.001 A 
ATOM     65  C   UNL A   1      36.293  29.702  29.952  1.00  0.00     0.001 A 
ATOM     66  C   UNL A   1      35.848  30.210  28.732  1.00  0.00     0.000 A 
ENDBRANCH  42  61
BRANCH  54  67
ATOM     67  C   UNL A   1      44.405  32.378  30.825  1.00  0.00    -0.014 A 
ATOM     68  C   UNL A   1      44.341  32.696  32.191  1.00  0.00     0.009 A 
ATOM     69  C   UNL A   1      44.687  33.398  29.903  1.00  0.00     0.009 A 
ATOM     70  C   UNL A   1      44.540  34.008  32.623  1.00  0.00     0.001 A 
ATOM     71  C   UNL A   1      44.918  34.703  30.341  1.00  0.00     0.001 A 
ATOM     72  C   UNL A   1      44.835  35.009  31.698  1.00  0.00     0.000 A 
ENDBRANCH  54  67
ENDBRANCH  28  29
ENDBRANCH  20  23
ENDBRANCH   1  19
TORSDOF 10
ENDMDL
MODEL 2
REMARK VINA RESULT:      -9.5      5.064     11.174
REMARK SMILES Cc1cc2c(cc1C)O[C@@H](C(=O)NCCCNC(=O)c1ccc(-c3c4nc(c(-c5ccccc5)c5ccc([nH]5)c(-c5ccccc5)c5nc(c(-c6ccccc6)c6ccc3[nH]6)C=C5)C=C4)cc1)C2
REMARK SMILES IDX 16 1 15 2 14 3 13 4 11 5 12 6 10 8 1 9 2 10 3 11 7 12 4 13
REMARK SMILES IDX 6 14 8 15 5 16 68 17 9 18 17 19 18 20 19 22 20 23 21 24
REMARK SMILES IDX 67 25 22 26 66 27 23 28 24 29 25 30 60 31 26 32 65 33 59 34
REMARK SMILES IDX 61 35 27 36 64 37 58 38 57 39 28 41 50 42 35 43 49 44 36 45
REMARK SMILES IDX 39 46 48 47 62 48 37 49 38 50 47 52 63 53 40 54 29 55 30 56
REMARK SMILES IDX 34 57 31 58 33 59 32 60 51 61 52 62 56 63 53 64 55 65 54 66
REMARK SMILES IDX 41 67 42 68 46 69 43 70 45 71 44 72
REMARK H PARENT 13 7 17 21 61 40 39 51
REMARK Flexibility Score: inf
ROOT
ATOM      1  C   UNL A   1      33.111  35.042  32.004  1.00  0.00     0.118 C 
ENDROOT
BRANCH   1   2
ATOM      2  C   UNL A   1      34.268  36.015  32.201  1.00  0.00     0.042 C 
BRANCH   2   3
ATOM      3  C   UNL A   1      35.561  35.344  32.663  1.00  0.00     0.118 C 
BRANCH   3   4
ATOM      4  N   UNL A   1      35.480  35.022  34.074  1.00  0.00    -0.353 N 
ATOM      5  C   UNL A   1      36.003  33.983  34.778  1.00  0.00     0.261 C 
ATOM      6  O   UNL A   1      35.496  33.761  35.884  1.00  0.00    -0.271 OA
ATOM      7  H   UNL A   1      34.962  35.662  34.612  1.00  0.00     0.163 HD
BRANCH   5   8
ATOM      8  C   UNL A   1      37.195  33.157  34.295  1.00  0.00     0.266 C 
ATOM      9  C   UNL A   1      41.450  28.914  34.294  1.00  0.00     0.044 C 
ATOM     10  C   UNL A   1      40.169  29.678  34.089  1.00  0.00    -0.048 A 
ATOM     11  C   UNL A   1      39.978  30.872  34.817  1.00  0.00     0.011 A 
ATOM     12  C   UNL A   1      39.145  29.204  33.224  1.00  0.00    -0.045 A 
ATOM     13  C   UNL A   1      38.806  31.583  34.639  1.00  0.00    -0.001 A 
ATOM     14  C   UNL A   1      37.953  29.935  33.092  1.00  0.00     0.050 A 
ATOM     15  C   UNL A   1      39.286  27.967  32.379  1.00  0.00     0.045 C 
ATOM     16  C   UNL A   1      37.816  31.106  33.799  1.00  0.00     0.124 A 
ATOM     17  C   UNL A   1      38.344  32.849  35.259  1.00  0.00     0.095 C 
ATOM     18  O   UNL A   1      36.707  31.907  33.749  1.00  0.00    -0.480 OA
ENDBRANCH   5   8
ENDBRANCH   3   4
ENDBRANCH   2   3
ENDBRANCH   1   2
BRANCH   1  19
ATOM     19  N   UNL A   1      32.626  35.005  30.634  1.00  0.00    -0.352 N 
ATOM     20  C   UNL A   1      33.263  34.577  29.492  1.00  0.00     0.251 C 
ATOM     21  H   UNL A   1      31.707  35.334  30.504  1.00  0.00     0.163 HD
ATOM     22  O   UNL A   1      32.755  34.776  28.393  1.00  0.00    -0.269 OA
BRANCH  20  23
ATOM     23  C   UNL A   1      34.582  33.909  29.584  1.00  0.00     0.039 A 
ATOM     24  C   UNL A   1      34.750  32.761  30.358  1.00  0.00     0.014 A 
ATOM     25  C   UNL A   1      35.673  34.447  28.894  1.00  0.00     0.014 A 
ATOM     26  C   UNL A   1      36.029  32.274  30.600  1.00  0.00     0.010 A 
ATOM     27  C   UNL A   1      36.945  33.883  29.048  1.00  0.00     0.010 A 
ATOM     28  C   UNL A   1      37.144  32.821  29.943  1.00  0.00    -0.014 A 
BRANCH  28  29
ATOM     29  C   UNL A   1      38.488  32.234  30.194  1.00  0.00     0.031 A 
ATOM     30  C   UNL A   1      39.457  32.871  31.154  1.00  0.00     0.074 A 
ATOM     31  C   UNL A   1      38.805  31.067  29.600  1.00  0.00     0.049 A 
ATOM     32  N   UNL A   1      40.624  32.428  31.554  1.00  0.00    -0.248 NA
ATOM     33  C   UNL A   1      39.081  34.170  31.737  1.00  0.00     0.031 C 
ATOM     34  C   UNL A   1      37.952  30.353  28.645  1.00  0.00     0.029 A 
ATOM     35  N   UNL A   1      39.900  30.252  29.740  1.00  0.00    -0.354 N 
ATOM     36  C   UNL A   1      41.126  33.395  32.417  1.00  0.00     0.074 A 
ATOM     37  C   UNL A   1      40.153  34.465  32.461  1.00  0.00     0.031 C 
ATOM     38  C   UNL A   1      38.513  29.172  28.354  1.00  0.00     0.029 A 
ATOM     39  C   UNL A   1      39.799  29.075  29.037  1.00  0.00     0.049 A 
ATOM     40  H   UNL A   1      40.682  30.487  30.290  1.00  0.00     0.167 HD
ATOM     41  C   UNL A   1      42.285  33.386  33.117  1.00  0.00     0.031 A 
ATOM     42  C   UNL A   1      40.640  28.027  28.944  1.00  0.00     0.031 A 
ATOM     43  C   UNL A   1      43.247  32.315  33.082  1.00  0.00     0.049 A 
ATOM     44  C   UNL A   1      41.928  28.054  29.712  1.00  0.00     0.074 A 
ATOM     45  C   UNL A   1      44.432  32.204  33.788  1.00  0.00     0.029 A 
ATOM     46  N   UNL A   1      43.138  31.173  32.302  1.00  0.00    -0.354 N 
ATOM     47  N   UNL A   1      42.370  28.963  30.546  1.00  0.00    -0.248 NA
ATOM     48  C   UNL A   1      42.835  26.913  29.527  1.00  0.00     0.031 C 
ATOM     49  C   UNL A   1      45.073  31.030  33.385  1.00  0.00     0.029 A 
ATOM     50  C   UNL A   1      44.253  30.372  32.483  1.00  0.00     0.049 A 
ATOM     51  H   UNL A   1      42.381  30.965  31.707  1.00  0.00     0.167 HD
ATOM     52  C   UNL A   1      43.604  28.507  30.986  1.00  0.00     0.074 A 
ATOM     53  C   UNL A   1      43.826  27.222  30.353  1.00  0.00     0.031 C 
ATOM     54  C   UNL A   1      44.477  29.105  31.833  1.00  0.00     0.031 A 
BRANCH  41  55
ATOM     55  C   UNL A   1      42.602  34.576  33.984  1.00  0.00    -0.014 A 
ATOM     56  C   UNL A   1      42.161  34.602  35.317  1.00  0.00     0.009 A 
ATOM     57  C   UNL A   1      43.240  35.710  33.460  1.00  0.00     0.009 A 
ATOM     58  C   UNL A   1      42.341  35.742  36.103  1.00  0.00     0.001 A 
ATOM     59  C   UNL A   1      43.444  36.839  34.257  1.00  0.00     0.001 A 
ATOM     60  C   UNL A   1      42.986  36.858  35.574  1.00  0.00     0.000 A 
ENDBRANCH  41  55
BRANCH  42  61
ATOM     61  C   UNL A   1      40.265  26.869  28.091  1.00  0.00    -0.014 A 
ATOM     62  C   UNL A   1      39.468  25.833  28.608  1.00  0.00     0.009 A 
ATOM     63  C   UNL A   1      40.757  26.755  26.783  1.00  0.00     0.009 A 
ATOM     64  C   UNL A   1      39.204  24.693  27.848  1.00  0.00     0.001 A 
ATOM     65  C   UNL A   1      40.463  25.628  26.012  1.00  0.00     0.001 A 
ATOM     66  C   UNL A   1      39.699  24.593  26.549  1.00  0.00     0.000 A 
ENDBRANCH  42  61
BRANCH  54  67
ATOM     67  C   UNL A   1      45.768  28.390  32.122  1.00  0.00    -0.014 A 
ATOM     68  C   UNL A   1      46.886  28.602  31.300  1.00  0.00     0.009 A 
ATOM     69  C   UNL A   1      45.855  27.445  33.155  1.00  0.00     0.009 A 
ATOM     70  C   UNL A   1      48.059  27.873  31.497  1.00  0.00     0.001 A 
ATOM     71  C   UNL A   1      47.040  26.741  33.371  1.00  0.00     0.001 A 
ATOM     72  C   UNL A   1      48.138  26.948  32.537  1.00  0.00     0.000 A 
ENDBRANCH  54  67
ENDBRANCH  28  29
ENDBRANCH  20  23
ENDBRANCH   1  19
TORSDOF 10
ENDMDL
MODEL 3
REMARK VINA RESULT:      -9.0      2.071      3.379
REMARK SMILES Cc1cc2c(cc1C)O[C@@H](C(=O)NCCCNC(=O)c1ccc(-c3c4nc(c(-c5ccccc5)c5ccc([nH]5)c(-c5ccccc5)c5nc(c(-c6ccccc6)c6ccc3[nH]6)C=C5)C=C4)cc1)C2
REMARK SMILES IDX 16 1 15 2 14 3 13 4 11 5 12 6 10 8 1 9 2 10 3 11 7 12 4 13
REMARK SMILES IDX 6 14 8 15 5 16 68 17 9 18 17 19 18 20 19 22 20 23 21 24
REMARK SMILES IDX 67 25 22 26 66 27 23 28 24 29 25 30 60 31 26 32 65 33 59 34
REMARK SMILES IDX 61 35 27 36 64 37 58 38 57 39 28 41 50 42 35 43 49 44 36 45
REMARK SMILES IDX 39 46 48 47 62 48 37 49 38 50 47 52 63 53 40 54 29 55 30 56
REMARK SMILES IDX 34 57 31 58 33 59 32 60 51 61 52 62 56 63 53 64 55 65 54 66
REMARK SMILES IDX 41 67 42 68 46 69 43 70 45 71 44 72
REMARK H PARENT 13 7 17 21 61 40 39 51
REMARK Flexibility Score: inf
ROOT
ATOM      1  C   UNL A   1      40.389  21.312  26.526  1.00  0.00     0.118 C 
ENDROOT
BRANCH   1   2
ATOM      2  C   UNL A   1      40.790  19.879  26.191  1.00  0.00     0.042 C 
BRANCH   2   3
ATOM      3  C   UNL A   1      42.128  19.460  26.799  1.00  0.00     0.118 C 
BRANCH   3   4
ATOM      4  N   UNL A   1      43.101  19.221  25.752  1.00  0.00    -0.353 N 
ATOM      5  C   UNL A   1      43.888  20.085  25.058  1.00  0.00     0.261 C 
ATOM      6  O   UNL A   1      44.359  19.664  23.996  1.00  0.00    -0.271 OA
ATOM      7  H   UNL A   1      43.211  18.275  25.501  1.00  0.00     0.163 HD
BRANCH   5   8
ATOM      8  C   UNL A   1      44.250  21.481  25.565  1.00  0.00     0.266 C 
ATOM      9  C   UNL A   1      46.503  27.052  25.534  1.00  0.00     0.044 C 
ATOM     10  C   UNL A   1      45.594  25.858  25.409  1.00  0.00    -0.048 A 
ATOM     11  C   UNL A   1      46.169  24.571  25.456  1.00  0.00     0.011 A 
ATOM     12  C   UNL A   1      44.195  26.002  25.200  1.00  0.00    -0.045 A 
ATOM     13  C   UNL A   1      45.346  23.467  25.341  1.00  0.00    -0.001 A 
ATOM     14  C   UNL A   1      43.392  24.859  25.055  1.00  0.00     0.050 A 
ATOM     15  C   UNL A   1      43.495  27.334  25.182  1.00  0.00     0.045 C 
ATOM     16  C   UNL A   1      43.987  23.622  25.132  1.00  0.00     0.124 A 
ATOM     17  C   UNL A   1      45.669  22.018  25.357  1.00  0.00     0.095 C 
ATOM     18  O   UNL A   1      43.313  22.437  25.012  1.00  0.00    -0.480 OA
ENDBRANCH   5   8
ENDBRANCH   3   4
ENDBRANCH   2   3
ENDBRANCH   1   2
BRANCH   1  19
ATOM     19  N   UNL A   1      39.141  21.714  25.897  1.00  0.00    -0.352 N 
ATOM     20  C   UNL A   1      38.469  22.912  25.976  1.00  0.00     0.251 C 
ATOM     21  H   UNL A   1      38.715  21.029  25.332  1.00  0.00     0.163 HD
ATOM     22  O   UNL A   1      37.338  23.014  25.509  1.00  0.00    -0.269 OA
BRANCH  20  23
ATOM     23  C   UNL A   1      39.091  24.069  26.659  1.00  0.00     0.039 A 
ATOM     24  C   UNL A   1      38.928  24.262  28.031  1.00  0.00     0.014 A 
ATOM     25  C   UNL A   1      39.842  24.983  25.914  1.00  0.00     0.014 A 
ATOM     26  C   UNL A   1      39.338  25.456  28.613  1.00  0.00     0.010 A 
ATOM     27  C   UNL A   1      40.356  26.131  26.528  1.00  0.00     0.010 A 
ATOM     28  C   UNL A   1      40.065  26.404  27.873  1.00  0.00    -0.014 A 
BRANCH  28  29
ATOM     29  C   UNL A   1      40.529  27.645  28.551  1.00  0.00     0.031 A 
ATOM     30  C   UNL A   1      41.980  27.860  28.891  1.00  0.00     0.074 A 
ATOM     31  C   UNL A   1      39.633  28.622  28.794  1.00  0.00     0.049 A 
ATOM     32  N   UNL A   1      42.554  28.927  29.391  1.00  0.00    -0.248 NA
ATOM     33  C   UNL A   1      42.907  26.743  28.649  1.00  0.00     0.031 C 
ATOM     34  C   UNL A   1      38.197  28.531  28.515  1.00  0.00     0.029 A 
ATOM     35  N   UNL A   1      39.796  29.893  29.285  1.00  0.00    -0.354 N 
ATOM     36  C   UNL A   1      43.898  28.605  29.538  1.00  0.00     0.074 A 
ATOM     37  C   UNL A   1      44.052  27.234  29.106  1.00  0.00     0.031 C 
ATOM     38  C   UNL A   1      37.628  29.720  28.756  1.00  0.00     0.029 A 
ATOM     39  C   UNL A   1      38.638  30.634  29.278  1.00  0.00     0.049 A 
ATOM     40  H   UNL A   1      40.657  30.240  29.610  1.00  0.00     0.167 HD
ATOM     41  C   UNL A   1      44.912  29.385  29.983  1.00  0.00     0.031 A 
ATOM     42  C   UNL A   1      38.403  31.907  29.649  1.00  0.00     0.031 A 
ATOM     43  C   UNL A   1      44.759  30.754  30.403  1.00  0.00     0.049 A 
ATOM     44  C   UNL A   1      39.540  32.741  30.160  1.00  0.00     0.074 A 
ATOM     45  C   UNL A   1      45.739  31.633  30.833  1.00  0.00     0.029 A 
ATOM     46  N   UNL A   1      43.557  31.444  30.447  1.00  0.00    -0.354 N 
ATOM     47  N   UNL A   1      40.808  32.428  30.263  1.00  0.00    -0.248 NA
ATOM     48  C   UNL A   1      39.215  34.103  30.607  1.00  0.00     0.031 C 
ATOM     49  C   UNL A   1      45.120  32.830  31.202  1.00  0.00     0.029 A 
ATOM     50  C   UNL A   1      43.766  32.724  30.932  1.00  0.00     0.049 A 
ATOM     51  H   UNL A   1      42.684  31.077  30.175  1.00  0.00     0.167 HD
ATOM     52  C   UNL A   1      41.435  33.551  30.785  1.00  0.00     0.074 A 
ATOM     53  C   UNL A   1      40.411  34.565  30.946  1.00  0.00     0.031 C 
ATOM     54  C   UNL A   1      42.740  33.721  31.110  1.00  0.00     0.031 A 
BRANCH  41  55
ATOM     55  C   UNL A   1      46.291  28.786  30.057  1.00  0.00    -0.014 A 
ATOM     56  C   UNL A   1      47.121  28.809  28.924  1.00  0.00     0.009 A 
ATOM     57  C   UNL A   1      46.731  28.108  31.204  1.00  0.00     0.009 A 
ATOM     58  C   UNL A   1      48.356  28.157  28.934  1.00  0.00     0.001 A 
ATOM     59  C   UNL A   1      47.979  27.481  31.220  1.00  0.00     0.001 A 
ATOM     60  C   UNL A   1      48.786  27.497  30.083  1.00  0.00     0.000 A 
ENDBRANCH  41  55
BRANCH  42  61
ATOM     61  C   UNL A   1      37.025  32.454  29.533  1.00  0.00    -0.014 A 
ATOM     62  C   UNL A   1      36.100  32.282  30.576  1.00  0.00     0.009 A 
ATOM     63  C   UNL A   1      36.605  33.086  28.354  1.00  0.00     0.009 A 
ATOM     64  C   UNL A   1      34.776  32.697  30.428  1.00  0.00     0.001 A 
ATOM     65  C   UNL A   1      35.287  33.531  28.221  1.00  0.00     0.001 A 
ATOM     66  C   UNL A   1      34.372  33.324  29.252  1.00  0.00     0.000 A 
ENDBRANCH  42  61
BRANCH  54  67
ATOM     67  C   UNL A   1      43.147  35.048  31.687  1.00  0.00    -0.014 A 
ATOM     68  C   UNL A   1      43.625  36.062  30.843  1.00  0.00     0.009 A 
ATOM     69  C   UNL A   1      43.138  35.266  33.073  1.00  0.00     0.009 A 
ATOM     70  C   UNL A   1      44.099  37.263  31.374  1.00  0.00     0.001 A 
ATOM     71  C   UNL A   1      43.581  36.480  33.600  1.00  0.00     0.001 A 
ATOM     72  C   UNL A   1      44.070  37.473  32.752  1.00  0.00     0.000 A 
ENDBRANCH  54  67
ENDBRANCH  28  29
ENDBRANCH  20  23
ENDBRANCH   1  19
TORSDOF 10
ENDMDL
