MODEL 1
REMARK VINA RESULT:     -10.7      0.000      0.000
REMARK SMILES CC(C)(C)OC(=O)N[C@@H](CC(=O)NCCCNC(=O)c1ccc(-c2c3nc(c(-c4ccccc4)c4ccc([nH]4)c(-c4ccccc4)c4nc(c(-c5ccccc5)c5ccc2[nH]5)C=C4)C=C3)cc1)c1cccnc1
REMARK SMILES IDX 14 1 13 2 11 3 12 4 10 6 9 7 8 8 6 9 7 10 5 12 2 13 1 14
REMARK SMILES IDX 3 15 4 16 68 17 69 18 73 19 70 20 72 21 71 22 15 23 16 24
REMARK SMILES IDX 17 25 18 26 19 28 20 29 21 30 67 31 22 32 66 33 23 34 24 35
REMARK SMILES IDX 25 36 60 37 26 38 65 39 59 40 61 41 27 42 64 43 58 44 57 45
REMARK SMILES IDX 28 47 50 48 35 49 49 50 36 51 39 52 48 53 62 54 37 55 38 56
REMARK SMILES IDX 47 58 63 59 40 60 29 61 30 62 34 63 31 64 33 65 32 66 51 67
REMARK SMILES IDX 52 68 56 69 53 70 55 71 54 72 41 73 42 74 46 75 43 76 45 77
REMARK SMILES IDX 44 78
REMARK H PARENT 13 5 8 11 17 27 61 46 39 57
REMARK Flexibility Score: inf
ROOT
ATOM      1  C   UNL A   1      31.072  30.847  25.363  1.00  0.00     0.117 C 
ENDROOT
BRANCH   1   2
ATOM      2  N   UNL A   1      32.302  30.080  25.261  1.00  0.00    -0.356 N 
ATOM      3  C   UNL A   1      32.520  28.760  25.020  1.00  0.00     0.222 C 
ATOM      4  O   UNL A   1      33.689  28.418  24.820  1.00  0.00    -0.275 OA
ATOM      5  H   UNL A   1      33.123  30.609  25.390  1.00  0.00     0.163 HD
BRANCH   3   6
ATOM      6  C   UNL A   1      31.390  27.740  24.956  1.00  0.00     0.130 C 
BRANCH   6   7
ATOM      7  C   UNL A   1      30.868  27.378  23.546  1.00  0.00     0.126 C 
BRANCH   7   8
ATOM      8  N   UNL A   1      31.997  27.289  22.634  1.00  0.00    -0.314 N 
ATOM      9  C   UNL A   1      32.619  26.234  22.059  1.00  0.00     0.408 C 
ATOM     10  O   UNL A   1      33.675  26.418  21.466  1.00  0.00    -0.225 OA
ATOM     11  H   UNL A   1      32.382  28.161  22.389  1.00  0.00     0.167 HD
BRANCH   9  12
ATOM     12  O   UNL A   1      31.963  25.059  22.171  1.00  0.00    -0.444 OA
BRANCH  12  13
ATOM     13  C   UNL A   1      32.570  24.005  22.972  1.00  0.00     0.106 C 
ATOM     14  C   UNL A   1      31.403  23.132  23.455  1.00  0.00     0.056 C 
ATOM     15  C   UNL A   1      33.283  24.598  24.194  1.00  0.00     0.056 C 
ATOM     16  C   UNL A   1      33.513  23.110  22.148  1.00  0.00     0.056 C 
ENDBRANCH  12  13
ENDBRANCH   9  12
ENDBRANCH   7   8
BRANCH   7  17
ATOM     17  C   UNL A   1      29.827  28.311  22.934  1.00  0.00    -0.007 A 
ATOM     18  C   UNL A   1      28.456  28.245  23.197  1.00  0.00     0.009 A 
ATOM     19  C   UNL A   1      30.227  29.318  22.047  1.00  0.00     0.116 A 
ATOM     20  C   UNL A   1      27.594  29.216  22.684  1.00  0.00     0.020 A 
ATOM     21  N   UNL A   1      29.417  30.269  21.529  1.00  0.00    -0.264 NA
ATOM     22  C   UNL A   1      28.119  30.209  21.878  1.00  0.00     0.111 A 
ENDBRANCH   7  17
ENDBRANCH   6   7
ENDBRANCH   3   6
ENDBRANCH   1   2
BRANCH   1  23
ATOM     23  C   UNL A   1      31.086  31.805  26.553  1.00  0.00     0.042 C 
BRANCH  23  24
ATOM     24  C   UNL A   1      32.446  32.400  26.873  1.00  0.00     0.118 C 
BRANCH  24  25
ATOM     25  N   UNL A   1      32.347  33.763  27.361  1.00  0.00    -0.352 N 
ATOM     26  C   UNL A   1      33.090  34.416  28.314  1.00  0.00     0.251 C 
ATOM     27  H   UNL A   1      31.636  34.302  26.946  1.00  0.00     0.163 HD
ATOM     28  O   UNL A   1      32.682  35.486  28.758  1.00  0.00    -0.269 OA
BRANCH  26  29
ATOM     29  C   UNL A   1      34.364  33.852  28.822  1.00  0.00     0.039 A 
ATOM     30  C   UNL A   1      34.343  33.106  30.006  1.00  0.00     0.014 A 
ATOM     31  C   UNL A   1      35.586  34.098  28.191  1.00  0.00     0.014 A 
ATOM     32  C   UNL A   1      35.530  32.576  30.523  1.00  0.00     0.010 A 
ATOM     33  C   UNL A   1      36.750  33.484  28.648  1.00  0.00     0.010 A 
ATOM     34  C   UNL A   1      36.742  32.735  29.833  1.00  0.00    -0.014 A 
BRANCH  34  35
ATOM     35  C   UNL A   1      38.011  32.158  30.350  1.00  0.00     0.031 A 
ATOM     36  C   UNL A   1      38.551  30.872  29.777  1.00  0.00     0.074 A 
ATOM     37  C   UNL A   1      38.656  32.758  31.371  1.00  0.00     0.049 A 
ATOM     38  N   UNL A   1      39.614  30.192  30.127  1.00  0.00    -0.248 NA
ATOM     39  C   UNL A   1      37.782  30.257  28.683  1.00  0.00     0.031 C 
ATOM     40  C   UNL A   1      38.226  33.986  32.041  1.00  0.00     0.029 A 
ATOM     41  N   UNL A   1      39.813  32.411  32.023  1.00  0.00    -0.354 N 
ATOM     42  C   UNL A   1      39.624  29.061  29.318  1.00  0.00     0.074 A 
ATOM     43  C   UNL A   1      38.436  29.120  28.496  1.00  0.00     0.031 C 
ATOM     44  C   UNL A   1      39.127  34.311  32.982  1.00  0.00     0.029 A 
ATOM     45  C   UNL A   1      40.170  33.293  33.015  1.00  0.00     0.049 A 
ATOM     46  H   UNL A   1      40.337  31.608  31.802  1.00  0.00     0.167 HD
ATOM     47  C   UNL A   1      40.546  28.071  29.251  1.00  0.00     0.031 A 
ATOM     48  C   UNL A   1      41.218  33.280  33.862  1.00  0.00     0.031 A 
ATOM     49  C   UNL A   1      41.738  28.020  30.055  1.00  0.00     0.049 A 
ATOM     50  C   UNL A   1      42.217  32.160  33.780  1.00  0.00     0.074 A 
ATOM     51  C   UNL A   1      42.766  27.094  30.012  1.00  0.00     0.029 A 
ATOM     52  N   UNL A   1      42.056  28.928  31.052  1.00  0.00    -0.354 N 
ATOM     53  N   UNL A   1      42.249  31.137  32.959  1.00  0.00    -0.248 NA
ATOM     54  C   UNL A   1      43.330  32.197  34.740  1.00  0.00     0.031 C 
ATOM     55  C   UNL A   1      43.678  27.409  31.025  1.00  0.00     0.029 A 
ATOM     56  C   UNL A   1      43.250  28.567  31.654  1.00  0.00     0.049 A 
ATOM     57  H   UNL A   1      41.514  29.713  31.295  1.00  0.00     0.167 HD
ATOM     58  C   UNL A   1      43.401  30.430  33.281  1.00  0.00     0.074 A 
ATOM     59  C   UNL A   1      44.046  31.147  34.362  1.00  0.00     0.031 C 
ATOM     60  C   UNL A   1      43.881  29.289  32.728  1.00  0.00     0.031 A 
BRANCH  47  61
ATOM     61  C   UNL A   1      40.292  26.949  28.278  1.00  0.00    -0.014 A 
ATOM     62  C   UNL A   1      40.801  26.985  26.969  1.00  0.00     0.009 A 
ATOM     63  C   UNL A   1      39.560  25.825  28.689  1.00  0.00     0.009 A 
ATOM     64  C   UNL A   1      40.544  25.937  26.082  1.00  0.00     0.001 A 
ATOM     65  C   UNL A   1      39.333  24.764  27.811  1.00  0.00     0.001 A 
ATOM     66  C   UNL A   1      39.816  24.826  26.503  1.00  0.00     0.000 A 
ENDBRANCH  47  61
BRANCH  48  67
ATOM     67  C   UNL A   1      41.390  34.377  34.852  1.00  0.00    -0.014 A 
ATOM     68  C   UNL A   1      40.804  34.284  36.123  1.00  0.00     0.009 A 
ATOM     69  C   UNL A   1      42.133  35.523  34.530  1.00  0.00     0.009 A 
ATOM     70  C   UNL A   1      40.935  35.328  37.043  1.00  0.00     0.001 A 
ATOM     71  C   UNL A   1      42.288  36.551  35.462  1.00  0.00     0.001 A 
ATOM     72  C   UNL A   1      41.681  36.458  36.714  1.00  0.00     0.000 A 
ENDBRANCH  48  67
BRANCH  60  73
ATOM     73  C   UNL A   1      45.188  28.766  33.256  1.00  0.00    -0.014 A 
ATOM     74  C   UNL A   1      46.415  29.189  32.723  1.00  0.00     0.009 A 
ATOM     75  C   UNL A   1      45.188  27.865  34.333  1.00  0.00     0.009 A 
ATOM     76  C   UNL A   1      47.615  28.691  33.235  1.00  0.00     0.001 A 
ATOM     77  C   UNL A   1      46.390  27.395  34.863  1.00  0.00     0.001 A 
ATOM     78  C   UNL A   1      47.602  27.800  34.308  1.00  0.00     0.000 A 
ENDBRANCH  60  73
ENDBRANCH  34  35
ENDBRANCH  26  29
ENDBRANCH  24  25
ENDBRANCH  23  24
ENDBRANCH   1  23
TORSDOF 15
ENDMDL
MODEL 2
REMARK VINA RESULT:     -10.6      0.463      1.291
REMARK SMILES CC(C)(C)OC(=O)N[C@@H](CC(=O)NCCCNC(=O)c1ccc(-c2c3nc(c(-c4ccccc4)c4ccc([nH]4)c(-c4ccccc4)c4nc(c(-c5ccccc5)c5ccc2[nH]5)C=C4)C=C3)cc1)c1cccnc1
REMARK SMILES IDX 14 1 13 2 11 3 12 4 10 6 9 7 8 8 6 9 7 10 5 12 2 13 1 14
REMARK SMILES IDX 3 15 4 16 68 17 69 18 73 19 70 20 72 21 71 22 15 23 16 24
REMARK SMILES IDX 17 25 18 26 19 28 20 29 21 30 67 31 22 32 66 33 23 34 24 35
REMARK SMILES IDX 25 36 60 37 26 38 65 39 59 40 61 41 27 42 64 43 58 44 57 45
REMARK SMILES IDX 28 47 50 48 35 49 49 50 36 51 39 52 48 53 62 54 37 55 38 56
REMARK SMILES IDX 47 58 63 59 40 60 29 61 30 62 34 63 31 64 33 65 32 66 51 67
REMARK SMILES IDX 52 68 56 69 53 70 55 71 54 72 41 73 42 74 46 75 43 76 45 77
REMARK SMILES IDX 44 78
REMARK H PARENT 13 5 8 11 17 27 61 46 39 57
REMARK Flexibility Score: inf
ROOT
ATOM      1  C   UNL A   1      31.019  30.829  25.333  1.00  0.00     0.117 C 
ENDROOT
BRANCH   1   2
ATOM      2  N   UNL A   1      32.255  30.073  25.217  1.00  0.00    -0.356 N 
ATOM      3  C   UNL A   1      32.482  28.760  24.950  1.00  0.00     0.222 C 
ATOM      4  O   UNL A   1      33.654  28.430  24.745  1.00  0.00    -0.275 OA
ATOM      5  H   UNL A   1      33.072  30.605  25.359  1.00  0.00     0.163 HD
BRANCH   3   6
ATOM      6  C   UNL A   1      31.359  27.733  24.863  1.00  0.00     0.130 C 
BRANCH   6   7
ATOM      7  C   UNL A   1      30.823  27.417  23.447  1.00  0.00     0.126 C 
BRANCH   7   8
ATOM      8  N   UNL A   1      31.942  27.372  22.519  1.00  0.00    -0.314 N 
ATOM      9  C   UNL A   1      32.619  26.342  21.962  1.00  0.00     0.408 C 
ATOM     10  O   UNL A   1      33.653  26.574  21.347  1.00  0.00    -0.225 OA
ATOM     11  H   UNL A   1      32.268  28.259  22.245  1.00  0.00     0.167 HD
BRANCH   9  12
ATOM     12  O   UNL A   1      32.039  25.132  22.115  1.00  0.00    -0.444 OA
BRANCH  12  13
ATOM     13  C   UNL A   1      32.567  24.240  23.138  1.00  0.00     0.106 C 
ATOM     14  C   UNL A   1      33.077  23.005  22.382  1.00  0.00     0.056 C 
ATOM     15  C   UNL A   1      31.457  23.806  24.103  1.00  0.00     0.056 C 
ATOM     16  C   UNL A   1      33.762  24.853  23.891  1.00  0.00     0.056 C 
ENDBRANCH  12  13
ENDBRANCH   9  12
ENDBRANCH   7   8
BRANCH   7  17
ATOM     17  C   UNL A   1      29.766  28.360  22.881  1.00  0.00    -0.007 A 
ATOM     18  C   UNL A   1      28.403  28.288  23.181  1.00  0.00     0.009 A 
ATOM     19  C   UNL A   1      30.140  29.382  22.002  1.00  0.00     0.116 A 
ATOM     20  C   UNL A   1      27.527  29.267  22.711  1.00  0.00     0.020 A 
ATOM     21  N   UNL A   1      29.316  30.343  21.524  1.00  0.00    -0.264 NA
ATOM     22  C   UNL A   1      28.028  30.275  21.908  1.00  0.00     0.111 A 
ENDBRANCH   7  17
ENDBRANCH   6   7
ENDBRANCH   3   6
ENDBRANCH   1   2
BRANCH   1  23
ATOM     23  C   UNL A   1      31.032  31.776  26.532  1.00  0.00     0.042 C 
BRANCH  23  24
ATOM     24  C   UNL A   1      32.386  32.393  26.838  1.00  0.00     0.118 C 
BRANCH  24  25
ATOM     25  N   UNL A   1      32.270  33.754  27.327  1.00  0.00    -0.352 N 
ATOM     26  C   UNL A   1      32.958  34.394  28.329  1.00  0.00     0.251 C 
ATOM     27  H   UNL A   1      31.592  34.303  26.871  1.00  0.00     0.163 HD
ATOM     28  O   UNL A   1      32.533  35.466  28.753  1.00  0.00    -0.269 OA
BRANCH  26  29
ATOM     29  C   UNL A   1      34.192  33.814  28.914  1.00  0.00     0.039 A 
ATOM     30  C   UNL A   1      35.429  34.188  28.378  1.00  0.00     0.014 A 
ATOM     31  C   UNL A   1      34.149  32.862  29.935  1.00  0.00     0.014 A 
ATOM     32  C   UNL A   1      36.610  33.645  28.895  1.00  0.00     0.010 A 
ATOM     33  C   UNL A   1      35.327  32.401  30.518  1.00  0.00     0.010 A 
ATOM     34  C   UNL A   1      36.573  32.768  29.989  1.00  0.00    -0.014 A 
BRANCH  34  35
ATOM     35  C   UNL A   1      37.818  32.200  30.571  1.00  0.00     0.031 A 
ATOM     36  C   UNL A   1      38.431  30.952  29.987  1.00  0.00     0.074 A 
ATOM     37  C   UNL A   1      38.374  32.772  31.658  1.00  0.00     0.049 A 
ATOM     38  N   UNL A   1      39.485  30.284  30.384  1.00  0.00    -0.248 NA
ATOM     39  C   UNL A   1      37.756  30.365  28.817  1.00  0.00     0.031 C 
ATOM     40  C   UNL A   1      37.866  33.960  32.345  1.00  0.00     0.029 A 
ATOM     41  N   UNL A   1      39.492  32.426  32.377  1.00  0.00    -0.354 N 
ATOM     42  C   UNL A   1      39.581  29.188  29.533  1.00  0.00     0.074 A 
ATOM     43  C   UNL A   1      38.452  29.253  28.632  1.00  0.00     0.031 C 
ATOM     44  C   UNL A   1      38.690  34.268  33.360  1.00  0.00     0.029 A 
ATOM     45  C   UNL A   1      39.756  33.273  33.426  1.00  0.00     0.049 A 
ATOM     46  H   UNL A   1      40.051  31.645  32.161  1.00  0.00     0.167 HD
ATOM     47  C   UNL A   1      40.531  28.224  29.491  1.00  0.00     0.031 A 
ATOM     48  C   UNL A   1      40.741  33.250  34.343  1.00  0.00     0.031 A 
ATOM     49  C   UNL A   1      41.665  28.167  30.375  1.00  0.00     0.049 A 
ATOM     50  C   UNL A   1      41.774  32.158  34.287  1.00  0.00     0.074 A 
ATOM     51  C   UNL A   1      42.719  27.269  30.368  1.00  0.00     0.029 A 
ATOM     52  N   UNL A   1      41.889  29.040  31.427  1.00  0.00    -0.354 N 
ATOM     53  N   UNL A   1      41.890  31.172  33.430  1.00  0.00    -0.248 NA
ATOM     54  C   UNL A   1      42.816  32.182  35.324  1.00  0.00     0.031 C 
ATOM     55  C   UNL A   1      43.548  27.563  31.455  1.00  0.00     0.029 A 
ATOM     56  C   UNL A   1      43.047  28.683  32.098  1.00  0.00     0.049 A 
ATOM     57  H   UNL A   1      41.311  29.801  31.663  1.00  0.00     0.167 HD
ATOM     58  C   UNL A   1      43.035  30.479  33.804  1.00  0.00     0.074 A 
ATOM     59  C   UNL A   1      43.584  31.166  34.955  1.00  0.00     0.031 C 
ATOM     60  C   UNL A   1      43.582  29.375  33.242  1.00  0.00     0.031 A 
BRANCH  47  61
ATOM     61  C   UNL A   1      40.376  27.138  28.459  1.00  0.00    -0.014 A 
ATOM     62  C   UNL A   1      39.645  25.969  28.729  1.00  0.00     0.009 A 
ATOM     63  C   UNL A   1      40.944  27.302  27.187  1.00  0.00     0.009 A 
ATOM     64  C   UNL A   1      39.523  24.972  27.759  1.00  0.00     0.001 A 
ATOM     65  C   UNL A   1      40.793  26.318  26.208  1.00  0.00     0.001 A 
ATOM     66  C   UNL A   1      40.091  25.148  26.499  1.00  0.00     0.000 A 
ENDBRANCH  47  61
BRANCH  48  67
ATOM     67  C   UNL A   1      40.816  34.309  35.385  1.00  0.00    -0.014 A 
ATOM     68  C   UNL A   1      41.566  35.473  35.162  1.00  0.00     0.009 A 
ATOM     69  C   UNL A   1      40.146  34.159  36.609  1.00  0.00     0.009 A 
ATOM     70  C   UNL A   1      41.666  36.454  36.152  1.00  0.00     0.001 A 
ATOM     71  C   UNL A   1      40.222  35.155  37.586  1.00  0.00     0.001 A 
ATOM     72  C   UNL A   1      40.990  36.296  37.361  1.00  0.00     0.000 A 
ENDBRANCH  48  67
BRANCH  60  73
ATOM     73  C   UNL A   1      44.863  28.861  33.839  1.00  0.00    -0.014 A 
ATOM     74  C   UNL A   1      44.860  27.938  34.896  1.00  0.00     0.009 A 
ATOM     75  C   UNL A   1      46.092  29.279  33.303  1.00  0.00     0.009 A 
ATOM     76  C   UNL A   1      46.065  27.474  35.429  1.00  0.00     0.001 A 
ATOM     77  C   UNL A   1      47.293  28.787  33.817  1.00  0.00     0.001 A 
ATOM     78  C   UNL A   1      47.279  27.893  34.885  1.00  0.00     0.000 A 
ENDBRANCH  60  73
ENDBRANCH  34  35
ENDBRANCH  26  29
ENDBRANCH  24  25
ENDBRANCH  23  24
ENDBRANCH   1  23
TORSDOF 15
ENDMDL
MODEL 3
REMARK VINA RESULT:     -10.6      0.514      5.986
REMARK SMILES CC(C)(C)OC(=O)N[C@@H](CC(=O)NCCCNC(=O)c1ccc(-c2c3nc(c(-c4ccccc4)c4ccc([nH]4)c(-c4ccccc4)c4nc(c(-c5ccccc5)c5ccc2[nH]5)C=C4)C=C3)cc1)c1cccnc1
REMARK SMILES IDX 14 1 13 2 11 3 12 4 10 6 9 7 8 8 6 9 7 10 5 12 2 13 1 14
REMARK SMILES IDX 3 15 4 16 68 17 69 18 73 19 70 20 72 21 71 22 15 23 16 24
REMARK SMILES IDX 17 25 18 26 19 28 20 29 21 30 67 31 22 32 66 33 23 34 24 35
REMARK SMILES IDX 25 36 60 37 26 38 65 39 59 40 61 41 27 42 64 43 58 44 57 45
REMARK SMILES IDX 28 47 50 48 35 49 49 50 36 51 39 52 48 53 62 54 37 55 38 56
REMARK SMILES IDX 47 58 63 59 40 60 29 61 30 62 34 63 31 64 33 65 32 66 51 67
REMARK SMILES IDX 52 68 56 69 53 70 55 71 54 72 41 73 42 74 46 75 43 76 45 77
REMARK SMILES IDX 44 78
REMARK H PARENT 13 5 8 11 17 27 61 46 39 57
REMARK Flexibility Score: inf
ROOT
ATOM      1  C   UNL A   1      31.029  30.757  25.737  1.00  0.00     0.117 C 
ENDROOT
BRANCH   1   2
ATOM      2  N   UNL A   1      32.273  30.178  25.259  1.00  0.00    -0.356 N 
ATOM      3  C   UNL A   1      32.565  28.933  24.798  1.00  0.00     0.222 C 
ATOM      4  O   UNL A   1      33.683  28.774  24.297  1.00  0.00    -0.275 OA
ATOM      5  H   UNL A   1      33.041  30.795  25.273  1.00  0.00     0.163 HD
BRANCH   3   6
ATOM      6  C   UNL A   1      31.568  27.783  24.849  1.00  0.00     0.130 C 
BRANCH   6   7
ATOM      7  C   UNL A   1      30.935  27.359  23.502  1.00  0.00     0.126 C 
BRANCH   7   8
ATOM      8  N   UNL A   1      31.987  27.245  22.504  1.00  0.00    -0.314 N 
ATOM      9  C   UNL A   1      32.718  26.192  22.071  1.00  0.00     0.408 C 
ATOM     10  O   UNL A   1      33.680  26.398  21.341  1.00  0.00    -0.225 OA
ATOM     11  H   UNL A   1      32.208  28.095  22.059  1.00  0.00     0.167 HD
BRANCH   9  12
ATOM     12  O   UNL A   1      32.267  24.984  22.472  1.00  0.00    -0.444 OA
BRANCH  12  13
ATOM     13  C   UNL A   1      33.028  24.267  23.486  1.00  0.00     0.106 C 
ATOM     14  C   UNL A   1      33.773  23.157  22.731  1.00  0.00     0.056 C 
ATOM     15  C   UNL A   1      32.088  23.623  24.512  1.00  0.00     0.056 C 
ATOM     16  C   UNL A   1      34.083  25.158  24.167  1.00  0.00     0.056 C 
ENDBRANCH  12  13
ENDBRANCH   9  12
ENDBRANCH   7   8
BRANCH   7  17
ATOM     17  C   UNL A   1      29.835  28.255  22.942  1.00  0.00    -0.007 A 
ATOM     18  C   UNL A   1      28.485  28.158  23.290  1.00  0.00     0.009 A 
ATOM     19  C   UNL A   1      30.153  29.259  22.020  1.00  0.00     0.116 A 
ATOM     20  C   UNL A   1      27.567  29.098  22.818  1.00  0.00     0.020 A 
ATOM     21  N   UNL A   1      29.288  30.181  21.539  1.00  0.00    -0.264 NA
ATOM     22  C   UNL A   1      28.015  30.092  21.968  1.00  0.00     0.111 A 
ENDBRANCH   7  17
ENDBRANCH   6   7
ENDBRANCH   3   6
ENDBRANCH   1   2
BRANCH   1  23
ATOM     23  C   UNL A   1      31.191  32.221  26.139  1.00  0.00     0.042 C 
BRANCH  23  24
ATOM     24  C   UNL A   1      32.301  32.485  27.141  1.00  0.00     0.118 C 
BRANCH  24  25
ATOM     25  N   UNL A   1      32.320  33.865  27.588  1.00  0.00    -0.352 N 
ATOM     26  C   UNL A   1      33.173  34.501  28.457  1.00  0.00     0.251 C 
ATOM     27  H   UNL A   1      31.610  34.434  27.211  1.00  0.00     0.163 HD
ATOM     28  O   UNL A   1      32.863  35.606  28.895  1.00  0.00    -0.269 OA
BRANCH  26  29
ATOM     29  C   UNL A   1      34.449  33.877  28.885  1.00  0.00     0.039 A 
ATOM     30  C   UNL A   1      34.464  33.115  30.059  1.00  0.00     0.014 A 
ATOM     31  C   UNL A   1      35.641  34.080  28.187  1.00  0.00     0.014 A 
ATOM     32  C   UNL A   1      35.655  32.529  30.500  1.00  0.00     0.010 A 
ATOM     33  C   UNL A   1      36.803  33.412  28.568  1.00  0.00     0.010 A 
ATOM     34  C   UNL A   1      36.830  32.647  29.743  1.00  0.00    -0.014 A 
BRANCH  34  35
ATOM     35  C   UNL A   1      38.101  32.010  30.179  1.00  0.00     0.031 A 
ATOM     36  C   UNL A   1      38.982  32.687  31.198  1.00  0.00     0.074 A 
ATOM     37  C   UNL A   1      38.494  30.846  29.624  1.00  0.00     0.049 A 
ATOM     38  N   UNL A   1      40.145  32.311  31.667  1.00  0.00    -0.248 NA
ATOM     39  C   UNL A   1      38.505  33.969  31.742  1.00  0.00     0.031 C 
ATOM     40  C   UNL A   1      37.756  30.100  28.603  1.00  0.00     0.029 A 
ATOM     41  N   UNL A   1      39.617  30.086  29.842  1.00  0.00    -0.354 N 
ATOM     42  C   UNL A   1      40.547  33.319  32.537  1.00  0.00     0.074 A 
ATOM     43  C   UNL A   1      39.530  34.345  32.491  1.00  0.00     0.031 C 
ATOM     44  C   UNL A   1      38.424  28.972  28.313  1.00  0.00     0.029 A 
ATOM     45  C   UNL A   1      39.659  28.937  29.089  1.00  0.00     0.049 A 
ATOM     46  H   UNL A   1      40.324  30.339  30.478  1.00  0.00     0.167 HD
ATOM     47  C   UNL A   1      41.653  33.379  33.317  1.00  0.00     0.031 A 
ATOM     48  C   UNL A   1      40.590  27.966  29.025  1.00  0.00     0.031 A 
ATOM     49  C   UNL A   1      42.657  32.351  33.378  1.00  0.00     0.049 A 
ATOM     50  C   UNL A   1      41.818  28.066  29.887  1.00  0.00     0.074 A 
ATOM     51  C   UNL A   1      43.778  32.288  34.187  1.00  0.00     0.029 A 
ATOM     52  N   UNL A   1      42.664  31.209  32.592  1.00  0.00    -0.354 N 
ATOM     53  N   UNL A   1      42.146  28.990  30.757  1.00  0.00    -0.248 NA
ATOM     54  C   UNL A   1      42.802  26.980  29.761  1.00  0.00     0.031 C 
ATOM     55  C   UNL A   1      44.496  31.137  33.848  1.00  0.00     0.029 A 
ATOM     56  C   UNL A   1      43.788  30.450  32.874  1.00  0.00     0.049 A 
ATOM     57  H   UNL A   1      41.973  30.972  31.932  1.00  0.00     0.167 HD
ATOM     58  C   UNL A   1      43.355  28.582  31.306  1.00  0.00     0.074 A 
ATOM     59  C   UNL A   1      43.695  27.320  30.680  1.00  0.00     0.031 C 
ATOM     60  C   UNL A   1      44.114  29.197  32.245  1.00  0.00     0.031 A 
BRANCH  47  61
ATOM     61  C   UNL A   1      41.842  34.611  34.162  1.00  0.00    -0.014 A 
ATOM     62  C   UNL A   1      42.451  35.767  33.647  1.00  0.00     0.009 A 
ATOM     63  C   UNL A   1      41.374  34.625  35.485  1.00  0.00     0.009 A 
ATOM     64  C   UNL A   1      42.624  36.895  34.453  1.00  0.00     0.001 A 
ATOM     65  C   UNL A   1      41.518  35.765  36.278  1.00  0.00     0.001 A 
ATOM     66  C   UNL A   1      42.154  36.895  35.765  1.00  0.00     0.000 A 
ENDBRANCH  47  61
BRANCH  48  67
ATOM     67  C   UNL A   1      40.390  26.799  28.124  1.00  0.00    -0.014 A 
ATOM     68  C   UNL A   1      39.667  25.680  28.564  1.00  0.00     0.009 A 
ATOM     69  C   UNL A   1      40.926  26.793  26.828  1.00  0.00     0.009 A 
ATOM     70  C   UNL A   1      39.507  24.568  27.733  1.00  0.00     0.001 A 
ATOM     71  C   UNL A   1      40.738  25.693  25.988  1.00  0.00     0.001 A 
ATOM     72  C   UNL A   1      40.038  24.578  26.444  1.00  0.00     0.000 A 
ENDBRANCH  48  67
BRANCH  60  73
ATOM     73  C   UNL A   1      45.369  28.494  32.684  1.00  0.00    -0.014 A 
ATOM     74  C   UNL A   1      46.604  28.745  32.066  1.00  0.00     0.009 A 
ATOM     75  C   UNL A   1      45.318  27.597  33.763  1.00  0.00     0.009 A 
ATOM     76  C   UNL A   1      47.755  28.082  32.497  1.00  0.00     0.001 A 
ATOM     77  C   UNL A   1      46.476  26.962  34.212  1.00  0.00     0.001 A 
ATOM     78  C   UNL A   1      47.692  27.197  33.573  1.00  0.00     0.000 A 
ENDBRANCH  60  73
ENDBRANCH  34  35
ENDBRANCH  26  29
ENDBRANCH  24  25
ENDBRANCH  23  24
ENDBRANCH   1  23
TORSDOF 15
ENDMDL
