MODEL 1
REMARK VINA RESULT:     -11.8      0.000      0.000
REMARK SMILES O=C(NCCCNC(=O)[C@H]1O[C@@H](Oc2c(-c3cc(O)c(O)c(O)c3)oc3cc(O)cc(O)c3c2=O)[C@H](O)[C@@H](O)[C@@H]1O)c1ccc(-c2c3nc(c(-c4ccccc4)c4ccc([nH]4)c(-c4ccccc4)c4nc(c(-c5ccccc5)c5ccc2[nH]5)C=C4)C=C3)cc1
REMARK SMILES IDX 6 1 5 2 4 3 3 4 1 5 2 6 42 8 43 9 89 10 44 11 88 12 45 13
REMARK SMILES IDX 46 14 47 15 82 16 48 17 87 18 81 19 83 20 49 21 86 22 80 23
REMARK SMILES IDX 79 24 50 26 72 27 57 28 71 29 58 30 61 31 70 32 84 33 59 34
REMARK SMILES IDX 60 35 69 37 85 38 62 39 51 40 52 41 56 42 53 43 55 44 54 45
REMARK SMILES IDX 73 46 74 47 78 48 75 49 77 50 76 51 63 52 64 53 68 54 65 55
REMARK SMILES IDX 67 56 66 57 7 58 8 59 9 61 10 62 11 63 40 64 12 65 38 66
REMARK SMILES IDX 36 67 41 68 13 70 14 71 15 72 34 73 25 74 33 75 35 76 26 77
REMARK SMILES IDX 31 78 27 79 30 80 28 81 16 82 17 83 24 84 18 85 22 86 20 87
REMARK SMILES IDX 19 88 23 90 21 92 32 94 29 96 39 98 37 100
REMARK H PARENT 3 7 83 25 61 36 7 60 41 69 19 89 23 91 21 93 32 95 29 97 39 99
REMARK H PARENT 37 101
REMARK Flexibility Score: inf
ROOT
ATOM      1  C   UNL A   1      33.592  28.660  25.153  1.00  0.00     0.117 C 
ENDROOT
BRANCH   1   2
ATOM      2  C   UNL A   1      33.786  29.747  26.194  1.00  0.00     0.042 C 
BRANCH   2   3
ATOM      3  C   UNL A   1      34.697  29.343  27.340  1.00  0.00     0.118 C 
BRANCH   3   4
ATOM      4  N   UNL A   1      34.617  30.252  28.476  1.00  0.00    -0.352 N 
ATOM      5  O   UNL A   1      35.273  31.230  30.402  1.00  0.00    -0.269 OA
ATOM      6  C   UNL A   1      35.571  30.575  29.407  1.00  0.00     0.251 C 
ATOM      7  H   UNL A   1      33.749  30.701  28.594  1.00  0.00     0.163 HD
BRANCH   6   8
ATOM      8  C   UNL A   1      36.958  30.108  29.219  1.00  0.00     0.039 A 
ATOM      9  C   UNL A   1      37.612  30.316  28.003  1.00  0.00     0.014 A 
ATOM     10  C   UNL A   1      37.610  29.452  30.267  1.00  0.00     0.014 A 
ATOM     11  C   UNL A   1      38.845  29.724  27.775  1.00  0.00     0.010 A 
ATOM     12  C   UNL A   1      38.901  28.957  30.073  1.00  0.00     0.010 A 
ATOM     13  C   UNL A   1      39.516  29.066  28.816  1.00  0.00    -0.014 A 
BRANCH  13  14
ATOM     14  C   UNL A   1      40.899  28.587  28.589  1.00  0.00     0.031 A 
ATOM     15  C   UNL A   1      41.184  27.160  28.221  1.00  0.00     0.074 A 
ATOM     16  C   UNL A   1      41.906  29.477  28.701  1.00  0.00     0.049 A 
ATOM     17  N   UNL A   1      42.341  26.589  27.990  1.00  0.00    -0.248 NA
ATOM     18  C   UNL A   1      40.032  26.254  28.104  1.00  0.00     0.031 C 
ATOM     19  C   UNL A   1      41.745  30.893  29.051  1.00  0.00     0.029 A 
ATOM     20  N   UNL A   1      43.255  29.333  28.515  1.00  0.00    -0.354 N 
ATOM     21  C   UNL A   1      42.058  25.255  27.721  1.00  0.00     0.074 A 
ATOM     22  C   UNL A   1      40.624  25.096  27.840  1.00  0.00     0.031 C 
ATOM     23  C   UNL A   1      42.940  31.496  29.005  1.00  0.00     0.029 A 
ATOM     24  C   UNL A   1      43.957  30.499  28.703  1.00  0.00     0.049 A 
ATOM     25  H   UNL A   1      43.680  28.480  28.272  1.00  0.00     0.167 HD
ATOM     26  C   UNL A   1      42.919  24.259  27.402  1.00  0.00     0.031 A 
ATOM     27  C   UNL A   1      45.279  30.738  28.666  1.00  0.00     0.031 A 
ATOM     28  C   UNL A   1      44.346  24.427  27.295  1.00  0.00     0.049 A 
ATOM     29  C   UNL A   1      46.211  29.603  28.366  1.00  0.00     0.074 A 
ATOM     30  C   UNL A   1      45.301  23.485  26.950  1.00  0.00     0.029 A 
ATOM     31  N   UNL A   1      45.024  25.611  27.541  1.00  0.00    -0.354 N 
ATOM     32  N   UNL A   1      45.925  28.356  28.080  1.00  0.00    -0.248 NA
ATOM     33  C   UNL A   1      47.647  29.908  28.387  1.00  0.00     0.031 C 
ATOM     34  C   UNL A   1      46.560  24.085  27.047  1.00  0.00     0.029 A 
ATOM     35  C   UNL A   1      46.388  25.417  27.386  1.00  0.00     0.049 A 
ATOM     36  H   UNL A   1      44.599  26.465  27.787  1.00  0.00     0.167 HD
ATOM     37  C   UNL A   1      47.145  27.730  27.868  1.00  0.00     0.074 A 
ATOM     38  C   UNL A   1      48.169  28.741  28.036  1.00  0.00     0.031 C 
ATOM     39  C   UNL A   1      47.393  26.433  27.564  1.00  0.00     0.031 A 
BRANCH  26  40
ATOM     40  C   UNL A   1      42.346  22.885  27.179  1.00  0.00    -0.014 A 
ATOM     41  C   UNL A   1      42.181  21.980  28.239  1.00  0.00     0.009 A 
ATOM     42  C   UNL A   1      41.918  22.511  25.896  1.00  0.00     0.009 A 
ATOM     43  C   UNL A   1      41.628  20.716  28.010  1.00  0.00     0.001 A 
ATOM     44  C   UNL A   1      41.340  21.259  25.675  1.00  0.00     0.001 A 
ATOM     45  C   UNL A   1      41.204  20.360  26.731  1.00  0.00     0.000 A 
ENDBRANCH  26  40
BRANCH  27  46
ATOM     46  C   UNL A   1      45.792  32.103  28.948  1.00  0.00    -0.014 A 
ATOM     47  C   UNL A   1      46.103  32.494  30.259  1.00  0.00     0.009 A 
ATOM     48  C   UNL A   1      45.990  33.019  27.901  1.00  0.00     0.009 A 
ATOM     49  C   UNL A   1      46.579  33.782  30.516  1.00  0.00     0.001 A 
ATOM     50  C   UNL A   1      46.497  34.293  28.158  1.00  0.00     0.001 A 
ATOM     51  C   UNL A   1      46.782  34.676  29.467  1.00  0.00     0.000 A 
ENDBRANCH  27  46
BRANCH  39  52
ATOM     52  C   UNL A   1      48.831  26.046  27.362  1.00  0.00    -0.014 A 
ATOM     53  C   UNL A   1      49.432  26.112  26.095  1.00  0.00     0.009 A 
ATOM     54  C   UNL A   1      49.600  25.636  28.462  1.00  0.00     0.009 A 
ATOM     55  C   UNL A   1      50.769  25.741  25.930  1.00  0.00     0.001 A 
ATOM     56  C   UNL A   1      50.943  25.298  28.299  1.00  0.00     0.001 A 
ATOM     57  C   UNL A   1      51.523  25.340  27.032  1.00  0.00     0.000 A 
ENDBRANCH  39  52
ENDBRANCH  13  14
ENDBRANCH   6   8
ENDBRANCH   3   4
ENDBRANCH   2   3
ENDBRANCH   1   2
BRANCH   1  58
ATOM     58  N   UNL A   1      32.190  28.409  24.889  1.00  0.00    -0.354 N 
ATOM     59  C   UNL A   1      31.504  27.579  24.080  1.00  0.00     0.252 C 
ATOM     60  H   UNL A   1      31.599  28.980  25.430  1.00  0.00     0.163 HD
ATOM     61  O   UNL A   1      30.271  27.677  24.182  1.00  0.00    -0.272 OA
BRANCH  59  62
ATOM     62  C   UNL A   1      32.081  26.560  23.091  1.00  0.00     0.242 C 
ATOM     63  O   UNL A   1      31.195  25.413  23.075  1.00  0.00    -0.324 OA
ATOM     64  C   UNL A   1      32.406  26.896  21.644  1.00  0.00     0.184 C 
ATOM     65  C   UNL A   1      31.936  24.232  22.785  1.00  0.00     0.340 C 
ATOM     66  C   UNL A   1      33.143  25.705  21.019  1.00  0.00     0.181 C 
ATOM     67  C   UNL A   1      32.570  24.335  21.379  1.00  0.00     0.214 C 
BRANCH  64  68
ATOM     68  O   UNL A   1      33.300  28.008  21.500  1.00  0.00    -0.387 OA
ATOM     69  H   UNL A   1      33.628  28.043  20.588  1.00  0.00     0.211 HD
ENDBRANCH  64  68
BRANCH  65  70
ATOM     70  O   UNL A   1      31.216  22.978  22.875  1.00  0.00    -0.454 OA
BRANCH  70  71
ATOM     71  C   UNL A   1      31.812  21.911  23.532  1.00  0.00     0.214 A 
ATOM     72  C   UNL A   1      31.999  21.878  24.869  1.00  0.00     0.181 A 
ATOM     73  C   UNL A   1      32.016  20.633  22.778  1.00  0.00     0.239 A 
ATOM     74  O   UNL A   1      32.521  20.818  25.575  1.00  0.00    -0.452 OA
ATOM     75  C   UNL A   1      32.441  19.444  23.569  1.00  0.00     0.111 A 
ATOM     76  O   UNL A   1      31.789  20.585  21.574  1.00  0.00    -0.285 OA
ATOM     77  C   UNL A   1      32.678  19.621  24.933  1.00  0.00     0.146 A 
ATOM     78  C   UNL A   1      32.592  18.156  23.031  1.00  0.00     0.134 A 
ATOM     79  C   UNL A   1      33.079  18.555  25.742  1.00  0.00     0.094 A 
ATOM     80  C   UNL A   1      32.982  17.078  23.839  1.00  0.00     0.093 A 
ATOM     81  C   UNL A   1      33.224  17.292  25.192  1.00  0.00     0.123 A 
BRANCH  72  82
ATOM     82  C   UNL A   1      31.731  23.044  25.727  1.00  0.00     0.029 A 
ATOM     83  C   UNL A   1      32.780  23.945  25.985  1.00  0.00     0.062 A 
ATOM     84  C   UNL A   1      30.425  23.352  26.140  1.00  0.00     0.062 A 
ATOM     85  C   UNL A   1      32.489  25.199  26.506  1.00  0.00     0.162 A 
ATOM     86  C   UNL A   1      30.159  24.605  26.680  1.00  0.00     0.162 A 
ATOM     87  C   UNL A   1      31.178  25.539  26.821  1.00  0.00     0.200 A 
BRANCH  85  88
ATOM     88  O   UNL A   1      33.493  26.116  26.607  1.00  0.00    -0.504 OA
ATOM     89  H   UNL A   1      33.419  26.826  27.215  1.00  0.00     0.293 HD
ENDBRANCH  85  88
BRANCH  86  90
ATOM     90  O   UNL A   1      28.866  24.942  26.952  1.00  0.00    -0.504 OA
ATOM     91  H   UNL A   1      28.646  25.831  27.154  1.00  0.00     0.293 HD
ENDBRANCH  86  90
BRANCH  87  92
ATOM     92  O   UNL A   1      30.862  26.825  27.159  1.00  0.00    -0.502 OA
ATOM     93  H   UNL A   1      30.117  27.242  26.770  1.00  0.00     0.293 HD
ENDBRANCH  87  92
ENDBRANCH  72  82
BRANCH  78  94
ATOM     94  O   UNL A   1      32.351  17.919  21.707  1.00  0.00    -0.507 OA
ATOM     95  H   UNL A   1      33.065  17.878  21.101  1.00  0.00     0.293 HD
ENDBRANCH  78  94
BRANCH  81  96
ATOM     96  O   UNL A   1      33.600  16.281  26.023  1.00  0.00    -0.508 OA
ATOM     97  H   UNL A   1      33.743  15.420  25.680  1.00  0.00     0.293 HD
ENDBRANCH  81  96
ENDBRANCH  70  71
ENDBRANCH  65  70
BRANCH  66  98
ATOM     98  O   UNL A   1      33.173  25.908  19.584  1.00  0.00    -0.387 OA
ATOM     99  H   UNL A   1      32.376  25.523  19.186  1.00  0.00     0.211 HD
ENDBRANCH  66  98
BRANCH  67 100
ATOM    100  O   UNL A   1      33.607  23.360  21.188  1.00  0.00    -0.384 OA
ATOM    101  H   UNL A   1      33.989  23.464  20.302  1.00  0.00     0.211 HD
ENDBRANCH  67 100
ENDBRANCH  59  62
ENDBRANCH   1  58
TORSDOF 21
ENDMDL
MODEL 2
REMARK VINA RESULT:     -11.8      3.003      8.512
REMARK SMILES O=C(NCCCNC(=O)[C@H]1O[C@@H](Oc2c(-c3cc(O)c(O)c(O)c3)oc3cc(O)cc(O)c3c2=O)[C@H](O)[C@@H](O)[C@@H]1O)c1ccc(-c2c3nc(c(-c4ccccc4)c4ccc([nH]4)c(-c4ccccc4)c4nc(c(-c5ccccc5)c5ccc2[nH]5)C=C4)C=C3)cc1
REMARK SMILES IDX 6 1 5 2 4 3 3 4 1 5 2 6 42 8 43 9 89 10 44 11 88 12 45 13
REMARK SMILES IDX 46 14 47 15 82 16 48 17 87 18 81 19 83 20 49 21 86 22 80 23
REMARK SMILES IDX 79 24 50 26 72 27 57 28 71 29 58 30 61 31 70 32 84 33 59 34
REMARK SMILES IDX 60 35 69 37 85 38 62 39 51 40 52 41 56 42 53 43 55 44 54 45
REMARK SMILES IDX 73 46 74 47 78 48 75 49 77 50 76 51 63 52 64 53 68 54 65 55
REMARK SMILES IDX 67 56 66 57 7 58 8 59 9 61 10 62 11 63 40 64 12 65 38 66
REMARK SMILES IDX 36 67 41 68 13 70 14 71 15 72 34 73 25 74 33 75 35 76 26 77
REMARK SMILES IDX 31 78 27 79 30 80 28 81 16 82 17 83 24 84 18 85 22 86 20 87
REMARK SMILES IDX 19 88 23 90 21 92 32 94 29 96 39 98 37 100
REMARK H PARENT 3 7 83 25 61 36 7 60 41 69 19 89 23 91 21 93 32 95 29 97 39 99
REMARK H PARENT 37 101
REMARK Flexibility Score: inf
ROOT
ATOM      1  C   UNL A   1      35.172  21.492  26.118  1.00  0.00     0.117 C 
ENDROOT
BRANCH   1   2
ATOM      2  C   UNL A   1      35.434  22.952  26.438  1.00  0.00     0.042 C 
BRANCH   2   3
ATOM      3  C   UNL A   1      36.764  23.466  25.918  1.00  0.00     0.118 C 
BRANCH   3   4
ATOM      4  N   UNL A   1      37.839  22.491  26.046  1.00  0.00    -0.352 N 
ATOM      5  O   UNL A   1      39.959  21.761  26.307  1.00  0.00    -0.269 OA
ATOM      6  C   UNL A   1      39.145  22.672  26.425  1.00  0.00     0.251 C 
ATOM      7  H   UNL A   1      37.592  21.563  25.828  1.00  0.00     0.163 HD
BRANCH   6   8
ATOM      8  C   UNL A   1      39.574  23.983  26.951  1.00  0.00     0.039 A 
ATOM      9  C   UNL A   1      39.430  24.277  28.308  1.00  0.00     0.014 A 
ATOM     10  C   UNL A   1      40.122  24.927  26.079  1.00  0.00     0.014 A 
ATOM     11  C   UNL A   1      39.671  25.565  28.762  1.00  0.00     0.010 A 
ATOM     12  C   UNL A   1      40.475  26.188  26.563  1.00  0.00     0.010 A 
ATOM     13  C   UNL A   1      40.226  26.525  27.903  1.00  0.00    -0.014 A 
BRANCH  13  14
ATOM     14  C   UNL A   1      40.624  27.839  28.456  1.00  0.00     0.031 A 
ATOM     15  C   UNL A   1      39.620  28.932  28.681  1.00  0.00     0.074 A 
ATOM     16  C   UNL A   1      41.920  28.027  28.777  1.00  0.00     0.049 A 
ATOM     17  N   UNL A   1      39.813  30.137  29.158  1.00  0.00    -0.248 NA
ATOM     18  C   UNL A   1      38.223  28.645  28.321  1.00  0.00     0.031 C 
ATOM     19  C   UNL A   1      42.985  27.032  28.603  1.00  0.00     0.029 A 
ATOM     20  N   UNL A   1      42.561  29.104  29.329  1.00  0.00    -0.354 N 
ATOM     21  C   UNL A   1      38.570  30.758  29.136  1.00  0.00     0.074 A 
ATOM     22  C   UNL A   1      37.634  29.806  28.577  1.00  0.00     0.031 C 
ATOM     23  C   UNL A   1      44.131  27.526  29.087  1.00  0.00     0.029 A 
ATOM     24  C   UNL A   1      43.904  28.895  29.528  1.00  0.00     0.049 A 
ATOM     25  H   UNL A   1      42.105  29.944  29.561  1.00  0.00     0.167 HD
ATOM     26  C   UNL A   1      38.245  32.007  29.547  1.00  0.00     0.031 A 
ATOM     27  C   UNL A   1      44.858  29.722  29.988  1.00  0.00     0.031 A 
ATOM     28  C   UNL A   1      39.188  32.949  30.094  1.00  0.00     0.049 A 
ATOM     29  C   UNL A   1      44.477  31.117  30.382  1.00  0.00     0.074 A 
ATOM     30  C   UNL A   1      38.951  34.230  30.565  1.00  0.00     0.029 A 
ATOM     31  N   UNL A   1      40.548  32.718  30.234  1.00  0.00    -0.354 N 
ATOM     32  N   UNL A   1      43.292  31.677  30.387  1.00  0.00    -0.248 NA
ATOM     33  C   UNL A   1      45.565  31.994  30.830  1.00  0.00     0.031 C 
ATOM     34  C   UNL A   1      40.177  34.794  30.933  1.00  0.00     0.029 A 
ATOM     35  C   UNL A   1      41.168  33.843  30.754  1.00  0.00     0.049 A 
ATOM     36  H   UNL A   1      41.005  31.878  29.999  1.00  0.00     0.167 HD
ATOM     37  C   UNL A   1      43.488  32.967  30.857  1.00  0.00     0.074 A 
ATOM     38  C   UNL A   1      44.901  33.097  31.147  1.00  0.00     0.031 C 
ATOM     39  C   UNL A   1      42.578  33.957  31.030  1.00  0.00     0.031 A 
BRANCH  26  40
ATOM     40  C   UNL A   1      36.814  32.443  29.390  1.00  0.00    -0.014 A 
ATOM     41  C   UNL A   1      35.881  32.284  30.427  1.00  0.00     0.009 A 
ATOM     42  C   UNL A   1      36.405  33.071  28.203  1.00  0.00     0.009 A 
ATOM     43  C   UNL A   1      34.561  32.715  30.264  1.00  0.00     0.001 A 
ATOM     44  C   UNL A   1      35.094  33.527  28.053  1.00  0.00     0.001 A 
ATOM     45  C   UNL A   1      34.171  33.340  29.081  1.00  0.00     0.000 A 
ENDBRANCH  26  40
BRANCH  27  46
ATOM     46  C   UNL A   1      46.265  29.255  30.070  1.00  0.00    -0.014 A 
ATOM     47  C   UNL A   1      46.753  28.652  31.238  1.00  0.00     0.009 A 
ATOM     48  C   UNL A   1      47.126  29.394  28.968  1.00  0.00     0.009 A 
ATOM     49  C   UNL A   1      48.080  28.220  31.308  1.00  0.00     0.001 A 
ATOM     50  C   UNL A   1      48.440  28.932  29.030  1.00  0.00     0.001 A 
ATOM     51  C   UNL A   1      48.919  28.354  30.203  1.00  0.00     0.000 A 
ENDBRANCH  27  46
BRANCH  39  52
ATOM     52  C   UNL A   1      43.084  35.256  31.589  1.00  0.00    -0.014 A 
ATOM     53  C   UNL A   1      43.620  36.249  30.754  1.00  0.00     0.009 A 
ATOM     54  C   UNL A   1      42.997  35.498  32.969  1.00  0.00     0.009 A 
ATOM     55  C   UNL A   1      44.090  37.447  31.297  1.00  0.00     0.001 A 
ATOM     56  C   UNL A   1      43.438  36.709  33.503  1.00  0.00     0.001 A 
ATOM     57  C   UNL A   1      43.993  37.677  32.669  1.00  0.00     0.000 A 
ENDBRANCH  39  52
ENDBRANCH  13  14
ENDBRANCH   6   8
ENDBRANCH   3   4
ENDBRANCH   2   3
ENDBRANCH   1   2
BRANCH   1  58
ATOM     58  N   UNL A   1      34.443  21.334  24.877  1.00  0.00    -0.354 N 
ATOM     59  C   UNL A   1      33.252  21.755  24.408  1.00  0.00     0.252 C 
ATOM     60  H   UNL A   1      34.933  20.789  24.221  1.00  0.00     0.163 HD
ATOM     61  O   UNL A   1      33.011  21.396  23.245  1.00  0.00    -0.272 OA
BRANCH  59  62
ATOM     62  C   UNL A   1      32.214  22.607  25.145  1.00  0.00     0.242 C 
ATOM     63  O   UNL A   1      31.217  23.019  24.177  1.00  0.00    -0.324 OA
ATOM     64  C   UNL A   1      31.468  22.129  26.380  1.00  0.00     0.184 C 
ATOM     65  C   UNL A   1      30.670  24.281  24.549  1.00  0.00     0.340 C 
ATOM     66  C   UNL A   1      30.669  23.304  26.956  1.00  0.00     0.181 C 
ATOM     67  C   UNL A   1      29.956  24.167  25.916  1.00  0.00     0.214 C 
BRANCH  64  68
ATOM     68  O   UNL A   1      32.332  21.706  27.443  1.00  0.00    -0.387 OA
ATOM     69  H   UNL A   1      31.908  20.988  27.938  1.00  0.00     0.211 HD
ENDBRANCH  64  68
BRANCH  65  70
ATOM     70  O   UNL A   1      29.762  24.897  23.604  1.00  0.00    -0.454 OA
BRANCH  70  71
ATOM     71  C   UNL A   1      29.844  26.266  23.394  1.00  0.00     0.214 A 
ATOM     72  C   UNL A   1      30.927  26.867  22.855  1.00  0.00     0.181 A 
ATOM     73  C   UNL A   1      28.594  27.083  23.517  1.00  0.00     0.239 A 
ATOM     74  O   UNL A   1      31.031  28.208  22.562  1.00  0.00    -0.452 OA
ATOM     75  C   UNL A   1      28.669  28.500  23.062  1.00  0.00     0.111 A 
ATOM     76  O   UNL A   1      27.561  26.570  23.930  1.00  0.00    -0.285 OA
ATOM     77  C   UNL A   1      29.903  28.978  22.618  1.00  0.00     0.146 A 
ATOM     78  C   UNL A   1      27.569  29.372  23.030  1.00  0.00     0.134 A 
ATOM     79  C   UNL A   1      30.052  30.294  22.175  1.00  0.00     0.094 A 
ATOM     80  C   UNL A   1      27.709  30.692  22.575  1.00  0.00     0.093 A 
ATOM     81  C   UNL A   1      28.955  31.140  22.153  1.00  0.00     0.123 A 
BRANCH  72  82
ATOM     82  C   UNL A   1      32.178  26.138  22.592  1.00  0.00     0.029 A 
ATOM     83  C   UNL A   1      33.196  26.176  23.561  1.00  0.00     0.062 A 
ATOM     84  C   UNL A   1      32.297  25.282  21.485  1.00  0.00     0.062 A 
ATOM     85  C   UNL A   1      34.234  25.256  23.497  1.00  0.00     0.162 A 
ATOM     86  C   UNL A   1      33.355  24.383  21.430  1.00  0.00     0.162 A 
ATOM     87  C   UNL A   1      34.294  24.341  22.452  1.00  0.00     0.200 A 
BRANCH  85  88
ATOM     88  O   UNL A   1      35.128  25.203  24.525  1.00  0.00    -0.504 OA
ATOM     89  H   UNL A   1      35.958  25.632  24.446  1.00  0.00     0.293 HD
ENDBRANCH  85  88
BRANCH  86  90
ATOM     90  O   UNL A   1      33.386  23.466  20.421  1.00  0.00    -0.504 OA
ATOM     91  H   UNL A   1      32.631  22.941  20.241  1.00  0.00     0.293 HD
ENDBRANCH  86  90
BRANCH  87  92
ATOM     92  O   UNL A   1      35.203  23.320  22.482  1.00  0.00    -0.502 OA
ATOM     93  H   UNL A   1      35.965  23.386  23.026  1.00  0.00     0.293 HD
ENDBRANCH  87  92
ENDBRANCH  72  82
BRANCH  78  94
ATOM     94  O   UNL A   1      26.332  28.953  23.430  1.00  0.00    -0.507 OA
ATOM     95  H   UNL A   1      25.827  29.479  24.019  1.00  0.00     0.293 HD
ENDBRANCH  78  94
BRANCH  81  96
ATOM     96  O   UNL A   1      29.147  32.409  21.697  1.00  0.00    -0.508 OA
ATOM     97  H   UNL A   1      30.000  32.797  21.733  1.00  0.00     0.293 HD
ENDBRANCH  81  96
ENDBRANCH  70  71
ENDBRANCH  65  70
BRANCH  66  98
ATOM     98  O   UNL A   1      29.739  22.771  27.932  1.00  0.00    -0.387 OA
ATOM     99  H   UNL A   1      29.673  23.382  28.683  1.00  0.00     0.211 HD
ENDBRANCH  66  98
BRANCH  67 100
ATOM    100  O   UNL A   1      29.716  25.456  26.502  1.00  0.00    -0.384 OA
ATOM    101  H   UNL A   1      29.912  25.421  27.451  1.00  0.00     0.211 HD
ENDBRANCH  67 100
ENDBRANCH  59  62
ENDBRANCH   1  58
TORSDOF 21
ENDMDL
MODEL 3
REMARK VINA RESULT:     -11.8      3.468      6.813
REMARK SMILES O=C(NCCCNC(=O)[C@H]1O[C@@H](Oc2c(-c3cc(O)c(O)c(O)c3)oc3cc(O)cc(O)c3c2=O)[C@H](O)[C@@H](O)[C@@H]1O)c1ccc(-c2c3nc(c(-c4ccccc4)c4ccc([nH]4)c(-c4ccccc4)c4nc(c(-c5ccccc5)c5ccc2[nH]5)C=C4)C=C3)cc1
REMARK SMILES IDX 6 1 5 2 4 3 3 4 1 5 2 6 42 8 43 9 89 10 44 11 88 12 45 13
REMARK SMILES IDX 46 14 47 15 82 16 48 17 87 18 81 19 83 20 49 21 86 22 80 23
REMARK SMILES IDX 79 24 50 26 72 27 57 28 71 29 58 30 61 31 70 32 84 33 59 34
REMARK SMILES IDX 60 35 69 37 85 38 62 39 51 40 52 41 56 42 53 43 55 44 54 45
REMARK SMILES IDX 73 46 74 47 78 48 75 49 77 50 76 51 63 52 64 53 68 54 65 55
REMARK SMILES IDX 67 56 66 57 7 58 8 59 9 61 10 62 11 63 40 64 12 65 38 66
REMARK SMILES IDX 36 67 41 68 13 70 14 71 15 72 34 73 25 74 33 75 35 76 26 77
REMARK SMILES IDX 31 78 27 79 30 80 28 81 16 82 17 83 24 84 18 85 22 86 20 87
REMARK SMILES IDX 19 88 23 90 21 92 32 94 29 96 39 98 37 100
REMARK H PARENT 3 7 83 25 61 36 7 60 41 69 19 89 23 91 21 93 32 95 29 97 39 99
REMARK H PARENT 37 101
REMARK Flexibility Score: inf
ROOT
ATOM      1  C   UNL A   1      31.744  29.367  24.995  1.00  0.00     0.117 C 
ENDROOT
BRANCH   1   2
ATOM      2  C   UNL A   1      31.409  30.739  25.548  1.00  0.00     0.042 C 
BRANCH   2   3
ATOM      3  C   UNL A   1      32.391  31.236  26.595  1.00  0.00     0.118 C 
BRANCH   3   4
ATOM      4  N   UNL A   1      32.189  32.636  26.943  1.00  0.00    -0.352 N 
ATOM      5  O   UNL A   1      32.491  34.552  28.098  1.00  0.00    -0.269 OA
ATOM      6  C   UNL A   1      32.911  33.441  27.787  1.00  0.00     0.251 C 
ATOM      7  H   UNL A   1      31.419  33.070  26.508  1.00  0.00     0.163 HD
BRANCH   6   8
ATOM      8  C   UNL A   1      34.187  32.952  28.343  1.00  0.00     0.039 A 
ATOM      9  C   UNL A   1      34.192  31.980  29.346  1.00  0.00     0.014 A 
ATOM     10  C   UNL A   1      35.390  33.472  27.860  1.00  0.00     0.014 A 
ATOM     11  C   UNL A   1      35.380  31.654  29.982  1.00  0.00     0.010 A 
ATOM     12  C   UNL A   1      36.597  33.054  28.424  1.00  0.00     0.010 A 
ATOM     13  C   UNL A   1      36.598  32.162  29.508  1.00  0.00    -0.014 A 
BRANCH  13  14
ATOM     14  C   UNL A   1      37.862  31.669  30.102  1.00  0.00     0.031 A 
ATOM     15  C   UNL A   1      38.469  32.324  31.308  1.00  0.00     0.074 A 
ATOM     16  C   UNL A   1      38.449  30.593  29.541  1.00  0.00     0.049 A 
ATOM     17  N   UNL A   1      39.570  32.009  31.944  1.00  0.00    -0.248 NA
ATOM     18  C   UNL A   1      37.760  33.483  31.870  1.00  0.00     0.031 C 
ATOM     19  C   UNL A   1      37.946  29.873  28.366  1.00  0.00     0.029 A 
ATOM     20  N   UNL A   1      39.582  29.906  29.890  1.00  0.00    -0.354 N 
ATOM     21  C   UNL A   1      39.697  32.941  32.967  1.00  0.00     0.074 A 
ATOM     22  C   UNL A   1      38.574  33.847  32.853  1.00  0.00     0.031 C 
ATOM     23  C   UNL A   1      38.735  28.819  28.124  1.00  0.00     0.029 A 
ATOM     24  C   UNL A   1      39.841  28.834  29.070  1.00  0.00     0.049 A 
ATOM     25  H   UNL A   1      40.153  30.155  30.651  1.00  0.00     0.167 HD
ATOM     26  C   UNL A   1      40.663  33.027  33.913  1.00  0.00     0.031 A 
ATOM     27  C   UNL A   1      40.872  27.971  29.062  1.00  0.00     0.031 A 
ATOM     28  C   UNL A   1      41.781  32.124  34.011  1.00  0.00     0.049 A 
ATOM     29  C   UNL A   1      41.955  28.127  30.086  1.00  0.00     0.074 A 
ATOM     30  C   UNL A   1      42.798  32.111  34.952  1.00  0.00     0.029 A 
ATOM     31  N   UNL A   1      42.036  31.081  33.134  1.00  0.00    -0.354 N 
ATOM     32  N   UNL A   1      42.042  28.992  31.067  1.00  0.00    -0.248 NA
ATOM     33  C   UNL A   1      43.081  27.190  30.000  1.00  0.00     0.031 C 
ATOM     34  C   UNL A   1      43.699  31.099  34.607  1.00  0.00     0.029 A 
ATOM     35  C   UNL A   1      43.211  30.438  33.492  1.00  0.00     0.049 A 
ATOM     36  H   UNL A   1      41.466  30.833  32.371  1.00  0.00     0.167 HD
ATOM     37  C   UNL A   1      43.224  28.692  31.729  1.00  0.00     0.074 A 
ATOM     38  C   UNL A   1      43.805  27.552  31.050  1.00  0.00     0.031 C 
ATOM     39  C   UNL A   1      43.778  29.308  32.801  1.00  0.00     0.031 A 
BRANCH  26  40
ATOM     40  C   UNL A   1      40.574  34.159  34.901  1.00  0.00    -0.014 A 
ATOM     41  C   UNL A   1      41.137  35.416  34.628  1.00  0.00     0.009 A 
ATOM     42  C   UNL A   1      39.872  33.979  36.103  1.00  0.00     0.009 A 
ATOM     43  C   UNL A   1      41.024  36.458  35.552  1.00  0.00     0.001 A 
ATOM     44  C   UNL A   1      39.736  35.029  37.012  1.00  0.00     0.001 A 
ATOM     45  C   UNL A   1      40.320  36.265  36.740  1.00  0.00     0.000 A 
ENDBRANCH  26  40
BRANCH  27  46
ATOM     46  C   UNL A   1      40.935  26.906  28.028  1.00  0.00    -0.014 A 
ATOM     47  C   UNL A   1      40.347  25.654  28.253  1.00  0.00     0.009 A 
ATOM     48  C   UNL A   1      41.573  27.146  26.799  1.00  0.00     0.009 A 
ATOM     49  C   UNL A   1      40.417  24.656  27.278  1.00  0.00     0.001 A 
ATOM     50  C   UNL A   1      41.611  26.159  25.814  1.00  0.00     0.001 A 
ATOM     51  C   UNL A   1      41.042  24.911  26.058  1.00  0.00     0.000 A 
ENDBRANCH  27  46
BRANCH  39  52
ATOM     52  C   UNL A   1      45.066  28.736  33.323  1.00  0.00    -0.014 A 
ATOM     53  C   UNL A   1      46.307  29.161  32.824  1.00  0.00     0.009 A 
ATOM     54  C   UNL A   1      45.034  27.779  34.348  1.00  0.00     0.009 A 
ATOM     55  C   UNL A   1      47.491  28.611  33.321  1.00  0.00     0.001 A 
ATOM     56  C   UNL A   1      46.220  27.256  34.865  1.00  0.00     0.001 A 
ATOM     57  C   UNL A   1      47.446  27.664  34.343  1.00  0.00     0.000 A 
ENDBRANCH  39  52
ENDBRANCH  13  14
ENDBRANCH   6   8
ENDBRANCH   3   4
ENDBRANCH   2   3
ENDBRANCH   1   2
BRANCH   1  58
ATOM     58  N   UNL A   1      30.556  28.572  24.766  1.00  0.00    -0.354 N 
ATOM     59  C   UNL A   1      30.280  27.437  24.094  1.00  0.00     0.252 C 
ATOM     60  H   UNL A   1      29.761  28.950  25.205  1.00  0.00     0.163 HD
ATOM     61  O   UNL A   1      29.095  27.078  24.171  1.00  0.00    -0.272 OA
BRANCH  59  62
ATOM     62  C   UNL A   1      31.256  26.579  23.282  1.00  0.00     0.242 C 
ATOM     63  O   UNL A   1      30.608  25.311  23.013  1.00  0.00    -0.324 OA
ATOM     64  C   UNL A   1      31.890  27.044  21.980  1.00  0.00     0.184 C 
ATOM     65  C   UNL A   1      31.583  24.277  22.916  1.00  0.00     0.340 C 
ATOM     66  C   UNL A   1      32.951  26.020  21.559  1.00  0.00     0.181 C 
ATOM     67  C   UNL A   1      32.538  24.558  21.733  1.00  0.00     0.214 C 
BRANCH  64  68
ATOM     68  O   UNL A   1      32.594  28.287  22.097  1.00  0.00    -0.387 OA
ATOM     69  H   UNL A   1      33.351  28.175  22.692  1.00  0.00     0.211 HD
ENDBRANCH  64  68
BRANCH  65  70
ATOM     70  O   UNL A   1      31.082  22.924  22.792  1.00  0.00    -0.454 OA
BRANCH  70  71
ATOM     71  C   UNL A   1      31.787  21.893  23.396  1.00  0.00     0.214 A 
ATOM     72  C   UNL A   1      32.089  21.876  24.712  1.00  0.00     0.181 A 
ATOM     73  C   UNL A   1      31.993  20.623  22.627  1.00  0.00     0.239 A 
ATOM     74  O   UNL A   1      32.723  20.848  25.372  1.00  0.00    -0.452 OA
ATOM     75  C   UNL A   1      32.545  19.462  23.380  1.00  0.00     0.111 A 
ATOM     76  O   UNL A   1      31.667  20.558  21.448  1.00  0.00    -0.285 OA
ATOM     77  C   UNL A   1      32.888  19.658  24.719  1.00  0.00     0.146 A 
ATOM     78  C   UNL A   1      32.717  18.182  22.831  1.00  0.00     0.134 A 
ATOM     79  C   UNL A   1      33.411  18.618  25.491  1.00  0.00     0.094 A 
ATOM     80  C   UNL A   1      33.230  17.129  23.604  1.00  0.00     0.093 A 
ATOM     81  C   UNL A   1      33.575  17.361  24.930  1.00  0.00     0.123 A 
BRANCH  72  82
ATOM     82  C   UNL A   1      31.834  23.030  25.589  1.00  0.00     0.029 A 
ATOM     83  C   UNL A   1      32.862  23.971  25.779  1.00  0.00     0.062 A 
ATOM     84  C   UNL A   1      30.548  23.287  26.091  1.00  0.00     0.062 A 
ATOM     85  C   UNL A   1      32.558  25.213  26.322  1.00  0.00     0.162 A 
ATOM     86  C   UNL A   1      30.271  24.529  26.650  1.00  0.00     0.162 A 
ATOM     87  C   UNL A   1      31.260  25.501  26.726  1.00  0.00     0.200 A 
BRANCH  85  88
ATOM     88  O   UNL A   1      33.531  26.168  26.358  1.00  0.00    -0.504 OA
ATOM     89  H   UNL A   1      33.344  27.012  26.721  1.00  0.00     0.293 HD
ENDBRANCH  85  88
BRANCH  86  90
ATOM     90  O   UNL A   1      28.987  24.816  27.010  1.00  0.00    -0.504 OA
ATOM     91  H   UNL A   1      28.723  25.706  27.134  1.00  0.00     0.293 HD
ENDBRANCH  86  90
BRANCH  87  92
ATOM     92  O   UNL A   1      30.918  26.775  27.087  1.00  0.00    -0.502 OA
ATOM     93  H   UNL A   1      30.174  27.189  26.694  1.00  0.00     0.293 HD
ENDBRANCH  87  92
ENDBRANCH  72  82
BRANCH  78  94
ATOM     94  O   UNL A   1      32.377  17.926  21.533  1.00  0.00    -0.507 OA
ATOM     95  H   UNL A   1      32.237  18.635  20.937  1.00  0.00     0.293 HD
ENDBRANCH  78  94
BRANCH  81  96
ATOM     96  O   UNL A   1      34.073  16.375  25.727  1.00  0.00    -0.508 OA
ATOM     97  H   UNL A   1      33.622  16.135  26.513  1.00  0.00     0.293 HD
ENDBRANCH  81  96
ENDBRANCH  70  71
ENDBRANCH  65  70
BRANCH  66  98
ATOM     98  O   UNL A   1      33.324  26.307  20.188  1.00  0.00    -0.387 OA
ATOM     99  H   UNL A   1      33.973  27.028  20.174  1.00  0.00     0.211 HD
ENDBRANCH  66  98
BRANCH  67 100
ATOM    100  O   UNL A   1      33.735  23.769  21.814  1.00  0.00    -0.384 OA
ATOM    101  H   UNL A   1      34.379  24.090  21.163  1.00  0.00     0.211 HD
ENDBRANCH  67 100
ENDBRANCH  59  62
ENDBRANCH   1  58
TORSDOF 21
ENDMDL
