MODEL 1
REMARK VINA RESULT:     -12.8      0.000      0.000
REMARK SMILES O=C(NCCCNC(=O)c1nnn(-c2ccccc2C(F)(F)F)c1-c1cccc(Cl)c1)c1ccc(-c2c3nc(c(-c4ccccc4)c4ccc([nH]4)c(-c4ccccc4)c4nc(c(-c5ccccc5)c5ccc2[nH]5)C=C4)C=C3)cc1
REMARK SMILES IDX 5 1 4 2 3 3 1 4 2 5 32 7 33 8 79 9 34 10 78 11 35 12 36 13
REMARK SMILES IDX 37 14 72 15 38 16 77 17 71 18 73 19 39 20 76 21 70 22 69 23
REMARK SMILES IDX 40 25 62 26 47 27 61 28 48 29 51 30 60 31 74 32 49 33 50 34
REMARK SMILES IDX 59 36 75 37 52 38 41 39 42 40 46 41 43 42 45 43 44 44 63 45
REMARK SMILES IDX 64 46 68 47 65 48 67 49 66 50 53 51 54 52 58 53 55 54 57 55
REMARK SMILES IDX 56 56 6 57 7 58 8 59 9 61 10 62 11 63 24 64 12 65 13 66
REMARK SMILES IDX 25 67 26 68 31 69 27 70 29 71 28 72 30 73 14 74 15 75 19 76
REMARK SMILES IDX 16 77 18 78 17 79 20 80 21 81 22 82 23 83
REMARK H PARENT 3 6 73 24 51 35 7 60
REMARK Flexibility Score: inf
ROOT
ATOM      1  C   UNL A   1      32.295  29.324  27.107  1.00  0.00     0.042 C 
ENDROOT
BRANCH   1   2
ATOM      2  C   UNL A   1      33.759  29.750  27.162  1.00  0.00     0.118 C 
BRANCH   2   3
ATOM      3  N   UNL A   1      34.055  30.846  28.063  1.00  0.00    -0.352 N 
ATOM      4  O   UNL A   1      35.069  32.365  29.306  1.00  0.00    -0.269 OA
ATOM      5  C   UNL A   1      35.165  31.272  28.738  1.00  0.00     0.251 C 
ATOM      6  H   UNL A   1      33.272  31.418  28.230  1.00  0.00     0.163 HD
BRANCH   5   7
ATOM      7  C   UNL A   1      36.431  30.504  28.892  1.00  0.00     0.039 A 
ATOM      8  C   UNL A   1      37.529  30.554  28.033  1.00  0.00     0.014 A 
ATOM      9  C   UNL A   1      36.495  29.650  30.009  1.00  0.00     0.014 A 
ATOM     10  C   UNL A   1      38.624  29.713  28.234  1.00  0.00     0.010 A 
ATOM     11  C   UNL A   1      37.595  28.828  30.231  1.00  0.00     0.010 A 
ATOM     12  C   UNL A   1      38.650  28.837  29.322  1.00  0.00    -0.014 A 
BRANCH  12  13
ATOM     13  C   UNL A   1      39.854  28.041  29.554  1.00  0.00     0.031 A 
ATOM     14  C   UNL A   1      40.438  28.113  30.927  1.00  0.00     0.074 A 
ATOM     15  C   UNL A   1      40.331  27.131  28.681  1.00  0.00     0.049 A 
ATOM     16  N   UNL A   1      41.645  28.431  31.273  1.00  0.00    -0.248 NA
ATOM     17  C   UNL A   1      39.546  27.821  32.059  1.00  0.00     0.031 C 
ATOM     18  C   UNL A   1      39.707  26.668  27.439  1.00  0.00     0.029 A 
ATOM     19  N   UNL A   1      41.428  26.327  28.799  1.00  0.00    -0.354 N 
ATOM     20  C   UNL A   1      41.713  28.248  32.655  1.00  0.00     0.074 A 
ATOM     21  C   UNL A   1      40.371  27.961  33.097  1.00  0.00     0.031 C 
ATOM     22  C   UNL A   1      40.305  25.521  27.047  1.00  0.00     0.029 A 
ATOM     23  C   UNL A   1      41.425  25.245  27.933  1.00  0.00     0.049 A 
ATOM     24  H   UNL A   1      42.155  26.500  29.440  1.00  0.00     0.167 HD
ATOM     25  C   UNL A   1      42.891  28.175  33.332  1.00  0.00     0.031 A 
ATOM     26  C   UNL A   1      42.237  24.161  27.979  1.00  0.00     0.031 A 
ATOM     27  C   UNL A   1      44.002  28.664  32.566  1.00  0.00     0.049 A 
ATOM     28  C   UNL A   1      43.413  24.494  28.813  1.00  0.00     0.074 A 
ATOM     29  C   UNL A   1      44.347  29.874  31.997  1.00  0.00     0.029 A 
ATOM     30  N   UNL A   1      44.856  27.738  32.021  1.00  0.00    -0.354 N 
ATOM     31  N   UNL A   1      44.347  25.323  28.452  1.00  0.00    -0.248 NA
ATOM     32  C   UNL A   1      43.376  24.172  30.230  1.00  0.00     0.031 C 
ATOM     33  C   UNL A   1      45.045  29.532  30.802  1.00  0.00     0.029 A 
ATOM     34  C   UNL A   1      45.102  28.139  30.735  1.00  0.00     0.049 A 
ATOM     35  H   UNL A   1      45.221  26.940  32.469  1.00  0.00     0.167 HD
ATOM     36  C   UNL A   1      44.734  25.951  29.626  1.00  0.00     0.074 A 
ATOM     37  C   UNL A   1      44.198  25.115  30.695  1.00  0.00     0.031 C 
ATOM     38  C   UNL A   1      45.205  27.232  29.616  1.00  0.00     0.031 A 
BRANCH  25  39
ATOM     39  C   UNL A   1      43.103  27.343  34.572  1.00  0.00    -0.014 A 
ATOM     40  C   UNL A   1      43.034  25.940  34.474  1.00  0.00     0.009 A 
ATOM     41  C   UNL A   1      43.080  27.890  35.868  1.00  0.00     0.009 A 
ATOM     42  C   UNL A   1      42.883  25.135  35.609  1.00  0.00     0.001 A 
ATOM     43  C   UNL A   1      42.974  27.086  37.007  1.00  0.00     0.001 A 
ATOM     44  C   UNL A   1      42.847  25.710  36.876  1.00  0.00     0.000 A 
ENDBRANCH  25  39
BRANCH  26  45
ATOM     45  C   UNL A   1      41.959  22.778  27.541  1.00  0.00    -0.014 A 
ATOM     46  C   UNL A   1      40.660  22.248  27.609  1.00  0.00     0.009 A 
ATOM     47  C   UNL A   1      42.924  22.057  26.814  1.00  0.00     0.009 A 
ATOM     48  C   UNL A   1      40.335  21.058  26.947  1.00  0.00     0.001 A 
ATOM     49  C   UNL A   1      42.601  20.866  26.158  1.00  0.00     0.001 A 
ATOM     50  C   UNL A   1      41.302  20.374  26.213  1.00  0.00     0.000 A 
ENDBRANCH  26  45
BRANCH  38  51
ATOM     51  C   UNL A   1      45.557  27.847  28.285  1.00  0.00    -0.014 A 
ATOM     52  C   UNL A   1      44.585  28.313  27.383  1.00  0.00     0.009 A 
ATOM     53  C   UNL A   1      46.907  28.102  28.001  1.00  0.00     0.009 A 
ATOM     54  C   UNL A   1      44.955  28.979  26.210  1.00  0.00     0.001 A 
ATOM     55  C   UNL A   1      47.275  28.789  26.842  1.00  0.00     0.001 A 
ATOM     56  C   UNL A   1      46.300  29.221  25.945  1.00  0.00     0.000 A 
ENDBRANCH  38  51
ENDBRANCH  12  13
ENDBRANCH   5   7
ENDBRANCH   2   3
ENDBRANCH   1   2
BRANCH   1  57
ATOM     57  C   UNL A   1      32.008  27.924  27.633  1.00  0.00     0.118 C 
BRANCH  57  58
ATOM     58  N   UNL A   1      30.830  27.316  27.043  1.00  0.00    -0.351 N 
ATOM     59  C   UNL A   1      30.692  26.087  26.440  1.00  0.00     0.274 C 
ATOM     60  H   UNL A   1      30.011  27.861  27.080  1.00  0.00     0.163 HD
ATOM     61  O   UNL A   1      29.606  25.806  25.933  1.00  0.00    -0.267 OA
BRANCH  59  62
ATOM     62  C   UNL A   1      31.820  25.172  26.408  1.00  0.00     0.178 A 
ATOM     63  N   UNL A   1      31.923  24.132  27.294  1.00  0.00    -0.124 NA
ATOM     64  C   UNL A   1      32.896  25.137  25.525  1.00  0.00     0.108 A 
ATOM     65  N   UNL A   1      32.980  23.408  26.962  1.00  0.00    -0.061 NA
ATOM     66  N   UNL A   1      33.649  24.058  25.984  1.00  0.00    -0.211 N 
BRANCH  64  67
ATOM     67  C   UNL A   1      33.166  25.913  24.316  1.00  0.00     0.004 A 
ATOM     68  C   UNL A   1      33.773  27.177  24.409  1.00  0.00     0.010 A 
ATOM     69  C   UNL A   1      32.854  25.397  23.053  1.00  0.00     0.031 A 
ATOM     70  C   UNL A   1      34.042  27.923  23.263  1.00  0.00     0.002 A 
ATOM     71  C   UNL A   1      33.113  26.157  21.912  1.00  0.00     0.041 A 
ATOM     72  C   UNL A   1      33.704  27.415  22.012  1.00  0.00     0.020 A 
ATOM     73  Cl  UNL A   1      32.686  25.539  20.364  1.00  0.00    -0.084 Cl
ENDBRANCH  64  67
BRANCH  66  74
ATOM     74  C   UNL A   1      34.829  23.503  25.429  1.00  0.00     0.079 A 
ATOM     75  C   UNL A   1      36.047  24.096  25.811  1.00  0.00     0.029 A 
ATOM     76  C   UNL A   1      34.823  22.366  24.597  1.00  0.00     0.081 A 
ATOM     77  C   UNL A   1      37.258  23.503  25.459  1.00  0.00     0.002 A 
ATOM     78  C   UNL A   1      36.064  21.779  24.269  1.00  0.00     0.015 A 
ATOM     79  C   UNL A   1      37.267  22.333  24.708  1.00  0.00     0.001 A 
BRANCH  76  80
ATOM     80  C   UNL A   1      33.596  21.784  23.931  1.00  0.00     0.418 C 
ATOM     81  F   UNL A   1      33.463  22.215  22.643  1.00  0.00    -0.166 F 
ATOM     82  F   UNL A   1      33.641  20.427  23.853  1.00  0.00    -0.166 F 
ATOM     83  F   UNL A   1      32.419  22.097  24.532  1.00  0.00    -0.166 F 
ENDBRANCH  76  80
ENDBRANCH  66  74
ENDBRANCH  59  62
ENDBRANCH  57  58
ENDBRANCH   1  57
TORSDOF 13
ENDMDL
MODEL 2
REMARK VINA RESULT:     -12.7      1.637      2.271
REMARK SMILES O=C(NCCCNC(=O)c1nnn(-c2ccccc2C(F)(F)F)c1-c1cccc(Cl)c1)c1ccc(-c2c3nc(c(-c4ccccc4)c4ccc([nH]4)c(-c4ccccc4)c4nc(c(-c5ccccc5)c5ccc2[nH]5)C=C4)C=C3)cc1
REMARK SMILES IDX 5 1 4 2 3 3 1 4 2 5 32 7 33 8 79 9 34 10 78 11 35 12 36 13
REMARK SMILES IDX 37 14 72 15 38 16 77 17 71 18 73 19 39 20 76 21 70 22 69 23
REMARK SMILES IDX 40 25 62 26 47 27 61 28 48 29 51 30 60 31 74 32 49 33 50 34
REMARK SMILES IDX 59 36 75 37 52 38 41 39 42 40 46 41 43 42 45 43 44 44 63 45
REMARK SMILES IDX 64 46 68 47 65 48 67 49 66 50 53 51 54 52 58 53 55 54 57 55
REMARK SMILES IDX 56 56 6 57 7 58 8 59 9 61 10 62 11 63 24 64 12 65 13 66
REMARK SMILES IDX 25 67 26 68 31 69 27 70 29 71 28 72 30 73 14 74 15 75 19 76
REMARK SMILES IDX 16 77 18 78 17 79 20 80 21 81 22 82 23 83
REMARK H PARENT 3 6 73 24 51 35 7 60
REMARK Flexibility Score: inf
ROOT
ATOM      1  C   UNL A   1      31.861  29.180  27.185  1.00  0.00     0.042 C 
ENDROOT
BRANCH   1   2
ATOM      2  C   UNL A   1      33.086  29.951  26.702  1.00  0.00     0.118 C 
BRANCH   2   3
ATOM      3  N   UNL A   1      33.363  31.187  27.408  1.00  0.00    -0.352 N 
ATOM      4  O   UNL A   1      34.348  32.918  28.362  1.00  0.00    -0.269 OA
ATOM      5  C   UNL A   1      34.472  31.752  27.974  1.00  0.00     0.251 C 
ATOM      6  H   UNL A   1      32.563  31.752  27.504  1.00  0.00     0.163 HD
BRANCH   5   7
ATOM      7  C   UNL A   1      35.769  31.061  28.210  1.00  0.00     0.039 A 
ATOM      8  C   UNL A   1      36.030  29.710  27.982  1.00  0.00     0.014 A 
ATOM      9  C   UNL A   1      36.805  31.866  28.720  1.00  0.00     0.014 A 
ATOM     10  C   UNL A   1      37.263  29.158  28.334  1.00  0.00     0.010 A 
ATOM     11  C   UNL A   1      38.045  31.328  29.047  1.00  0.00     0.010 A 
ATOM     12  C   UNL A   1      38.264  29.962  28.883  1.00  0.00    -0.014 A 
BRANCH  12  13
ATOM     13  C   UNL A   1      39.575  29.370  29.148  1.00  0.00     0.031 A 
ATOM     14  C   UNL A   1      39.888  29.077  30.579  1.00  0.00     0.074 A 
ATOM     15  C   UNL A   1      40.400  28.915  28.184  1.00  0.00     0.049 A 
ATOM     16  N   UNL A   1      40.903  29.473  31.278  1.00  0.00    -0.248 NA
ATOM     17  C   UNL A   1      38.924  28.259  31.330  1.00  0.00     0.031 C 
ATOM     18  C   UNL A   1      40.125  28.796  26.751  1.00  0.00     0.029 A 
ATOM     19  N   UNL A   1      41.629  28.334  28.317  1.00  0.00    -0.354 N 
ATOM     20  C   UNL A   1      40.788  28.847  32.520  1.00  0.00     0.074 A 
ATOM     21  C   UNL A   1      39.506  28.186  32.527  1.00  0.00     0.031 C 
ATOM     22  C   UNL A   1      41.046  27.980  26.191  1.00  0.00     0.029 A 
ATOM     23  C   UNL A   1      42.039  27.629  27.195  1.00  0.00     0.049 A 
ATOM     24  H   UNL A   1      42.174  28.409  29.133  1.00  0.00     0.167 HD
ATOM     25  C   UNL A   1      41.819  28.766  33.404  1.00  0.00     0.031 A 
ATOM     26  C   UNL A   1      43.077  26.763  27.111  1.00  0.00     0.031 A 
ATOM     27  C   UNL A   1      42.882  29.681  33.101  1.00  0.00     0.049 A 
ATOM     28  C   UNL A   1      43.979  27.002  28.259  1.00  0.00     0.074 A 
ATOM     29  C   UNL A   1      43.002  31.053  33.012  1.00  0.00     0.029 A 
ATOM     30  N   UNL A   1      44.018  29.168  32.526  1.00  0.00    -0.354 N 
ATOM     31  N   UNL A   1      44.723  28.061  28.390  1.00  0.00    -0.248 NA
ATOM     32  C   UNL A   1      43.792  26.217  29.468  1.00  0.00     0.031 C 
ATOM     33  C   UNL A   1      43.950  31.272  31.970  1.00  0.00     0.029 A 
ATOM     34  C   UNL A   1      44.364  30.020  31.512  1.00  0.00     0.049 A 
ATOM     35  H   UNL A   1      44.492  28.347  32.792  1.00  0.00     0.167 HD
ATOM     36  C   UNL A   1      44.741  28.312  29.753  1.00  0.00     0.074 A 
ATOM     37  C   UNL A   1      44.264  27.079  30.371  1.00  0.00     0.031 C 
ATOM     38  C   UNL A   1      44.873  29.583  30.232  1.00  0.00     0.031 A 
BRANCH  25  39
ATOM     39  C   UNL A   1      42.026  27.615  34.357  1.00  0.00    -0.014 A 
ATOM     40  C   UNL A   1      41.745  27.801  35.724  1.00  0.00     0.009 A 
ATOM     41  C   UNL A   1      42.752  26.461  34.010  1.00  0.00     0.009 A 
ATOM     42  C   UNL A   1      42.224  26.913  36.695  1.00  0.00     0.001 A 
ATOM     43  C   UNL A   1      43.193  25.548  34.973  1.00  0.00     0.001 A 
ATOM     44  C   UNL A   1      42.954  25.790  36.319  1.00  0.00     0.000 A 
ENDBRANCH  25  39
BRANCH  26  45
ATOM     45  C   UNL A   1      43.229  25.585  26.233  1.00  0.00    -0.014 A 
ATOM     46  C   UNL A   1      44.365  25.433  25.423  1.00  0.00     0.009 A 
ATOM     47  C   UNL A   1      42.374  24.477  26.379  1.00  0.00     0.009 A 
ATOM     48  C   UNL A   1      44.650  24.206  24.809  1.00  0.00     0.001 A 
ATOM     49  C   UNL A   1      42.654  23.255  25.762  1.00  0.00     0.001 A 
ATOM     50  C   UNL A   1      43.801  23.116  24.988  1.00  0.00     0.000 A 
ENDBRANCH  26  45
BRANCH  38  51
ATOM     51  C   UNL A   1      45.273  30.667  29.264  1.00  0.00    -0.014 A 
ATOM     52  C   UNL A   1      46.611  31.049  29.061  1.00  0.00     0.009 A 
ATOM     53  C   UNL A   1      44.290  31.211  28.424  1.00  0.00     0.009 A 
ATOM     54  C   UNL A   1      46.949  31.978  28.073  1.00  0.00     0.001 A 
ATOM     55  C   UNL A   1      44.631  32.121  27.421  1.00  0.00     0.001 A 
ATOM     56  C   UNL A   1      45.959  32.509  27.250  1.00  0.00     0.000 A 
ENDBRANCH  38  51
ENDBRANCH  12  13
ENDBRANCH   5   7
ENDBRANCH   2   3
ENDBRANCH   1   2
BRANCH   1  57
ATOM     57  C   UNL A   1      32.017  27.666  27.210  1.00  0.00     0.118 C 
BRANCH  57  58
ATOM     58  N   UNL A   1      30.800  26.954  26.866  1.00  0.00    -0.351 N 
ATOM     59  C   UNL A   1      30.633  25.639  26.499  1.00  0.00     0.274 C 
ATOM     60  H   UNL A   1      29.975  27.490  26.901  1.00  0.00     0.163 HD
ATOM     61  O   UNL A   1      29.507  25.264  26.171  1.00  0.00    -0.267 OA
BRANCH  59  62
ATOM     62  C   UNL A   1      31.777  24.743  26.498  1.00  0.00     0.178 A 
ATOM     63  N   UNL A   1      31.973  23.832  27.503  1.00  0.00    -0.124 NA
ATOM     64  C   UNL A   1      32.781  24.603  25.545  1.00  0.00     0.108 A 
ATOM     65  N   UNL A   1      33.017  23.084  27.187  1.00  0.00    -0.061 NA
ATOM     66  N   UNL A   1      33.593  23.606  26.080  1.00  0.00    -0.211 N 
BRANCH  64  67
ATOM     67  C   UNL A   1      32.937  25.214  24.226  1.00  0.00     0.004 A 
ATOM     68  C   UNL A   1      32.568  24.504  23.071  1.00  0.00     0.010 A 
ATOM     69  C   UNL A   1      33.424  26.520  24.098  1.00  0.00     0.031 A 
ATOM     70  C   UNL A   1      32.705  25.078  21.808  1.00  0.00     0.002 A 
ATOM     71  C   UNL A   1      33.572  27.082  22.829  1.00  0.00     0.041 A 
ATOM     72  C   UNL A   1      33.215  26.368  21.686  1.00  0.00     0.020 A 
ATOM     73  Cl  UNL A   1      34.214  28.671  22.672  1.00  0.00    -0.084 Cl
ENDBRANCH  64  67
BRANCH  66  74
ATOM     74  C   UNL A   1      34.739  22.996  25.511  1.00  0.00     0.079 A 
ATOM     75  C   UNL A   1      35.906  23.780  25.449  1.00  0.00     0.029 A 
ATOM     76  C   UNL A   1      34.764  21.651  25.092  1.00  0.00     0.081 A 
ATOM     77  C   UNL A   1      37.119  23.206  25.074  1.00  0.00     0.002 A 
ATOM     78  C   UNL A   1      36.008  21.093  24.732  1.00  0.00     0.015 A 
ATOM     79  C   UNL A   1      37.175  21.857  24.738  1.00  0.00     0.001 A 
BRANCH  76  80
ATOM     80  C   UNL A   1      33.542  20.784  24.889  1.00  0.00     0.418 C 
ATOM     81  F   UNL A   1      33.796  19.734  24.054  1.00  0.00    -0.166 F 
ATOM     82  F   UNL A   1      33.105  20.222  26.047  1.00  0.00    -0.166 F 
ATOM     83  F   UNL A   1      32.474  21.421  24.341  1.00  0.00    -0.166 F 
ENDBRANCH  76  80
ENDBRANCH  66  74
ENDBRANCH  59  62
ENDBRANCH  57  58
ENDBRANCH   1  57
TORSDOF 13
ENDMDL
MODEL 3
REMARK VINA RESULT:     -12.4      3.419      7.810
REMARK SMILES O=C(NCCCNC(=O)c1nnn(-c2ccccc2C(F)(F)F)c1-c1cccc(Cl)c1)c1ccc(-c2c3nc(c(-c4ccccc4)c4ccc([nH]4)c(-c4ccccc4)c4nc(c(-c5ccccc5)c5ccc2[nH]5)C=C4)C=C3)cc1
REMARK SMILES IDX 5 1 4 2 3 3 1 4 2 5 32 7 33 8 79 9 34 10 78 11 35 12 36 13
REMARK SMILES IDX 37 14 72 15 38 16 77 17 71 18 73 19 39 20 76 21 70 22 69 23
REMARK SMILES IDX 40 25 62 26 47 27 61 28 48 29 51 30 60 31 74 32 49 33 50 34
REMARK SMILES IDX 59 36 75 37 52 38 41 39 42 40 46 41 43 42 45 43 44 44 63 45
REMARK SMILES IDX 64 46 68 47 65 48 67 49 66 50 53 51 54 52 58 53 55 54 57 55
REMARK SMILES IDX 56 56 6 57 7 58 8 59 9 61 10 62 11 63 24 64 12 65 13 66
REMARK SMILES IDX 25 67 26 68 31 69 27 70 29 71 28 72 30 73 14 74 15 75 19 76
REMARK SMILES IDX 16 77 18 78 17 79 20 80 21 81 22 82 23 83
REMARK H PARENT 3 6 73 24 51 35 7 60
REMARK Flexibility Score: inf
ROOT
ATOM      1  C   UNL A   1      36.785  22.078  24.245  1.00  0.00     0.042 C 
ENDROOT
BRANCH   1   2
ATOM      2  C   UNL A   1      37.415  22.373  25.603  1.00  0.00     0.118 C 
BRANCH   2   3
ATOM      3  N   UNL A   1      38.799  21.965  25.750  1.00  0.00    -0.352 N 
ATOM      4  O   UNL A   1      40.887  21.729  26.428  1.00  0.00    -0.269 OA
ATOM      5  C   UNL A   1      39.887  22.454  26.416  1.00  0.00     0.251 C 
ATOM      6  H   UNL A   1      39.002  21.142  25.251  1.00  0.00     0.163 HD
BRANCH   5   7
ATOM      7  C   UNL A   1      39.977  23.794  27.059  1.00  0.00     0.039 A 
ATOM      8  C   UNL A   1      39.055  24.831  26.922  1.00  0.00     0.014 A 
ATOM      9  C   UNL A   1      41.111  24.010  27.864  1.00  0.00     0.014 A 
ATOM     10  C   UNL A   1      39.299  26.077  27.500  1.00  0.00     0.010 A 
ATOM     11  C   UNL A   1      41.347  25.241  28.467  1.00  0.00     0.010 A 
ATOM     12  C   UNL A   1      40.453  26.288  28.258  1.00  0.00    -0.014 A 
BRANCH  12  13
ATOM     13  C   UNL A   1      40.628  27.576  28.929  1.00  0.00     0.031 A 
ATOM     14  C   UNL A   1      41.629  28.505  28.323  1.00  0.00     0.074 A 
ATOM     15  C   UNL A   1      39.822  28.024  29.912  1.00  0.00     0.049 A 
ATOM     16  N   UNL A   1      42.649  29.068  28.887  1.00  0.00    -0.248 NA
ATOM     17  C   UNL A   1      41.483  28.819  26.894  1.00  0.00     0.031 C 
ATOM     18  C   UNL A   1      38.584  27.414  30.403  1.00  0.00     0.029 A 
ATOM     19  N   UNL A   1      39.881  29.206  30.593  1.00  0.00    -0.354 N 
ATOM     20  C   UNL A   1      43.203  29.918  27.929  1.00  0.00     0.074 A 
ATOM     21  C   UNL A   1      42.501  29.657  26.696  1.00  0.00     0.031 C 
ATOM     22  C   UNL A   1      37.898  28.330  31.124  1.00  0.00     0.029 A 
ATOM     23  C   UNL A   1      38.704  29.534  31.248  1.00  0.00     0.049 A 
ATOM     24  H   UNL A   1      40.686  29.773  30.617  1.00  0.00     0.167 HD
ATOM     25  C   UNL A   1      44.086  30.906  28.240  1.00  0.00     0.031 A 
ATOM     26  C   UNL A   1      38.381  30.732  31.793  1.00  0.00     0.031 A 
ATOM     27  C   UNL A   1      44.657  30.745  29.547  1.00  0.00     0.049 A 
ATOM     28  C   UNL A   1      39.625  31.511  31.979  1.00  0.00     0.074 A 
ATOM     29  C   UNL A   1      45.432  29.788  30.171  1.00  0.00     0.029 A 
ATOM     30  N   UNL A   1      44.192  31.560  30.549  1.00  0.00    -0.354 N 
ATOM     31  N   UNL A   1      40.536  31.224  32.862  1.00  0.00    -0.248 NA
ATOM     32  C   UNL A   1      40.041  32.423  30.927  1.00  0.00     0.031 C 
ATOM     33  C   UNL A   1      44.995  29.789  31.527  1.00  0.00     0.029 A 
ATOM     34  C   UNL A   1      44.003  30.765  31.647  1.00  0.00     0.049 A 
ATOM     35  H   UNL A   1      44.025  32.529  30.489  1.00  0.00     0.167 HD
ATOM     36  C   UNL A   1      41.734  31.563  32.255  1.00  0.00     0.074 A 
ATOM     37  C   UNL A   1      41.360  32.410  31.127  1.00  0.00     0.031 C 
ATOM     38  C   UNL A   1      42.888  30.897  32.556  1.00  0.00     0.031 A 
BRANCH  25  39
ATOM     39  C   UNL A   1      44.186  32.214  27.499  1.00  0.00    -0.014 A 
ATOM     40  C   UNL A   1      43.683  33.383  28.102  1.00  0.00     0.009 A 
ATOM     41  C   UNL A   1      44.490  32.289  26.126  1.00  0.00     0.009 A 
ATOM     42  C   UNL A   1      43.436  34.542  27.356  1.00  0.00     0.001 A 
ATOM     43  C   UNL A   1      44.286  33.460  25.388  1.00  0.00     0.001 A 
ATOM     44  C   UNL A   1      43.732  34.577  25.997  1.00  0.00     0.000 A 
ENDBRANCH  25  39
BRANCH  26  45
ATOM     45  C   UNL A   1      37.047  31.345  31.954  1.00  0.00    -0.014 A 
ATOM     46  C   UNL A   1      36.665  31.929  33.171  1.00  0.00     0.009 A 
ATOM     47  C   UNL A   1      36.237  31.585  30.828  1.00  0.00     0.009 A 
ATOM     48  C   UNL A   1      35.531  32.748  33.250  1.00  0.00     0.001 A 
ATOM     49  C   UNL A   1      35.103  32.397  30.908  1.00  0.00     0.001 A 
ATOM     50  C   UNL A   1      34.758  32.991  32.116  1.00  0.00     0.000 A 
ENDBRANCH  26  45
BRANCH  38  51
ATOM     51  C   UNL A   1      42.886  29.982  33.754  1.00  0.00    -0.014 A 
ATOM     52  C   UNL A   1      42.346  28.685  33.718  1.00  0.00     0.009 A 
ATOM     53  C   UNL A   1      43.583  30.382  34.903  1.00  0.00     0.009 A 
ATOM     54  C   UNL A   1      42.466  27.828  34.816  1.00  0.00     0.001 A 
ATOM     55  C   UNL A   1      43.724  29.517  35.990  1.00  0.00     0.001 A 
ATOM     56  C   UNL A   1      43.160  28.243  35.949  1.00  0.00     0.000 A 
ENDBRANCH  38  51
ENDBRANCH  12  13
ENDBRANCH   5   7
ENDBRANCH   2   3
ENDBRANCH   1   2
BRANCH   1  57
ATOM     57  C   UNL A   1      36.052  23.248  23.603  1.00  0.00     0.118 C 
BRANCH  57  58
ATOM     58  N   UNL A   1      34.962  22.841  22.737  1.00  0.00    -0.351 N 
ATOM     59  C   UNL A   1      33.832  23.535  22.373  1.00  0.00     0.274 C 
ATOM     60  H   UNL A   1      35.043  21.937  22.354  1.00  0.00     0.163 HD
ATOM     61  O   UNL A   1      32.991  22.959  21.682  1.00  0.00    -0.267 OA
BRANCH  59  62
ATOM     62  C   UNL A   1      33.658  24.908  22.816  1.00  0.00     0.178 A 
ATOM     63  N   UNL A   1      34.027  25.967  22.029  1.00  0.00    -0.124 NA
ATOM     64  C   UNL A   1      33.090  25.384  23.995  1.00  0.00     0.108 A 
ATOM     65  N   UNL A   1      33.653  27.083  22.633  1.00  0.00    -0.061 NA
ATOM     66  N   UNL A   1      33.203  26.766  23.868  1.00  0.00    -0.211 N 
BRANCH  64  67
ATOM     67  C   UNL A   1      32.405  24.679  25.077  1.00  0.00     0.004 A 
ATOM     68  C   UNL A   1      31.014  24.807  25.233  1.00  0.00     0.010 A 
ATOM     69  C   UNL A   1      33.116  23.847  25.949  1.00  0.00     0.031 A 
ATOM     70  C   UNL A   1      30.348  24.134  26.256  1.00  0.00     0.002 A 
ATOM     71  C   UNL A   1      32.444  23.188  26.980  1.00  0.00     0.041 A 
ATOM     72  C   UNL A   1      31.065  23.328  27.136  1.00  0.00     0.020 A 
ATOM     73  Cl  UNL A   1      33.327  22.202  28.078  1.00  0.00    -0.084 Cl
ENDBRANCH  64  67
BRANCH  66  74
ATOM     74  C   UNL A   1      32.728  27.777  24.741  1.00  0.00     0.079 A 
ATOM     75  C   UNL A   1      33.440  27.960  25.941  1.00  0.00     0.029 A 
ATOM     76  C   UNL A   1      31.651  28.626  24.418  1.00  0.00     0.081 A 
ATOM     77  C   UNL A   1      33.156  29.045  26.769  1.00  0.00     0.002 A 
ATOM     78  C   UNL A   1      31.396  29.724  25.266  1.00  0.00     0.015 A 
ATOM     79  C   UNL A   1      32.150  29.939  26.420  1.00  0.00     0.001 A 
BRANCH  76  80
ATOM     80  C   UNL A   1      30.670  28.392  23.291  1.00  0.00     0.418 C 
ATOM     81  F   UNL A   1      29.457  28.963  23.545  1.00  0.00    -0.166 F 
ATOM     82  F   UNL A   1      31.086  28.939  22.118  1.00  0.00    -0.166 F 
ATOM     83  F   UNL A   1      30.399  27.086  23.033  1.00  0.00    -0.166 F 
ENDBRANCH  76  80
ENDBRANCH  66  74
ENDBRANCH  59  62
ENDBRANCH  57  58
ENDBRANCH   1  57
TORSDOF 13
ENDMDL
