MODEL 1
REMARK VINA RESULT:     -11.0      0.000      0.000
REMARK SMILES C[NH+]1CCC([N@@H+](C)Cc2ccc(C(=O)NCCCNC(=O)c3ccc(-c4c5nc(c(-c6ccccc6)c6ccc([nH]6)c(-c6ccccc6)c6nc(c(-c7ccccc7)c7ccc4[nH]7)C=C6)C=C5)cc3)cn2)CC1
REMARK SMILES IDX 16 1 15 2 13 3 14 4 12 6 9 7 10 8 71 9 11 10 70 11 8 12 6 13
REMARK SMILES IDX 7 14 5 16 1 17 2 18 3 19 73 20 4 22 72 23 17 24 18 25 19 26
REMARK SMILES IDX 20 27 21 29 22 30 23 31 69 32 24 33 68 34 25 35 26 36 27 37
REMARK SMILES IDX 62 38 28 39 67 40 61 41 63 42 29 43 66 44 60 45 59 46 30 48
REMARK SMILES IDX 52 49 37 50 51 51 38 52 41 53 50 54 64 55 39 56 40 57 49 59
REMARK SMILES IDX 65 60 42 61 31 62 32 63 36 64 33 65 35 66 34 67 53 68 54 69
REMARK SMILES IDX 58 70 55 71 57 72 56 73 43 74 44 75 48 76 45 77 47 78 46 79
REMARK H PARENT 15 5 6 15 2 21 19 28 63 47 41 58
REMARK Flexibility Score: inf
ROOT
ATOM      1  C   UNL A   1      36.570  20.496  24.942  1.00  0.00     0.118 C 
ENDROOT
BRANCH   1   2
ATOM      2  N   UNL A   1      35.326  19.762  25.093  1.00  0.00    -0.352 N 
ATOM      3  C   UNL A   1      34.010  20.129  24.990  1.00  0.00     0.252 C 
ATOM      4  O   UNL A   1      33.165  19.254  25.182  1.00  0.00    -0.269 OA
ATOM      5  H   UNL A   1      35.453  18.813  25.314  1.00  0.00     0.163 HD
BRANCH   3   6
ATOM      6  C   UNL A   1      33.559  21.483  24.595  1.00  0.00     0.058 A 
ATOM      7  C   UNL A   1      32.565  24.045  24.260  1.00  0.00     0.095 A 
ATOM      8  C   UNL A   1      32.484  23.138  23.205  1.00  0.00     0.030 A 
ATOM      9  N   UNL A   1      33.231  23.750  25.403  1.00  0.00    -0.255 NA
ATOM     10  C   UNL A   1      33.000  21.851  23.374  1.00  0.00     0.017 A 
ATOM     11  C   UNL A   1      33.698  22.486  25.547  1.00  0.00     0.125 A 
BRANCH   7  12
ATOM     12  C   UNL A   1      31.809  25.362  24.196  1.00  0.00     0.319 C 
BRANCH  12  13
ATOM     13  N   UNL A   1      31.479  26.022  25.479  1.00  0.00    -0.330 N 
ATOM     14  C   UNL A   1      30.054  25.926  25.794  1.00  0.00     0.333 C 
ATOM     15  H   UNL A   1      32.008  25.463  26.149  1.00  0.00     0.348 HD
BRANCH  13  16
ATOM     16  C   UNL A   1      32.036  27.370  25.739  1.00  0.00     0.195 C 
ATOM     17  C   UNL A   1      34.009  30.718  27.622  1.00  0.00     0.332 C 
ATOM     18  N   UNL A   1      33.487  29.396  27.280  1.00  0.00    -0.337 N 
ATOM     19  C   UNL A   1      34.020  28.951  25.987  1.00  0.00     0.268 C 
ATOM     20  C   UNL A   1      32.019  29.405  27.250  1.00  0.00     0.268 C 
ATOM     21  H   UNL A   1      33.790  28.741  28.001  1.00  0.00     0.347 HD
ATOM     22  C   UNL A   1      33.570  27.521  25.682  1.00  0.00     0.126 C 
ATOM     23  C   UNL A   1      31.483  27.988  27.034  1.00  0.00     0.126 C 
ENDBRANCH  13  16
ENDBRANCH  12  13
ENDBRANCH   7  12
ENDBRANCH   3   6
ENDBRANCH   1   2
BRANCH   1  24
ATOM     24  C   UNL A   1      37.768  19.548  24.977  1.00  0.00     0.042 C 
BRANCH  24  25
ATOM     25  C   UNL A   1      38.960  20.106  25.751  1.00  0.00     0.118 C 
BRANCH  25  26
ATOM     26  N   UNL A   1      40.047  19.146  25.853  1.00  0.00    -0.352 N 
ATOM     27  C   UNL A   1      41.393  19.350  26.031  1.00  0.00     0.251 C 
ATOM     28  H   UNL A   1      39.776  18.202  25.784  1.00  0.00     0.163 HD
ATOM     29  O   UNL A   1      42.171  18.415  25.875  1.00  0.00    -0.269 OA
BRANCH  27  30
ATOM     30  C   UNL A   1      41.916  20.684  26.399  1.00  0.00     0.039 A 
ATOM     31  C   UNL A   1      42.221  21.589  25.377  1.00  0.00     0.014 A 
ATOM     32  C   UNL A   1      42.165  21.030  27.731  1.00  0.00     0.014 A 
ATOM     33  C   UNL A   1      42.729  22.851  25.691  1.00  0.00     0.010 A 
ATOM     34  C   UNL A   1      42.608  22.313  28.047  1.00  0.00     0.010 A 
ATOM     35  C   UNL A   1      42.904  23.234  27.031  1.00  0.00    -0.014 A 
BRANCH  35  36
ATOM     36  C   UNL A   1      43.402  24.586  27.384  1.00  0.00     0.031 A 
ATOM     37  C   UNL A   1      42.446  25.653  27.843  1.00  0.00     0.074 A 
ATOM     38  C   UNL A   1      44.711  24.873  27.239  1.00  0.00     0.049 A 
ATOM     39  N   UNL A   1      42.685  26.905  28.140  1.00  0.00    -0.248 NA
ATOM     40  C   UNL A   1      41.031  25.267  27.963  1.00  0.00     0.031 C 
ATOM     41  C   UNL A   1      45.737  23.938  26.773  1.00  0.00     0.029 A 
ATOM     42  N   UNL A   1      45.399  26.037  27.464  1.00  0.00    -0.354 N 
ATOM     43  C   UNL A   1      41.453  27.460  28.459  1.00  0.00     0.074 A 
ATOM     44  C   UNL A   1      40.462  26.420  28.281  1.00  0.00     0.031 C 
ATOM     45  C   UNL A   1      46.927  24.559  26.771  1.00  0.00     0.029 A 
ATOM     46  C   UNL A   1      46.743  25.943  27.197  1.00  0.00     0.049 A 
ATOM     47  H   UNL A   1      44.971  26.863  27.787  1.00  0.00     0.167 HD
ATOM     48  C   UNL A   1      41.171  28.717  28.879  1.00  0.00     0.031 A 
ATOM     49  C   UNL A   1      47.718  26.866  27.280  1.00  0.00     0.031 A 
ATOM     50  C   UNL A   1      42.155  29.748  29.069  1.00  0.00     0.049 A 
ATOM     51  C   UNL A   1      47.379  28.255  27.742  1.00  0.00     0.074 A 
ATOM     52  C   UNL A   1      41.975  31.037  29.543  1.00  0.00     0.029 A 
ATOM     53  N   UNL A   1      43.507  29.608  28.795  1.00  0.00    -0.354 N 
ATOM     54  N   UNL A   1      46.216  28.746  28.097  1.00  0.00    -0.248 NA
ATOM     55  C   UNL A   1      48.490  29.213  27.825  1.00  0.00     0.031 C 
ATOM     56  C   UNL A   1      43.212  31.690  29.514  1.00  0.00     0.029 A 
ATOM     57  C   UNL A   1      44.170  30.792  29.070  1.00  0.00     0.049 A 
ATOM     58  H   UNL A   1      43.932  28.789  28.454  1.00  0.00     0.167 HD
ATOM     59  C   UNL A   1      46.460  30.062  28.470  1.00  0.00     0.074 A 
ATOM     60  C   UNL A   1      47.883  30.286  28.313  1.00  0.00     0.031 C 
ATOM     61  C   UNL A   1      45.585  30.999  28.906  1.00  0.00     0.031 A 
BRANCH  48  62
ATOM     62  C   UNL A   1      39.729  29.046  29.153  1.00  0.00    -0.014 A 
ATOM     63  C   UNL A   1      39.169  28.855  30.426  1.00  0.00     0.009 A 
ATOM     64  C   UNL A   1      38.929  29.582  28.133  1.00  0.00     0.009 A 
ATOM     65  C   UNL A   1      37.826  29.157  30.661  1.00  0.00     0.001 A 
ATOM     66  C   UNL A   1      37.593  29.909  28.378  1.00  0.00     0.001 A 
ATOM     67  C   UNL A   1      37.041  29.686  29.638  1.00  0.00     0.000 A 
ENDBRANCH  48  62
BRANCH  49  68
ATOM     68  C   UNL A   1      49.117  26.502  26.937  1.00  0.00    -0.014 A 
ATOM     69  C   UNL A   1      49.979  25.996  27.920  1.00  0.00     0.009 A 
ATOM     70  C   UNL A   1      49.596  26.661  25.628  1.00  0.00     0.009 A 
ATOM     71  C   UNL A   1      51.302  25.678  27.605  1.00  0.00     0.001 A 
ATOM     72  C   UNL A   1      50.912  26.318  25.310  1.00  0.00     0.001 A 
ATOM     73  C   UNL A   1      51.766  25.834  26.301  1.00  0.00     0.000 A 
ENDBRANCH  49  68
BRANCH  61  74
ATOM     74  C   UNL A   1      46.147  32.342  29.276  1.00  0.00    -0.014 A 
ATOM     75  C   UNL A   1      46.621  32.602  30.571  1.00  0.00     0.009 A 
ATOM     76  C   UNL A   1      46.232  33.351  28.304  1.00  0.00     0.009 A 
ATOM     77  C   UNL A   1      47.140  33.857  30.894  1.00  0.00     0.001 A 
ATOM     78  C   UNL A   1      46.777  34.596  28.621  1.00  0.00     0.001 A 
ATOM     79  C   UNL A   1      47.221  34.850  29.918  1.00  0.00     0.000 A 
ENDBRANCH  61  74
ENDBRANCH  35  36
ENDBRANCH  27  30
ENDBRANCH  25  26
ENDBRANCH  24  25
ENDBRANCH   1  24
TORSDOF 13
ENDMDL
MODEL 2
REMARK VINA RESULT:     -11.0      1.998      6.357
REMARK SMILES C[NH+]1CCC([N@@H+](C)Cc2ccc(C(=O)NCCCNC(=O)c3ccc(-c4c5nc(c(-c6ccccc6)c6ccc([nH]6)c(-c6ccccc6)c6nc(c(-c7ccccc7)c7ccc4[nH]7)C=C6)C=C5)cc3)cn2)CC1
REMARK SMILES IDX 16 1 15 2 13 3 14 4 12 6 9 7 10 8 71 9 11 10 70 11 8 12 6 13
REMARK SMILES IDX 7 14 5 16 1 17 2 18 3 19 73 20 4 22 72 23 17 24 18 25 19 26
REMARK SMILES IDX 20 27 21 29 22 30 23 31 69 32 24 33 68 34 25 35 26 36 27 37
REMARK SMILES IDX 62 38 28 39 67 40 61 41 63 42 29 43 66 44 60 45 59 46 30 48
REMARK SMILES IDX 52 49 37 50 51 51 38 52 41 53 50 54 64 55 39 56 40 57 49 59
REMARK SMILES IDX 65 60 42 61 31 62 32 63 36 64 33 65 35 66 34 67 53 68 54 69
REMARK SMILES IDX 58 70 55 71 57 72 56 73 43 74 44 75 48 76 45 77 47 78 46 79
REMARK H PARENT 15 5 6 15 2 21 19 28 63 47 41 58
REMARK Flexibility Score: inf
ROOT
ATOM      1  C   UNL A   1      36.084  20.337  24.994  1.00  0.00     0.118 C 
ENDROOT
BRANCH   1   2
ATOM      2  N   UNL A   1      34.901  19.494  25.011  1.00  0.00    -0.352 N 
ATOM      3  C   UNL A   1      33.567  19.759  24.852  1.00  0.00     0.252 C 
ATOM      4  O   UNL A   1      32.791  18.805  24.924  1.00  0.00    -0.269 OA
ATOM      5  H   UNL A   1      35.098  18.544  25.168  1.00  0.00     0.163 HD
BRANCH   3   6
ATOM      6  C   UNL A   1      33.023  21.099  24.532  1.00  0.00     0.058 A 
ATOM      7  C   UNL A   1      31.717  23.523  24.242  1.00  0.00     0.095 A 
ATOM      8  C   UNL A   1      32.217  22.877  23.112  1.00  0.00     0.030 A 
ATOM      9  N   UNL A   1      31.962  23.062  25.492  1.00  0.00    -0.255 NA
ATOM     10  C   UNL A   1      32.888  21.661  23.265  1.00  0.00     0.017 A 
ATOM     11  C   UNL A   1      32.594  21.868  25.608  1.00  0.00     0.125 A 
BRANCH   7  12
ATOM     12  C   UNL A   1      30.784  24.712  24.091  1.00  0.00     0.319 C 
BRANCH  12  13
ATOM     13  N   UNL A   1      31.380  25.994  23.649  1.00  0.00    -0.330 N 
ATOM     14  C   UNL A   1      32.279  26.556  24.655  1.00  0.00     0.333 C 
ATOM     15  H   UNL A   1      31.925  25.706  22.836  1.00  0.00     0.348 HD
BRANCH  13  16
ATOM     16  C   UNL A   1      30.488  27.009  23.042  1.00  0.00     0.195 C 
ATOM     17  C   UNL A   1      27.884  30.414  22.513  1.00  0.00     0.332 C 
ATOM     18  N   UNL A   1      28.815  29.415  23.036  1.00  0.00    -0.337 N 
ATOM     19  C   UNL A   1      30.043  29.384  22.232  1.00  0.00     0.268 C 
ATOM     20  C   UNL A   1      28.193  28.085  23.065  1.00  0.00     0.268 C 
ATOM     21  H   UNL A   1      29.055  29.678  23.991  1.00  0.00     0.347 HD
ATOM     22  C   UNL A   1      31.065  28.426  22.845  1.00  0.00     0.126 C 
ATOM     23  C   UNL A   1      29.122  27.079  23.747  1.00  0.00     0.126 C 
ENDBRANCH  13  16
ENDBRANCH  12  13
ENDBRANCH   7  12
ENDBRANCH   3   6
ENDBRANCH   1   2
BRANCH   1  24
ATOM     24  C   UNL A   1      37.354  19.490  24.919  1.00  0.00     0.042 C 
BRANCH  24  25
ATOM     25  C   UNL A   1      38.605  20.232  25.382  1.00  0.00     0.118 C 
BRANCH  25  26
ATOM     26  N   UNL A   1      39.721  19.331  25.622  1.00  0.00    -0.352 N 
ATOM     27  C   UNL A   1      40.997  19.599  26.052  1.00  0.00     0.251 C 
ATOM     28  H   UNL A   1      39.533  18.380  25.448  1.00  0.00     0.163 HD
ATOM     29  O   UNL A   1      41.853  18.724  25.985  1.00  0.00    -0.269 OA
BRANCH  27  30
ATOM     30  C   UNL A   1      41.353  20.932  26.588  1.00  0.00     0.039 A 
ATOM     31  C   UNL A   1      41.923  21.871  25.722  1.00  0.00     0.014 A 
ATOM     32  C   UNL A   1      41.188  21.244  27.941  1.00  0.00     0.014 A 
ATOM     33  C   UNL A   1      42.281  23.133  26.200  1.00  0.00     0.010 A 
ATOM     34  C   UNL A   1      41.485  22.525  28.402  1.00  0.00     0.010 A 
ATOM     35  C   UNL A   1      42.043  23.480  27.539  1.00  0.00    -0.014 A 
BRANCH  35  36
ATOM     36  C   UNL A   1      42.379  24.830  28.054  1.00  0.00     0.031 A 
ATOM     37  C   UNL A   1      43.790  25.159  28.460  1.00  0.00     0.074 A 
ATOM     38  C   UNL A   1      41.404  25.746  28.210  1.00  0.00     0.049 A 
ATOM     39  N   UNL A   1      44.264  26.262  28.984  1.00  0.00    -0.248 NA
ATOM     40  C   UNL A   1      44.797  24.103  28.273  1.00  0.00     0.031 C 
ATOM     41  C   UNL A   1      39.991  25.543  27.886  1.00  0.00     0.029 A 
ATOM     42  N   UNL A   1      41.454  27.030  28.690  1.00  0.00    -0.354 N 
ATOM     43  C   UNL A   1      45.614  26.024  29.208  1.00  0.00     0.074 A 
ATOM     44  C   UNL A   1      45.876  24.661  28.802  1.00  0.00     0.031 C 
ATOM     45  C   UNL A   1      39.313  26.671  28.152  1.00  0.00     0.029 A 
ATOM     46  C   UNL A   1      40.234  27.661  28.700  1.00  0.00     0.049 A 
ATOM     47  H   UNL A   1      42.284  27.460  28.997  1.00  0.00     0.167 HD
ATOM     48  C   UNL A   1      46.555  26.870  29.693  1.00  0.00     0.031 A 
ATOM     49  C   UNL A   1      39.892  28.897  29.109  1.00  0.00     0.031 A 
ATOM     50  C   UNL A   1      46.299  28.230  30.085  1.00  0.00     0.049 A 
ATOM     51  C   UNL A   1      40.954  29.813  29.650  1.00  0.00     0.074 A 
ATOM     52  C   UNL A   1      47.198  29.181  30.537  1.00  0.00     0.029 A 
ATOM     53  N   UNL A   1      45.051  28.832  30.072  1.00  0.00    -0.354 N 
ATOM     54  N   UNL A   1      42.237  29.592  29.799  1.00  0.00    -0.248 NA
ATOM     55  C   UNL A   1      40.519  31.153  30.066  1.00  0.00     0.031 C 
ATOM     56  C   UNL A   1      46.485  30.347  30.839  1.00  0.00     0.029 A 
ATOM     57  C   UNL A   1      45.151  30.136  30.527  1.00  0.00     0.049 A 
ATOM     58  H   UNL A   1      44.217  28.398  29.783  1.00  0.00     0.167 HD
ATOM     59  C   UNL A   1      42.768  30.773  30.302  1.00  0.00     0.074 A 
ATOM     60  C   UNL A   1      41.669  31.711  30.417  1.00  0.00     0.031 C 
ATOM     61  C   UNL A   1      44.050  31.056  30.636  1.00  0.00     0.031 A 
BRANCH  48  62
ATOM     62  C   UNL A   1      47.955  26.337  29.833  1.00  0.00    -0.014 A 
ATOM     63  C   UNL A   1      48.877  26.431  28.779  1.00  0.00     0.009 A 
ATOM     64  C   UNL A   1      48.364  25.759  31.045  1.00  0.00     0.009 A 
ATOM     65  C   UNL A   1      50.170  25.923  28.923  1.00  0.00     0.001 A 
ATOM     66  C   UNL A   1      49.666  25.276  31.195  1.00  0.00     0.001 A 
ATOM     67  C   UNL A   1      50.563  25.349  30.131  1.00  0.00     0.000 A 
ENDBRANCH  48  62
BRANCH  49  68
ATOM     68  C   UNL A   1      38.481  29.350  29.005  1.00  0.00    -0.014 A 
ATOM     69  C   UNL A   1      37.625  29.264  30.113  1.00  0.00     0.009 A 
ATOM     70  C   UNL A   1      37.984  29.868  27.800  1.00  0.00     0.009 A 
ATOM     71  C   UNL A   1      36.292  29.665  30.010  1.00  0.00     0.001 A 
ATOM     72  C   UNL A   1      36.657  30.294  27.707  1.00  0.00     0.001 A 
ATOM     73  C   UNL A   1      35.810  30.185  28.810  1.00  0.00     0.000 A 
ENDBRANCH  49  68
BRANCH  61  74
ATOM     74  C   UNL A   1      44.339  32.446  31.127  1.00  0.00    -0.014 A 
ATOM     75  C   UNL A   1      44.339  32.750  32.497  1.00  0.00     0.009 A 
ATOM     76  C   UNL A   1      44.646  33.458  30.204  1.00  0.00     0.009 A 
ATOM     77  C   UNL A   1      44.609  34.048  32.931  1.00  0.00     0.001 A 
ATOM     78  C   UNL A   1      44.943  34.749  30.642  1.00  0.00     0.001 A 
ATOM     79  C   UNL A   1      44.916  35.045  32.004  1.00  0.00     0.000 A 
ENDBRANCH  61  74
ENDBRANCH  35  36
ENDBRANCH  27  30
ENDBRANCH  25  26
ENDBRANCH  24  25
ENDBRANCH   1  24
TORSDOF 13
ENDMDL
MODEL 3
REMARK VINA RESULT:     -11.0      1.674      2.461
REMARK SMILES C[NH+]1CCC([N@@H+](C)Cc2ccc(C(=O)NCCCNC(=O)c3ccc(-c4c5nc(c(-c6ccccc6)c6ccc([nH]6)c(-c6ccccc6)c6nc(c(-c7ccccc7)c7ccc4[nH]7)C=C6)C=C5)cc3)cn2)CC1
REMARK SMILES IDX 16 1 15 2 13 3 14 4 12 6 9 7 10 8 71 9 11 10 70 11 8 12 6 13
REMARK SMILES IDX 7 14 5 16 1 17 2 18 3 19 73 20 4 22 72 23 17 24 18 25 19 26
REMARK SMILES IDX 20 27 21 29 22 30 23 31 69 32 24 33 68 34 25 35 26 36 27 37
REMARK SMILES IDX 62 38 28 39 67 40 61 41 63 42 29 43 66 44 60 45 59 46 30 48
REMARK SMILES IDX 52 49 37 50 51 51 38 52 41 53 50 54 64 55 39 56 40 57 49 59
REMARK SMILES IDX 65 60 42 61 31 62 32 63 36 64 33 65 35 66 34 67 53 68 54 69
REMARK SMILES IDX 58 70 55 71 57 72 56 73 43 74 44 75 48 76 45 77 47 78 46 79
REMARK H PARENT 15 5 6 15 2 21 19 28 63 47 41 58
REMARK Flexibility Score: inf
ROOT
ATOM      1  C   UNL A   1      36.324  20.501  24.968  1.00  0.00     0.118 C 
ENDROOT
BRANCH   1   2
ATOM      2  N   UNL A   1      35.131  19.673  24.947  1.00  0.00    -0.352 N 
ATOM      3  C   UNL A   1      33.822  19.918  25.268  1.00  0.00     0.252 C 
ATOM      4  O   UNL A   1      33.028  18.985  25.143  1.00  0.00    -0.269 OA
ATOM      5  H   UNL A   1      35.296  18.753  24.641  1.00  0.00     0.163 HD
BRANCH   3   6
ATOM      6  C   UNL A   1      33.308  21.244  25.683  1.00  0.00     0.058 A 
ATOM      7  C   UNL A   1      32.438  23.845  26.055  1.00  0.00     0.095 A 
ATOM      8  C   UNL A   1      33.099  23.191  27.094  1.00  0.00     0.030 A 
ATOM      9  N   UNL A   1      32.096  23.202  24.912  1.00  0.00    -0.255 NA
ATOM     10  C   UNL A   1      33.523  21.874  26.906  1.00  0.00     0.017 A 
ATOM     11  C   UNL A   1      32.543  21.933  24.749  1.00  0.00     0.125 A 
BRANCH   7  12
ATOM     12  C   UNL A   1      32.176  25.340  26.137  1.00  0.00     0.319 C 
BRANCH  12  13
ATOM     13  N   UNL A   1      32.150  26.098  24.865  1.00  0.00    -0.330 N 
ATOM     14  C   UNL A   1      33.421  26.774  24.605  1.00  0.00     0.333 C 
ATOM     15  H   UNL A   1      32.020  25.356  24.178  1.00  0.00     0.348 HD
BRANCH  13  16
ATOM     16  C   UNL A   1      30.975  26.953  24.582  1.00  0.00     0.195 C 
ATOM     17  C   UNL A   1      28.051  29.390  22.543  1.00  0.00     0.332 C 
ATOM     18  N   UNL A   1      29.159  28.498  22.879  1.00  0.00    -0.337 N 
ATOM     19  C   UNL A   1      28.665  27.297  23.562  1.00  0.00     0.268 C 
ATOM     20  C   UNL A   1      30.150  29.187  23.715  1.00  0.00     0.268 C 
ATOM     21  H   UNL A   1      29.612  28.217  22.009  1.00  0.00     0.347 HD
ATOM     22  C   UNL A   1      29.805  26.309  23.809  1.00  0.00     0.126 C 
ATOM     23  C   UNL A   1      31.371  28.292  23.938  1.00  0.00     0.126 C 
ENDBRANCH  13  16
ENDBRANCH  12  13
ENDBRANCH   7  12
ENDBRANCH   3   6
ENDBRANCH   1   2
BRANCH   1  24
ATOM     24  C   UNL A   1      37.585  19.638  24.938  1.00  0.00     0.042 C 
BRANCH  24  25
ATOM     25  C   UNL A   1      38.769  20.269  25.666  1.00  0.00     0.118 C 
BRANCH  25  26
ATOM     26  N   UNL A   1      39.907  19.367  25.750  1.00  0.00    -0.352 N 
ATOM     27  C   UNL A   1      41.220  19.627  26.054  1.00  0.00     0.251 C 
ATOM     28  H   UNL A   1      39.704  18.423  25.557  1.00  0.00     0.163 HD
ATOM     29  O   UNL A   1      42.067  18.761  25.861  1.00  0.00    -0.269 OA
BRANCH  27  30
ATOM     30  C   UNL A   1      41.627  20.939  26.605  1.00  0.00     0.039 A 
ATOM     31  C   UNL A   1      42.023  21.943  25.715  1.00  0.00     0.014 A 
ATOM     32  C   UNL A   1      41.678  21.170  27.982  1.00  0.00     0.014 A 
ATOM     33  C   UNL A   1      42.425  23.189  26.204  1.00  0.00     0.010 A 
ATOM     34  C   UNL A   1      42.015  22.433  28.466  1.00  0.00     0.010 A 
ATOM     35  C   UNL A   1      42.401  23.452  27.583  1.00  0.00    -0.014 A 
BRANCH  35  36
ATOM     36  C   UNL A   1      42.784  24.783  28.117  1.00  0.00     0.031 A 
ATOM     37  C   UNL A   1      41.738  25.840  28.347  1.00  0.00     0.074 A 
ATOM     38  C   UNL A   1      44.083  25.062  28.342  1.00  0.00     0.049 A 
ATOM     39  N   UNL A   1      41.887  27.076  28.752  1.00  0.00    -0.248 NA
ATOM     40  C   UNL A   1      40.344  25.464  28.065  1.00  0.00     0.031 C 
ATOM     41  C   UNL A   1      45.198  24.137  28.128  1.00  0.00     0.029 A 
ATOM     42  N   UNL A   1      44.684  26.208  28.794  1.00  0.00    -0.354 N 
ATOM     43  C   UNL A   1      40.614  27.629  28.752  1.00  0.00     0.074 A 
ATOM     44  C   UNL A   1      39.709  26.609  28.269  1.00  0.00     0.031 C 
ATOM     45  C   UNL A   1      46.344  24.745  28.474  1.00  0.00     0.029 A 
ATOM     46  C   UNL A   1      46.050  26.111  28.895  1.00  0.00     0.049 A 
ATOM     47  H   UNL A   1      44.184  27.024  29.026  1.00  0.00     0.167 HD
ATOM     48  C   UNL A   1      40.227  28.870  29.136  1.00  0.00     0.031 A 
ATOM     49  C   UNL A   1      46.966  27.020  29.278  1.00  0.00     0.031 A 
ATOM     50  C   UNL A   1      41.123  29.882  29.629  1.00  0.00     0.049 A 
ATOM     51  C   UNL A   1      46.513  28.391  29.692  1.00  0.00     0.074 A 
ATOM     52  C   UNL A   1      40.821  31.151  30.093  1.00  0.00     0.029 A 
ATOM     53  N   UNL A   1      42.499  29.739  29.723  1.00  0.00    -0.354 N 
ATOM     54  N   UNL A   1      45.297  28.879  29.743  1.00  0.00    -0.248 NA
ATOM     55  C   UNL A   1      47.560  29.332  30.113  1.00  0.00     0.031 C 
ATOM     56  C   UNL A   1      42.019  31.791  30.426  1.00  0.00     0.029 A 
ATOM     57  C   UNL A   1      43.062  30.903  30.217  1.00  0.00     0.049 A 
ATOM     58  H   UNL A   1      43.001  28.930  29.474  1.00  0.00     0.167 HD
ATOM     59  C   UNL A   1      45.430  30.175  30.225  1.00  0.00     0.074 A 
ATOM     60  C   UNL A   1      46.843  30.390  30.467  1.00  0.00     0.031 C 
ATOM     61  C   UNL A   1      44.468  31.102  30.450  1.00  0.00     0.031 A 
BRANCH  48  62
ATOM     62  C   UNL A   1      38.765  29.203  29.026  1.00  0.00    -0.014 A 
ATOM     63  C   UNL A   1      37.899  29.041  30.118  1.00  0.00     0.009 A 
ATOM     64  C   UNL A   1      38.253  29.713  27.823  1.00  0.00     0.009 A 
ATOM     65  C   UNL A   1      36.541  29.345  29.996  1.00  0.00     0.001 A 
ATOM     66  C   UNL A   1      36.900  30.042  27.712  1.00  0.00     0.001 A 
ATOM     67  C   UNL A   1      36.045  29.849  28.795  1.00  0.00     0.000 A 
ENDBRANCH  48  62
BRANCH  49  68
ATOM     68  C   UNL A   1      48.406  26.656  29.309  1.00  0.00    -0.014 A 
ATOM     69  C   UNL A   1      49.212  26.858  28.179  1.00  0.00     0.009 A 
ATOM     70  C   UNL A   1      48.979  26.104  30.464  1.00  0.00     0.009 A 
ATOM     71  C   UNL A   1      50.560  26.493  28.198  1.00  0.00     0.001 A 
ATOM     72  C   UNL A   1      50.334  25.764  30.488  1.00  0.00     0.001 A 
ATOM     73  C   UNL A   1      51.121  25.951  29.352  1.00  0.00     0.000 A 
ENDBRANCH  49  68
BRANCH  61  74
ATOM     74  C   UNL A   1      44.909  32.422  31.017  1.00  0.00    -0.014 A 
ATOM     75  C   UNL A   1      45.242  33.498  30.180  1.00  0.00     0.009 A 
ATOM     76  C   UNL A   1      44.961  32.598  32.408  1.00  0.00     0.009 A 
ATOM     77  C   UNL A   1      45.650  34.716  30.727  1.00  0.00     0.001 A 
ATOM     78  C   UNL A   1      45.341  33.825  32.952  1.00  0.00     0.001 A 
ATOM     79  C   UNL A   1      45.694  34.880  32.111  1.00  0.00     0.000 A 
ENDBRANCH  61  74
ENDBRANCH  35  36
ENDBRANCH  27  30
ENDBRANCH  25  26
ENDBRANCH  24  25
ENDBRANCH   1  24
TORSDOF 13
ENDMDL
