MODEL 1
REMARK VINA RESULT:     -10.6      0.000      0.000
REMARK SMILES COc1cc([C@@H]2CC(NCCCNC(=O)c3ccc(-c4c5nc(c(-c6ccccc6)c6ccc([nH]6)c(-c6ccccc6)c6nc(c(-c7ccccc7)c7ccc4[nH]7)C=C6)C=C5)cc3)=[NH+]c3c(C(=O)[O-])cn(-c4ccc(Cl)cc4)c32)cc(OC)c1O
REMARK SMILES IDX 11 1 10 2 9 3 6 4 7 5 79 6 8 7 65 8 71 9 64 10 66 11 70 12
REMARK SMILES IDX 5 15 3 16 4 17 84 18 81 19 80 20 2 21 1 22 85 23 82 25 83 26
REMARK SMILES IDX 72 27 73 28 78 29 74 30 77 31 75 32 76 33 67 34 68 35 69 36
REMARK SMILES IDX 12 37 13 38 14 39 15 41 16 42 17 43 63 44 18 45 62 46 19 47
REMARK SMILES IDX 20 48 21 49 56 50 22 51 61 52 55 53 57 54 23 55 60 56 54 57
REMARK SMILES IDX 53 58 24 60 46 61 31 62 45 63 32 64 35 65 44 66 58 67 33 68
REMARK SMILES IDX 34 69 43 71 59 72 36 73 25 74 26 75 30 76 27 77 29 78 28 79
REMARK SMILES IDX 47 80 48 81 52 82 49 83 51 84 50 85 37 86 38 87 42 88 39 89
REMARK SMILES IDX 41 90 40 91
REMARK H PARENT 9 13 64 14 85 24 13 40 57 59 35 70
REMARK Flexibility Score: inf
ROOT
ATOM      1  C   UNL A   1      42.574  27.416  35.673  1.00  0.00     0.067 C 
ENDROOT
BRANCH   1   2
ATOM      2  C   UNL A   1      42.059  27.569  34.242  1.00  0.00     0.235 C 
BRANCH   2   3
ATOM      3  N   UNL A   1      40.663  28.008  34.193  1.00  0.00    -0.278 N 
ATOM      4  C   UNL A   1      38.204  30.305  32.265  1.00  0.00     0.083 C 
ATOM      5  C   UNL A   1      38.704  29.099  33.102  1.00  0.00     0.142 C 
ATOM      6  C   UNL A   1      39.351  30.901  31.507  1.00  0.00     0.078 A 
ATOM      7  C   UNL A   1      40.222  28.994  33.326  1.00  0.00     0.248 C 
ATOM      8  C   UNL A   1      40.664  30.572  31.723  1.00  0.00     0.155 A 
ATOM      9  N   UNL A   1      39.325  31.710  30.380  1.00  0.00    -0.315 N 
ATOM     10  N   UNL A   1      41.112  29.714  32.709  1.00  0.00    -0.243 N 
ATOM     11  C   UNL A   1      41.493  31.151  30.744  1.00  0.00     0.062 A 
ATOM     12  C   UNL A   1      40.618  31.823  29.903  1.00  0.00     0.106 A 
ATOM     13  H   UNL A   1      40.013  27.586  34.800  1.00  0.00     0.304 HD
ATOM     14  H   UNL A   1      42.068  29.649  32.936  1.00  0.00     0.312 HD
BRANCH   4  15
ATOM     15  C   UNL A   1      37.444  31.295  33.138  1.00  0.00    -0.031 A 
ATOM     16  C   UNL A   1      35.521  32.763  33.499  1.00  0.00     0.164 A 
ATOM     17  C   UNL A   1      36.188  31.794  32.738  1.00  0.00     0.055 A 
ATOM     18  C   UNL A   1      36.085  33.210  34.703  1.00  0.00     0.200 A 
ATOM     19  C   UNL A   1      37.322  32.709  35.133  1.00  0.00     0.164 A 
ATOM     20  C   UNL A   1      37.981  31.752  34.349  1.00  0.00     0.055 A 
BRANCH  16  21
ATOM     21  O   UNL A   1      34.261  33.106  33.070  1.00  0.00    -0.493 OA
ATOM     22  C   UNL A   1      34.185  34.244  32.210  1.00  0.00     0.278 C 
ENDBRANCH  16  21
BRANCH  18  23
ATOM     23  O   UNL A   1      35.381  34.078  35.490  1.00  0.00    -0.502 OA
ATOM     24  H   UNL A   1      34.444  34.054  35.491  1.00  0.00     0.293 HD
ENDBRANCH  18  23
BRANCH  19  25
ATOM     25  O   UNL A   1      38.004  32.995  36.285  1.00  0.00    -0.493 OA
ATOM     26  C   UNL A   1      38.875  32.011  36.821  1.00  0.00     0.278 C 
ENDBRANCH  19  25
ENDBRANCH   4  15
BRANCH   9  27
ATOM     27  C   UNL A   1      38.210  32.308  29.743  1.00  0.00     0.046 A 
ATOM     28  C   UNL A   1      37.407  31.561  28.881  1.00  0.00     0.028 A 
ATOM     29  C   UNL A   1      37.878  33.637  30.034  1.00  0.00     0.028 A 
ATOM     30  C   UNL A   1      36.325  32.161  28.235  1.00  0.00     0.022 A 
ATOM     31  C   UNL A   1      36.794  34.237  29.386  1.00  0.00     0.022 A 
ATOM     32  C   UNL A   1      36.032  33.501  28.478  1.00  0.00     0.041 A 
ATOM     33  Cl  UNL A   1      34.715  34.245  27.661  1.00  0.00    -0.084 Cl
ENDBRANCH   9  27
BRANCH  11  34
ATOM     34  C   UNL A   1      42.931  31.088  30.552  1.00  0.00     0.077 C 
ATOM     35  O   UNL A   1      43.653  30.196  30.959  1.00  0.00    -0.545 OA
ATOM     36  O   UNL A   1      43.477  32.124  29.871  1.00  0.00    -0.545 OA
ENDBRANCH  11  34
ENDBRANCH   2   3
ENDBRANCH   1   2
BRANCH   1  37
ATOM     37  C   UNL A   1      42.934  25.981  36.011  1.00  0.00     0.120 C 
BRANCH  37  38
ATOM     38  N   UNL A   1      44.301  25.817  36.530  1.00  0.00    -0.352 N 
ATOM     39  C   UNL A   1      45.405  25.265  35.897  1.00  0.00     0.251 C 
ATOM     40  H   UNL A   1      44.453  26.142  37.447  1.00  0.00     0.163 HD
ATOM     41  O   UNL A   1      46.380  24.889  36.534  1.00  0.00    -0.269 OA
BRANCH  39  42
ATOM     42  C   UNL A   1      45.393  25.162  34.427  1.00  0.00     0.039 A 
ATOM     43  C   UNL A   1      45.178  23.960  33.744  1.00  0.00     0.014 A 
ATOM     44  C   UNL A   1      45.566  26.349  33.728  1.00  0.00     0.014 A 
ATOM     45  C   UNL A   1      45.085  23.992  32.351  1.00  0.00     0.010 A 
ATOM     46  C   UNL A   1      45.204  26.416  32.419  1.00  0.00     0.010 A 
ATOM     47  C   UNL A   1      45.095  25.236  31.702  1.00  0.00    -0.014 A 
BRANCH  47  48
ATOM     48  C   UNL A   1      44.873  25.400  30.274  1.00  0.00     0.031 A 
ATOM     49  C   UNL A   1      45.963  26.150  29.605  1.00  0.00     0.074 A 
ATOM     50  C   UNL A   1      43.952  24.662  29.612  1.00  0.00     0.049 A 
ATOM     51  N   UNL A   1      45.913  27.353  29.142  1.00  0.00    -0.248 NA
ATOM     52  C   UNL A   1      47.323  25.577  29.632  1.00  0.00     0.031 C 
ATOM     53  C   UNL A   1      43.062  23.622  30.156  1.00  0.00     0.029 A 
ATOM     54  N   UNL A   1      43.704  24.575  28.278  1.00  0.00    -0.354 N 
ATOM     55  C   UNL A   1      47.159  27.575  28.569  1.00  0.00     0.074 A 
ATOM     56  C   UNL A   1      48.040  26.589  29.139  1.00  0.00     0.031 C 
ATOM     57  C   UNL A   1      42.578  22.859  29.150  1.00  0.00     0.029 A 
ATOM     58  C   UNL A   1      42.987  23.444  27.887  1.00  0.00     0.049 A 
ATOM     59  H   UNL A   1      44.007  25.258  27.637  1.00  0.00     0.167 HD
ATOM     60  C   UNL A   1      47.268  28.283  27.408  1.00  0.00     0.031 A 
ATOM     61  C   UNL A   1      42.779  23.005  26.617  1.00  0.00     0.031 A 
ATOM     62  C   UNL A   1      46.036  28.985  27.116  1.00  0.00     0.049 A 
ATOM     63  C   UNL A   1      43.057  24.145  25.713  1.00  0.00     0.074 A 
ATOM     64  C   UNL A   1      45.244  29.902  27.776  1.00  0.00     0.029 A 
ATOM     65  N   UNL A   1      45.239  28.430  26.142  1.00  0.00    -0.354 N 
ATOM     66  N   UNL A   1      42.323  25.220  25.674  1.00  0.00    -0.248 NA
ATOM     67  C   UNL A   1      44.414  24.294  25.215  1.00  0.00     0.031 C 
ATOM     68  C   UNL A   1      43.903  29.518  27.472  1.00  0.00     0.029 A 
ATOM     69  C   UNL A   1      43.945  28.450  26.574  1.00  0.00     0.049 A 
ATOM     70  H   UNL A   1      45.552  28.076  25.277  1.00  0.00     0.167 HD
ATOM     71  C   UNL A   1      43.239  26.260  25.612  1.00  0.00     0.074 A 
ATOM     72  C   UNL A   1      44.503  25.627  25.227  1.00  0.00     0.031 C 
ATOM     73  C   UNL A   1      42.957  27.472  26.176  1.00  0.00     0.031 A 
BRANCH  60  74
ATOM     74  C   UNL A   1      48.231  27.912  26.294  1.00  0.00    -0.014 A 
ATOM     75  C   UNL A   1      48.019  26.691  25.625  1.00  0.00     0.009 A 
ATOM     76  C   UNL A   1      49.486  28.519  26.097  1.00  0.00     0.009 A 
ATOM     77  C   UNL A   1      49.048  26.049  24.929  1.00  0.00     0.001 A 
ATOM     78  C   UNL A   1      50.504  27.901  25.365  1.00  0.00     0.001 A 
ATOM     79  C   UNL A   1      50.298  26.647  24.817  1.00  0.00     0.000 A 
ENDBRANCH  60  74
BRANCH  61  80
ATOM     80  C   UNL A   1      42.633  21.624  26.094  1.00  0.00    -0.014 A 
ATOM     81  C   UNL A   1      43.743  20.925  25.583  1.00  0.00     0.009 A 
ATOM     82  C   UNL A   1      41.470  20.882  26.364  1.00  0.00     0.009 A 
ATOM     83  C   UNL A   1      43.703  19.535  25.394  1.00  0.00     0.001 A 
ATOM     84  C   UNL A   1      41.428  19.493  26.173  1.00  0.00     0.001 A 
ATOM     85  C   UNL A   1      42.550  18.818  25.705  1.00  0.00     0.000 A 
ENDBRANCH  61  80
BRANCH  73  86
ATOM     86  C   UNL A   1      41.540  27.734  26.620  1.00  0.00    -0.014 A 
ATOM     87  C   UNL A   1      40.869  26.965  27.588  1.00  0.00     0.009 A 
ATOM     88  C   UNL A   1      40.917  28.896  26.144  1.00  0.00     0.009 A 
ATOM     89  C   UNL A   1      39.597  27.339  28.041  1.00  0.00     0.001 A 
ATOM     90  C   UNL A   1      39.660  29.280  26.610  1.00  0.00     0.001 A 
ATOM     91  C   UNL A   1      38.997  28.499  27.554  1.00  0.00     0.000 A 
ENDBRANCH  73  86
ENDBRANCH  47  48
ENDBRANCH  39  42
ENDBRANCH  37  38
ENDBRANCH   1  37
TORSDOF 15
ENDMDL
MODEL 2
REMARK VINA RESULT:     -10.6      3.171      8.159
REMARK SMILES COc1cc([C@@H]2CC(NCCCNC(=O)c3ccc(-c4c5nc(c(-c6ccccc6)c6ccc([nH]6)c(-c6ccccc6)c6nc(c(-c7ccccc7)c7ccc4[nH]7)C=C6)C=C5)cc3)=[NH+]c3c(C(=O)[O-])cn(-c4ccc(Cl)cc4)c32)cc(OC)c1O
REMARK SMILES IDX 11 1 10 2 9 3 6 4 7 5 79 6 8 7 65 8 71 9 64 10 66 11 70 12
REMARK SMILES IDX 5 15 3 16 4 17 84 18 81 19 80 20 2 21 1 22 85 23 82 25 83 26
REMARK SMILES IDX 72 27 73 28 78 29 74 30 77 31 75 32 76 33 67 34 68 35 69 36
REMARK SMILES IDX 12 37 13 38 14 39 15 41 16 42 17 43 63 44 18 45 62 46 19 47
REMARK SMILES IDX 20 48 21 49 56 50 22 51 61 52 55 53 57 54 23 55 60 56 54 57
REMARK SMILES IDX 53 58 24 60 46 61 31 62 45 63 32 64 35 65 44 66 58 67 33 68
REMARK SMILES IDX 34 69 43 71 59 72 36 73 25 74 26 75 30 76 27 77 29 78 28 79
REMARK SMILES IDX 47 80 48 81 52 82 49 83 51 84 50 85 37 86 38 87 42 88 39 89
REMARK SMILES IDX 41 90 40 91
REMARK H PARENT 9 13 64 14 85 24 13 40 57 59 35 70
REMARK Flexibility Score: inf
ROOT
ATOM      1  C   UNL A   1      33.701  33.512  28.308  1.00  0.00     0.067 C 
ENDROOT
BRANCH   1   2
ATOM      2  C   UNL A   1      34.796  34.567  28.151  1.00  0.00     0.235 C 
BRANCH   2   3
ATOM      3  N   UNL A   1      36.134  34.027  28.403  1.00  0.00    -0.278 N 
ATOM      4  C   UNL A   1      38.619  33.107  31.233  1.00  0.00     0.083 C 
ATOM      5  C   UNL A   1      37.908  33.049  29.857  1.00  0.00     0.142 C 
ATOM      6  C   UNL A   1      37.717  33.753  32.240  1.00  0.00     0.078 A 
ATOM      7  C   UNL A   1      36.684  33.962  29.672  1.00  0.00     0.248 C 
ATOM      8  C   UNL A   1      36.552  34.401  31.918  1.00  0.00     0.155 A 
ATOM      9  N   UNL A   1      37.759  33.676  33.625  1.00  0.00    -0.315 N 
ATOM     10  N   UNL A   1      36.096  34.614  30.631  1.00  0.00    -0.243 N 
ATOM     11  C   UNL A   1      35.832  34.741  33.078  1.00  0.00     0.062 A 
ATOM     12  C   UNL A   1      36.597  34.240  34.121  1.00  0.00     0.106 A 
ATOM     13  H   UNL A   1      36.663  33.698  27.640  1.00  0.00     0.304 HD
ATOM     14  H   UNL A   1      35.353  35.233  30.447  1.00  0.00     0.312 HD
BRANCH   4  15
ATOM     15  C   UNL A   1      39.992  33.757  31.110  1.00  0.00    -0.031 A 
ATOM     16  C   UNL A   1      41.961  34.767  32.151  1.00  0.00     0.164 A 
ATOM     17  C   UNL A   1      40.733  34.099  32.258  1.00  0.00     0.055 A 
ATOM     18  C   UNL A   1      42.485  35.058  30.882  1.00  0.00     0.200 A 
ATOM     19  C   UNL A   1      41.775  34.704  29.725  1.00  0.00     0.164 A 
ATOM     20  C   UNL A   1      40.542  34.050  29.854  1.00  0.00     0.055 A 
BRANCH  16  21
ATOM     21  O   UNL A   1      42.646  34.964  33.325  1.00  0.00    -0.493 OA
ATOM     22  C   UNL A   1      42.588  36.285  33.866  1.00  0.00     0.278 C 
ENDBRANCH  16  21
BRANCH  18  23
ATOM     23  O   UNL A   1      43.729  35.616  30.784  1.00  0.00    -0.502 OA
ATOM     24  H   UNL A   1      44.316  35.337  30.110  1.00  0.00     0.293 HD
ENDBRANCH  18  23
BRANCH  19  25
ATOM     25  O   UNL A   1      42.140  34.870  28.417  1.00  0.00    -0.493 OA
ATOM     26  C   UNL A   1      41.861  36.111  27.786  1.00  0.00     0.278 C 
ENDBRANCH  19  25
ENDBRANCH   4  15
BRANCH   9  27
ATOM     27  C   UNL A   1      38.752  33.097  34.451  1.00  0.00     0.046 A 
ATOM     28  C   UNL A   1      39.602  33.908  35.204  1.00  0.00     0.028 A 
ATOM     29  C   UNL A   1      38.836  31.704  34.560  1.00  0.00     0.028 A 
ATOM     30  C   UNL A   1      40.598  33.334  35.997  1.00  0.00     0.022 A 
ATOM     31  C   UNL A   1      39.834  31.130  35.354  1.00  0.00     0.022 A 
ATOM     32  C   UNL A   1      40.720  31.948  36.056  1.00  0.00     0.041 A 
ATOM     33  Cl  UNL A   1      41.963  31.244  37.012  1.00  0.00    -0.084 Cl
ENDBRANCH   9  27
BRANCH  11  34
ATOM     34  C   UNL A   1      34.560  35.421  33.246  1.00  0.00     0.077 C 
ATOM     35  O   UNL A   1      34.364  36.364  33.990  1.00  0.00    -0.545 OA
ATOM     36  O   UNL A   1      33.533  34.935  32.507  1.00  0.00    -0.545 OA
ENDBRANCH  11  34
ENDBRANCH   2   3
ENDBRANCH   1   2
BRANCH   1  37
ATOM     37  C   UNL A   1      34.234  32.196  28.846  1.00  0.00     0.120 C 
BRANCH  37  38
ATOM     38  N   UNL A   1      33.861  31.027  28.033  1.00  0.00    -0.352 N 
ATOM     39  C   UNL A   1      34.684  30.037  27.514  1.00  0.00     0.251 C 
ATOM     40  H   UNL A   1      32.902  30.935  27.831  1.00  0.00     0.163 HD
ATOM     41  O   UNL A   1      34.310  29.318  26.597  1.00  0.00    -0.269 OA
BRANCH  39  42
ATOM     42  C   UNL A   1      36.018  29.850  28.110  1.00  0.00     0.039 A 
ATOM     43  C   UNL A   1      36.218  29.412  29.423  1.00  0.00     0.014 A 
ATOM     44  C   UNL A   1      37.101  30.092  27.275  1.00  0.00     0.014 A 
ATOM     45  C   UNL A   1      37.524  29.171  29.855  1.00  0.00     0.010 A 
ATOM     46  C   UNL A   1      38.325  29.599  27.604  1.00  0.00     0.010 A 
ATOM     47  C   UNL A   1      38.570  29.264  28.925  1.00  0.00    -0.014 A 
BRANCH  47  48
ATOM     48  C   UNL A   1      39.948  28.909  29.226  1.00  0.00     0.031 A 
ATOM     49  C   UNL A   1      40.214  28.821  30.681  1.00  0.00     0.074 A 
ATOM     50  C   UNL A   1      40.770  28.400  28.279  1.00  0.00     0.049 A 
ATOM     51  N   UNL A   1      40.900  29.643  31.400  1.00  0.00    -0.248 NA
ATOM     52  C   UNL A   1      39.469  27.819  31.468  1.00  0.00     0.031 C 
ATOM     53  C   UNL A   1      40.462  28.119  26.866  1.00  0.00     0.029 A 
ATOM     54  N   UNL A   1      42.023  27.886  28.401  1.00  0.00    -0.354 N 
ATOM     55  C   UNL A   1      40.901  29.097  32.679  1.00  0.00     0.074 A 
ATOM     56  C   UNL A   1      39.803  28.167  32.712  1.00  0.00     0.031 C 
ATOM     57  C   UNL A   1      41.386  27.275  26.353  1.00  0.00     0.029 A 
ATOM     58  C   UNL A   1      42.434  27.082  27.338  1.00  0.00     0.049 A 
ATOM     59  H   UNL A   1      42.596  28.068  29.181  1.00  0.00     0.167 HD
ATOM     60  C   UNL A   1      42.018  29.166  33.457  1.00  0.00     0.031 A 
ATOM     61  C   UNL A   1      43.537  26.289  27.290  1.00  0.00     0.031 A 
ATOM     62  C   UNL A   1      42.966  30.116  32.915  1.00  0.00     0.049 A 
ATOM     63  C   UNL A   1      44.450  26.751  28.361  1.00  0.00     0.074 A 
ATOM     64  C   UNL A   1      42.939  31.454  32.577  1.00  0.00     0.029 A 
ATOM     65  N   UNL A   1      44.045  29.581  32.250  1.00  0.00    -0.354 N 
ATOM     66  N   UNL A   1      45.040  27.911  28.345  1.00  0.00    -0.248 NA
ATOM     67  C   UNL A   1      44.320  26.130  29.669  1.00  0.00     0.031 C 
ATOM     68  C   UNL A   1      43.710  31.548  31.379  1.00  0.00     0.029 A 
ATOM     69  C   UNL A   1      44.243  30.288  31.100  1.00  0.00     0.049 A 
ATOM     70  H   UNL A   1      44.585  28.815  32.554  1.00  0.00     0.167 HD
ATOM     71  C   UNL A   1      44.917  28.377  29.647  1.00  0.00     0.074 A 
ATOM     72  C   UNL A   1      44.559  27.196  30.438  1.00  0.00     0.031 C 
ATOM     73  C   UNL A   1      44.812  29.715  29.900  1.00  0.00     0.031 A 
BRANCH  60  74
ATOM     74  C   UNL A   1      42.485  28.026  34.345  1.00  0.00    -0.014 A 
ATOM     75  C   UNL A   1      43.136  26.941  33.728  1.00  0.00     0.009 A 
ATOM     76  C   UNL A   1      42.040  27.816  35.665  1.00  0.00     0.009 A 
ATOM     77  C   UNL A   1      43.201  25.683  34.337  1.00  0.00     0.001 A 
ATOM     78  C   UNL A   1      42.143  26.572  36.295  1.00  0.00     0.001 A 
ATOM     79  C   UNL A   1      42.686  25.495  35.615  1.00  0.00     0.000 A 
ENDBRANCH  60  74
BRANCH  61  80
ATOM     80  C   UNL A   1      43.758  24.998  26.592  1.00  0.00    -0.014 A 
ATOM     81  C   UNL A   1      42.872  23.920  26.771  1.00  0.00     0.009 A 
ATOM     82  C   UNL A   1      44.668  24.916  25.523  1.00  0.00     0.009 A 
ATOM     83  C   UNL A   1      42.868  22.827  25.890  1.00  0.00     0.001 A 
ATOM     84  C   UNL A   1      44.667  23.824  24.644  1.00  0.00     0.001 A 
ATOM     85  C   UNL A   1      43.756  22.788  24.817  1.00  0.00     0.000 A 
ENDBRANCH  61  80
BRANCH  73  86
ATOM     86  C   UNL A   1      45.105  30.675  28.775  1.00  0.00    -0.014 A 
ATOM     87  C   UNL A   1      46.392  31.161  28.477  1.00  0.00     0.009 A 
ATOM     88  C   UNL A   1      44.058  30.980  27.894  1.00  0.00     0.009 A 
ATOM     89  C   UNL A   1      46.610  31.953  27.343  1.00  0.00     0.001 A 
ATOM     90  C   UNL A   1      44.280  31.752  26.755  1.00  0.00     0.001 A 
ATOM     91  C   UNL A   1      45.554  32.243  26.481  1.00  0.00     0.000 A 
ENDBRANCH  73  86
ENDBRANCH  47  48
ENDBRANCH  39  42
ENDBRANCH  37  38
ENDBRANCH   1  37
TORSDOF 15
ENDMDL
MODEL 3
REMARK VINA RESULT:     -10.4      3.213      7.589
REMARK SMILES COc1cc([C@@H]2CC(NCCCNC(=O)c3ccc(-c4c5nc(c(-c6ccccc6)c6ccc([nH]6)c(-c6ccccc6)c6nc(c(-c7ccccc7)c7ccc4[nH]7)C=C6)C=C5)cc3)=[NH+]c3c(C(=O)[O-])cn(-c4ccc(Cl)cc4)c32)cc(OC)c1O
REMARK SMILES IDX 11 1 10 2 9 3 6 4 7 5 79 6 8 7 65 8 71 9 64 10 66 11 70 12
REMARK SMILES IDX 5 15 3 16 4 17 84 18 81 19 80 20 2 21 1 22 85 23 82 25 83 26
REMARK SMILES IDX 72 27 73 28 78 29 74 30 77 31 75 32 76 33 67 34 68 35 69 36
REMARK SMILES IDX 12 37 13 38 14 39 15 41 16 42 17 43 63 44 18 45 62 46 19 47
REMARK SMILES IDX 20 48 21 49 56 50 22 51 61 52 55 53 57 54 23 55 60 56 54 57
REMARK SMILES IDX 53 58 24 60 46 61 31 62 45 63 32 64 35 65 44 66 58 67 33 68
REMARK SMILES IDX 34 69 43 71 59 72 36 73 25 74 26 75 30 76 27 77 29 78 28 79
REMARK SMILES IDX 47 80 48 81 52 82 49 83 51 84 50 85 37 86 38 87 42 88 39 89
REMARK SMILES IDX 41 90 40 91
REMARK H PARENT 9 13 64 14 85 24 13 40 57 59 35 70
REMARK Flexibility Score: inf
ROOT
ATOM      1  C   UNL A   1      35.746  33.801  32.356  1.00  0.00     0.067 C 
ENDROOT
BRANCH   1   2
ATOM      2  C   UNL A   1      36.999  34.607  32.698  1.00  0.00     0.235 C 
BRANCH   2   3
ATOM      3  N   UNL A   1      37.780  34.960  31.511  1.00  0.00    -0.278 N 
ATOM      4  C   UNL A   1      41.060  34.150  29.609  1.00  0.00     0.083 C 
ATOM      5  C   UNL A   1      39.589  34.582  29.837  1.00  0.00     0.142 C 
ATOM      6  C   UNL A   1      41.520  33.304  30.757  1.00  0.00     0.078 A 
ATOM      7  C   UNL A   1      39.040  34.440  31.267  1.00  0.00     0.248 C 
ATOM      8  C   UNL A   1      40.819  33.153  31.925  1.00  0.00     0.155 A 
ATOM      9  N   UNL A   1      42.579  32.408  30.811  1.00  0.00    -0.315 N 
ATOM     10  N   UNL A   1      39.643  33.811  32.232  1.00  0.00    -0.243 N 
ATOM     11  C   UNL A   1      41.404  32.162  32.735  1.00  0.00     0.062 A 
ATOM     12  C   UNL A   1      42.477  31.695  31.992  1.00  0.00     0.106 A 
ATOM     13  H   UNL A   1      37.393  35.590  30.861  1.00  0.00     0.304 HD
ATOM     14  H   UNL A   1      39.276  33.805  33.145  1.00  0.00     0.312 HD
BRANCH   4  15
ATOM     15  C   UNL A   1      41.944  35.359  29.324  1.00  0.00    -0.031 A 
ATOM     16  C   UNL A   1      43.672  36.937  30.034  1.00  0.00     0.164 A 
ATOM     17  C   UNL A   1      42.910  35.782  30.257  1.00  0.00     0.055 A 
ATOM     18  C   UNL A   1      43.505  37.659  28.842  1.00  0.00     0.200 A 
ATOM     19  C   UNL A   1      42.566  37.242  27.888  1.00  0.00     0.164 A 
ATOM     20  C   UNL A   1      41.804  36.092  28.138  1.00  0.00     0.055 A 
BRANCH  16  21
ATOM     21  O   UNL A   1      44.652  37.203  30.959  1.00  0.00    -0.493 OA
ATOM     22  C   UNL A   1      44.302  38.130  31.989  1.00  0.00     0.278 C 
ENDBRANCH  16  21
BRANCH  18  23
ATOM     23  O   UNL A   1      44.322  38.724  28.587  1.00  0.00    -0.502 OA
ATOM     24  H   UNL A   1      44.793  39.132  29.287  1.00  0.00     0.293 HD
ENDBRANCH  18  23
BRANCH  19  25
ATOM     25  O   UNL A   1      42.293  37.790  26.664  1.00  0.00    -0.493 OA
ATOM     26  C   UNL A   1      41.604  39.030  26.615  1.00  0.00     0.278 C 
ENDBRANCH  19  25
ENDBRANCH   4  15
BRANCH   9  27
ATOM     27  C   UNL A   1      43.592  32.173  29.849  1.00  0.00     0.046 A 
ATOM     28  C   UNL A   1      43.336  31.367  28.740  1.00  0.00     0.028 A 
ATOM     29  C   UNL A   1      44.832  32.807  29.982  1.00  0.00     0.028 A 
ATOM     30  C   UNL A   1      44.344  31.116  27.808  1.00  0.00     0.022 A 
ATOM     31  C   UNL A   1      45.842  32.555  29.048  1.00  0.00     0.022 A 
ATOM     32  C   UNL A   1      45.598  31.698  27.975  1.00  0.00     0.041 A 
ATOM     33  Cl  UNL A   1      46.847  31.367  26.839  1.00  0.00    -0.084 Cl
ENDBRANCH   9  27
BRANCH  11  34
ATOM     34  C   UNL A   1      41.025  31.651  34.041  1.00  0.00     0.077 C 
ATOM     35  O   UNL A   1      41.768  31.062  34.804  1.00  0.00    -0.545 OA
ATOM     36  O   UNL A   1      39.735  31.858  34.399  1.00  0.00    -0.545 OA
ENDBRANCH  11  34
ENDBRANCH   2   3
ENDBRANCH   1   2
BRANCH   1  37
ATOM     37  C   UNL A   1      36.070  32.483  31.676  1.00  0.00     0.120 C 
BRANCH  37  38
ATOM     38  N   UNL A   1      35.758  32.464  30.238  1.00  0.00    -0.352 N 
ATOM     39  C   UNL A   1      36.471  31.871  29.206  1.00  0.00     0.251 C 
ATOM     40  H   UNL A   1      34.934  32.934  29.973  1.00  0.00     0.163 HD
ATOM     41  O   UNL A   1      36.294  32.200  28.041  1.00  0.00    -0.269 OA
BRANCH  39  42
ATOM     42  C   UNL A   1      37.438  30.811  29.541  1.00  0.00     0.039 A 
ATOM     43  C   UNL A   1      37.071  29.479  29.763  1.00  0.00     0.014 A 
ATOM     44  C   UNL A   1      38.772  31.191  29.585  1.00  0.00     0.014 A 
ATOM     45  C   UNL A   1      38.079  28.536  29.973  1.00  0.00     0.010 A 
ATOM     46  C   UNL A   1      39.744  30.242  29.513  1.00  0.00     0.010 A 
ATOM     47  C   UNL A   1      39.417  28.936  29.838  1.00  0.00    -0.014 A 
BRANCH  47  48
ATOM     48  C   UNL A   1      40.541  28.016  29.903  1.00  0.00     0.031 A 
ATOM     49  C   UNL A   1      41.205  28.012  31.229  1.00  0.00     0.074 A 
ATOM     50  C   UNL A   1      40.724  27.055  28.967  1.00  0.00     0.049 A 
ATOM     51  N   UNL A   1      42.361  28.501  31.525  1.00  0.00    -0.248 NA
ATOM     52  C   UNL A   1      40.413  27.599  32.404  1.00  0.00     0.031 C 
ATOM     53  C   UNL A   1      39.887  26.764  27.791  1.00  0.00     0.029 A 
ATOM     54  N   UNL A   1      41.620  26.032  28.936  1.00  0.00    -0.354 N 
ATOM     55  C   UNL A   1      42.552  28.200  32.868  1.00  0.00     0.074 A 
ATOM     56  C   UNL A   1      41.245  27.913  33.399  1.00  0.00     0.031 C 
ATOM     57  C   UNL A   1      40.162  25.523  27.328  1.00  0.00     0.029 A 
ATOM     58  C   UNL A   1      41.294  24.994  28.065  1.00  0.00     0.049 A 
ATOM     59  H   UNL A   1      42.436  26.026  29.487  1.00  0.00     0.167 HD
ATOM     60  C   UNL A   1      43.785  27.837  33.325  1.00  0.00     0.031 A 
ATOM     61  C   UNL A   1      41.892  23.775  27.982  1.00  0.00     0.031 A 
ATOM     62  C   UNL A   1      44.807  28.143  32.347  1.00  0.00     0.049 A 
ATOM     63  C   UNL A   1      43.207  23.892  28.654  1.00  0.00     0.074 A 
ATOM     64  C   UNL A   1      45.224  29.275  31.676  1.00  0.00     0.029 A 
ATOM     65  N   UNL A   1      45.290  27.077  31.624  1.00  0.00    -0.354 N 
ATOM     66  N   UNL A   1      44.181  24.621  28.193  1.00  0.00    -0.248 NA
ATOM     67  C   UNL A   1      43.265  23.591  30.075  1.00  0.00     0.031 C 
ATOM     68  C   UNL A   1      45.530  28.829  30.355  1.00  0.00     0.029 A 
ATOM     69  C   UNL A   1      45.375  27.443  30.312  1.00  0.00     0.049 A 
ATOM     70  H   UNL A   1      45.533  26.196  31.992  1.00  0.00     0.167 HD
ATOM     71  C   UNL A   1      44.691  25.262  29.313  1.00  0.00     0.074 A 
ATOM     72  C   UNL A   1      44.158  24.511  30.453  1.00  0.00     0.031 C 
ATOM     73  C   UNL A   1      45.234  26.512  29.214  1.00  0.00     0.031 A 
BRANCH  60  74
ATOM     74  C   UNL A   1      44.001  26.745  34.357  1.00  0.00    -0.014 A 
ATOM     75  C   UNL A   1      44.880  27.018  35.423  1.00  0.00     0.009 A 
ATOM     76  C   UNL A   1      43.657  25.393  34.166  1.00  0.00     0.009 A 
ATOM     77  C   UNL A   1      45.491  25.990  36.150  1.00  0.00     0.001 A 
ATOM     78  C   UNL A   1      44.231  24.366  34.919  1.00  0.00     0.001 A 
ATOM     79  C   UNL A   1      45.179  24.662  35.883  1.00  0.00     0.000 A 
ENDBRANCH  60  74
BRANCH  61  80
ATOM     80  C   UNL A   1      41.322  22.452  27.626  1.00  0.00    -0.014 A 
ATOM     81  C   UNL A   1      40.180  22.354  26.809  1.00  0.00     0.009 A 
ATOM     82  C   UNL A   1      42.065  21.278  27.842  1.00  0.00     0.009 A 
ATOM     83  C   UNL A   1      39.826  21.141  26.198  1.00  0.00     0.001 A 
ATOM     84  C   UNL A   1      41.710  20.066  27.235  1.00  0.00     0.001 A 
ATOM     85  C   UNL A   1      40.600  20.001  26.399  1.00  0.00     0.000 A 
ENDBRANCH  61  80
BRANCH  73  86
ATOM     86  C   UNL A   1      45.514  27.056  27.836  1.00  0.00    -0.014 A 
ATOM     87  C   UNL A   1      46.770  26.984  27.207  1.00  0.00     0.009 A 
ATOM     88  C   UNL A   1      44.423  27.525  27.092  1.00  0.00     0.009 A 
ATOM     89  C   UNL A   1      46.928  27.400  25.879  1.00  0.00     0.001 A 
ATOM     90  C   UNL A   1      44.576  27.920  25.763  1.00  0.00     0.001 A 
ATOM     91  C   UNL A   1      45.829  27.863  25.157  1.00  0.00     0.000 A 
ENDBRANCH  73  86
ENDBRANCH  47  48
ENDBRANCH  39  42
ENDBRANCH  37  38
ENDBRANCH   1  37
TORSDOF 15
ENDMDL
