MODEL 1
REMARK VINA RESULT:     -10.9      0.000      0.000
REMARK SMILES C[C@H]1[C@H](C(=O)NCCCNC(=O)c2ccc(-c3c4nc(c(-c5ccccc5)c5ccc([nH]5)c(-c5ccccc5)c5nc(c(-c6ccccc6)c6ccc3[nH]6)C=C5)C=C4)cc2)CCN1C(=O)[C@H]1CC=CCC1
REMARK SMILES IDX 8 1 7 2 6 3 4 4 5 5 3 7 1 8 2 9 63 10 61 11 62 12 64 13
REMARK SMILES IDX 65 14 66 15 67 16 71 17 68 18 70 19 69 20 9 21 10 22 11 23
REMARK SMILES IDX 12 25 13 26 14 27 60 28 15 29 59 30 16 31 17 32 18 33 53 34
REMARK SMILES IDX 19 35 58 36 52 37 54 38 20 39 57 40 51 41 50 42 21 44 43 45
REMARK SMILES IDX 28 46 42 47 29 48 32 49 41 50 55 51 30 52 31 53 40 55 56 56
REMARK SMILES IDX 33 57 22 58 23 59 27 60 24 61 26 62 25 63 44 64 45 65 49 66
REMARK SMILES IDX 46 67 48 68 47 69 34 70 35 71 39 72 36 73 38 74 37 75
REMARK H PARENT 6 6 10 24 54 43 32 54
REMARK Flexibility Score: inf
ROOT
ATOM      1  C   UNL A   1      32.752  28.299  25.977  1.00  0.00     0.042 C 
ENDROOT
BRANCH   1   2
ATOM      2  C   UNL A   1      31.332  27.801  26.219  1.00  0.00     0.117 C 
BRANCH   2   3
ATOM      3  N   UNL A   1      31.301  26.484  26.834  1.00  0.00    -0.356 N 
ATOM      4  C   UNL A   1      31.429  25.228  26.347  1.00  0.00     0.225 C 
ATOM      5  O   UNL A   1      31.353  24.317  27.180  1.00  0.00    -0.275 OA
ATOM      6  H   UNL A   1      31.156  26.512  27.808  1.00  0.00     0.163 HD
BRANCH   4   7
ATOM      7  C   UNL A   1      31.598  24.872  24.881  1.00  0.00     0.102 C 
ATOM      8  C   UNL A   1      33.054  25.903  23.138  1.00  0.00     0.032 C 
ATOM      9  C   UNL A   1      33.050  25.027  24.397  1.00  0.00     0.094 C 
ATOM     10  N   UNL A   1      33.492  23.665  24.115  1.00  0.00    -0.339 N 
ATOM     11  C   UNL A   1      31.129  23.493  24.428  1.00  0.00     0.037 C 
ATOM     12  C   UNL A   1      32.341  22.835  23.783  1.00  0.00     0.120 C 
BRANCH  10  13
ATOM     13  C   UNL A   1      34.748  23.103  24.063  1.00  0.00     0.226 C 
ATOM     14  O   UNL A   1      35.374  23.146  22.992  1.00  0.00    -0.275 OA
BRANCH  13  15
ATOM     15  C   UNL A   1      35.430  22.367  25.232  1.00  0.00     0.083 C 
ATOM     16  C   UNL A   1      35.952  20.956  24.968  1.00  0.00     0.040 C 
ATOM     17  C   UNL A   1      36.345  23.227  26.108  1.00  0.00     0.018 C 
ATOM     18  C   UNL A   1      37.445  20.814  24.961  1.00  0.00    -0.030 C 
ATOM     19  C   UNL A   1      37.841  23.127  25.816  1.00  0.00     0.028 C 
ATOM     20  C   UNL A   1      38.288  21.782  25.341  1.00  0.00    -0.031 C 
ENDBRANCH  13  15
ENDBRANCH  10  13
ENDBRANCH   4   7
ENDBRANCH   2   3
ENDBRANCH   1   2
BRANCH   1  21
ATOM     21  C   UNL A   1      33.580  28.569  27.226  1.00  0.00     0.118 C 
BRANCH  21  22
ATOM     22  N   UNL A   1      33.524  29.956  27.650  1.00  0.00    -0.352 N 
ATOM     23  C   UNL A   1      34.454  30.724  28.307  1.00  0.00     0.251 C 
ATOM     24  H   UNL A   1      32.684  30.420  27.433  1.00  0.00     0.163 HD
ATOM     25  O   UNL A   1      34.121  31.833  28.727  1.00  0.00    -0.269 OA
BRANCH  23  26
ATOM     26  C   UNL A   1      35.840  30.248  28.543  1.00  0.00     0.039 A 
ATOM     27  C   UNL A   1      36.755  30.318  27.487  1.00  0.00     0.014 A 
ATOM     28  C   UNL A   1      36.237  29.671  29.753  1.00  0.00     0.014 A 
ATOM     29  C   UNL A   1      38.065  29.856  27.655  1.00  0.00     0.010 A 
ATOM     30  C   UNL A   1      37.567  29.286  29.948  1.00  0.00     0.010 A 
ATOM     31  C   UNL A   1      38.491  29.357  28.896  1.00  0.00    -0.014 A 
BRANCH  31  32
ATOM     32  C   UNL A   1      39.888  28.881  29.089  1.00  0.00     0.031 A 
ATOM     33  C   UNL A   1      40.928  29.783  29.699  1.00  0.00     0.074 A 
ATOM     34  C   UNL A   1      40.238  27.644  28.687  1.00  0.00     0.049 A 
ATOM     35  N   UNL A   1      42.196  29.544  29.931  1.00  0.00    -0.248 NA
ATOM     36  C   UNL A   1      40.495  31.137  30.080  1.00  0.00     0.031 C 
ATOM     37  C   UNL A   1      39.349  26.676  28.042  1.00  0.00     0.029 A 
ATOM     38  N   UNL A   1      41.442  26.987  28.764  1.00  0.00    -0.354 N 
ATOM     39  C   UNL A   1      42.711  30.719  30.465  1.00  0.00     0.074 A 
ATOM     40  C   UNL A   1      41.634  31.684  30.481  1.00  0.00     0.031 C 
ATOM     41  C   UNL A   1      40.028  25.541  27.810  1.00  0.00     0.029 A 
ATOM     42  C   UNL A   1      41.407  25.710  28.261  1.00  0.00     0.049 A 
ATOM     43  H   UNL A   1      42.254  27.394  29.144  1.00  0.00     0.167 HD
ATOM     44  C   UNL A   1      43.962  30.972  30.922  1.00  0.00     0.031 A 
ATOM     45  C   UNL A   1      42.370  24.774  28.174  1.00  0.00     0.031 A 
ATOM     46  C   UNL A   1      45.038  30.017  30.930  1.00  0.00     0.049 A 
ATOM     47  C   UNL A   1      43.746  25.071  28.700  1.00  0.00     0.074 A 
ATOM     48  C   UNL A   1      46.323  30.169  31.422  1.00  0.00     0.029 A 
ATOM     49  N   UNL A   1      44.953  28.730  30.423  1.00  0.00    -0.354 N 
ATOM     50  N   UNL A   1      44.197  26.169  29.256  1.00  0.00    -0.248 NA
ATOM     51  C   UNL A   1      44.740  23.993  28.599  1.00  0.00     0.031 C 
ATOM     52  C   UNL A   1      47.027  28.984  31.181  1.00  0.00     0.029 A 
ATOM     53  C   UNL A   1      46.167  28.081  30.578  1.00  0.00     0.049 A 
ATOM     54  H   UNL A   1      44.149  28.335  30.016  1.00  0.00     0.167 HD
ATOM     55  C   UNL A   1      45.521  25.907  29.587  1.00  0.00     0.074 A 
ATOM     56  C   UNL A   1      45.793  24.542  29.188  1.00  0.00     0.031 C 
ATOM     57  C   UNL A   1      46.429  26.727  30.170  1.00  0.00     0.031 A 
BRANCH  44  58
ATOM     58  C   UNL A   1      44.233  32.351  31.455  1.00  0.00    -0.014 A 
ATOM     59  C   UNL A   1      44.115  32.634  32.825  1.00  0.00     0.009 A 
ATOM     60  C   UNL A   1      44.636  33.373  30.581  1.00  0.00     0.009 A 
ATOM     61  C   UNL A   1      44.360  33.922  33.305  1.00  0.00     0.001 A 
ATOM     62  C   UNL A   1      44.906  34.654  31.068  1.00  0.00     0.001 A 
ATOM     63  C   UNL A   1      44.759  34.930  32.427  1.00  0.00     0.000 A 
ENDBRANCH  44  58
BRANCH  45  64
ATOM     64  C   UNL A   1      42.063  23.449  27.579  1.00  0.00    -0.014 A 
ATOM     65  C   UNL A   1      41.461  22.445  28.352  1.00  0.00     0.009 A 
ATOM     66  C   UNL A   1      42.368  23.183  26.235  1.00  0.00     0.009 A 
ATOM     67  C   UNL A   1      41.191  21.193  27.798  1.00  0.00     0.001 A 
ATOM     68  C   UNL A   1      42.074  21.937  25.677  1.00  0.00     0.001 A 
ATOM     69  C   UNL A   1      41.493  20.941  26.461  1.00  0.00     0.000 A 
ENDBRANCH  45  64
BRANCH  57  70
ATOM     70  C   UNL A   1      47.795  26.160  30.428  1.00  0.00    -0.014 A 
ATOM     71  C   UNL A   1      48.762  26.106  29.412  1.00  0.00     0.009 A 
ATOM     72  C   UNL A   1      48.128  25.698  31.711  1.00  0.00     0.009 A 
ATOM     73  C   UNL A   1      50.025  25.570  29.668  1.00  0.00     0.001 A 
ATOM     74  C   UNL A   1      49.399  25.185  31.970  1.00  0.00     0.001 A 
ATOM     75  C   UNL A   1      50.344  25.113  30.946  1.00  0.00     0.000 A 
ENDBRANCH  57  70
ENDBRANCH  31  32
ENDBRANCH  23  26
ENDBRANCH  21  22
ENDBRANCH   1  21
TORSDOF 12
ENDMDL
MODEL 2
REMARK VINA RESULT:     -10.7      1.708      2.488
REMARK SMILES C[C@H]1[C@H](C(=O)NCCCNC(=O)c2ccc(-c3c4nc(c(-c5ccccc5)c5ccc([nH]5)c(-c5ccccc5)c5nc(c(-c6ccccc6)c6ccc3[nH]6)C=C5)C=C4)cc2)CCN1C(=O)[C@H]1CC=CCC1
REMARK SMILES IDX 8 1 7 2 6 3 4 4 5 5 3 7 1 8 2 9 63 10 61 11 62 12 64 13
REMARK SMILES IDX 65 14 66 15 67 16 71 17 68 18 70 19 69 20 9 21 10 22 11 23
REMARK SMILES IDX 12 25 13 26 14 27 60 28 15 29 59 30 16 31 17 32 18 33 53 34
REMARK SMILES IDX 19 35 58 36 52 37 54 38 20 39 57 40 51 41 50 42 21 44 43 45
REMARK SMILES IDX 28 46 42 47 29 48 32 49 41 50 55 51 30 52 31 53 40 55 56 56
REMARK SMILES IDX 33 57 22 58 23 59 27 60 24 61 26 62 25 63 44 64 45 65 49 66
REMARK SMILES IDX 46 67 48 68 47 69 34 70 35 71 39 72 36 73 38 74 37 75
REMARK H PARENT 6 6 10 24 54 43 32 54
REMARK Flexibility Score: inf
ROOT
ATOM      1  C   UNL A   1      32.457  28.125  26.324  1.00  0.00     0.042 C 
ENDROOT
BRANCH   1   2
ATOM      2  C   UNL A   1      32.250  26.630  26.112  1.00  0.00     0.117 C 
BRANCH   2   3
ATOM      3  N   UNL A   1      33.478  25.944  25.747  1.00  0.00    -0.356 N 
ATOM      4  C   UNL A   1      33.903  24.666  25.881  1.00  0.00     0.225 C 
ATOM      5  O   UNL A   1      35.034  24.425  25.440  1.00  0.00    -0.275 OA
ATOM      6  H   UNL A   1      34.139  26.531  25.313  1.00  0.00     0.163 HD
BRANCH   4   7
ATOM      7  C   UNL A   1      33.127  23.554  26.564  1.00  0.00     0.102 C 
ATOM      8  C   UNL A   1      31.127  22.282  25.789  1.00  0.00     0.032 C 
ATOM      9  C   UNL A   1      32.633  22.482  25.579  1.00  0.00     0.094 C 
ATOM     10  N   UNL A   1      33.396  21.286  25.921  1.00  0.00    -0.339 N 
ATOM     11  C   UNL A   1      33.812  22.815  27.710  1.00  0.00     0.037 C 
ATOM     12  C   UNL A   1      33.794  21.343  27.322  1.00  0.00     0.120 C 
BRANCH  10  13
ATOM     13  C   UNL A   1      33.722  20.167  25.187  1.00  0.00     0.226 C 
ATOM     14  O   UNL A   1      34.883  20.053  24.762  1.00  0.00    -0.275 OA
BRANCH  13  15
ATOM     15  C   UNL A   1      32.734  19.052  24.799  1.00  0.00     0.083 C 
ATOM     16  C   UNL A   1      32.584  18.726  23.314  1.00  0.00     0.040 C 
ATOM     17  C   UNL A   1      32.727  17.828  25.719  1.00  0.00     0.018 C 
ATOM     18  C   UNL A   1      33.126  17.394  22.891  1.00  0.00    -0.030 C 
ATOM     19  C   UNL A   1      33.523  16.618  25.232  1.00  0.00     0.028 C 
ATOM     20  C   UNL A   1      33.544  16.453  23.746  1.00  0.00    -0.031 C 
ENDBRANCH  13  15
ENDBRANCH  10  13
ENDBRANCH   4   7
ENDBRANCH   2   3
ENDBRANCH   1   2
BRANCH   1  21
ATOM     21  C   UNL A   1      33.587  28.509  27.269  1.00  0.00     0.118 C 
BRANCH  21  22
ATOM     22  N   UNL A   1      33.547  29.907  27.657  1.00  0.00    -0.352 N 
ATOM     23  C   UNL A   1      34.504  30.695  28.248  1.00  0.00     0.251 C 
ATOM     24  H   UNL A   1      32.696  30.364  27.466  1.00  0.00     0.163 HD
ATOM     25  O   UNL A   1      34.187  31.814  28.652  1.00  0.00    -0.269 OA
BRANCH  23  26
ATOM     26  C   UNL A   1      35.901  30.228  28.432  1.00  0.00     0.039 A 
ATOM     27  C   UNL A   1      36.271  29.716  29.680  1.00  0.00     0.014 A 
ATOM     28  C   UNL A   1      36.869  30.351  27.431  1.00  0.00     0.014 A 
ATOM     29  C   UNL A   1      37.584  29.290  29.907  1.00  0.00     0.010 A 
ATOM     30  C   UNL A   1      38.158  29.851  27.630  1.00  0.00     0.010 A 
ATOM     31  C   UNL A   1      38.536  29.331  28.877  1.00  0.00    -0.014 A 
BRANCH  31  32
ATOM     32  C   UNL A   1      39.930  28.862  29.105  1.00  0.00     0.031 A 
ATOM     33  C   UNL A   1      40.945  29.765  29.756  1.00  0.00     0.074 A 
ATOM     34  C   UNL A   1      40.301  27.632  28.702  1.00  0.00     0.049 A 
ATOM     35  N   UNL A   1      42.207  29.532  30.023  1.00  0.00    -0.248 NA
ATOM     36  C   UNL A   1      40.491  31.112  30.137  1.00  0.00     0.031 C 
ATOM     37  C   UNL A   1      39.437  26.665  28.021  1.00  0.00     0.029 A 
ATOM     38  N   UNL A   1      41.506  26.982  28.808  1.00  0.00    -0.354 N 
ATOM     39  C   UNL A   1      42.698  30.705  30.584  1.00  0.00     0.074 A 
ATOM     40  C   UNL A   1      41.613  31.662  30.578  1.00  0.00     0.031 C 
ATOM     41  C   UNL A   1      40.131  25.537  27.798  1.00  0.00     0.029 A 
ATOM     42  C   UNL A   1      41.495  25.710  28.292  1.00  0.00     0.049 A 
ATOM     43  H   UNL A   1      42.304  27.391  29.216  1.00  0.00     0.167 HD
ATOM     44  C   UNL A   1      43.933  30.962  31.080  1.00  0.00     0.031 A 
ATOM     45  C   UNL A   1      42.467  24.782  28.224  1.00  0.00     0.031 A 
ATOM     46  C   UNL A   1      45.014  30.014  31.111  1.00  0.00     0.049 A 
ATOM     47  C   UNL A   1      43.825  25.083  28.794  1.00  0.00     0.074 A 
ATOM     48  C   UNL A   1      46.284  30.169  31.642  1.00  0.00     0.029 A 
ATOM     49  N   UNL A   1      44.954  28.732  30.589  1.00  0.00    -0.354 N 
ATOM     50  N   UNL A   1      44.251  26.178  29.373  1.00  0.00    -0.248 NA
ATOM     51  C   UNL A   1      44.828  24.012  28.712  1.00  0.00     0.031 C 
ATOM     52  C   UNL A   1      47.002  28.992  31.410  1.00  0.00     0.029 A 
ATOM     53  C   UNL A   1      46.168  28.090  30.773  1.00  0.00     0.049 A 
ATOM     54  H   UNL A   1      44.165  28.335  30.153  1.00  0.00     0.167 HD
ATOM     55  C   UNL A   1      45.566  25.922  29.741  1.00  0.00     0.074 A 
ATOM     56  C   UNL A   1      45.860  24.563  29.337  1.00  0.00     0.031 C 
ATOM     57  C   UNL A   1      46.450  26.741  30.359  1.00  0.00     0.031 A 
BRANCH  44  58
ATOM     58  C   UNL A   1      44.178  32.337  31.635  1.00  0.00    -0.014 A 
ATOM     59  C   UNL A   1      43.943  32.624  32.989  1.00  0.00     0.009 A 
ATOM     60  C   UNL A   1      44.674  33.351  30.800  1.00  0.00     0.009 A 
ATOM     61  C   UNL A   1      44.166  33.909  33.488  1.00  0.00     0.001 A 
ATOM     62  C   UNL A   1      44.921  34.628  31.309  1.00  0.00     0.001 A 
ATOM     63  C   UNL A   1      44.658  34.909  32.649  1.00  0.00     0.000 A 
ENDBRANCH  44  58
BRANCH  45  64
ATOM     64  C   UNL A   1      42.187  23.461  27.607  1.00  0.00    -0.014 A 
ATOM     65  C   UNL A   1      42.493  23.227  26.257  1.00  0.00     0.009 A 
ATOM     66  C   UNL A   1      41.614  22.427  28.364  1.00  0.00     0.009 A 
ATOM     67  C   UNL A   1      42.210  21.991  25.673  1.00  0.00     0.001 A 
ATOM     68  C   UNL A   1      41.355  21.185  27.782  1.00  0.00     0.001 A 
ATOM     69  C   UNL A   1      41.645  20.971  26.435  1.00  0.00     0.000 A 
ENDBRANCH  45  64
BRANCH  57  70
ATOM     70  C   UNL A   1      47.813  26.181  30.652  1.00  0.00    -0.014 A 
ATOM     71  C   UNL A   1      48.140  25.703  31.930  1.00  0.00     0.009 A 
ATOM     72  C   UNL A   1      48.772  26.108  29.630  1.00  0.00     0.009 A 
ATOM     73  C   UNL A   1      49.414  25.191  32.186  1.00  0.00     0.001 A 
ATOM     74  C   UNL A   1      50.036  25.574  29.883  1.00  0.00     0.001 A 
ATOM     75  C   UNL A   1      50.359  25.125  31.163  1.00  0.00     0.000 A 
ENDBRANCH  57  70
ENDBRANCH  31  32
ENDBRANCH  23  26
ENDBRANCH  21  22
ENDBRANCH   1  21
TORSDOF 12
ENDMDL
MODEL 3
REMARK VINA RESULT:     -10.6      3.210      5.552
REMARK SMILES C[C@H]1[C@H](C(=O)NCCCNC(=O)c2ccc(-c3c4nc(c(-c5ccccc5)c5ccc([nH]5)c(-c5ccccc5)c5nc(c(-c6ccccc6)c6ccc3[nH]6)C=C5)C=C4)cc2)CCN1C(=O)[C@H]1CC=CCC1
REMARK SMILES IDX 8 1 7 2 6 3 4 4 5 5 3 7 1 8 2 9 63 10 61 11 62 12 64 13
REMARK SMILES IDX 65 14 66 15 67 16 71 17 68 18 70 19 69 20 9 21 10 22 11 23
REMARK SMILES IDX 12 25 13 26 14 27 60 28 15 29 59 30 16 31 17 32 18 33 53 34
REMARK SMILES IDX 19 35 58 36 52 37 54 38 20 39 57 40 51 41 50 42 21 44 43 45
REMARK SMILES IDX 28 46 42 47 29 48 32 49 41 50 55 51 30 52 31 53 40 55 56 56
REMARK SMILES IDX 33 57 22 58 23 59 27 60 24 61 26 62 25 63 44 64 45 65 49 66
REMARK SMILES IDX 46 67 48 68 47 69 34 70 35 71 39 72 36 73 38 74 37 75
REMARK H PARENT 6 6 10 24 54 43 32 54
REMARK Flexibility Score: inf
ROOT
ATOM      1  C   UNL A   1      31.451  32.109  26.878  1.00  0.00     0.042 C 
ENDROOT
BRANCH   1   2
ATOM      2  C   UNL A   1      31.730  30.746  26.258  1.00  0.00     0.117 C 
BRANCH   2   3
ATOM      3  N   UNL A   1      31.623  29.663  27.222  1.00  0.00    -0.356 N 
ATOM      4  C   UNL A   1      31.655  28.315  27.113  1.00  0.00     0.225 C 
ATOM      5  O   UNL A   1      31.535  27.685  28.171  1.00  0.00    -0.275 OA
ATOM      6  H   UNL A   1      31.500  29.976  28.148  1.00  0.00     0.163 HD
BRANCH   4   7
ATOM      7  C   UNL A   1      31.770  27.547  25.808  1.00  0.00     0.102 C 
ATOM      8  C   UNL A   1      30.021  26.358  24.487  1.00  0.00     0.032 C 
ATOM      9  C   UNL A   1      30.547  27.739  24.897  1.00  0.00     0.094 C 
ATOM     10  N   UNL A   1      31.053  28.491  23.752  1.00  0.00    -0.339 N 
ATOM     11  C   UNL A   1      33.004  27.797  24.946  1.00  0.00     0.037 C 
ATOM     12  C   UNL A   1      32.476  28.227  23.584  1.00  0.00     0.120 C 
BRANCH  10  13
ATOM     13  C   UNL A   1      30.420  29.307  22.842  1.00  0.00     0.226 C 
ATOM     14  O   UNL A   1      30.998  29.566  21.774  1.00  0.00    -0.275 OA
BRANCH  13  15
ATOM     15  C   UNL A   1      29.052  29.979  23.066  1.00  0.00     0.083 C 
ATOM     16  C   UNL A   1      29.034  31.311  23.813  1.00  0.00     0.040 C 
ATOM     17  C   UNL A   1      28.079  29.902  21.885  1.00  0.00     0.018 C 
ATOM     18  C   UNL A   1      28.671  32.507  22.985  1.00  0.00    -0.030 C 
ATOM     19  C   UNL A   1      27.996  31.146  21.002  1.00  0.00     0.028 C 
ATOM     20  C   UNL A   1      28.207  32.434  21.731  1.00  0.00    -0.031 C 
ENDBRANCH  13  15
ENDBRANCH  10  13
ENDBRANCH   4   7
ENDBRANCH   2   3
ENDBRANCH   1   2
BRANCH   1  21
ATOM     21  C   UNL A   1      32.632  33.070  26.924  1.00  0.00     0.118 C 
BRANCH  21  22
ATOM     22  N   UNL A   1      32.430  34.168  27.852  1.00  0.00    -0.352 N 
ATOM     23  C   UNL A   1      33.155  34.545  28.955  1.00  0.00     0.251 C 
ATOM     24  H   UNL A   1      31.646  34.731  27.660  1.00  0.00     0.163 HD
ATOM     25  O   UNL A   1      32.695  35.408  29.703  1.00  0.00    -0.269 OA
BRANCH  23  26
ATOM     26  C   UNL A   1      34.466  33.930  29.281  1.00  0.00     0.039 A 
ATOM     27  C   UNL A   1      34.527  33.022  30.343  1.00  0.00     0.014 A 
ATOM     28  C   UNL A   1      35.644  34.280  28.615  1.00  0.00     0.014 A 
ATOM     29  C   UNL A   1      35.746  32.438  30.705  1.00  0.00     0.010 A 
ATOM     30  C   UNL A   1      36.846  33.637  28.921  1.00  0.00     0.010 A 
ATOM     31  C   UNL A   1      36.915  32.721  29.981  1.00  0.00    -0.014 A 
BRANCH  31  32
ATOM     32  C   UNL A   1      38.211  32.090  30.348  1.00  0.00     0.031 A 
ATOM     33  C   UNL A   1      39.138  32.756  31.331  1.00  0.00     0.074 A 
ATOM     34  C   UNL A   1      38.579  30.927  29.776  1.00  0.00     0.049 A 
ATOM     35  N   UNL A   1      40.312  32.361  31.758  1.00  0.00    -0.248 NA
ATOM     36  C   UNL A   1      38.700  34.045  31.890  1.00  0.00     0.031 C 
ATOM     37  C   UNL A   1      37.803  30.189  28.777  1.00  0.00     0.029 A 
ATOM     38  N   UNL A   1      39.704  30.159  29.955  1.00  0.00    -0.354 N 
ATOM     39  C   UNL A   1      40.757  33.357  32.619  1.00  0.00     0.074 A 
ATOM     40  C   UNL A   1      39.750  34.396  32.618  1.00  0.00     0.031 C 
ATOM     41  C   UNL A   1      38.460  29.063  28.455  1.00  0.00     0.029 A 
ATOM     42  C   UNL A   1      39.715  29.013  29.200  1.00  0.00     0.049 A 
ATOM     43  H   UNL A   1      40.433  30.408  30.568  1.00  0.00     0.167 HD
ATOM     44  C   UNL A   1      41.890  33.400  33.361  1.00  0.00     0.031 A 
ATOM     45  C   UNL A   1      40.627  28.026  29.115  1.00  0.00     0.031 A 
ATOM     46  C   UNL A   1      42.890  32.366  33.387  1.00  0.00     0.049 A 
ATOM     47  C   UNL A   1      41.869  28.087  29.959  1.00  0.00     0.074 A 
ATOM     48  C   UNL A   1      44.044  32.300  34.149  1.00  0.00     0.029 A 
ATOM     49  N   UNL A   1      42.853  31.215  32.616  1.00  0.00    -0.354 N 
ATOM     50  N   UNL A   1      42.243  29.010  30.811  1.00  0.00    -0.248 NA
ATOM     51  C   UNL A   1      42.806  26.962  29.837  1.00  0.00     0.031 C 
ATOM     52  C   UNL A   1      44.724  31.125  33.813  1.00  0.00     0.029 A 
ATOM     53  C   UNL A   1      43.972  30.439  32.874  1.00  0.00     0.049 A 
ATOM     54  H   UNL A   1      42.138  30.983  31.981  1.00  0.00     0.167 HD
ATOM     55  C   UNL A   1      43.448  28.568  31.340  1.00  0.00     0.074 A 
ATOM     56  C   UNL A   1      43.733  27.287  30.728  1.00  0.00     0.031 C 
ATOM     57  C   UNL A   1      44.248  29.171  32.253  1.00  0.00     0.031 A 
BRANCH  44  58
ATOM     58  C   UNL A   1      42.106  34.619  34.215  1.00  0.00    -0.014 A 
ATOM     59  C   UNL A   1      41.715  34.638  35.563  1.00  0.00     0.009 A 
ATOM     60  C   UNL A   1      42.733  35.751  33.672  1.00  0.00     0.009 A 
ATOM     61  C   UNL A   1      41.913  35.780  36.340  1.00  0.00     0.001 A 
ATOM     62  C   UNL A   1      42.955  36.883  34.459  1.00  0.00     0.001 A 
ATOM     63  C   UNL A   1      42.536  36.900  35.789  1.00  0.00     0.000 A 
ENDBRANCH  44  58
BRANCH  45  64
ATOM     64  C   UNL A   1      40.391  26.876  28.207  1.00  0.00    -0.014 A 
ATOM     65  C   UNL A   1      39.641  25.771  28.639  1.00  0.00     0.009 A 
ATOM     66  C   UNL A   1      40.911  26.878  26.903  1.00  0.00     0.009 A 
ATOM     67  C   UNL A   1      39.437  24.681  27.792  1.00  0.00     0.001 A 
ATOM     68  C   UNL A   1      40.683  25.797  26.050  1.00  0.00     0.001 A 
ATOM     69  C   UNL A   1      39.954  24.696  26.497  1.00  0.00     0.000 A 
ENDBRANCH  45  64
BRANCH  57  70
ATOM     70  C   UNL A   1      45.497  28.441  32.657  1.00  0.00    -0.014 A 
ATOM     71  C   UNL A   1      45.489  27.527  33.722  1.00  0.00     0.009 A 
ATOM     72  C   UNL A   1      46.689  28.652  31.948  1.00  0.00     0.009 A 
ATOM     73  C   UNL A   1      46.661  26.862  34.088  1.00  0.00     0.001 A 
ATOM     74  C   UNL A   1      47.853  27.968  32.301  1.00  0.00     0.001 A 
ATOM     75  C   UNL A   1      47.840  27.080  33.377  1.00  0.00     0.000 A 
ENDBRANCH  57  70
ENDBRANCH  31  32
ENDBRANCH  23  26
ENDBRANCH  21  22
ENDBRANCH   1  21
TORSDOF 12
ENDMDL
