MODEL 1
REMARK VINA RESULT:     -10.8      0.000      0.000
REMARK SMILES CC(C)C[C@H](NC(=O)[C@H]1N2C(=O)c3ccccc3[C@@H]2SC1(C)C)C(=O)N[C@@H](C)C(=O)NCCCNC(=O)c1ccc(-c2c3nc(c(-c4ccccc4)c4ccc([nH]4)c(-c4ccccc4)c4nc(c(-c5ccccc5)c5ccc2[nH]5)C=C4)C=C3)cc1
REMARK SMILES IDX 32 1 31 2 29 3 30 4 27 6 28 7 26 8 24 9 25 10 5 12 4 13 2 14
REMARK SMILES IDX 1 15 3 16 6 17 7 18 8 20 9 21 10 22 21 23 11 24 19 25 20 26
REMARK SMILES IDX 22 27 23 28 12 29 13 30 18 31 14 32 17 33 15 34 16 35 33 36
REMARK SMILES IDX 34 37 35 38 36 39 37 41 38 42 39 43 85 44 40 45 84 46 41 47
REMARK SMILES IDX 42 48 43 49 78 50 44 51 83 52 77 53 79 54 45 55 82 56 76 57
REMARK SMILES IDX 75 58 46 60 68 61 53 62 67 63 54 64 57 65 66 66 80 67 55 68
REMARK SMILES IDX 56 69 65 71 81 72 58 73 47 74 48 75 52 76 49 77 51 78 50 79
REMARK SMILES IDX 69 80 70 81 74 82 71 83 73 84 72 85 59 86 60 87 64 88 61 89
REMARK SMILES IDX 63 90 62 91
REMARK H PARENT 31 5 26 11 6 19 35 40 79 59 57 70
REMARK Flexibility Score: inf
ROOT
ATOM      1  C   UNL A   1      43.856  21.786  25.639  1.00  0.00     0.117 C 
ENDROOT
BRANCH   1   2
ATOM      2  N   UNL A   1      43.144  20.537  25.452  1.00  0.00    -0.354 N 
ATOM      3  C   UNL A   1      41.997  20.122  26.047  1.00  0.00     0.242 C 
ATOM      4  O   UNL A   1      41.915  18.923  26.325  1.00  0.00    -0.273 OA
ATOM      5  H   UNL A   1      43.544  19.909  24.810  1.00  0.00     0.163 HD
BRANCH   3   6
ATOM      6  C   UNL A   1      40.875  21.099  26.415  1.00  0.00     0.168 C 
ATOM      7  C   UNL A   1      40.981  21.635  27.836  1.00  0.00     0.041 C 
BRANCH   6   8
ATOM      8  N   UNL A   1      39.548  20.571  26.126  1.00  0.00    -0.343 N 
ATOM      9  C   UNL A   1      38.413  21.208  25.728  1.00  0.00     0.243 C 
ATOM     10  O   UNL A   1      37.427  20.498  25.507  1.00  0.00    -0.273 OA
ATOM     11  H   UNL A   1      39.458  19.596  26.236  1.00  0.00     0.164 HD
BRANCH   9  12
ATOM     12  C   UNL A   1      38.358  22.737  25.478  1.00  0.00     0.171 C 
BRANCH  12  13
ATOM     13  C   UNL A   1      38.323  23.601  26.739  1.00  0.00     0.038 C 
BRANCH  13  14
ATOM     14  C   UNL A   1      39.102  24.925  26.878  1.00  0.00    -0.015 C 
ATOM     15  C   UNL A   1      39.416  25.297  28.325  1.00  0.00     0.007 C 
ATOM     16  C   UNL A   1      40.445  24.793  26.132  1.00  0.00     0.007 C 
ENDBRANCH  13  14
ENDBRANCH  12  13
BRANCH  12  17
ATOM     17  N   UNL A   1      37.399  23.015  24.358  1.00  0.00    -0.342 N 
ATOM     18  C   UNL A   1      36.162  23.407  23.989  1.00  0.00     0.244 C 
ATOM     19  H   UNL A   1      37.888  22.828  23.524  1.00  0.00     0.164 HD
ATOM     20  O   UNL A   1      36.095  23.535  22.750  1.00  0.00    -0.273 OA
BRANCH  18  21
ATOM     21  C   UNL A   1      34.824  23.539  24.779  1.00  0.00     0.191 C 
ATOM     22  N   UNL A   1      34.095  24.705  24.296  1.00  0.00    -0.309 N 
ATOM     23  C   UNL A   1      33.787  22.402  24.944  1.00  0.00     0.042 C 
ATOM     24  C   UNL A   1      33.900  25.914  24.939  1.00  0.00     0.256 C 
ATOM     25  C   UNL A   1      33.101  24.440  23.305  1.00  0.00     0.176 C 
ATOM     26  S   UNL A   1      32.303  22.942  23.928  1.00  0.00    -0.123 SA
ATOM     27  C   UNL A   1      34.319  21.003  24.627  1.00  0.00     0.026 C 
ATOM     28  C   UNL A   1      33.227  22.351  26.382  1.00  0.00     0.026 C 
ATOM     29  O   UNL A   1      34.457  26.349  25.920  1.00  0.00    -0.269 OA
ATOM     30  C   UNL A   1      32.805  26.589  24.211  1.00  0.00     0.046 A 
ATOM     31  C   UNL A   1      32.327  25.704  23.246  1.00  0.00    -0.002 A 
ATOM     32  C   UNL A   1      32.331  27.883  24.329  1.00  0.00     0.014 A 
ATOM     33  C   UNL A   1      31.402  26.125  22.304  1.00  0.00     0.007 A 
ATOM     34  C   UNL A   1      31.385  28.307  23.391  1.00  0.00     0.001 A 
ATOM     35  C   UNL A   1      30.939  27.441  22.375  1.00  0.00     0.000 A 
ENDBRANCH  18  21
ENDBRANCH  12  17
ENDBRANCH   9  12
ENDBRANCH   6   8
ENDBRANCH   3   6
ENDBRANCH   1   2
BRANCH   1  36
ATOM     36  C   UNL A   1      43.809  22.626  24.366  1.00  0.00     0.042 C 
BRANCH  36  37
ATOM     37  C   UNL A   1      43.912  24.127  24.627  1.00  0.00     0.118 C 
BRANCH  37  38
ATOM     38  N   UNL A   1      45.289  24.567  24.824  1.00  0.00    -0.352 N 
ATOM     39  C   UNL A   1      45.784  25.609  25.570  1.00  0.00     0.251 C 
ATOM     40  H   UNL A   1      45.968  24.035  24.349  1.00  0.00     0.163 HD
ATOM     41  O   UNL A   1      46.946  25.974  25.430  1.00  0.00    -0.269 OA
BRANCH  39  42
ATOM     42  C   UNL A   1      44.891  26.304  26.513  1.00  0.00     0.039 A 
ATOM     43  C   UNL A   1      44.864  27.697  26.542  1.00  0.00     0.014 A 
ATOM     44  C   UNL A   1      44.111  25.561  27.401  1.00  0.00     0.014 A 
ATOM     45  C   UNL A   1      44.230  28.344  27.591  1.00  0.00     0.010 A 
ATOM     46  C   UNL A   1      43.379  26.221  28.390  1.00  0.00     0.010 A 
ATOM     47  C   UNL A   1      43.480  27.615  28.529  1.00  0.00    -0.014 A 
BRANCH  47  48
ATOM     48  C   UNL A   1      42.820  28.338  29.644  1.00  0.00     0.031 A 
ATOM     49  C   UNL A   1      41.430  28.890  29.488  1.00  0.00     0.074 A 
ATOM     50  C   UNL A   1      43.458  28.432  30.827  1.00  0.00     0.049 A 
ATOM     51  N   UNL A   1      40.696  29.525  30.367  1.00  0.00    -0.248 NA
ATOM     52  C   UNL A   1      40.772  28.711  28.182  1.00  0.00     0.031 C 
ATOM     53  C   UNL A   1      44.797  27.906  31.105  1.00  0.00     0.029 A 
ATOM     54  N   UNL A   1      43.057  28.966  32.025  1.00  0.00    -0.354 N 
ATOM     55  C   UNL A   1      39.509  29.839  29.718  1.00  0.00     0.074 A 
ATOM     56  C   UNL A   1      39.625  29.351  28.361  1.00  0.00     0.031 C 
ATOM     57  C   UNL A   1      45.076  28.079  32.403  1.00  0.00     0.029 A 
ATOM     58  C   UNL A   1      43.977  28.804  33.032  1.00  0.00     0.049 A 
ATOM     59  H   UNL A   1      42.193  29.422  32.150  1.00  0.00     0.167 HD
ATOM     60  C   UNL A   1      38.416  30.466  30.213  1.00  0.00     0.031 A 
ATOM     61  C   UNL A   1      43.954  29.205  34.316  1.00  0.00     0.031 A 
ATOM     62  C   UNL A   1      38.302  30.933  31.570  1.00  0.00     0.049 A 
ATOM     63  C   UNL A   1      42.755  29.950  34.823  1.00  0.00     0.074 A 
ATOM     64  C   UNL A   1      37.226  31.566  32.169  1.00  0.00     0.029 A 
ATOM     65  N   UNL A   1      39.288  30.816  32.537  1.00  0.00    -0.354 N 
ATOM     66  N   UNL A   1      41.641  30.238  34.195  1.00  0.00    -0.248 NA
ATOM     67  C   UNL A   1      42.807  30.428  36.211  1.00  0.00     0.031 C 
ATOM     68  C   UNL A   1      37.587  31.891  33.478  1.00  0.00     0.029 A 
ATOM     69  C   UNL A   1      38.858  31.393  33.719  1.00  0.00     0.049 A 
ATOM     70  H   UNL A   1      40.164  30.387  32.402  1.00  0.00     0.167 HD
ATOM     71  C   UNL A   1      40.855  30.921  35.112  1.00  0.00     0.074 A 
ATOM     72  C   UNL A   1      41.609  30.984  36.347  1.00  0.00     0.031 C 
ATOM     73  C   UNL A   1      39.619  31.451  34.940  1.00  0.00     0.031 A 
BRANCH  60  74
ATOM     74  C   UNL A   1      37.251  30.706  29.292  1.00  0.00    -0.014 A 
ATOM     75  C   UNL A   1      37.042  31.989  28.756  1.00  0.00     0.009 A 
ATOM     76  C   UNL A   1      36.304  29.704  29.035  1.00  0.00     0.009 A 
ATOM     77  C   UNL A   1      35.902  32.267  28.000  1.00  0.00     0.001 A 
ATOM     78  C   UNL A   1      35.179  29.977  28.253  1.00  0.00     0.001 A 
ATOM     79  C   UNL A   1      34.973  31.260  27.747  1.00  0.00     0.000 A 
ENDBRANCH  60  74
BRANCH  61  80
ATOM     80  C   UNL A   1      45.115  28.900  35.193  1.00  0.00    -0.014 A 
ATOM     81  C   UNL A   1      46.214  29.774  35.251  1.00  0.00     0.009 A 
ATOM     82  C   UNL A   1      45.166  27.703  35.922  1.00  0.00     0.009 A 
ATOM     83  C   UNL A   1      47.352  29.440  35.987  1.00  0.00     0.001 A 
ATOM     84  C   UNL A   1      46.292  27.387  36.687  1.00  0.00     0.001 A 
ATOM     85  C   UNL A   1      47.388  28.249  36.708  1.00  0.00     0.000 A 
ENDBRANCH  61  80
BRANCH  73  86
ATOM     86  C   UNL A   1      38.983  32.143  36.113  1.00  0.00    -0.014 A 
ATOM     87  C   UNL A   1      38.110  31.430  36.951  1.00  0.00     0.009 A 
ATOM     88  C   UNL A   1      39.155  33.520  36.321  1.00  0.00     0.009 A 
ATOM     89  C   UNL A   1      37.404  32.087  37.960  1.00  0.00     0.001 A 
ATOM     90  C   UNL A   1      38.470  34.168  37.352  1.00  0.00     0.001 A 
ATOM     91  C   UNL A   1      37.587  33.453  38.162  1.00  0.00     0.000 A 
ENDBRANCH  73  86
ENDBRANCH  47  48
ENDBRANCH  39  42
ENDBRANCH  37  38
ENDBRANCH  36  37
ENDBRANCH   1  36
TORSDOF 16
ENDMDL
MODEL 2
REMARK VINA RESULT:     -10.5      4.011      9.790
REMARK SMILES CC(C)C[C@H](NC(=O)[C@H]1N2C(=O)c3ccccc3[C@@H]2SC1(C)C)C(=O)N[C@@H](C)C(=O)NCCCNC(=O)c1ccc(-c2c3nc(c(-c4ccccc4)c4ccc([nH]4)c(-c4ccccc4)c4nc(c(-c5ccccc5)c5ccc2[nH]5)C=C4)C=C3)cc1
REMARK SMILES IDX 32 1 31 2 29 3 30 4 27 6 28 7 26 8 24 9 25 10 5 12 4 13 2 14
REMARK SMILES IDX 1 15 3 16 6 17 7 18 8 20 9 21 10 22 21 23 11 24 19 25 20 26
REMARK SMILES IDX 22 27 23 28 12 29 13 30 18 31 14 32 17 33 15 34 16 35 33 36
REMARK SMILES IDX 34 37 35 38 36 39 37 41 38 42 39 43 85 44 40 45 84 46 41 47
REMARK SMILES IDX 42 48 43 49 78 50 44 51 83 52 77 53 79 54 45 55 82 56 76 57
REMARK SMILES IDX 75 58 46 60 68 61 53 62 67 63 54 64 57 65 66 66 80 67 55 68
REMARK SMILES IDX 56 69 65 71 81 72 58 73 47 74 48 75 52 76 49 77 51 78 50 79
REMARK SMILES IDX 69 80 70 81 74 82 71 83 73 84 72 85 59 86 60 87 64 88 61 89
REMARK SMILES IDX 63 90 62 91
REMARK H PARENT 31 5 26 11 6 19 35 40 79 59 57 70
REMARK Flexibility Score: inf
ROOT
ATOM      1  C   UNL A   1      33.887  33.113  28.229  1.00  0.00     0.117 C 
ENDROOT
BRANCH   1   2
ATOM      2  N   UNL A   1      34.710  32.064  27.659  1.00  0.00    -0.354 N 
ATOM      3  C   UNL A   1      34.363  30.789  27.355  1.00  0.00     0.242 C 
ATOM      4  O   UNL A   1      35.213  29.917  27.550  1.00  0.00    -0.273 OA
ATOM      5  H   UNL A   1      35.643  32.311  27.467  1.00  0.00     0.163 HD
BRANCH   3   6
ATOM      6  C   UNL A   1      32.961  30.428  26.850  1.00  0.00     0.168 C 
ATOM      7  C   UNL A   1      32.056  31.639  26.659  1.00  0.00     0.041 C 
BRANCH   6   8
ATOM      8  N   UNL A   1      32.323  29.387  27.644  1.00  0.00    -0.343 N 
ATOM      9  C   UNL A   1      31.754  28.211  27.264  1.00  0.00     0.243 C 
ATOM     10  O   UNL A   1      31.323  27.486  28.166  1.00  0.00    -0.273 OA
ATOM     11  H   UNL A   1      32.300  29.563  28.614  1.00  0.00     0.164 HD
BRANCH   9  12
ATOM     12  C   UNL A   1      31.712  27.745  25.786  1.00  0.00     0.171 C 
BRANCH  12  13
ATOM     13  C   UNL A   1      31.145  28.766  24.798  1.00  0.00     0.038 C 
BRANCH  13  14
ATOM     14  C   UNL A   1      30.620  28.386  23.399  1.00  0.00    -0.015 C 
ATOM     15  C   UNL A   1      29.273  29.020  23.063  1.00  0.00     0.007 C 
ATOM     16  C   UNL A   1      31.633  28.864  22.340  1.00  0.00     0.007 C 
ENDBRANCH  13  14
ENDBRANCH  12  13
BRANCH  12  17
ATOM     17  N   UNL A   1      31.242  26.320  25.736  1.00  0.00    -0.342 N 
ATOM     18  C   UNL A   1      31.573  25.012  25.729  1.00  0.00     0.244 C 
ATOM     19  H   UNL A   1      30.260  26.355  25.685  1.00  0.00     0.164 HD
ATOM     20  O   UNL A   1      30.550  24.303  25.802  1.00  0.00    -0.273 OA
BRANCH  18  21
ATOM     21  C   UNL A   1      32.921  24.272  25.470  1.00  0.00     0.191 C 
ATOM     22  N   UNL A   1      32.660  22.849  25.291  1.00  0.00    -0.309 N 
ATOM     23  C   UNL A   1      33.950  24.675  24.387  1.00  0.00     0.042 C 
ATOM     24  C   UNL A   1      32.948  21.815  26.164  1.00  0.00     0.256 C 
ATOM     25  C   UNL A   1      32.540  22.412  23.937  1.00  0.00     0.176 C 
ATOM     26  S   UNL A   1      33.880  23.301  23.110  1.00  0.00    -0.123 SA
ATOM     27  C   UNL A   1      33.770  26.090  23.832  1.00  0.00     0.026 C 
ATOM     28  C   UNL A   1      35.396  24.586  24.919  1.00  0.00     0.026 C 
ATOM     29  O   UNL A   1      33.267  21.872  27.328  1.00  0.00    -0.269 OA
ATOM     30  C   UNL A   1      32.840  20.573  25.370  1.00  0.00     0.046 A 
ATOM     31  C   UNL A   1      32.606  20.934  24.044  1.00  0.00    -0.002 A 
ATOM     32  C   UNL A   1      32.861  19.254  25.784  1.00  0.00     0.014 A 
ATOM     33  C   UNL A   1      32.302  19.971  23.096  1.00  0.00     0.007 A 
ATOM     34  C   UNL A   1      32.572  18.276  24.828  1.00  0.00     0.001 A 
ATOM     35  C   UNL A   1      32.275  18.633  23.499  1.00  0.00     0.000 A 
ENDBRANCH  18  21
ENDBRANCH  12  17
ENDBRANCH   9  12
ENDBRANCH   6   8
ENDBRANCH   3   6
ENDBRANCH   1   2
BRANCH   1  36
ATOM     36  C   UNL A   1      34.374  33.478  29.628  1.00  0.00     0.042 C 
BRANCH  36  37
ATOM     37  C   UNL A   1      34.643  32.262  30.512  1.00  0.00     0.118 C 
BRANCH  37  38
ATOM     38  N   UNL A   1      35.092  32.631  31.850  1.00  0.00    -0.352 N 
ATOM     39  C   UNL A   1      36.214  32.246  32.542  1.00  0.00     0.251 C 
ATOM     40  H   UNL A   1      34.499  33.253  32.331  1.00  0.00     0.163 HD
ATOM     41  O   UNL A   1      36.310  32.470  33.743  1.00  0.00    -0.269 OA
BRANCH  39  42
ATOM     42  C   UNL A   1      37.286  31.529  31.829  1.00  0.00     0.039 A 
ATOM     43  C   UNL A   1      38.196  30.754  32.546  1.00  0.00     0.014 A 
ATOM     44  C   UNL A   1      37.406  31.666  30.445  1.00  0.00     0.014 A 
ATOM     45  C   UNL A   1      39.344  30.297  31.918  1.00  0.00     0.010 A 
ATOM     46  C   UNL A   1      38.507  31.105  29.793  1.00  0.00     0.010 A 
ATOM     47  C   UNL A   1      39.515  30.467  30.534  1.00  0.00    -0.014 A 
BRANCH  47  48
ATOM     48  C   UNL A   1      40.759  29.972  29.894  1.00  0.00     0.031 A 
ATOM     49  C   UNL A   1      40.841  28.572  29.351  1.00  0.00     0.074 A 
ATOM     50  C   UNL A   1      41.795  30.820  29.743  1.00  0.00     0.049 A 
ATOM     51  N   UNL A   1      41.840  27.987  28.740  1.00  0.00    -0.248 NA
ATOM     52  C   UNL A   1      39.655  27.713  29.509  1.00  0.00     0.031 C 
ATOM     53  C   UNL A   1      41.817  32.211  30.202  1.00  0.00     0.029 A 
ATOM     54  N   UNL A   1      43.011  30.653  29.130  1.00  0.00    -0.354 N 
ATOM     55  C   UNL A   1      41.414  26.693  28.464  1.00  0.00     0.074 A 
ATOM     56  C   UNL A   1      40.076  26.565  28.997  1.00  0.00     0.031 C 
ATOM     57  C   UNL A   1      42.954  32.790  29.794  1.00  0.00     0.029 A 
ATOM     58  C   UNL A   1      43.780  31.792  29.122  1.00  0.00     0.049 A 
ATOM     59  H   UNL A   1      43.304  29.800  28.735  1.00  0.00     0.167 HD
ATOM     60  C   UNL A   1      42.076  25.708  27.814  1.00  0.00     0.031 A 
ATOM     61  C   UNL A   1      45.017  32.013  28.642  1.00  0.00     0.031 A 
ATOM     62  C   UNL A   1      43.401  25.850  27.271  1.00  0.00     0.049 A 
ATOM     63  C   UNL A   1      45.751  30.885  27.979  1.00  0.00     0.074 A 
ATOM     64  C   UNL A   1      44.148  24.910  26.581  1.00  0.00     0.029 A 
ATOM     65  N   UNL A   1      44.175  26.996  27.352  1.00  0.00    -0.354 N 
ATOM     66  N   UNL A   1      45.333  29.669  27.727  1.00  0.00    -0.248 NA
ATOM     67  C   UNL A   1      47.126  31.155  27.536  1.00  0.00     0.031 C 
ATOM     68  C   UNL A   1      45.398  25.467  26.303  1.00  0.00     0.029 A 
ATOM     69  C   UNL A   1      45.403  26.779  26.751  1.00  0.00     0.049 A 
ATOM     70  H   UNL A   1      43.893  27.841  27.774  1.00  0.00     0.167 HD
ATOM     71  C   UNL A   1      46.386  29.031  27.086  1.00  0.00     0.074 A 
ATOM     72  C   UNL A   1      47.454  30.002  26.968  1.00  0.00     0.031 C 
ATOM     73  C   UNL A   1      46.458  27.753  26.642  1.00  0.00     0.031 A 
BRANCH  60  74
ATOM     74  C   UNL A   1      41.396  24.375  27.657  1.00  0.00    -0.014 A 
ATOM     75  C   UNL A   1      41.849  23.272  28.403  1.00  0.00     0.009 A 
ATOM     76  C   UNL A   1      40.386  24.177  26.705  1.00  0.00     0.009 A 
ATOM     77  C   UNL A   1      41.318  22.000  28.185  1.00  0.00     0.001 A 
ATOM     78  C   UNL A   1      39.835  22.908  26.510  1.00  0.00     0.001 A 
ATOM     79  C   UNL A   1      40.309  21.819  27.241  1.00  0.00     0.000 A 
ENDBRANCH  60  74
BRANCH  61  80
ATOM     80  C   UNL A   1      45.621  33.364  28.786  1.00  0.00    -0.014 A 
ATOM     81  C   UNL A   1      46.443  33.665  29.886  1.00  0.00     0.009 A 
ATOM     82  C   UNL A   1      45.326  34.380  27.866  1.00  0.00     0.009 A 
ATOM     83  C   UNL A   1      46.923  34.960  30.083  1.00  0.00     0.001 A 
ATOM     84  C   UNL A   1      45.838  35.668  28.046  1.00  0.00     0.001 A 
ATOM     85  C   UNL A   1      46.623  35.959  29.160  1.00  0.00     0.000 A 
ENDBRANCH  61  80
BRANCH  73  86
ATOM     86  C   UNL A   1      47.730  27.314  25.971  1.00  0.00    -0.014 A 
ATOM     87  C   UNL A   1      47.809  27.304  24.569  1.00  0.00     0.009 A 
ATOM     88  C   UNL A   1      48.803  26.804  26.717  1.00  0.00     0.009 A 
ATOM     89  C   UNL A   1      48.927  26.770  23.927  1.00  0.00     0.001 A 
ATOM     90  C   UNL A   1      49.934  26.300  26.072  1.00  0.00     0.001 A 
ATOM     91  C   UNL A   1      49.989  26.273  24.678  1.00  0.00     0.000 A 
ENDBRANCH  73  86
ENDBRANCH  47  48
ENDBRANCH  39  42
ENDBRANCH  37  38
ENDBRANCH  36  37
ENDBRANCH   1  36
TORSDOF 16
ENDMDL
MODEL 3
REMARK VINA RESULT:     -10.4      7.842     13.573
REMARK SMILES CC(C)C[C@H](NC(=O)[C@H]1N2C(=O)c3ccccc3[C@@H]2SC1(C)C)C(=O)N[C@@H](C)C(=O)NCCCNC(=O)c1ccc(-c2c3nc(c(-c4ccccc4)c4ccc([nH]4)c(-c4ccccc4)c4nc(c(-c5ccccc5)c5ccc2[nH]5)C=C4)C=C3)cc1
REMARK SMILES IDX 32 1 31 2 29 3 30 4 27 6 28 7 26 8 24 9 25 10 5 12 4 13 2 14
REMARK SMILES IDX 1 15 3 16 6 17 7 18 8 20 9 21 10 22 21 23 11 24 19 25 20 26
REMARK SMILES IDX 22 27 23 28 12 29 13 30 18 31 14 32 17 33 15 34 16 35 33 36
REMARK SMILES IDX 34 37 35 38 36 39 37 41 38 42 39 43 85 44 40 45 84 46 41 47
REMARK SMILES IDX 42 48 43 49 78 50 44 51 83 52 77 53 79 54 45 55 82 56 76 57
REMARK SMILES IDX 75 58 46 60 68 61 53 62 67 63 54 64 57 65 66 66 80 67 55 68
REMARK SMILES IDX 56 69 65 71 81 72 58 73 47 74 48 75 52 76 49 77 51 78 50 79
REMARK SMILES IDX 69 80 70 81 74 82 71 83 73 84 72 85 59 86 60 87 64 88 61 89
REMARK SMILES IDX 63 90 62 91
REMARK H PARENT 31 5 26 11 6 19 35 40 79 59 57 70
REMARK Flexibility Score: inf
ROOT
ATOM      1  C   UNL A   1      45.567  21.797  35.415  1.00  0.00     0.117 C 
ENDROOT
BRANCH   1   2
ATOM      2  N   UNL A   1      46.768  21.006  35.228  1.00  0.00    -0.354 N 
ATOM      3  C   UNL A   1      47.480  20.321  36.157  1.00  0.00     0.242 C 
ATOM      4  O   UNL A   1      48.707  20.312  36.025  1.00  0.00    -0.273 OA
ATOM      5  H   UNL A   1      47.110  20.959  34.307  1.00  0.00     0.163 HD
BRANCH   3   6
ATOM      6  C   UNL A   1      46.808  19.636  37.353  1.00  0.00     0.168 C 
ATOM      7  C   UNL A   1      45.627  18.757  36.961  1.00  0.00     0.041 C 
BRANCH   6   8
ATOM      8  N   UNL A   1      46.468  20.566  38.420  1.00  0.00    -0.343 N 
ATOM      9  C   UNL A   1      46.966  20.681  39.682  1.00  0.00     0.243 C 
ATOM     10  O   UNL A   1      46.521  21.604  40.372  1.00  0.00    -0.273 OA
ATOM     11  H   UNL A   1      45.764  21.218  38.193  1.00  0.00     0.164 HD
BRANCH   9  12
ATOM     12  C   UNL A   1      48.094  19.764  40.220  1.00  0.00     0.171 C 
BRANCH  12  13
ATOM     13  C   UNL A   1      49.467  19.980  39.583  1.00  0.00     0.038 C 
BRANCH  13  14
ATOM     14  C   UNL A   1      50.741  20.272  40.401  1.00  0.00    -0.015 C 
ATOM     15  C   UNL A   1      50.923  21.751  40.734  1.00  0.00     0.007 C 
ATOM     16  C   UNL A   1      50.663  19.504  41.736  1.00  0.00     0.007 C 
ENDBRANCH  13  14
ENDBRANCH  12  13
BRANCH  12  17
ATOM     17  N   UNL A   1      47.557  18.372  40.380  1.00  0.00    -0.342 N 
ATOM     18  C   UNL A   1      46.495  17.585  40.652  1.00  0.00     0.244 C 
ATOM     19  H   UNL A   1      48.313  17.764  40.213  1.00  0.00     0.164 HD
ATOM     20  O   UNL A   1      46.781  16.385  40.468  1.00  0.00    -0.273 OA
BRANCH  18  21
ATOM     21  C   UNL A   1      45.108  17.882  41.301  1.00  0.00     0.191 C 
ATOM     22  N   UNL A   1      44.307  16.664  41.297  1.00  0.00    -0.309 N 
ATOM     23  C   UNL A   1      44.911  18.540  42.688  1.00  0.00     0.042 C 
ATOM     24  C   UNL A   1      43.207  16.371  40.510  1.00  0.00     0.256 C 
ATOM     25  C   UNL A   1      44.340  15.903  42.505  1.00  0.00     0.176 C 
ATOM     26  S   UNL A   1      44.228  17.176  43.783  1.00  0.00    -0.123 SA
ATOM     27  C   UNL A   1      46.147  19.257  43.235  1.00  0.00     0.026 C 
ATOM     28  C   UNL A   1      43.767  19.576  42.665  1.00  0.00     0.026 C 
ATOM     29  O   UNL A   1      42.806  16.945  39.525  1.00  0.00    -0.269 OA
ATOM     30  C   UNL A   1      42.550  15.210  41.146  1.00  0.00     0.046 A 
ATOM     31  C   UNL A   1      43.223  14.941  42.338  1.00  0.00    -0.002 A 
ATOM     32  C   UNL A   1      41.517  14.416  40.685  1.00  0.00     0.014 A 
ATOM     33  C   UNL A   1      42.927  13.804  43.070  1.00  0.00     0.007 A 
ATOM     34  C   UNL A   1      41.203  13.275  41.429  1.00  0.00     0.001 A 
ATOM     35  C   UNL A   1      41.915  12.961  42.601  1.00  0.00     0.000 A 
ENDBRANCH  18  21
ENDBRANCH  12  17
ENDBRANCH   9  12
ENDBRANCH   6   8
ENDBRANCH   3   6
ENDBRANCH   1   2
BRANCH   1  36
ATOM     36  C   UNL A   1      45.235  22.575  34.145  1.00  0.00     0.042 C 
BRANCH  36  37
ATOM     37  C   UNL A   1      46.001  23.890  34.023  1.00  0.00     0.118 C 
BRANCH  37  38
ATOM     38  N   UNL A   1      46.499  24.369  35.308  1.00  0.00    -0.352 N 
ATOM     39  C   UNL A   1      46.250  25.548  35.967  1.00  0.00     0.251 C 
ATOM     40  H   UNL A   1      47.106  23.751  35.776  1.00  0.00     0.163 HD
ATOM     41  O   UNL A   1      46.938  25.881  36.925  1.00  0.00    -0.269 OA
BRANCH  39  42
ATOM     42  C   UNL A   1      45.168  26.425  35.485  1.00  0.00     0.039 A 
ATOM     43  C   UNL A   1      43.839  26.078  35.722  1.00  0.00     0.014 A 
ATOM     44  C   UNL A   1      45.482  27.574  34.758  1.00  0.00     0.014 A 
ATOM     45  C   UNL A   1      42.829  26.754  35.054  1.00  0.00     0.010 A 
ATOM     46  C   UNL A   1      44.455  28.322  34.179  1.00  0.00     0.010 A 
ATOM     47  C   UNL A   1      43.125  27.884  34.273  1.00  0.00    -0.014 A 
BRANCH  47  48
ATOM     48  C   UNL A   1      42.022  28.579  33.565  1.00  0.00     0.031 A 
ATOM     49  C   UNL A   1      41.231  29.663  34.247  1.00  0.00     0.074 A 
ATOM     50  C   UNL A   1      41.782  28.275  32.275  1.00  0.00     0.049 A 
ATOM     51  N   UNL A   1      40.254  30.389  33.768  1.00  0.00    -0.248 NA
ATOM     52  C   UNL A   1      41.577  29.976  35.644  1.00  0.00     0.031 C 
ATOM     53  C   UNL A   1      42.506  27.264  31.501  1.00  0.00     0.029 A 
ATOM     54  N   UNL A   1      40.894  28.808  31.376  1.00  0.00    -0.354 N 
ATOM     55  C   UNL A   1      39.854  31.223  34.804  1.00  0.00     0.074 A 
ATOM     56  C   UNL A   1      40.675  30.898  35.950  1.00  0.00     0.031 C 
ATOM     57  C   UNL A   1      42.085  27.298  30.230  1.00  0.00     0.029 A 
ATOM     58  C   UNL A   1      41.002  28.270  30.116  1.00  0.00     0.049 A 
ATOM     59  H   UNL A   1      40.242  29.507  31.611  1.00  0.00     0.167 HD
ATOM     60  C   UNL A   1      38.899  32.182  34.796  1.00  0.00     0.031 A 
ATOM     61  C   UNL A   1      40.302  28.515  28.993  1.00  0.00     0.031 A 
ATOM     62  C   UNL A   1      38.099  32.511  33.645  1.00  0.00     0.049 A 
ATOM     63  C   UNL A   1      39.209  29.541  29.028  1.00  0.00     0.074 A 
ATOM     64  C   UNL A   1      37.116  33.480  33.536  1.00  0.00     0.029 A 
ATOM     65  N   UNL A   1      38.188  31.889  32.410  1.00  0.00    -0.354 N 
ATOM     66  N   UNL A   1      38.846  30.321  30.017  1.00  0.00    -0.248 NA
ATOM     67  C   UNL A   1      38.427  29.722  27.798  1.00  0.00     0.031 C 
ATOM     68  C   UNL A   1      36.566  33.399  32.255  1.00  0.00     0.029 A 
ATOM     69  C   UNL A   1      37.257  32.432  31.542  1.00  0.00     0.049 A 
ATOM     70  H   UNL A   1      38.820  31.169  32.184  1.00  0.00     0.167 HD
ATOM     71  C   UNL A   1      37.801  31.092  29.527  1.00  0.00     0.074 A 
ATOM     72  C   UNL A   1      37.604  30.703  28.146  1.00  0.00     0.031 C 
ATOM     73  C   UNL A   1      37.070  32.035  30.170  1.00  0.00     0.031 A 
BRANCH  60  74
ATOM     74  C   UNL A   1      38.642  32.945  36.067  1.00  0.00    -0.014 A 
ATOM     75  C   UNL A   1      39.328  34.148  36.305  1.00  0.00     0.009 A 
ATOM     76  C   UNL A   1      37.809  32.431  37.072  1.00  0.00     0.009 A 
ATOM     77  C   UNL A   1      39.201  34.810  37.528  1.00  0.00     0.001 A 
ATOM     78  C   UNL A   1      37.660  33.111  38.284  1.00  0.00     0.001 A 
ATOM     79  C   UNL A   1      38.365  34.292  38.515  1.00  0.00     0.000 A 
ENDBRANCH  60  74
BRANCH  61  80
ATOM     80  C   UNL A   1      40.631  27.762  27.754  1.00  0.00    -0.014 A 
ATOM     81  C   UNL A   1      40.102  26.477  27.538  1.00  0.00     0.009 A 
ATOM     82  C   UNL A   1      41.528  28.289  26.813  1.00  0.00     0.009 A 
ATOM     83  C   UNL A   1      40.493  25.723  26.432  1.00  0.00     0.001 A 
ATOM     84  C   UNL A   1      41.889  27.545  25.687  1.00  0.00     0.001 A 
ATOM     85  C   UNL A   1      41.383  26.259  25.504  1.00  0.00     0.000 A 
ENDBRANCH  61  80
BRANCH  73  86
ATOM     86  C   UNL A   1      35.987  32.733  29.396  1.00  0.00    -0.014 A 
ATOM     87  C   UNL A   1      36.194  34.044  28.939  1.00  0.00     0.009 A 
ATOM     88  C   UNL A   1      34.728  32.140  29.218  1.00  0.00     0.009 A 
ATOM     89  C   UNL A   1      35.154  34.758  28.341  1.00  0.00     0.001 A 
ATOM     90  C   UNL A   1      33.699  32.845  28.590  1.00  0.00     0.001 A 
ATOM     91  C   UNL A   1      33.910  34.157  28.163  1.00  0.00     0.000 A 
ENDBRANCH  73  86
ENDBRANCH  47  48
ENDBRANCH  39  42
ENDBRANCH  37  38
ENDBRANCH  36  37
ENDBRANCH   1  36
TORSDOF 16
ENDMDL
