MODEL 1
REMARK VINA RESULT:     -11.1      0.000      0.000
REMARK SMILES CC(C)C[C@H](NC(=O)[C@@H](NC(=O)N1CC(NCCCNC(=O)c2ccc(-c3c4nc(c(-c5ccccc5)c5ccc([nH]5)c(-c5ccccc5)c5nc(c(-c6ccccc6)c6ccc3[nH]6)C=C5)C=C4)cc2)=[NH+]c2ccccc21)C(C)C)C(=O)[O-]
REMARK SMILES IDX 13 1 14 2 15 3 16 4 71 5 72 6 73 7 74 8 75 9 76 10 77 11
REMARK SMILES IDX 11 14 10 15 12 17 9 18 7 19 6 20 8 22 5 23 4 24 2 25 1 26
REMARK SMILES IDX 3 27 81 28 82 29 83 30 78 31 79 32 80 33 17 34 18 35 19 36
REMARK SMILES IDX 20 37 21 38 22 40 23 41 24 42 70 43 25 44 69 45 26 46 27 47
REMARK SMILES IDX 28 48 63 49 29 50 68 51 62 52 64 53 30 54 67 55 61 56 60 57
REMARK SMILES IDX 31 59 53 60 38 61 52 62 39 63 42 64 51 65 65 66 40 67 41 68
REMARK SMILES IDX 50 70 66 71 43 72 32 73 33 74 37 75 34 76 36 77 35 78 54 79
REMARK SMILES IDX 55 80 59 81 56 82 58 83 57 84 44 85 45 86 49 87 46 88 48 89
REMARK SMILES IDX 47 90
REMARK H PARENT 16 12 71 13 10 16 6 21 20 39 64 58 42 69
REMARK Flexibility Score: inf
ROOT
ATOM      1  N   UNL A   1      34.131  22.141  23.736  1.00  0.00    -0.278 N 
ATOM      2  C   UNL A   1      35.586  21.998  23.904  1.00  0.00     0.255 C 
ATOM      3  C   UNL A   1      35.815  21.321  25.268  1.00  0.00     0.268 C 
ATOM      4  N   UNL A   1      36.818  21.710  26.144  1.00  0.00    -0.277 N 
ATOM      5  N   UNL A   1      35.032  20.335  25.637  1.00  0.00    -0.241 N 
ATOM      6  C   UNL A   1      33.969  19.985  24.756  1.00  0.00     0.148 A 
ATOM      7  C   UNL A   1      33.261  18.803  24.951  1.00  0.00     0.054 A 
ATOM      8  C   UNL A   1      32.171  18.481  24.131  1.00  0.00     0.005 A 
ATOM      9  C   UNL A   1      31.790  19.328  23.088  1.00  0.00     0.002 A 
ATOM     10  C   UNL A   1      32.459  20.531  22.899  1.00  0.00     0.031 A 
ATOM     11  C   UNL A   1      33.511  20.868  23.754  1.00  0.00     0.093 A 
ATOM     12  H   UNL A   1      36.626  21.574  27.100  1.00  0.00     0.304 HD
ATOM     13  H   UNL A   1      35.174  19.857  26.486  1.00  0.00     0.312 HD
ENDROOT
BRANCH   1  14
ATOM     14  C   UNL A   1      33.537  23.212  23.137  1.00  0.00     0.323 C 
ATOM     15  N   UNL A   1      32.790  24.075  23.894  1.00  0.00    -0.326 N 
ATOM     16  H   UNL A   1      32.606  24.915  23.414  1.00  0.00     0.166 HD
ATOM     17  O   UNL A   1      33.667  23.455  21.936  1.00  0.00    -0.248 OA
BRANCH  15  18
ATOM     18  C   UNL A   1      32.180  24.076  25.258  1.00  0.00     0.175 C 
BRANCH  18  19
ATOM     19  C   UNL A   1      30.741  24.647  25.478  1.00  0.00     0.243 C 
ATOM     20  N   UNL A   1      30.087  25.501  24.645  1.00  0.00    -0.346 N 
ATOM     21  H   UNL A   1      29.263  25.141  24.244  1.00  0.00     0.164 HD
ATOM     22  O   UNL A   1      30.069  24.248  26.440  1.00  0.00    -0.273 OA
BRANCH  20  23
ATOM     23  C   UNL A   1      30.418  26.883  24.248  1.00  0.00     0.128 C 
BRANCH  23  24
ATOM     24  C   UNL A   1      31.617  27.484  24.974  1.00  0.00     0.034 C 
BRANCH  24  25
ATOM     25  C   UNL A   1      31.472  28.630  25.997  1.00  0.00    -0.015 C 
ATOM     26  C   UNL A   1      31.779  28.169  27.425  1.00  0.00     0.007 C 
ATOM     27  C   UNL A   1      32.476  29.757  25.712  1.00  0.00     0.007 C 
ENDBRANCH  24  25
ENDBRANCH  23  24
BRANCH  23  28
ATOM     28  C   UNL A   1      30.621  26.946  22.731  1.00  0.00     0.064 C 
ATOM     29  O   UNL A   1      30.289  27.870  21.998  1.00  0.00    -0.548 OA
ATOM     30  O   UNL A   1      31.361  25.922  22.252  1.00  0.00    -0.548 OA
ENDBRANCH  23  28
ENDBRANCH  20  23
ENDBRANCH  18  19
BRANCH  18  31
ATOM     31  C   UNL A   1      33.173  24.222  26.439  1.00  0.00     0.015 C 
ATOM     32  C   UNL A   1      33.529  22.978  27.255  1.00  0.00     0.010 C 
ATOM     33  C   UNL A   1      34.491  24.822  25.918  1.00  0.00     0.010 C 
ENDBRANCH  18  31
ENDBRANCH  15  18
ENDBRANCH   1  14
BRANCH   4  34
ATOM     34  C   UNL A   1      38.116  22.292  25.837  1.00  0.00     0.235 C 
BRANCH  34  35
ATOM     35  C   UNL A   1      39.152  21.255  25.372  1.00  0.00     0.067 C 
BRANCH  35  36
ATOM     36  C   UNL A   1      39.130  19.884  26.040  1.00  0.00     0.120 C 
BRANCH  36  37
ATOM     37  N   UNL A   1      40.389  19.170  25.933  1.00  0.00    -0.352 N 
ATOM     38  C   UNL A   1      41.685  19.596  26.123  1.00  0.00     0.251 C 
ATOM     39  H   UNL A   1      40.303  18.221  25.683  1.00  0.00     0.163 HD
ATOM     40  O   UNL A   1      42.601  18.832  25.824  1.00  0.00    -0.269 OA
BRANCH  38  41
ATOM     41  C   UNL A   1      42.017  20.948  26.650  1.00  0.00     0.039 A 
ATOM     42  C   UNL A   1      42.508  21.906  25.753  1.00  0.00     0.014 A 
ATOM     43  C   UNL A   1      41.931  21.275  28.006  1.00  0.00     0.014 A 
ATOM     44  C   UNL A   1      42.851  23.189  26.196  1.00  0.00     0.010 A 
ATOM     45  C   UNL A   1      42.206  22.579  28.438  1.00  0.00     0.010 A 
ATOM     46  C   UNL A   1      42.669  23.553  27.540  1.00  0.00    -0.014 A 
BRANCH  46  47
ATOM     47  C   UNL A   1      42.947  24.943  28.007  1.00  0.00     0.031 A 
ATOM     48  C   UNL A   1      44.350  25.381  28.341  1.00  0.00     0.074 A 
ATOM     49  C   UNL A   1      41.927  25.811  28.169  1.00  0.00     0.049 A 
ATOM     50  N   UNL A   1      44.768  26.534  28.806  1.00  0.00    -0.248 NA
ATOM     51  C   UNL A   1      45.423  24.395  28.141  1.00  0.00     0.031 C 
ATOM     52  C   UNL A   1      40.516  25.522  27.906  1.00  0.00     0.029 A 
ATOM     53  N   UNL A   1      41.919  27.117  28.601  1.00  0.00    -0.354 N 
ATOM     54  C   UNL A   1      46.144  26.408  28.960  1.00  0.00     0.074 A 
ATOM     55  C   UNL A   1      46.485  25.053  28.585  1.00  0.00     0.031 C 
ATOM     56  C   UNL A   1      39.785  26.620  28.154  1.00  0.00     0.029 A 
ATOM     57  C   UNL A   1      40.664  27.678  28.642  1.00  0.00     0.049 A 
ATOM     58  H   UNL A   1      42.735  27.605  28.856  1.00  0.00     0.167 HD
ATOM     59  C   UNL A   1      47.047  27.338  29.357  1.00  0.00     0.031 A 
ATOM     60  C   UNL A   1      40.259  28.900  29.040  1.00  0.00     0.031 A 
ATOM     61  C   UNL A   1      46.718  28.689  29.731  1.00  0.00     0.049 A 
ATOM     62  C   UNL A   1      41.279  29.895  29.525  1.00  0.00     0.074 A 
ATOM     63  C   UNL A   1      47.573  29.709  30.116  1.00  0.00     0.029 A 
ATOM     64  N   UNL A   1      45.435  29.209  29.770  1.00  0.00    -0.354 N 
ATOM     65  N   UNL A   1      42.581  29.773  29.609  1.00  0.00    -0.248 NA
ATOM     66  C   UNL A   1      40.770  31.204  29.963  1.00  0.00     0.031 C 
ATOM     67  C   UNL A   1      46.802  30.829  30.441  1.00  0.00     0.029 A 
ATOM     68  C   UNL A   1      45.473  30.527  30.195  1.00  0.00     0.049 A 
ATOM     69  H   UNL A   1      44.617  28.715  29.531  1.00  0.00     0.167 HD
ATOM     70  C   UNL A   1      43.048  30.997  30.073  1.00  0.00     0.074 A 
ATOM     71  C   UNL A   1      41.893  31.855  30.231  1.00  0.00     0.031 C 
ATOM     72  C   UNL A   1      44.320  31.377  30.341  1.00  0.00     0.031 A 
BRANCH  59  73
ATOM     73  C   UNL A   1      48.496  26.931  29.409  1.00  0.00    -0.014 A 
ATOM     74  C   UNL A   1      49.033  26.310  30.548  1.00  0.00     0.009 A 
ATOM     75  C   UNL A   1      49.315  27.105  28.283  1.00  0.00     0.009 A 
ATOM     76  C   UNL A   1      50.367  25.896  30.566  1.00  0.00     0.001 A 
ATOM     77  C   UNL A   1      50.639  26.663  28.292  1.00  0.00     0.001 A 
ATOM     78  C   UNL A   1      51.166  26.065  29.437  1.00  0.00     0.000 A 
ENDBRANCH  59  73
BRANCH  60  79
ATOM     79  C   UNL A   1      38.816  29.264  29.013  1.00  0.00    -0.014 A 
ATOM     80  C   UNL A   1      38.010  29.079  30.149  1.00  0.00     0.009 A 
ATOM     81  C   UNL A   1      38.223  29.748  27.836  1.00  0.00     0.009 A 
ATOM     82  C   UNL A   1      36.637  29.329  30.092  1.00  0.00     0.001 A 
ATOM     83  C   UNL A   1      36.856  30.032  27.794  1.00  0.00     0.001 A 
ATOM     84  C   UNL A   1      36.061  29.808  28.916  1.00  0.00     0.000 A 
ENDBRANCH  60  79
BRANCH  72  85
ATOM     85  C   UNL A   1      44.538  32.797  30.787  1.00  0.00    -0.014 A 
ATOM     86  C   UNL A   1      44.540  33.150  32.146  1.00  0.00     0.009 A 
ATOM     87  C   UNL A   1      44.778  33.794  29.828  1.00  0.00     0.009 A 
ATOM     88  C   UNL A   1      44.738  34.477  32.532  1.00  0.00     0.001 A 
ATOM     89  C   UNL A   1      45.010  35.114  30.217  1.00  0.00     0.001 A 
ATOM     90  C   UNL A   1      44.978  35.457  31.569  1.00  0.00     0.000 A 
ENDBRANCH  72  85
ENDBRANCH  46  47
ENDBRANCH  38  41
ENDBRANCH  36  37
ENDBRANCH  35  36
ENDBRANCH  34  35
ENDBRANCH   4  34
TORSDOF 17
ENDMDL
MODEL 2
REMARK VINA RESULT:     -11.1      3.337      7.474
REMARK SMILES CC(C)C[C@H](NC(=O)[C@@H](NC(=O)N1CC(NCCCNC(=O)c2ccc(-c3c4nc(c(-c5ccccc5)c5ccc([nH]5)c(-c5ccccc5)c5nc(c(-c6ccccc6)c6ccc3[nH]6)C=C5)C=C4)cc2)=[NH+]c2ccccc21)C(C)C)C(=O)[O-]
REMARK SMILES IDX 13 1 14 2 15 3 16 4 71 5 72 6 73 7 74 8 75 9 76 10 77 11
REMARK SMILES IDX 11 14 10 15 12 17 9 18 7 19 6 20 8 22 5 23 4 24 2 25 1 26
REMARK SMILES IDX 3 27 81 28 82 29 83 30 78 31 79 32 80 33 17 34 18 35 19 36
REMARK SMILES IDX 20 37 21 38 22 40 23 41 24 42 70 43 25 44 69 45 26 46 27 47
REMARK SMILES IDX 28 48 63 49 29 50 68 51 62 52 64 53 30 54 67 55 61 56 60 57
REMARK SMILES IDX 31 59 53 60 38 61 52 62 39 63 42 64 51 65 65 66 40 67 41 68
REMARK SMILES IDX 50 70 66 71 43 72 32 73 33 74 37 75 34 76 36 77 35 78 54 79
REMARK SMILES IDX 55 80 59 81 56 82 58 83 57 84 44 85 45 86 49 87 46 88 48 89
REMARK SMILES IDX 47 90
REMARK H PARENT 16 12 71 13 10 16 6 21 20 39 64 58 42 69
REMARK Flexibility Score: inf
ROOT
ATOM      1  N   UNL A   1      33.559  22.261  25.714  1.00  0.00    -0.278 N 
ATOM      2  C   UNL A   1      32.736  23.481  25.721  1.00  0.00     0.255 C 
ATOM      3  C   UNL A   1      32.739  24.032  24.284  1.00  0.00     0.268 C 
ATOM      4  N   UNL A   1      32.856  25.384  23.994  1.00  0.00    -0.277 N 
ATOM      5  N   UNL A   1      32.632  23.200  23.275  1.00  0.00    -0.241 N 
ATOM      6  C   UNL A   1      32.573  21.810  23.582  1.00  0.00     0.148 A 
ATOM      7  C   UNL A   1      32.210  20.893  22.601  1.00  0.00     0.054 A 
ATOM      8  C   UNL A   1      32.212  19.518  22.875  1.00  0.00     0.005 A 
ATOM      9  C   UNL A   1      32.556  19.045  24.143  1.00  0.00     0.002 A 
ATOM     10  C   UNL A   1      32.959  19.940  25.125  1.00  0.00     0.031 A 
ATOM     11  C   UNL A   1      33.004  21.305  24.828  1.00  0.00     0.093 A 
ATOM     12  H   UNL A   1      33.290  25.601  23.138  1.00  0.00     0.304 HD
ATOM     13  H   UNL A   1      32.594  23.522  22.345  1.00  0.00     0.312 HD
ENDROOT
BRANCH   1  14
ATOM     14  C   UNL A   1      34.376  21.888  26.739  1.00  0.00     0.323 C 
ATOM     15  N   UNL A   1      35.728  21.825  26.530  1.00  0.00    -0.326 N 
ATOM     16  H   UNL A   1      36.225  21.772  27.378  1.00  0.00     0.166 HD
ATOM     17  O   UNL A   1      33.948  21.631  27.866  1.00  0.00    -0.248 OA
BRANCH  15  18
ATOM     18  C   UNL A   1      36.647  21.814  25.352  1.00  0.00     0.175 C 
BRANCH  18  19
ATOM     19  C   UNL A   1      37.902  20.880  25.340  1.00  0.00     0.243 C 
ATOM     20  N   UNL A   1      39.021  21.040  26.095  1.00  0.00    -0.346 N 
ATOM     21  H   UNL A   1      39.198  20.313  26.735  1.00  0.00     0.164 HD
ATOM     22  O   UNL A   1      37.883  19.846  24.656  1.00  0.00    -0.273 OA
BRANCH  20  23
ATOM     23  C   UNL A   1      40.013  22.133  26.107  1.00  0.00     0.128 C 
BRANCH  23  24
ATOM     24  C   UNL A   1      39.875  23.106  27.273  1.00  0.00     0.034 C 
BRANCH  24  25
ATOM     25  C   UNL A   1      39.443  24.573  27.076  1.00  0.00    -0.015 C 
ATOM     26  C   UNL A   1      39.472  25.364  28.387  1.00  0.00     0.007 C 
ATOM     27  C   UNL A   1      40.408  25.313  26.137  1.00  0.00     0.007 C 
ENDBRANCH  24  25
ENDBRANCH  23  24
BRANCH  23  28
ATOM     28  C   UNL A   1      41.426  21.543  26.062  1.00  0.00     0.064 C 
ATOM     29  O   UNL A   1      41.776  20.476  26.551  1.00  0.00    -0.548 OA
ATOM     30  O   UNL A   1      42.271  22.249  25.279  1.00  0.00    -0.548 OA
ENDBRANCH  23  28
ENDBRANCH  20  23
ENDBRANCH  18  19
BRANCH  18  31
ATOM     31  C   UNL A   1      36.770  23.153  24.582  1.00  0.00     0.015 C 
ATOM     32  C   UNL A   1      36.088  23.278  23.217  1.00  0.00     0.010 C 
ATOM     33  C   UNL A   1      36.237  24.294  25.467  1.00  0.00     0.010 C 
ENDBRANCH  18  31
ENDBRANCH  15  18
ENDBRANCH   1  14
BRANCH   4  34
ATOM     34  C   UNL A   1      32.421  26.523  24.789  1.00  0.00     0.235 C 
BRANCH  34  35
ATOM     35  C   UNL A   1      32.992  27.862  24.294  1.00  0.00     0.067 C 
BRANCH  35  36
ATOM     36  C   UNL A   1      33.855  28.666  25.261  1.00  0.00     0.120 C 
BRANCH  36  37
ATOM     37  N   UNL A   1      33.189  29.844  25.785  1.00  0.00    -0.352 N 
ATOM     38  C   UNL A   1      33.517  30.672  26.836  1.00  0.00     0.251 C 
ATOM     39  H   UNL A   1      32.365  30.095  25.309  1.00  0.00     0.163 HD
ATOM     40  O   UNL A   1      32.705  31.529  27.180  1.00  0.00    -0.269 OA
BRANCH  38  41
ATOM     41  C   UNL A   1      34.799  30.553  27.582  1.00  0.00     0.039 A 
ATOM     42  C   UNL A   1      35.604  31.693  27.701  1.00  0.00     0.014 A 
ATOM     43  C   UNL A   1      35.266  29.342  28.100  1.00  0.00     0.014 A 
ATOM     44  C   UNL A   1      36.828  31.636  28.380  1.00  0.00     0.010 A 
ATOM     45  C   UNL A   1      36.455  29.299  28.840  1.00  0.00     0.010 A 
ATOM     46  C   UNL A   1      37.251  30.445  28.990  1.00  0.00    -0.014 A 
BRANCH  46  47
ATOM     47  C   UNL A   1      38.510  30.394  29.790  1.00  0.00     0.031 A 
ATOM     48  C   UNL A   1      39.742  29.713  29.252  1.00  0.00     0.074 A 
ATOM     49  C   UNL A   1      38.538  30.929  31.029  1.00  0.00     0.049 A 
ATOM     50  N   UNL A   1      40.906  29.532  29.829  1.00  0.00    -0.248 NA
ATOM     51  C   UNL A   1      39.656  29.151  27.896  1.00  0.00     0.031 C 
ATOM     52  C   UNL A   1      37.416  31.600  31.689  1.00  0.00     0.029 A 
ATOM     53  N   UNL A   1      39.549  30.990  31.959  1.00  0.00    -0.354 N 
ATOM     54  C   UNL A   1      41.683  28.832  28.912  1.00  0.00     0.074 A 
ATOM     55  C   UNL A   1      40.844  28.578  27.760  1.00  0.00     0.031 C 
ATOM     56  C   UNL A   1      37.806  32.027  32.900  1.00  0.00     0.029 A 
ATOM     57  C   UNL A   1      39.189  31.618  33.127  1.00  0.00     0.049 A 
ATOM     58  H   UNL A   1      40.448  30.618  31.802  1.00  0.00     0.167 HD
ATOM     59  C   UNL A   1      42.979  28.450  29.008  1.00  0.00     0.031 A 
ATOM     60  C   UNL A   1      39.884  31.832  34.262  1.00  0.00     0.031 A 
ATOM     61  C   UNL A   1      43.822  28.698  30.150  1.00  0.00     0.049 A 
ATOM     62  C   UNL A   1      41.307  31.351  34.359  1.00  0.00     0.074 A 
ATOM     63  C   UNL A   1      45.158  28.375  30.321  1.00  0.00     0.029 A 
ATOM     64  N   UNL A   1      43.412  29.326  31.315  1.00  0.00    -0.354 N 
ATOM     65  N   UNL A   1      42.038  30.741  33.459  1.00  0.00    -0.248 NA
ATOM     66  C   UNL A   1      42.004  31.599  35.631  1.00  0.00     0.031 C 
ATOM     67  C   UNL A   1      45.541  28.758  31.610  1.00  0.00     0.029 A 
ATOM     68  C   UNL A   1      44.462  29.379  32.216  1.00  0.00     0.049 A 
ATOM     69  H   UNL A   1      42.508  29.682  31.477  1.00  0.00     0.167 HD
ATOM     70  C   UNL A   1      43.288  30.566  34.041  1.00  0.00     0.074 A 
ATOM     71  C   UNL A   1      43.222  31.153  35.362  1.00  0.00     0.031 C 
ATOM     72  C   UNL A   1      44.392  29.973  33.526  1.00  0.00     0.031 A 
BRANCH  59  73
ATOM     73  C   UNL A   1      43.583  27.717  27.840  1.00  0.00    -0.014 A 
ATOM     74  C   UNL A   1      43.550  26.316  27.768  1.00  0.00     0.009 A 
ATOM     75  C   UNL A   1      44.128  28.438  26.765  1.00  0.00     0.009 A 
ATOM     76  C   UNL A   1      44.072  25.650  26.657  1.00  0.00     0.001 A 
ATOM     77  C   UNL A   1      44.622  27.772  25.641  1.00  0.00     0.001 A 
ATOM     78  C   UNL A   1      44.600  26.379  25.592  1.00  0.00     0.000 A 
ENDBRANCH  59  73
BRANCH  60  79
ATOM     79  C   UNL A   1      39.251  32.526  35.417  1.00  0.00    -0.014 A 
ATOM     80  C   UNL A   1      39.433  33.906  35.610  1.00  0.00     0.009 A 
ATOM     81  C   UNL A   1      38.507  31.804  36.363  1.00  0.00     0.009 A 
ATOM     82  C   UNL A   1      38.921  34.536  36.747  1.00  0.00     0.001 A 
ATOM     83  C   UNL A   1      37.964  32.445  37.479  1.00  0.00     0.001 A 
ATOM     84  C   UNL A   1      38.184  33.806  37.679  1.00  0.00     0.000 A 
ENDBRANCH  60  79
BRANCH  72  85
ATOM     85  C   UNL A   1      45.635  29.973  34.372  1.00  0.00    -0.014 A 
ATOM     86  C   UNL A   1      45.930  28.915  35.247  1.00  0.00     0.009 A 
ATOM     87  C   UNL A   1      46.544  31.038  34.267  1.00  0.00     0.009 A 
ATOM     88  C   UNL A   1      47.087  28.943  36.027  1.00  0.00     0.001 A 
ATOM     89  C   UNL A   1      47.718  31.048  35.021  1.00  0.00     0.001 A 
ATOM     90  C   UNL A   1      47.984  30.006  35.909  1.00  0.00     0.000 A 
ENDBRANCH  72  85
ENDBRANCH  46  47
ENDBRANCH  38  41
ENDBRANCH  36  37
ENDBRANCH  35  36
ENDBRANCH  34  35
ENDBRANCH   4  34
TORSDOF 17
ENDMDL
MODEL 3
REMARK VINA RESULT:     -11.0      2.463      8.033
REMARK SMILES CC(C)C[C@H](NC(=O)[C@@H](NC(=O)N1CC(NCCCNC(=O)c2ccc(-c3c4nc(c(-c5ccccc5)c5ccc([nH]5)c(-c5ccccc5)c5nc(c(-c6ccccc6)c6ccc3[nH]6)C=C5)C=C4)cc2)=[NH+]c2ccccc21)C(C)C)C(=O)[O-]
REMARK SMILES IDX 13 1 14 2 15 3 16 4 71 5 72 6 73 7 74 8 75 9 76 10 77 11
REMARK SMILES IDX 11 14 10 15 12 17 9 18 7 19 6 20 8 22 5 23 4 24 2 25 1 26
REMARK SMILES IDX 3 27 81 28 82 29 83 30 78 31 79 32 80 33 17 34 18 35 19 36
REMARK SMILES IDX 20 37 21 38 22 40 23 41 24 42 70 43 25 44 69 45 26 46 27 47
REMARK SMILES IDX 28 48 63 49 29 50 68 51 62 52 64 53 30 54 67 55 61 56 60 57
REMARK SMILES IDX 31 59 53 60 38 61 52 62 39 63 42 64 51 65 65 66 40 67 41 68
REMARK SMILES IDX 50 70 66 71 43 72 32 73 33 74 37 75 34 76 36 77 35 78 54 79
REMARK SMILES IDX 55 80 59 81 56 82 58 83 57 84 44 85 45 86 49 87 46 88 48 89
REMARK SMILES IDX 47 90
REMARK H PARENT 16 12 71 13 10 16 6 21 20 39 64 58 42 69
REMARK Flexibility Score: inf
ROOT
ATOM      1  N   UNL A   1      30.982  27.284  25.176  1.00  0.00    -0.278 N 
ATOM      2  C   UNL A   1      31.667  28.208  26.093  1.00  0.00     0.255 C 
ATOM      3  C   UNL A   1      32.618  29.065  25.238  1.00  0.00     0.268 C 
ATOM      4  N   UNL A   1      33.906  29.391  25.639  1.00  0.00    -0.277 N 
ATOM      5  N   UNL A   1      32.212  29.511  24.073  1.00  0.00    -0.241 N 
ATOM      6  C   UNL A   1      30.909  29.120  23.646  1.00  0.00     0.148 A 
ATOM      7  C   UNL A   1      30.315  29.747  22.556  1.00  0.00     0.054 A 
ATOM      8  C   UNL A   1      29.063  29.326  22.087  1.00  0.00     0.005 A 
ATOM      9  C   UNL A   1      28.379  28.286  22.719  1.00  0.00     0.002 A 
ATOM     10  C   UNL A   1      28.971  27.620  23.785  1.00  0.00     0.031 A 
ATOM     11  C   UNL A   1      30.242  28.012  24.213  1.00  0.00     0.093 A 
ATOM     12  H   UNL A   1      34.559  29.520  24.913  1.00  0.00     0.304 HD
ATOM     13  H   UNL A   1      32.781  30.091  23.518  1.00  0.00     0.312 HD
ENDROOT
BRANCH   1  14
ATOM     14  C   UNL A   1      30.661  25.997  25.492  1.00  0.00     0.323 C 
ATOM     15  N   UNL A   1      31.519  24.988  25.144  1.00  0.00    -0.326 N 
ATOM     16  H   UNL A   1      31.305  24.149  25.614  1.00  0.00     0.166 HD
ATOM     17  O   UNL A   1      29.636  25.703  26.109  1.00  0.00    -0.248 OA
BRANCH  15  18
ATOM     18  C   UNL A   1      32.695  24.824  24.237  1.00  0.00     0.175 C 
BRANCH  18  19
ATOM     19  C   UNL A   1      34.136  25.158  24.746  1.00  0.00     0.243 C 
ATOM     20  N   UNL A   1      35.225  24.350  24.640  1.00  0.00    -0.346 N 
ATOM     21  H   UNL A   1      35.956  24.709  24.087  1.00  0.00     0.164 HD
ATOM     22  O   UNL A   1      34.369  26.279  25.221  1.00  0.00    -0.273 OA
BRANCH  20  23
ATOM     23  C   UNL A   1      35.483  23.019  25.223  1.00  0.00     0.128 C 
BRANCH  23  24
ATOM     24  C   UNL A   1      34.936  21.850  24.409  1.00  0.00     0.034 C 
BRANCH  24  25
ATOM     25  C   UNL A   1      33.516  21.289  24.625  1.00  0.00    -0.015 C 
ATOM     26  C   UNL A   1      33.466  19.768  24.460  1.00  0.00     0.007 C 
ATOM     27  C   UNL A   1      33.028  21.555  26.058  1.00  0.00     0.007 C 
ENDBRANCH  24  25
ENDBRANCH  23  24
BRANCH  23  28
ATOM     28  C   UNL A   1      36.986  22.848  25.466  1.00  0.00     0.064 C 
ATOM     29  O   UNL A   1      37.722  22.055  24.892  1.00  0.00    -0.548 OA
ATOM     30  O   UNL A   1      37.499  23.783  26.295  1.00  0.00    -0.548 OA
ENDBRANCH  23  28
ENDBRANCH  20  23
ENDBRANCH  18  19
BRANCH  18  31
ATOM     31  C   UNL A   1      32.421  25.056  22.730  1.00  0.00     0.015 C 
ATOM     32  C   UNL A   1      32.905  26.358  22.089  1.00  0.00     0.010 C 
ATOM     33  C   UNL A   1      33.027  23.894  21.923  1.00  0.00     0.010 C 
ENDBRANCH  18  31
ENDBRANCH  15  18
ENDBRANCH   1  14
BRANCH   4  34
ATOM     34  C   UNL A   1      34.419  29.567  26.989  1.00  0.00     0.235 C 
BRANCH  34  35
ATOM     35  C   UNL A   1      33.762  30.737  27.740  1.00  0.00     0.067 C 
BRANCH  35  36
ATOM     36  C   UNL A   1      34.659  31.891  28.176  1.00  0.00     0.120 C 
BRANCH  36  37
ATOM     37  N   UNL A   1      34.600  32.160  29.601  1.00  0.00    -0.352 N 
ATOM     38  C   UNL A   1      35.466  31.822  30.618  1.00  0.00     0.251 C 
ATOM     39  H   UNL A   1      33.809  32.670  29.890  1.00  0.00     0.163 HD
ATOM     40  O   UNL A   1      35.118  32.038  31.778  1.00  0.00    -0.269 OA
BRANCH  38  41
ATOM     41  C   UNL A   1      36.789  31.188  30.369  1.00  0.00     0.039 A 
ATOM     42  C   UNL A   1      37.279  31.173  29.056  1.00  0.00     0.014 A 
ATOM     43  C   UNL A   1      37.522  30.545  31.369  1.00  0.00     0.014 A 
ATOM     44  C   UNL A   1      38.511  30.576  28.761  1.00  0.00     0.010 A 
ATOM     45  C   UNL A   1      38.787  30.010  31.089  1.00  0.00     0.010 A 
ATOM     46  C   UNL A   1      39.298  30.019  29.782  1.00  0.00    -0.014 A 
BRANCH  46  47
ATOM     47  C   UNL A   1      40.651  29.460  29.494  1.00  0.00     0.031 A 
ATOM     48  C   UNL A   1      41.883  30.322  29.592  1.00  0.00     0.074 A 
ATOM     49  C   UNL A   1      40.774  28.174  29.102  1.00  0.00     0.049 A 
ATOM     50  N   UNL A   1      43.131  30.015  29.332  1.00  0.00    -0.248 NA
ATOM     51  C   UNL A   1      41.690  31.714  30.028  1.00  0.00     0.031 C 
ATOM     52  C   UNL A   1      39.669  27.226  28.941  1.00  0.00     0.029 A 
ATOM     53  N   UNL A   1      41.886  27.440  28.762  1.00  0.00    -0.354 N 
ATOM     54  C   UNL A   1      43.866  31.172  29.563  1.00  0.00     0.074 A 
ATOM     55  C   UNL A   1      42.920  32.201  29.939  1.00  0.00     0.031 C 
ATOM     56  C   UNL A   1      40.159  26.036  28.562  1.00  0.00     0.029 A 
ATOM     57  C   UNL A   1      41.605  26.143  28.403  1.00  0.00     0.049 A 
ATOM     58  H   UNL A   1      42.799  27.810  28.775  1.00  0.00     0.167 HD
ATOM     59  C   UNL A   1      45.206  31.361  29.490  1.00  0.00     0.031 A 
ATOM     60  C   UNL A   1      42.415  25.153  27.979  1.00  0.00     0.031 A 
ATOM     61  C   UNL A   1      46.156  30.343  29.118  1.00  0.00     0.049 A 
ATOM     62  C   UNL A   1      43.893  25.407  27.858  1.00  0.00     0.074 A 
ATOM     63  C   UNL A   1      47.536  30.438  29.048  1.00  0.00     0.029 A 
ATOM     64  N   UNL A   1      45.825  29.050  28.750  1.00  0.00    -0.354 N 
ATOM     65  N   UNL A   1      44.573  26.492  28.136  1.00  0.00    -0.248 NA
ATOM     66  C   UNL A   1      44.718  24.290  27.372  1.00  0.00     0.031 C 
ATOM     67  C   UNL A   1      48.036  29.217  28.585  1.00  0.00     0.029 A 
ATOM     68  C   UNL A   1      46.973  28.343  28.431  1.00  0.00     0.049 A 
ATOM     69  H   UNL A   1      44.911  28.686  28.721  1.00  0.00     0.167 HD
ATOM     70  C   UNL A   1      45.905  26.178  27.895  1.00  0.00     0.074 A 
ATOM     71  C   UNL A   1      45.940  24.795  27.468  1.00  0.00     0.031 C 
ATOM     72  C   UNL A   1      47.001  26.964  28.016  1.00  0.00     0.031 A 
BRANCH  59  73
ATOM     73  C   UNL A   1      45.741  32.728  29.822  1.00  0.00    -0.014 A 
ATOM     74  C   UNL A   1      46.158  33.046  31.125  1.00  0.00     0.009 A 
ATOM     75  C   UNL A   1      45.897  33.687  28.808  1.00  0.00     0.009 A 
ATOM     76  C   UNL A   1      46.696  34.304  31.409  1.00  0.00     0.001 A 
ATOM     77  C   UNL A   1      46.463  34.932  29.088  1.00  0.00     0.001 A 
ATOM     78  C   UNL A   1      46.855  35.242  30.390  1.00  0.00     0.000 A 
ENDBRANCH  59  73
BRANCH  60  79
ATOM     79  C   UNL A   1      41.855  23.820  27.621  1.00  0.00    -0.014 A 
ATOM     80  C   UNL A   1      41.750  22.805  28.585  1.00  0.00     0.009 A 
ATOM     81  C   UNL A   1      41.473  23.539  26.300  1.00  0.00     0.009 A 
ATOM     82  C   UNL A   1      41.317  21.527  28.225  1.00  0.00     0.001 A 
ATOM     83  C   UNL A   1      41.005  22.270  25.950  1.00  0.00     0.001 A 
ATOM     84  C   UNL A   1      40.942  21.260  26.909  1.00  0.00     0.000 A 
ENDBRANCH  60  79
BRANCH  72  85
ATOM     85  C   UNL A   1      48.338  26.336  27.733  1.00  0.00    -0.014 A 
ATOM     86  C   UNL A   1      49.025  25.596  28.709  1.00  0.00     0.009 A 
ATOM     87  C   UNL A   1      48.904  26.461  26.455  1.00  0.00     0.009 A 
ATOM     88  C   UNL A   1      50.268  25.030  28.422  1.00  0.00     0.001 A 
ATOM     89  C   UNL A   1      50.131  25.865  26.159  1.00  0.00     0.001 A 
ATOM     90  C   UNL A   1      50.818  25.159  27.146  1.00  0.00     0.000 A 
ENDBRANCH  72  85
ENDBRANCH  46  47
ENDBRANCH  38  41
ENDBRANCH  36  37
ENDBRANCH  35  36
ENDBRANCH  34  35
ENDBRANCH   4  34
TORSDOF 17
ENDMDL
