MODEL 1
REMARK VINA RESULT:     -10.2      0.000      0.000
REMARK SMILES CC(C)(C(=O)NCCCNC(=O)c1ccc(-c2c3nc(c(-c4ccccc4)c4ccc([nH]4)c(-c4ccccc4)c4nc(c(-c5ccccc5)c5ccc2[nH]5)C=C4)C=C3)cc1)c1ccc(C(=O)CCCCl)cc1
REMARK SMILES IDX 4 1 5 2 6 3 2 5 1 6 3 7 61 8 62 9 72 10 63 11 71 12 64 13
REMARK SMILES IDX 65 14 66 15 67 16 68 17 69 18 70 19 7 20 8 21 9 22 10 23
REMARK SMILES IDX 11 24 12 26 13 27 14 28 60 29 15 30 59 31 16 32 17 33 18 34
REMARK SMILES IDX 53 35 19 36 58 37 52 38 54 39 20 40 57 41 51 42 50 43 21 45
REMARK SMILES IDX 43 46 28 47 42 48 29 49 32 50 41 51 55 52 30 53 31 54 40 56
REMARK SMILES IDX 56 57 33 58 22 59 23 60 27 61 24 62 26 63 25 64 44 65 45 66
REMARK SMILES IDX 49 67 46 68 48 69 47 70 34 71 35 72 39 73 36 74 38 75 37 76
REMARK H PARENT 6 4 10 25 54 44 32 55
REMARK Flexibility Score: inf
ROOT
ATOM      1  C   UNL A   1      32.945  29.053  25.299  1.00  0.00     0.230 C 
ATOM      2  O   UNL A   1      34.176  29.014  25.186  1.00  0.00    -0.274 OA
ATOM      3  N   UNL A   1      32.433  30.303  25.464  1.00  0.00    -0.355 N 
ATOM      4  H   UNL A   1      33.121  31.007  25.476  1.00  0.00     0.163 HD
ENDROOT
BRANCH   1   5
ATOM      5  C   UNL A   1      32.066  27.763  25.236  1.00  0.00     0.068 C 
ATOM      6  C   UNL A   1      31.440  27.452  26.614  1.00  0.00     0.026 C 
ATOM      7  C   UNL A   1      30.935  27.971  24.204  1.00  0.00     0.026 C 
BRANCH   5   8
ATOM      8  C   UNL A   1      32.971  26.562  24.827  1.00  0.00    -0.033 A 
ATOM      9  C   UNL A   1      33.652  25.777  25.773  1.00  0.00     0.005 A 
ATOM     10  C   UNL A   1      33.074  26.179  23.475  1.00  0.00     0.005 A 
ATOM     11  C   UNL A   1      34.372  24.640  25.390  1.00  0.00     0.012 A 
ATOM     12  C   UNL A   1      33.806  25.051  23.088  1.00  0.00     0.012 A 
ATOM     13  C   UNL A   1      34.422  24.252  24.049  1.00  0.00     0.018 A 
BRANCH  13  14
ATOM     14  C   UNL A   1      35.078  22.956  23.721  1.00  0.00     0.162 C 
ATOM     15  O   UNL A   1      35.941  22.923  22.846  1.00  0.00    -0.294 OA
BRANCH  14  16
ATOM     16  C   UNL A   1      34.740  21.711  24.523  1.00  0.00     0.082 C 
BRANCH  16  17
ATOM     17  C   UNL A   1      33.381  21.115  24.141  1.00  0.00     0.024 C 
BRANCH  17  18
ATOM     18  C   UNL A   1      32.289  21.197  25.206  1.00  0.00     0.110 C 
ATOM     19  Cl  UNL A   1      31.343  22.700  25.075  1.00  0.00    -0.127 Cl
ENDBRANCH  17  18
ENDBRANCH  16  17
ENDBRANCH  14  16
ENDBRANCH  13  14
ENDBRANCH   5   8
ENDBRANCH   1   5
BRANCH   3  20
ATOM     20  C   UNL A   1      31.085  30.813  25.624  1.00  0.00     0.117 C 
BRANCH  20  21
ATOM     21  C   UNL A   1      31.046  32.084  26.463  1.00  0.00     0.042 C 
BRANCH  21  22
ATOM     22  C   UNL A   1      32.416  32.562  26.935  1.00  0.00     0.118 C 
BRANCH  22  23
ATOM     23  N   UNL A   1      32.359  33.856  27.599  1.00  0.00    -0.352 N 
ATOM     24  C   UNL A   1      33.153  34.404  28.575  1.00  0.00     0.251 C 
ATOM     25  H   UNL A   1      31.625  34.439  27.297  1.00  0.00     0.163 HD
ATOM     26  O   UNL A   1      32.788  35.436  29.132  1.00  0.00    -0.269 OA
BRANCH  24  27
ATOM     27  C   UNL A   1      34.431  33.774  28.974  1.00  0.00     0.039 A 
ATOM     28  C   UNL A   1      35.566  34.016  28.194  1.00  0.00     0.014 A 
ATOM     29  C   UNL A   1      34.513  32.900  30.061  1.00  0.00     0.014 A 
ATOM     30  C   UNL A   1      36.785  33.423  28.532  1.00  0.00     0.010 A 
ATOM     31  C   UNL A   1      35.745  32.377  30.448  1.00  0.00     0.010 A 
ATOM     32  C   UNL A   1      36.891  32.620  29.678  1.00  0.00    -0.014 A 
BRANCH  32  33
ATOM     33  C   UNL A   1      38.191  32.018  30.069  1.00  0.00     0.031 A 
ATOM     34  C   UNL A   1      39.100  32.729  31.036  1.00  0.00     0.074 A 
ATOM     35  C   UNL A   1      38.572  30.848  29.523  1.00  0.00     0.049 A 
ATOM     36  N   UNL A   1      40.271  32.356  31.492  1.00  0.00    -0.248 NA
ATOM     37  C   UNL A   1      38.651  34.038  31.536  1.00  0.00     0.031 C 
ATOM     38  C   UNL A   1      37.809  30.084  28.533  1.00  0.00     0.029 A 
ATOM     39  N   UNL A   1      39.700  30.093  29.728  1.00  0.00    -0.354 N 
ATOM     40  C   UNL A   1      40.703  33.391  32.313  1.00  0.00     0.074 A 
ATOM     41  C   UNL A   1      39.694  34.426  32.255  1.00  0.00     0.031 C 
ATOM     42  C   UNL A   1      38.471  28.952  28.248  1.00  0.00     0.029 A 
ATOM     43  C   UNL A   1      39.715  28.922  29.009  1.00  0.00     0.049 A 
ATOM     44  H   UNL A   1      40.427  30.364  30.332  1.00  0.00     0.167 HD
ATOM     45  C   UNL A   1      41.826  33.467  33.066  1.00  0.00     0.031 A 
ATOM     46  C   UNL A   1      40.624  27.931  28.975  1.00  0.00     0.031 A 
ATOM     47  C   UNL A   1      42.821  32.430  33.144  1.00  0.00     0.049 A 
ATOM     48  C   UNL A   1      41.847  28.024  29.842  1.00  0.00     0.074 A 
ATOM     49  C   UNL A   1      43.963  32.387  33.924  1.00  0.00     0.029 A 
ATOM     50  N   UNL A   1      42.787  31.251  32.417  1.00  0.00    -0.354 N 
ATOM     51  N   UNL A   1      42.205  28.978  30.666  1.00  0.00    -0.248 NA
ATOM     52  C   UNL A   1      42.782  26.891  29.787  1.00  0.00     0.031 C 
ATOM     53  C   UNL A   1      44.641  31.196  33.641  1.00  0.00     0.029 A 
ATOM     54  C   UNL A   1      43.895  30.479  32.719  1.00  0.00     0.049 A 
ATOM     55  H   UNL A   1      42.080  31.000  31.780  1.00  0.00     0.167 HD
ATOM     56  C   UNL A   1      43.392  28.551  31.246  1.00  0.00     0.074 A 
ATOM     57  C   UNL A   1      43.683  27.245  30.691  1.00  0.00     0.031 C 
ATOM     58  C   UNL A   1      44.172  29.184  32.156  1.00  0.00     0.031 A 
BRANCH  45  59
ATOM     59  C   UNL A   1      42.035  34.720  33.868  1.00  0.00    -0.014 A 
ATOM     60  C   UNL A   1      41.568  34.823  35.189  1.00  0.00     0.009 A 
ATOM     61  C   UNL A   1      42.727  35.804  33.307  1.00  0.00     0.009 A 
ATOM     62  C   UNL A   1      41.759  35.999  35.917  1.00  0.00     0.001 A 
ATOM     63  C   UNL A   1      42.940  36.969  34.047  1.00  0.00     0.001 A 
ATOM     64  C   UNL A   1      42.447  37.070  35.347  1.00  0.00     0.000 A 
ENDBRANCH  45  59
BRANCH  46  65
ATOM     65  C   UNL A   1      40.391  26.740  28.119  1.00  0.00    -0.014 A 
ATOM     66  C   UNL A   1      40.938  26.677  26.829  1.00  0.00     0.009 A 
ATOM     67  C   UNL A   1      39.623  25.663  28.587  1.00  0.00     0.009 A 
ATOM     68  C   UNL A   1      40.699  25.570  26.013  1.00  0.00     0.001 A 
ATOM     69  C   UNL A   1      39.407  24.545  27.777  1.00  0.00     0.001 A 
ATOM     70  C   UNL A   1      39.939  24.503  26.489  1.00  0.00     0.000 A 
ENDBRANCH  46  65
BRANCH  58  71
ATOM     71  C   UNL A   1      45.397  28.455  32.626  1.00  0.00    -0.014 A 
ATOM     72  C   UNL A   1      46.614  28.557  31.934  1.00  0.00     0.009 A 
ATOM     73  C   UNL A   1      45.337  27.673  33.789  1.00  0.00     0.009 A 
ATOM     74  C   UNL A   1      47.738  27.857  32.378  1.00  0.00     0.001 A 
ATOM     75  C   UNL A   1      46.468  26.996  34.246  1.00  0.00     0.001 A 
ATOM     76  C   UNL A   1      47.664  27.080  33.535  1.00  0.00     0.000 A 
ENDBRANCH  58  71
ENDBRANCH  32  33
ENDBRANCH  24  27
ENDBRANCH  22  23
ENDBRANCH  21  22
ENDBRANCH  20  21
ENDBRANCH   3  20
TORSDOF 15
ENDMDL
MODEL 2
REMARK VINA RESULT:      -9.9      2.674      7.438
REMARK SMILES CC(C)(C(=O)NCCCNC(=O)c1ccc(-c2c3nc(c(-c4ccccc4)c4ccc([nH]4)c(-c4ccccc4)c4nc(c(-c5ccccc5)c5ccc2[nH]5)C=C4)C=C3)cc1)c1ccc(C(=O)CCCCl)cc1
REMARK SMILES IDX 4 1 5 2 6 3 2 5 1 6 3 7 61 8 62 9 72 10 63 11 71 12 64 13
REMARK SMILES IDX 65 14 66 15 67 16 68 17 69 18 70 19 7 20 8 21 9 22 10 23
REMARK SMILES IDX 11 24 12 26 13 27 14 28 60 29 15 30 59 31 16 32 17 33 18 34
REMARK SMILES IDX 53 35 19 36 58 37 52 38 54 39 20 40 57 41 51 42 50 43 21 45
REMARK SMILES IDX 43 46 28 47 42 48 29 49 32 50 41 51 55 52 30 53 31 54 40 56
REMARK SMILES IDX 56 57 33 58 22 59 23 60 27 61 24 62 26 63 25 64 44 65 45 66
REMARK SMILES IDX 49 67 46 68 48 69 47 70 34 71 35 72 39 73 36 74 38 75 37 76
REMARK H PARENT 6 4 10 25 54 44 32 55
REMARK Flexibility Score: inf
ROOT
ATOM      1  C   UNL A   1      33.369  25.508  23.680  1.00  0.00     0.230 C 
ATOM      2  O   UNL A   1      33.654  26.134  22.650  1.00  0.00    -0.274 OA
ATOM      3  N   UNL A   1      34.408  25.339  24.542  1.00  0.00    -0.355 N 
ATOM      4  H   UNL A   1      35.250  25.736  24.219  1.00  0.00     0.163 HD
ENDROOT
BRANCH   1   5
ATOM      5  C   UNL A   1      31.925  24.981  23.956  1.00  0.00     0.068 C 
ATOM      6  C   UNL A   1      31.362  25.571  25.269  1.00  0.00     0.026 C 
ATOM      7  C   UNL A   1      31.004  25.389  22.785  1.00  0.00     0.026 C 
BRANCH   5   8
ATOM      8  C   UNL A   1      31.979  23.430  24.101  1.00  0.00    -0.033 A 
ATOM      9  C   UNL A   1      32.464  22.595  23.079  1.00  0.00     0.005 A 
ATOM     10  C   UNL A   1      31.605  22.817  25.313  1.00  0.00     0.005 A 
ATOM     11  C   UNL A   1      32.603  21.217  23.272  1.00  0.00     0.012 A 
ATOM     12  C   UNL A   1      31.728  21.436  25.503  1.00  0.00     0.012 A 
ATOM     13  C   UNL A   1      32.269  20.636  24.498  1.00  0.00     0.018 A 
BRANCH  13  14
ATOM     14  C   UNL A   1      32.575  19.192  24.693  1.00  0.00     0.162 C 
ATOM     15  O   UNL A   1      32.128  18.610  25.680  1.00  0.00    -0.294 OA
BRANCH  14  16
ATOM     16  C   UNL A   1      33.361  18.435  23.637  1.00  0.00     0.082 C 
BRANCH  16  17
ATOM     17  C   UNL A   1      34.627  17.780  24.200  1.00  0.00     0.024 C 
BRANCH  17  18
ATOM     18  C   UNL A   1      34.490  16.324  24.640  1.00  0.00     0.110 C 
ATOM     19  Cl  UNL A   1      35.911  15.772  25.562  1.00  0.00    -0.127 Cl
ENDBRANCH  17  18
ENDBRANCH  16  17
ENDBRANCH  14  16
ENDBRANCH  13  14
ENDBRANCH   5   8
ENDBRANCH   1   5
BRANCH   3  20
ATOM     20  C   UNL A   1      34.534  24.697  25.835  1.00  0.00     0.117 C 
BRANCH  20  21
ATOM     21  C   UNL A   1      35.462  23.489  25.791  1.00  0.00     0.042 C 
BRANCH  21  22
ATOM     22  C   UNL A   1      36.775  23.738  25.057  1.00  0.00     0.118 C 
BRANCH  22  23
ATOM     23  N   UNL A   1      37.790  22.743  25.371  1.00  0.00    -0.352 N 
ATOM     24  C   UNL A   1      39.008  22.863  25.994  1.00  0.00     0.251 C 
ATOM     25  H   UNL A   1      37.565  21.827  25.089  1.00  0.00     0.163 HD
ATOM     26  O   UNL A   1      39.788  21.915  25.964  1.00  0.00    -0.269 OA
BRANCH  24  27
ATOM     27  C   UNL A   1      39.400  24.109  26.688  1.00  0.00     0.039 A 
ATOM     28  C   UNL A   1      40.151  25.057  25.986  1.00  0.00     0.014 A 
ATOM     29  C   UNL A   1      39.095  24.328  28.034  1.00  0.00     0.014 A 
ATOM     30  C   UNL A   1      40.552  26.237  26.616  1.00  0.00     0.010 A 
ATOM     31  C   UNL A   1      39.421  25.541  28.638  1.00  0.00     0.010 A 
ATOM     32  C   UNL A   1      40.167  26.502  27.940  1.00  0.00    -0.014 A 
BRANCH  32  33
ATOM     33  C   UNL A   1      40.554  27.771  28.606  1.00  0.00     0.031 A 
ATOM     34  C   UNL A   1      41.956  27.968  29.118  1.00  0.00     0.074 A 
ATOM     35  C   UNL A   1      39.630  28.735  28.785  1.00  0.00     0.049 A 
ATOM     36  N   UNL A   1      42.473  29.008  29.725  1.00  0.00    -0.248 NA
ATOM     37  C   UNL A   1      42.891  26.845  28.952  1.00  0.00     0.031 C 
ATOM     38  C   UNL A   1      38.224  28.648  28.385  1.00  0.00     0.029 A 
ATOM     39  N   UNL A   1      39.739  29.981  29.349  1.00  0.00    -0.354 N 
ATOM     40  C   UNL A   1      43.782  28.655  30.028  1.00  0.00     0.074 A 
ATOM     41  C   UNL A   1      43.966  27.291  29.584  1.00  0.00     0.031 C 
ATOM     42  C   UNL A   1      37.612  29.806  28.679  1.00  0.00     0.029 A 
ATOM     43  C   UNL A   1      38.571  30.703  29.314  1.00  0.00     0.049 A 
ATOM     44  H   UNL A   1      40.574  30.324  29.741  1.00  0.00     0.167 HD
ATOM     45  C   UNL A   1      44.752  29.405  30.604  1.00  0.00     0.031 A 
ATOM     46  C   UNL A   1      38.305  31.952  29.737  1.00  0.00     0.031 A 
ATOM     47  C   UNL A   1      44.580  30.769  31.027  1.00  0.00     0.049 A 
ATOM     48  C   UNL A   1      39.405  32.774  30.344  1.00  0.00     0.074 A 
ATOM     49  C   UNL A   1      45.519  31.631  31.566  1.00  0.00     0.029 A 
ATOM     50  N   UNL A   1      43.387  31.470  30.953  1.00  0.00    -0.354 N 
ATOM     51  N   UNL A   1      40.656  32.449  30.559  1.00  0.00    -0.248 NA
ATOM     52  C   UNL A   1      39.058  34.143  30.751  1.00  0.00     0.031 C 
ATOM     53  C   UNL A   1      44.884  32.845  31.852  1.00  0.00     0.029 A 
ATOM     54  C   UNL A   1      43.562  32.750  31.450  1.00  0.00     0.049 A 
ATOM     55  H   UNL A   1      42.541  31.111  30.601  1.00  0.00     0.167 HD
ATOM     56  C   UNL A   1      41.253  33.580  31.102  1.00  0.00     0.074 A 
ATOM     57  C   UNL A   1      40.229  34.603  31.167  1.00  0.00     0.031 C 
ATOM     58  C   UNL A   1      42.533  33.755  31.511  1.00  0.00     0.031 A 
BRANCH  45  59
ATOM     59  C   UNL A   1      46.093  28.756  30.808  1.00  0.00    -0.014 A 
ATOM     60  C   UNL A   1      47.091  28.826  29.823  1.00  0.00     0.009 A 
ATOM     61  C   UNL A   1      46.372  28.088  32.011  1.00  0.00     0.009 A 
ATOM     62  C   UNL A   1      48.327  28.208  30.023  1.00  0.00     0.001 A 
ATOM     63  C   UNL A   1      47.618  27.494  32.218  1.00  0.00     0.001 A 
ATOM     64  C   UNL A   1      48.591  27.545  31.221  1.00  0.00     0.000 A 
ENDBRANCH  45  59
BRANCH  46  65
ATOM     65  C   UNL A   1      36.944  32.521  29.559  1.00  0.00    -0.014 A 
ATOM     66  C   UNL A   1      36.604  33.187  28.372  1.00  0.00     0.009 A 
ATOM     67  C   UNL A   1      35.982  32.402  30.573  1.00  0.00     0.009 A 
ATOM     68  C   UNL A   1      35.334  33.745  28.213  1.00  0.00     0.001 A 
ATOM     69  C   UNL A   1      34.704  32.939  30.402  1.00  0.00     0.001 A 
ATOM     70  C   UNL A   1      34.384  33.617  29.225  1.00  0.00     0.000 A 
ENDBRANCH  46  65
BRANCH  58  71
ATOM     71  C   UNL A   1      42.900  35.112  32.036  1.00  0.00    -0.014 A 
ATOM     72  C   UNL A   1      42.636  35.473  33.366  1.00  0.00     0.009 A 
ATOM     73  C   UNL A   1      43.538  36.034  31.192  1.00  0.00     0.009 A 
ATOM     74  C   UNL A   1      42.970  36.747  33.830  1.00  0.00     0.001 A 
ATOM     75  C   UNL A   1      43.894  37.298  31.666  1.00  0.00     0.001 A 
ATOM     76  C   UNL A   1      43.600  37.656  32.981  1.00  0.00     0.000 A 
ENDBRANCH  58  71
ENDBRANCH  32  33
ENDBRANCH  24  27
ENDBRANCH  22  23
ENDBRANCH  21  22
ENDBRANCH  20  21
ENDBRANCH   3  20
TORSDOF 15
ENDMDL
MODEL 3
REMARK VINA RESULT:      -9.9      1.214      6.195
REMARK SMILES CC(C)(C(=O)NCCCNC(=O)c1ccc(-c2c3nc(c(-c4ccccc4)c4ccc([nH]4)c(-c4ccccc4)c4nc(c(-c5ccccc5)c5ccc2[nH]5)C=C4)C=C3)cc1)c1ccc(C(=O)CCCCl)cc1
REMARK SMILES IDX 4 1 5 2 6 3 2 5 1 6 3 7 61 8 62 9 72 10 63 11 71 12 64 13
REMARK SMILES IDX 65 14 66 15 67 16 68 17 69 18 70 19 7 20 8 21 9 22 10 23
REMARK SMILES IDX 11 24 12 26 13 27 14 28 60 29 15 30 59 31 16 32 17 33 18 34
REMARK SMILES IDX 53 35 19 36 58 37 52 38 54 39 20 40 57 41 51 42 50 43 21 45
REMARK SMILES IDX 43 46 28 47 42 48 29 49 32 50 41 51 55 52 30 53 31 54 40 56
REMARK SMILES IDX 56 57 33 58 22 59 23 60 27 61 24 62 26 63 25 64 44 65 45 66
REMARK SMILES IDX 49 67 46 68 48 69 47 70 34 71 35 72 39 73 36 74 38 75 37 76
REMARK H PARENT 6 4 10 25 54 44 32 55
REMARK Flexibility Score: inf
ROOT
ATOM      1  C   UNL A   1      33.055  28.741  25.903  1.00  0.00     0.230 C 
ATOM      2  O   UNL A   1      34.257  28.582  26.151  1.00  0.00    -0.274 OA
ATOM      3  N   UNL A   1      32.630  30.032  25.981  1.00  0.00    -0.355 N 
ATOM      4  H   UNL A   1      33.343  30.662  26.232  1.00  0.00     0.163 HD
ENDROOT
BRANCH   1   5
ATOM      5  C   UNL A   1      32.124  27.549  25.517  1.00  0.00     0.068 C 
ATOM      6  C   UNL A   1      31.171  27.191  26.679  1.00  0.00     0.026 C 
ATOM      7  C   UNL A   1      31.285  27.942  24.280  1.00  0.00     0.026 C 
BRANCH   5   8
ATOM      8  C   UNL A   1      33.009  26.303  25.209  1.00  0.00    -0.033 A 
ATOM      9  C   UNL A   1      33.198  25.266  26.139  1.00  0.00     0.005 A 
ATOM     10  C   UNL A   1      33.596  26.146  23.938  1.00  0.00     0.005 A 
ATOM     11  C   UNL A   1      33.908  24.109  25.801  1.00  0.00     0.012 A 
ATOM     12  C   UNL A   1      34.320  24.998  23.603  1.00  0.00     0.012 A 
ATOM     13  C   UNL A   1      34.442  23.954  24.520  1.00  0.00     0.018 A 
BRANCH  13  14
ATOM     14  C   UNL A   1      35.059  22.644  24.174  1.00  0.00     0.162 C 
ATOM     15  O   UNL A   1      34.355  21.635  24.155  1.00  0.00    -0.294 OA
BRANCH  14  16
ATOM     16  C   UNL A   1      36.521  22.577  23.770  1.00  0.00     0.082 C 
BRANCH  16  17
ATOM     17  C   UNL A   1      37.471  22.795  24.952  1.00  0.00     0.024 C 
BRANCH  17  18
ATOM     18  C   UNL A   1      38.267  21.574  25.407  1.00  0.00     0.110 C 
ATOM     19  Cl  UNL A   1      37.496  20.050  24.901  1.00  0.00    -0.127 Cl
ENDBRANCH  17  18
ENDBRANCH  16  17
ENDBRANCH  14  16
ENDBRANCH  13  14
ENDBRANCH   5   8
ENDBRANCH   1   5
BRANCH   3  20
ATOM     20  C   UNL A   1      31.346  30.671  25.769  1.00  0.00     0.117 C 
BRANCH  20  21
ATOM     21  C   UNL A   1      31.238  32.003  26.501  1.00  0.00     0.042 C 
BRANCH  21  22
ATOM     22  C   UNL A   1      32.547  32.482  27.121  1.00  0.00     0.118 C 
BRANCH  22  23
ATOM     23  N   UNL A   1      32.461  33.844  27.628  1.00  0.00    -0.352 N 
ATOM     24  C   UNL A   1      33.222  34.510  28.556  1.00  0.00     0.251 C 
ATOM     25  H   UNL A   1      31.732  34.379  27.239  1.00  0.00     0.163 HD
ATOM     26  O   UNL A   1      32.833  35.596  28.978  1.00  0.00    -0.269 OA
BRANCH  24  27
ATOM     27  C   UNL A   1      34.493  33.944  29.061  1.00  0.00     0.039 A 
ATOM     28  C   UNL A   1      34.450  33.099  30.175  1.00  0.00     0.014 A 
ATOM     29  C   UNL A   1      35.725  34.283  28.498  1.00  0.00     0.014 A 
ATOM     30  C   UNL A   1      35.632  32.560  30.688  1.00  0.00     0.010 A 
ATOM     31  C   UNL A   1      36.895  33.680  28.956  1.00  0.00     0.010 A 
ATOM     32  C   UNL A   1      36.862  32.825  30.067  1.00  0.00    -0.014 A 
BRANCH  32  33
ATOM     33  C   UNL A   1      38.119  32.225  30.580  1.00  0.00     0.031 A 
ATOM     34  C   UNL A   1      38.651  30.946  29.989  1.00  0.00     0.074 A 
ATOM     35  C   UNL A   1      38.765  32.811  31.606  1.00  0.00     0.049 A 
ATOM     36  N   UNL A   1      39.731  30.277  30.309  1.00  0.00    -0.248 NA
ATOM     37  C   UNL A   1      37.855  30.323  28.920  1.00  0.00     0.031 C 
ATOM     38  C   UNL A   1      38.328  34.023  32.303  1.00  0.00     0.029 A 
ATOM     39  N   UNL A   1      39.932  32.466  32.239  1.00  0.00    -0.354 N 
ATOM     40  C   UNL A   1      39.731  29.149  29.497  1.00  0.00     0.074 A 
ATOM     41  C   UNL A   1      38.522  29.199  28.705  1.00  0.00     0.031 C 
ATOM     42  C   UNL A   1      39.234  34.342  33.240  1.00  0.00     0.029 A 
ATOM     43  C   UNL A   1      40.299  33.345  33.230  1.00  0.00     0.049 A 
ATOM     44  H   UNL A   1      40.456  31.667  32.006  1.00  0.00     0.167 HD
ATOM     45  C   UNL A   1      40.663  28.171  29.401  1.00  0.00     0.031 A 
ATOM     46  C   UNL A   1      41.378  33.352  34.034  1.00  0.00     0.031 A 
ATOM     47  C   UNL A   1      41.878  28.130  30.170  1.00  0.00     0.049 A 
ATOM     48  C   UNL A   1      42.413  32.273  33.887  1.00  0.00     0.074 A 
ATOM     49  C   UNL A   1      42.913  27.213  30.102  1.00  0.00     0.029 A 
ATOM     50  N   UNL A   1      42.222  29.051  31.147  1.00  0.00    -0.354 N 
ATOM     51  N   UNL A   1      42.432  31.253  33.064  1.00  0.00    -0.248 NA
ATOM     52  C   UNL A   1      43.585  32.360  34.769  1.00  0.00     0.031 C 
ATOM     53  C   UNL A   1      43.868  27.560  31.064  1.00  0.00     0.029 A 
ATOM     54  C   UNL A   1      43.447  28.718  31.699  1.00  0.00     0.049 A 
ATOM     55  H   UNL A   1      41.676  29.827  31.410  1.00  0.00     0.167 HD
ATOM     56  C   UNL A   1      43.627  30.590  33.311  1.00  0.00     0.074 A 
ATOM     57  C   UNL A   1      44.312  31.335  34.348  1.00  0.00     0.031 C 
ATOM     58  C   UNL A   1      44.113  29.466  32.732  1.00  0.00     0.031 A 
BRANCH  45  59
ATOM     59  C   UNL A   1      40.399  27.062  28.421  1.00  0.00    -0.014 A 
ATOM     60  C   UNL A   1      39.638  25.939  28.783  1.00  0.00     0.009 A 
ATOM     61  C   UNL A   1      40.895  27.152  27.111  1.00  0.00     0.009 A 
ATOM     62  C   UNL A   1      39.412  24.912  27.865  1.00  0.00     0.001 A 
ATOM     63  C   UNL A   1      40.645  26.136  26.187  1.00  0.00     0.001 A 
ATOM     64  C   UNL A   1      39.912  25.012  26.567  1.00  0.00     0.000 A 
ENDBRANCH  45  59
BRANCH  46  65
ATOM     65  C   UNL A   1      41.558  34.444  35.024  1.00  0.00    -0.014 A 
ATOM     66  C   UNL A   1      42.226  35.624  34.663  1.00  0.00     0.009 A 
ATOM     67  C   UNL A   1      41.065  34.314  36.330  1.00  0.00     0.009 A 
ATOM     68  C   UNL A   1      42.419  36.642  35.599  1.00  0.00     0.001 A 
ATOM     69  C   UNL A   1      41.237  35.344  37.258  1.00  0.00     0.001 A 
ATOM     70  C   UNL A   1      41.921  36.503  36.893  1.00  0.00     0.000 A 
ENDBRANCH  46  65
BRANCH  58  71
ATOM     71  C   UNL A   1      45.462  28.994  33.189  1.00  0.00    -0.014 A 
ATOM     72  C   UNL A   1      45.595  28.108  34.270  1.00  0.00     0.009 A 
ATOM     73  C   UNL A   1      46.614  29.426  32.515  1.00  0.00     0.009 A 
ATOM     74  C   UNL A   1      46.861  27.694  34.690  1.00  0.00     0.001 A 
ATOM     75  C   UNL A   1      47.877  28.990  32.921  1.00  0.00     0.001 A 
ATOM     76  C   UNL A   1      47.999  28.133  34.014  1.00  0.00     0.000 A 
ENDBRANCH  58  71
ENDBRANCH  32  33
ENDBRANCH  24  27
ENDBRANCH  22  23
ENDBRANCH  21  22
ENDBRANCH  20  21
ENDBRANCH   3  20
TORSDOF 15
ENDMDL
