MODEL 1
REMARK VINA RESULT:     -13.3      0.000      0.000
REMARK SMILES Cc1c(CC(=O)NCCCNC(=O)c2ccc(-c3c4nc(c(-c5ccccc5)c5ccc([nH]5)c(-c5ccccc5)c5nc(c(-c6ccccc6)c6ccc3[nH]6)C=C5)C=C4)cc2)cc(-c2ccccc2)cc1-c1ccccc1
REMARK SMILES IDX 9 1 8 2 7 3 5 4 6 5 4 7 3 8 1 9 2 10 71 11 62 12 70 13 63 14
REMARK SMILES IDX 72 15 73 16 77 17 74 18 76 19 75 20 64 21 65 22 69 23 66 24
REMARK SMILES IDX 68 25 67 26 10 27 11 28 12 29 13 31 14 32 15 33 61 34 16 35
REMARK SMILES IDX 60 36 17 37 18 38 19 39 54 40 20 41 59 42 53 43 55 44 21 45
REMARK SMILES IDX 58 46 52 47 51 48 22 50 44 51 29 52 43 53 30 54 33 55 42 56
REMARK SMILES IDX 56 57 31 58 32 59 41 61 57 62 34 63 23 64 24 65 28 66 25 67
REMARK SMILES IDX 27 68 26 69 45 70 46 71 50 72 47 73 49 74 48 75 35 76 36 77
REMARK SMILES IDX 40 78 37 79 39 80 38 81
REMARK H PARENT 7 6 11 30 55 49 33 60
REMARK Flexibility Score: inf
ROOT
ATOM      1  C   UNL A   1      41.238  21.898  26.071  1.00  0.00     0.042 C 
ENDROOT
BRANCH   1   2
ATOM      2  C   UNL A   1      39.787  21.456  26.245  1.00  0.00     0.117 C 
BRANCH   2   3
ATOM      3  N   UNL A   1      38.898  22.561  26.570  1.00  0.00    -0.356 N 
ATOM      4  C   UNL A   1      37.807  23.025  25.886  1.00  0.00     0.224 C 
ATOM      5  O   UNL A   1      37.192  23.985  26.359  1.00  0.00    -0.275 OA
ATOM      6  H   UNL A   1      39.113  23.045  27.400  1.00  0.00     0.163 HD
BRANCH   4   7
ATOM      7  C   UNL A   1      37.360  22.369  24.581  1.00  0.00     0.135 C 
BRANCH   7   8
ATOM      8  C   UNL A   1      35.940  21.831  24.630  1.00  0.00    -0.035 A 
ATOM      9  C   UNL A   1      36.695  19.428  25.035  1.00  0.00     0.045 C 
ATOM     10  C   UNL A   1      35.620  20.454  24.761  1.00  0.00    -0.040 A 
ATOM     11  C   UNL A   1      34.261  20.047  24.659  1.00  0.00    -0.015 A 
ATOM     12  C   UNL A   1      34.898  22.773  24.486  1.00  0.00     0.013 A 
ATOM     13  C   UNL A   1      33.260  21.027  24.488  1.00  0.00     0.017 A 
ATOM     14  C   UNL A   1      33.554  22.394  24.417  1.00  0.00    -0.017 A 
BRANCH  11  15
ATOM     15  C   UNL A   1      33.842  18.632  24.665  1.00  0.00    -0.018 A 
ATOM     16  C   UNL A   1      34.293  17.754  23.662  1.00  0.00     0.009 A 
ATOM     17  C   UNL A   1      32.995  18.120  25.660  1.00  0.00     0.009 A 
ATOM     18  C   UNL A   1      33.922  16.407  23.664  1.00  0.00     0.001 A 
ATOM     19  C   UNL A   1      32.633  16.770  25.669  1.00  0.00     0.001 A 
ATOM     20  C   UNL A   1      33.097  15.915  24.670  1.00  0.00     0.000 A 
ENDBRANCH  11  15
BRANCH  14  21
ATOM     21  C   UNL A   1      32.485  23.397  24.276  1.00  0.00    -0.018 A 
ATOM     22  C   UNL A   1      31.381  23.174  23.437  1.00  0.00     0.009 A 
ATOM     23  C   UNL A   1      32.552  24.617  24.968  1.00  0.00     0.009 A 
ATOM     24  C   UNL A   1      30.382  24.141  23.292  1.00  0.00     0.001 A 
ATOM     25  C   UNL A   1      31.557  25.586  24.820  1.00  0.00     0.001 A 
ATOM     26  C   UNL A   1      30.472  25.347  23.981  1.00  0.00     0.000 A 
ENDBRANCH  14  21
ENDBRANCH   7   8
ENDBRANCH   4   7
ENDBRANCH   2   3
ENDBRANCH   1   2
BRANCH   1  27
ATOM     27  C   UNL A   1      42.257  20.861  26.507  1.00  0.00     0.118 C 
BRANCH  27  28
ATOM     28  N   UNL A   1      43.033  20.284  25.415  1.00  0.00    -0.352 N 
ATOM     29  C   UNL A   1      44.089  20.839  24.708  1.00  0.00     0.251 C 
ATOM     30  H   UNL A   1      42.771  19.376  25.141  1.00  0.00     0.163 HD
ATOM     31  O   UNL A   1      44.614  20.223  23.797  1.00  0.00    -0.269 OA
BRANCH  29  32
ATOM     32  C   UNL A   1      44.660  22.131  25.165  1.00  0.00     0.039 A 
ATOM     33  C   UNL A   1      45.302  22.151  26.407  1.00  0.00     0.014 A 
ATOM     34  C   UNL A   1      44.365  23.320  24.506  1.00  0.00     0.014 A 
ATOM     35  C   UNL A   1      45.400  23.354  27.100  1.00  0.00     0.010 A 
ATOM     36  C   UNL A   1      44.364  24.495  25.230  1.00  0.00     0.010 A 
ATOM     37  C   UNL A   1      44.813  24.495  26.554  1.00  0.00    -0.014 A 
BRANCH  37  38
ATOM     38  C   UNL A   1      44.485  25.674  27.344  1.00  0.00     0.031 A 
ATOM     39  C   UNL A   1      43.132  26.261  27.308  1.00  0.00     0.074 A 
ATOM     40  C   UNL A   1      45.424  26.221  28.148  1.00  0.00     0.049 A 
ATOM     41  N   UNL A   1      42.875  27.500  27.565  1.00  0.00    -0.248 NA
ATOM     42  C   UNL A   1      41.953  25.494  26.922  1.00  0.00     0.031 C 
ATOM     43  C   UNL A   1      45.230  27.217  29.198  1.00  0.00     0.029 A 
ATOM     44  N   UNL A   1      46.800  26.121  28.049  1.00  0.00    -0.354 N 
ATOM     45  C   UNL A   1      41.510  27.622  27.674  1.00  0.00     0.074 A 
ATOM     46  C   UNL A   1      40.979  26.373  27.179  1.00  0.00     0.031 C 
ATOM     47  C   UNL A   1      46.410  27.799  29.469  1.00  0.00     0.029 A 
ATOM     48  C   UNL A   1      47.376  27.307  28.502  1.00  0.00     0.049 A 
ATOM     49  H   UNL A   1      47.294  25.338  27.714  1.00  0.00     0.167 HD
ATOM     50  C   UNL A   1      40.978  28.704  28.309  1.00  0.00     0.031 A 
ATOM     51  C   UNL A   1      48.114  28.104  27.671  1.00  0.00     0.031 A 
ATOM     52  C   UNL A   1      42.004  29.654  28.732  1.00  0.00     0.049 A 
ATOM     53  C   UNL A   1      47.514  29.480  27.452  1.00  0.00     0.074 A 
ATOM     54  C   UNL A   1      42.619  29.896  29.950  1.00  0.00     0.029 A 
ATOM     55  N   UNL A   1      42.754  30.323  27.773  1.00  0.00    -0.354 N 
ATOM     56  N   UNL A   1      46.283  29.794  27.742  1.00  0.00    -0.248 NA
ATOM     57  C   UNL A   1      48.240  30.594  26.845  1.00  0.00     0.031 C 
ATOM     58  C   UNL A   1      43.788  30.663  29.707  1.00  0.00     0.029 A 
ATOM     59  C   UNL A   1      43.863  30.910  28.348  1.00  0.00     0.049 A 
ATOM     60  H   UNL A   1      42.526  30.371  26.815  1.00  0.00     0.167 HD
ATOM     61  C   UNL A   1      46.036  31.089  27.371  1.00  0.00     0.074 A 
ATOM     62  C   UNL A   1      47.298  31.555  26.829  1.00  0.00     0.031 C 
ATOM     63  C   UNL A   1      44.805  31.659  27.528  1.00  0.00     0.031 A 
BRANCH  50  64
ATOM     64  C   UNL A   1      39.554  28.740  28.810  1.00  0.00    -0.014 A 
ATOM     65  C   UNL A   1      38.544  29.295  28.002  1.00  0.00     0.009 A 
ATOM     66  C   UNL A   1      39.151  28.301  30.082  1.00  0.00     0.009 A 
ATOM     67  C   UNL A   1      37.242  29.503  28.475  1.00  0.00     0.001 A 
ATOM     68  C   UNL A   1      37.862  28.544  30.579  1.00  0.00     0.001 A 
ATOM     69  C   UNL A   1      36.910  29.157  29.778  1.00  0.00     0.000 A 
ENDBRANCH  50  64
BRANCH  51  70
ATOM     70  C   UNL A   1      48.885  27.352  26.644  1.00  0.00    -0.014 A 
ATOM     71  C   UNL A   1      48.480  27.455  25.298  1.00  0.00     0.009 A 
ATOM     72  C   UNL A   1      50.170  26.862  26.921  1.00  0.00     0.009 A 
ATOM     73  C   UNL A   1      49.374  27.184  24.258  1.00  0.00     0.001 A 
ATOM     74  C   UNL A   1      51.059  26.584  25.875  1.00  0.00     0.001 A 
ATOM     75  C   UNL A   1      50.674  26.778  24.548  1.00  0.00     0.000 A 
ENDBRANCH  51  70
BRANCH  63  76
ATOM     76  C   UNL A   1      44.361  32.994  26.983  1.00  0.00    -0.014 A 
ATOM     77  C   UNL A   1      43.996  33.225  25.651  1.00  0.00     0.009 A 
ATOM     78  C   UNL A   1      44.165  34.063  27.887  1.00  0.00     0.009 A 
ATOM     79  C   UNL A   1      43.495  34.469  25.238  1.00  0.00     0.001 A 
ATOM     80  C   UNL A   1      43.625  35.289  27.489  1.00  0.00     0.001 A 
ATOM     81  C   UNL A   1      43.300  35.495  26.157  1.00  0.00     0.000 A 
ENDBRANCH  63  76
ENDBRANCH  37  38
ENDBRANCH  29  32
ENDBRANCH  27  28
ENDBRANCH   1  27
TORSDOF 13
ENDMDL
MODEL 2
REMARK VINA RESULT:     -13.1      0.513      3.201
REMARK SMILES Cc1c(CC(=O)NCCCNC(=O)c2ccc(-c3c4nc(c(-c5ccccc5)c5ccc([nH]5)c(-c5ccccc5)c5nc(c(-c6ccccc6)c6ccc3[nH]6)C=C5)C=C4)cc2)cc(-c2ccccc2)cc1-c1ccccc1
REMARK SMILES IDX 9 1 8 2 7 3 5 4 6 5 4 7 3 8 1 9 2 10 71 11 62 12 70 13 63 14
REMARK SMILES IDX 72 15 73 16 77 17 74 18 76 19 75 20 64 21 65 22 69 23 66 24
REMARK SMILES IDX 68 25 67 26 10 27 11 28 12 29 13 31 14 32 15 33 61 34 16 35
REMARK SMILES IDX 60 36 17 37 18 38 19 39 54 40 20 41 59 42 53 43 55 44 21 45
REMARK SMILES IDX 58 46 52 47 51 48 22 50 44 51 29 52 43 53 30 54 33 55 42 56
REMARK SMILES IDX 56 57 31 58 32 59 41 61 57 62 34 63 23 64 24 65 28 66 25 67
REMARK SMILES IDX 27 68 26 69 45 70 46 71 50 72 47 73 49 74 48 75 35 76 36 77
REMARK SMILES IDX 40 78 37 79 39 80 38 81
REMARK H PARENT 7 6 11 30 55 49 33 60
REMARK Flexibility Score: inf
ROOT
ATOM      1  C   UNL A   1      40.501  20.463  26.575  1.00  0.00     0.042 C 
ENDROOT
BRANCH   1   2
ATOM      2  C   UNL A   1      39.292  20.961  25.786  1.00  0.00     0.117 C 
BRANCH   2   3
ATOM      3  N   UNL A   1      38.710  22.168  26.352  1.00  0.00    -0.356 N 
ATOM      4  C   UNL A   1      37.775  23.012  25.817  1.00  0.00     0.224 C 
ATOM      5  O   UNL A   1      37.420  23.985  26.488  1.00  0.00    -0.275 OA
ATOM      6  H   UNL A   1      39.036  22.413  27.248  1.00  0.00     0.163 HD
BRANCH   4   7
ATOM      7  C   UNL A   1      37.183  22.753  24.433  1.00  0.00     0.135 C 
BRANCH   7   8
ATOM      8  C   UNL A   1      35.722  22.339  24.468  1.00  0.00    -0.035 A 
ATOM      9  C   UNL A   1      34.875  24.727  24.169  1.00  0.00     0.045 C 
ATOM     10  C   UNL A   1      34.640  23.257  24.427  1.00  0.00    -0.040 A 
ATOM     11  C   UNL A   1      33.314  22.771  24.603  1.00  0.00    -0.015 A 
ATOM     12  C   UNL A   1      35.454  20.959  24.599  1.00  0.00     0.013 A 
ATOM     13  C   UNL A   1      33.104  21.385  24.758  1.00  0.00     0.017 A 
ATOM     14  C   UNL A   1      34.155  20.461  24.741  1.00  0.00    -0.017 A 
BRANCH  11  15
ATOM     15  C   UNL A   1      32.137  23.659  24.692  1.00  0.00    -0.018 A 
ATOM     16  C   UNL A   1      31.739  24.188  25.934  1.00  0.00     0.009 A 
ATOM     17  C   UNL A   1      31.389  24.003  23.556  1.00  0.00     0.009 A 
ATOM     18  C   UNL A   1      30.640  25.044  26.033  1.00  0.00     0.001 A 
ATOM     19  C   UNL A   1      30.297  24.870  23.653  1.00  0.00     0.001 A 
ATOM     20  C   UNL A   1      29.923  25.389  24.891  1.00  0.00     0.000 A 
ENDBRANCH  11  15
BRANCH  14  21
ATOM     21  C   UNL A   1      33.902  19.016  24.867  1.00  0.00    -0.018 A 
ATOM     22  C   UNL A   1      34.816  18.069  24.376  1.00  0.00     0.009 A 
ATOM     23  C   UNL A   1      32.725  18.545  25.470  1.00  0.00     0.009 A 
ATOM     24  C   UNL A   1      34.558  16.700  24.480  1.00  0.00     0.001 A 
ATOM     25  C   UNL A   1      32.464  17.177  25.571  1.00  0.00     0.001 A 
ATOM     26  C   UNL A   1      33.381  16.254  25.075  1.00  0.00     0.000 A 
ENDBRANCH  14  21
ENDBRANCH   7   8
ENDBRANCH   4   7
ENDBRANCH   2   3
ENDBRANCH   1   2
BRANCH   1  27
ATOM     27  C   UNL A   1      41.792  21.197  26.258  1.00  0.00     0.118 C 
BRANCH  27  28
ATOM     28  N   UNL A   1      42.719  20.448  25.417  1.00  0.00    -0.352 N 
ATOM     29  C   UNL A   1      43.946  20.841  24.907  1.00  0.00     0.251 C 
ATOM     30  H   UNL A   1      42.433  19.537  25.179  1.00  0.00     0.163 HD
ATOM     31  O   UNL A   1      44.587  20.091  24.192  1.00  0.00    -0.269 OA
BRANCH  29  32
ATOM     32  C   UNL A   1      44.531  22.130  25.355  1.00  0.00     0.039 A 
ATOM     33  C   UNL A   1      45.152  22.159  26.607  1.00  0.00     0.014 A 
ATOM     34  C   UNL A   1      44.266  23.315  24.673  1.00  0.00     0.014 A 
ATOM     35  C   UNL A   1      45.258  23.370  27.283  1.00  0.00     0.010 A 
ATOM     36  C   UNL A   1      44.273  24.500  25.380  1.00  0.00     0.010 A 
ATOM     37  C   UNL A   1      44.699  24.513  26.711  1.00  0.00    -0.014 A 
BRANCH  37  38
ATOM     38  C   UNL A   1      44.378  25.708  27.479  1.00  0.00     0.031 A 
ATOM     39  C   UNL A   1      43.026  26.298  27.437  1.00  0.00     0.074 A 
ATOM     40  C   UNL A   1      45.322  26.269  28.266  1.00  0.00     0.049 A 
ATOM     41  N   UNL A   1      42.773  27.542  27.669  1.00  0.00    -0.248 NA
ATOM     42  C   UNL A   1      41.843  25.526  27.072  1.00  0.00     0.031 C 
ATOM     43  C   UNL A   1      45.135  27.287  29.297  1.00  0.00     0.029 A 
ATOM     44  N   UNL A   1      46.697  26.164  28.163  1.00  0.00    -0.354 N 
ATOM     45  C   UNL A   1      41.409  27.670  27.782  1.00  0.00     0.074 A 
ATOM     46  C   UNL A   1      40.873  26.413  27.315  1.00  0.00     0.031 C 
ATOM     47  C   UNL A   1      46.318  27.872  29.550  1.00  0.00     0.029 A 
ATOM     48  C   UNL A   1      47.278  27.358  28.589  1.00  0.00     0.049 A 
ATOM     49  H   UNL A   1      47.187  25.373  27.842  1.00  0.00     0.167 HD
ATOM     50  C   UNL A   1      40.882  28.766  28.396  1.00  0.00     0.031 A 
ATOM     51  C   UNL A   1      48.014  28.135  27.739  1.00  0.00     0.031 A 
ATOM     52  C   UNL A   1      41.913  29.722  28.796  1.00  0.00     0.049 A 
ATOM     53  C   UNL A   1      47.417  29.508  27.494  1.00  0.00     0.074 A 
ATOM     54  C   UNL A   1      42.534  29.987  30.005  1.00  0.00     0.029 A 
ATOM     55  N   UNL A   1      42.660  30.369  27.819  1.00  0.00    -0.354 N 
ATOM     56  N   UNL A   1      46.187  29.831  27.783  1.00  0.00    -0.248 NA
ATOM     57  C   UNL A   1      48.143  30.608  26.861  1.00  0.00     0.031 C 
ATOM     58  C   UNL A   1      43.703  30.747  29.741  1.00  0.00     0.029 A 
ATOM     59  C   UNL A   1      43.773  30.966  28.377  1.00  0.00     0.049 A 
ATOM     60  H   UNL A   1      42.427  30.398  26.862  1.00  0.00     0.167 HD
ATOM     61  C   UNL A   1      45.941  31.119  27.386  1.00  0.00     0.074 A 
ATOM     62  C   UNL A   1      47.203  31.571  26.829  1.00  0.00     0.031 C 
ATOM     63  C   UNL A   1      44.713  31.695  27.537  1.00  0.00     0.031 A 
BRANCH  50  64
ATOM     64  C   UNL A   1      39.461  28.816  28.903  1.00  0.00    -0.014 A 
ATOM     65  C   UNL A   1      38.440  29.309  28.069  1.00  0.00     0.009 A 
ATOM     66  C   UNL A   1      39.070  28.451  30.202  1.00  0.00     0.009 A 
ATOM     67  C   UNL A   1      37.138  29.530  28.537  1.00  0.00     0.001 A 
ATOM     68  C   UNL A   1      37.781  28.708  30.691  1.00  0.00     0.001 A 
ATOM     69  C   UNL A   1      36.818  29.261  29.861  1.00  0.00     0.000 A 
ENDBRANCH  50  64
BRANCH  51  70
ATOM     70  C   UNL A   1      48.779  27.361  26.724  1.00  0.00    -0.014 A 
ATOM     71  C   UNL A   1      48.432  27.515  25.367  1.00  0.00     0.009 A 
ATOM     72  C   UNL A   1      50.022  26.791  27.036  1.00  0.00     0.009 A 
ATOM     73  C   UNL A   1      49.347  27.213  24.354  1.00  0.00     0.001 A 
ATOM     74  C   UNL A   1      50.932  26.482  26.017  1.00  0.00     0.001 A 
ATOM     75  C   UNL A   1      50.609  26.726  24.682  1.00  0.00     0.000 A 
ENDBRANCH  51  70
BRANCH  63  76
ATOM     76  C   UNL A   1      44.270  33.020  26.967  1.00  0.00    -0.014 A 
ATOM     77  C   UNL A   1      43.979  33.243  25.615  1.00  0.00     0.009 A 
ATOM     78  C   UNL A   1      43.994  34.082  27.858  1.00  0.00     0.009 A 
ATOM     79  C   UNL A   1      43.473  34.475  25.173  1.00  0.00     0.001 A 
ATOM     80  C   UNL A   1      43.448  35.295  27.428  1.00  0.00     0.001 A 
ATOM     81  C   UNL A   1      43.199  35.495  26.079  1.00  0.00     0.000 A 
ENDBRANCH  63  76
ENDBRANCH  37  38
ENDBRANCH  29  32
ENDBRANCH  27  28
ENDBRANCH   1  27
TORSDOF 13
ENDMDL
MODEL 3
REMARK VINA RESULT:     -13.1      4.102      9.400
REMARK SMILES Cc1c(CC(=O)NCCCNC(=O)c2ccc(-c3c4nc(c(-c5ccccc5)c5ccc([nH]5)c(-c5ccccc5)c5nc(c(-c6ccccc6)c6ccc3[nH]6)C=C5)C=C4)cc2)cc(-c2ccccc2)cc1-c1ccccc1
REMARK SMILES IDX 9 1 8 2 7 3 5 4 6 5 4 7 3 8 1 9 2 10 71 11 62 12 70 13 63 14
REMARK SMILES IDX 72 15 73 16 77 17 74 18 76 19 75 20 64 21 65 22 69 23 66 24
REMARK SMILES IDX 68 25 67 26 10 27 11 28 12 29 13 31 14 32 15 33 61 34 16 35
REMARK SMILES IDX 60 36 17 37 18 38 19 39 54 40 20 41 59 42 53 43 55 44 21 45
REMARK SMILES IDX 58 46 52 47 51 48 22 50 44 51 29 52 43 53 30 54 33 55 42 56
REMARK SMILES IDX 56 57 31 58 32 59 41 61 57 62 34 63 23 64 24 65 28 66 25 67
REMARK SMILES IDX 27 68 26 69 45 70 46 71 50 72 47 73 49 74 48 75 35 76 36 77
REMARK SMILES IDX 40 78 37 79 39 80 38 81
REMARK H PARENT 7 6 11 30 55 49 33 60
REMARK Flexibility Score: inf
ROOT
ATOM      1  C   UNL A   1      34.488  29.171  26.403  1.00  0.00     0.042 C 
ENDROOT
BRANCH   1   2
ATOM      2  C   UNL A   1      33.214  28.450  25.970  1.00  0.00     0.117 C 
BRANCH   2   3
ATOM      3  N   UNL A   1      33.368  27.745  24.707  1.00  0.00    -0.356 N 
ATOM      4  C   UNL A   1      33.292  26.403  24.448  1.00  0.00     0.224 C 
ATOM      5  O   UNL A   1      33.453  26.027  23.284  1.00  0.00    -0.275 OA
ATOM      6  H   UNL A   1      33.555  28.315  23.926  1.00  0.00     0.163 HD
BRANCH   4   7
ATOM      7  C   UNL A   1      33.008  25.402  25.567  1.00  0.00     0.135 C 
BRANCH   7   8
ATOM      8  C   UNL A   1      33.757  24.091  25.408  1.00  0.00    -0.035 A 
ATOM      9  C   UNL A   1      31.693  22.827  24.600  1.00  0.00     0.045 C 
ATOM     10  C   UNL A   1      33.140  22.868  25.036  1.00  0.00    -0.040 A 
ATOM     11  C   UNL A   1      33.910  21.671  25.049  1.00  0.00    -0.015 A 
ATOM     12  C   UNL A   1      35.139  24.107  25.701  1.00  0.00     0.013 A 
ATOM     13  C   UNL A   1      35.281  21.739  25.377  1.00  0.00     0.017 A 
ATOM     14  C   UNL A   1      35.918  22.946  25.688  1.00  0.00    -0.017 A 
BRANCH  11  15
ATOM     15  C   UNL A   1      33.330  20.338  24.792  1.00  0.00    -0.018 A 
ATOM     16  C   UNL A   1      32.959  19.965  23.487  1.00  0.00     0.009 A 
ATOM     17  C   UNL A   1      33.136  19.409  25.826  1.00  0.00     0.009 A 
ATOM     18  C   UNL A   1      32.427  18.701  23.223  1.00  0.00     0.001 A 
ATOM     19  C   UNL A   1      32.615  18.140  25.561  1.00  0.00     0.001 A 
ATOM     20  C   UNL A   1      32.261  17.787  24.260  1.00  0.00     0.000 A 
ENDBRANCH  11  15
BRANCH  14  21
ATOM     21  C   UNL A   1      37.358  22.992  25.989  1.00  0.00    -0.018 A 
ATOM     22  C   UNL A   1      37.971  24.168  26.451  1.00  0.00     0.009 A 
ATOM     23  C   UNL A   1      38.166  21.857  25.804  1.00  0.00     0.009 A 
ATOM     24  C   UNL A   1      39.343  24.209  26.714  1.00  0.00     0.001 A 
ATOM     25  C   UNL A   1      39.537  21.898  26.062  1.00  0.00     0.001 A 
ATOM     26  C   UNL A   1      40.126  23.075  26.517  1.00  0.00     0.000 A 
ENDBRANCH  14  21
ENDBRANCH   7   8
ENDBRANCH   4   7
ENDBRANCH   2   3
ENDBRANCH   1   2
BRANCH   1  27
ATOM     27  C   UNL A   1      34.346  29.960  27.692  1.00  0.00     0.118 C 
BRANCH  27  28
ATOM     28  N   UNL A   1      33.664  31.241  27.540  1.00  0.00    -0.352 N 
ATOM     29  C   UNL A   1      33.972  32.466  28.112  1.00  0.00     0.251 C 
ATOM     30  H   UNL A   1      32.877  31.235  26.950  1.00  0.00     0.163 HD
ATOM     31  O   UNL A   1      33.274  33.441  27.896  1.00  0.00    -0.269 OA
BRANCH  29  32
ATOM     32  C   UNL A   1      35.238  32.605  28.875  1.00  0.00     0.039 A 
ATOM     33  C   UNL A   1      36.300  33.265  28.251  1.00  0.00     0.014 A 
ATOM     34  C   UNL A   1      35.443  31.904  30.060  1.00  0.00     0.014 A 
ATOM     35  C   UNL A   1      37.601  32.999  28.666  1.00  0.00     0.010 A 
ATOM     36  C   UNL A   1      36.732  31.555  30.407  1.00  0.00     0.010 A 
ATOM     37  C   UNL A   1      37.808  32.044  29.662  1.00  0.00    -0.014 A 
BRANCH  37  38
ATOM     38  C   UNL A   1      39.091  31.389  29.877  1.00  0.00     0.031 A 
ATOM     39  C   UNL A   1      39.382  30.073  29.277  1.00  0.00     0.074 A 
ATOM     40  C   UNL A   1      40.042  32.007  30.611  1.00  0.00     0.049 A 
ATOM     41  N   UNL A   1      40.233  29.230  29.761  1.00  0.00    -0.248 NA
ATOM     42  C   UNL A   1      38.686  29.576  28.096  1.00  0.00     0.031 C 
ATOM     43  C   UNL A   1      41.455  31.654  30.723  1.00  0.00     0.029 A 
ATOM     44  N   UNL A   1      39.880  32.991  31.570  1.00  0.00    -0.354 N 
ATOM     45  C   UNL A   1      40.416  28.245  28.820  1.00  0.00     0.074 A 
ATOM     46  C   UNL A   1      39.369  28.455  27.846  1.00  0.00     0.031 C 
ATOM     47  C   UNL A   1      41.959  32.221  31.832  1.00  0.00     0.029 A 
ATOM     48  C   UNL A   1      40.857  32.834  32.552  1.00  0.00     0.049 A 
ATOM     49  H   UNL A   1      39.186  33.690  31.561  1.00  0.00     0.167 HD
ATOM     50  C   UNL A   1      41.519  27.447  28.883  1.00  0.00     0.031 A 
ATOM     51  C   UNL A   1      40.526  32.551  33.848  1.00  0.00     0.031 A 
ATOM     52  C   UNL A   1      42.343  27.739  30.054  1.00  0.00     0.049 A 
ATOM     53  C   UNL A   1      41.042  31.209  34.331  1.00  0.00     0.074 A 
ATOM     54  C   UNL A   1      43.504  28.474  30.229  1.00  0.00     0.029 A 
ATOM     55  N   UNL A   1      41.836  27.494  31.324  1.00  0.00    -0.354 N 
ATOM     56  N   UNL A   1      41.475  30.266  33.542  1.00  0.00    -0.248 NA
ATOM     57  C   UNL A   1      41.064  30.806  35.737  1.00  0.00     0.031 C 
ATOM     58  C   UNL A   1      43.658  28.727  31.617  1.00  0.00     0.029 A 
ATOM     59  C   UNL A   1      42.607  28.122  32.282  1.00  0.00     0.049 A 
ATOM     60  H   UNL A   1      41.038  26.949  31.514  1.00  0.00     0.167 HD
ATOM     61  C   UNL A   1      41.810  29.162  34.280  1.00  0.00     0.074 A 
ATOM     62  C   UNL A   1      41.552  29.555  35.653  1.00  0.00     0.031 C 
ATOM     63  C   UNL A   1      42.257  28.014  33.691  1.00  0.00     0.031 A 
BRANCH  50  64
ATOM     64  C   UNL A   1      41.998  26.620  27.715  1.00  0.00    -0.014 A 
ATOM     65  C   UNL A   1      42.724  25.437  27.950  1.00  0.00     0.009 A 
ATOM     66  C   UNL A   1      41.821  26.975  26.367  1.00  0.00     0.009 A 
ATOM     67  C   UNL A   1      43.331  24.717  26.912  1.00  0.00     0.001 A 
ATOM     68  C   UNL A   1      42.459  26.285  25.326  1.00  0.00     0.001 A 
ATOM     69  C   UNL A   1      43.226  25.162  25.601  1.00  0.00     0.000 A 
ENDBRANCH  50  64
BRANCH  51  70
ATOM     70  C   UNL A   1      39.245  33.166  34.292  1.00  0.00    -0.014 A 
ATOM     71  C   UNL A   1      38.039  32.592  33.843  1.00  0.00     0.009 A 
ATOM     72  C   UNL A   1      39.204  34.036  35.391  1.00  0.00     0.009 A 
ATOM     73  C   UNL A   1      36.846  32.792  34.543  1.00  0.00     0.001 A 
ATOM     74  C   UNL A   1      38.004  34.240  36.084  1.00  0.00     0.001 A 
ATOM     75  C   UNL A   1      36.836  33.592  35.683  1.00  0.00     0.000 A 
ENDBRANCH  51  70
BRANCH  63  76
ATOM     76  C   UNL A   1      42.467  26.684  34.372  1.00  0.00    -0.014 A 
ATOM     77  C   UNL A   1      41.517  26.048  35.181  1.00  0.00     0.009 A 
ATOM     78  C   UNL A   1      43.640  25.950  34.078  1.00  0.00     0.009 A 
ATOM     79  C   UNL A   1      41.742  24.764  35.698  1.00  0.00     0.001 A 
ATOM     80  C   UNL A   1      43.848  24.653  34.554  1.00  0.00     0.001 A 
ATOM     81  C   UNL A   1      42.901  24.064  35.376  1.00  0.00     0.000 A 
ENDBRANCH  63  76
ENDBRANCH  37  38
ENDBRANCH  29  32
ENDBRANCH  27  28
ENDBRANCH   1  27
TORSDOF 13
ENDMDL
