MODEL 1
REMARK VINA RESULT:     -11.5      0.000      0.000
REMARK SMILES O=C(NCCCNC(=O)c1ccc(Cn2cc(Br)cc([N+](=O)[O-])c2=O)nc1)c1ccc(-c2c3nc(c(-c4ccccc4)c4ccc([nH]4)c(-c4ccccc4)c4nc(c(-c5ccccc5)c5ccc2[nH]5)C=C4)C=C3)cc1
REMARK SMILES IDX 5 1 4 2 3 3 1 4 2 5 28 7 29 8 75 9 30 10 74 11 31 12 32 13
REMARK SMILES IDX 33 14 68 15 34 16 73 17 67 18 69 19 35 20 72 21 66 22 65 23
REMARK SMILES IDX 36 25 58 26 43 27 57 28 44 29 47 30 56 31 70 32 45 33 46 34
REMARK SMILES IDX 55 36 71 37 48 38 37 39 38 40 42 41 39 42 41 43 40 44 59 45
REMARK SMILES IDX 60 46 64 47 61 48 63 49 62 50 49 51 50 52 54 53 51 54 53 55
REMARK SMILES IDX 52 56 6 57 7 58 8 59 9 61 10 62 11 63 27 64 12 65 26 66
REMARK SMILES IDX 13 67 14 68 15 69 16 70 24 71 17 72 20 73 25 74 18 75 19 76
REMARK SMILES IDX 21 77 22 78 23 79
REMARK H PARENT 3 6 69 24 47 35 7 60
REMARK Flexibility Score: inf
ROOT
ATOM      1  C   UNL A   1      32.358  28.763  26.099  1.00  0.00     0.042 C 
ENDROOT
BRANCH   1   2
ATOM      2  C   UNL A   1      33.402  28.884  27.203  1.00  0.00     0.118 C 
BRANCH   2   3
ATOM      3  N   UNL A   1      33.531  30.247  27.700  1.00  0.00    -0.352 N 
ATOM      4  O   UNL A   1      34.335  31.965  28.889  1.00  0.00    -0.269 OA
ATOM      5  C   UNL A   1      34.547  30.868  28.378  1.00  0.00     0.251 C 
ATOM      6  H   UNL A   1      32.753  30.821  27.517  1.00  0.00     0.163 HD
BRANCH   5   7
ATOM      7  C   UNL A   1      35.887  30.253  28.502  1.00  0.00     0.039 A 
ATOM      8  C   UNL A   1      36.243  29.670  29.724  1.00  0.00     0.014 A 
ATOM      9  C   UNL A   1      36.829  30.327  27.474  1.00  0.00     0.014 A 
ATOM     10  C   UNL A   1      37.527  29.151  29.906  1.00  0.00     0.010 A 
ATOM     11  C   UNL A   1      38.078  29.728  27.624  1.00  0.00     0.010 A 
ATOM     12  C   UNL A   1      38.453  29.168  28.853  1.00  0.00    -0.014 A 
BRANCH  12  13
ATOM     13  C   UNL A   1      39.845  28.684  29.041  1.00  0.00     0.031 A 
ATOM     14  C   UNL A   1      40.877  29.599  29.644  1.00  0.00     0.074 A 
ATOM     15  C   UNL A   1      40.191  27.445  28.644  1.00  0.00     0.049 A 
ATOM     16  N   UNL A   1      42.156  29.390  29.835  1.00  0.00    -0.248 NA
ATOM     17  C   UNL A   1      40.422  30.935  30.067  1.00  0.00     0.031 C 
ATOM     18  C   UNL A   1      39.289  26.468  28.034  1.00  0.00     0.029 A 
ATOM     19  N   UNL A   1      41.400  26.795  28.700  1.00  0.00    -0.354 N 
ATOM     20  C   UNL A   1      42.654  30.570  30.375  1.00  0.00     0.074 A 
ATOM     21  C   UNL A   1      41.558  31.509  30.434  1.00  0.00     0.031 C 
ATOM     22  C   UNL A   1      39.967  25.333  27.800  1.00  0.00     0.029 A 
ATOM     23  C   UNL A   1      41.359  25.514  28.202  1.00  0.00     0.049 A 
ATOM     24  H   UNL A   1      42.217  27.207  29.061  1.00  0.00     0.167 HD
ATOM     25  C   UNL A   1      43.907  30.839  30.808  1.00  0.00     0.031 A 
ATOM     26  C   UNL A   1      42.332  24.591  28.080  1.00  0.00     0.031 A 
ATOM     27  C   UNL A   1      44.988  29.892  30.782  1.00  0.00     0.049 A 
ATOM     28  C   UNL A   1      43.721  24.915  28.557  1.00  0.00     0.074 A 
ATOM     29  C   UNL A   1      46.278  30.053  31.255  1.00  0.00     0.029 A 
ATOM     30  N   UNL A   1      44.904  28.609  30.265  1.00  0.00    -0.354 N 
ATOM     31  N   UNL A   1      44.164  26.019  29.111  1.00  0.00    -0.248 NA
ATOM     32  C   UNL A   1      44.741  23.867  28.406  1.00  0.00     0.031 C 
ATOM     33  C   UNL A   1      46.992  28.888  30.970  1.00  0.00     0.029 A 
ATOM     34  C   UNL A   1      46.128  27.976  30.383  1.00  0.00     0.049 A 
ATOM     35  H   UNL A   1      44.095  28.209  29.872  1.00  0.00     0.167 HD
ATOM     36  C   UNL A   1      45.505  25.791  29.394  1.00  0.00     0.074 A 
ATOM     37  C   UNL A   1      45.800  24.439  28.965  1.00  0.00     0.031 C 
ATOM     38  C   UNL A   1      46.408  26.629  29.957  1.00  0.00     0.031 A 
BRANCH  25  39
ATOM     39  C   UNL A   1      44.185  32.210  31.361  1.00  0.00    -0.014 A 
ATOM     40  C   UNL A   1      43.964  32.470  32.723  1.00  0.00     0.009 A 
ATOM     41  C   UNL A   1      44.582  33.265  30.524  1.00  0.00     0.009 A 
ATOM     42  C   UNL A   1      44.124  33.759  33.234  1.00  0.00     0.001 A 
ATOM     43  C   UNL A   1      44.773  34.547  31.044  1.00  0.00     0.001 A 
ATOM     44  C   UNL A   1      44.535  34.795  32.395  1.00  0.00     0.000 A 
ENDBRANCH  25  39
BRANCH  26  45
ATOM     45  C   UNL A   1      42.006  23.258  27.506  1.00  0.00    -0.014 A 
ATOM     46  C   UNL A   1      41.436  22.253  28.303  1.00  0.00     0.009 A 
ATOM     47  C   UNL A   1      42.313  22.966  26.168  1.00  0.00     0.009 A 
ATOM     48  C   UNL A   1      41.200  20.979  27.781  1.00  0.00     0.001 A 
ATOM     49  C   UNL A   1      42.049  21.701  25.640  1.00  0.00     0.001 A 
ATOM     50  C   UNL A   1      41.502  20.705  26.449  1.00  0.00     0.000 A 
ENDBRANCH  26  45
BRANCH  38  51
ATOM     51  C   UNL A   1      47.808  26.124  30.169  1.00  0.00    -0.014 A 
ATOM     52  C   UNL A   1      48.203  25.689  31.445  1.00  0.00     0.009 A 
ATOM     53  C   UNL A   1      48.766  26.194  29.147  1.00  0.00     0.009 A 
ATOM     54  C   UNL A   1      49.535  25.358  31.699  1.00  0.00     0.001 A 
ATOM     55  C   UNL A   1      50.091  25.832  29.397  1.00  0.00     0.001 A 
ATOM     56  C   UNL A   1      50.477  25.427  30.675  1.00  0.00     0.000 A 
ENDBRANCH  38  51
ENDBRANCH  12  13
ENDBRANCH   5   7
ENDBRANCH   2   3
ENDBRANCH   1   2
BRANCH   1  57
ATOM     57  C   UNL A   1      32.878  29.103  24.707  1.00  0.00     0.118 C 
BRANCH  57  58
ATOM     58  N   UNL A   1      31.805  29.324  23.750  1.00  0.00    -0.352 N 
ATOM     59  C   UNL A   1      31.372  28.521  22.726  1.00  0.00     0.252 C 
ATOM     60  H   UNL A   1      31.318  30.174  23.853  1.00  0.00     0.163 HD
ATOM     61  O   UNL A   1      30.579  28.952  21.893  1.00  0.00    -0.269 OA
BRANCH  59  62
ATOM     62  C   UNL A   1      31.880  27.149  22.606  1.00  0.00     0.058 A 
ATOM     63  C   UNL A   1      31.114  26.032  22.938  1.00  0.00     0.017 A 
ATOM     64  C   UNL A   1      33.164  26.953  22.140  1.00  0.00     0.125 A 
ATOM     65  C   UNL A   1      31.695  24.765  22.882  1.00  0.00     0.026 A 
ATOM     66  N   UNL A   1      33.746  25.733  22.080  1.00  0.00    -0.259 NA
ATOM     67  C   UNL A   1      33.022  24.654  22.473  1.00  0.00     0.060 A 
BRANCH  67  68
ATOM     68  C   UNL A   1      33.721  23.308  22.428  1.00  0.00     0.181 C 
BRANCH  68  69
ATOM     69  N   UNL A   1      34.324  22.973  23.719  1.00  0.00    -0.303 N 
ATOM     70  C   UNL A   1      33.532  22.910  24.859  1.00  0.00     0.105 A 
ATOM     71  C   UNL A   1      35.708  22.718  23.755  1.00  0.00     0.329 A 
ATOM     72  C   UNL A   1      34.034  22.530  26.045  1.00  0.00     0.041 A 
ATOM     73  C   UNL A   1      36.178  22.117  25.023  1.00  0.00     0.335 A 
ATOM     74  O   UNL A   1      36.476  23.025  22.846  1.00  0.00    -0.261 OA
ATOM     75  Br  UNL A   1      33.013  22.516  27.601  1.00  0.00    -0.049 Br
ATOM     76  C   UNL A   1      35.399  22.060  26.116  1.00  0.00     0.109 A 
BRANCH  73  77
ATOM     77  N   UNL A   1      37.494  21.541  25.094  1.00  0.00     0.068 N 
ATOM     78  O   UNL A   1      38.415  22.250  25.518  1.00  0.00    -0.258 OA
ATOM     79  O   UNL A   1      37.637  20.390  24.653  1.00  0.00    -0.258 OA
ENDBRANCH  73  77
ENDBRANCH  68  69
ENDBRANCH  67  68
ENDBRANCH  59  62
ENDBRANCH  57  58
ENDBRANCH   1  57
TORSDOF 13
ENDMDL
MODEL 2
REMARK VINA RESULT:     -11.4      0.227      5.891
REMARK SMILES O=C(NCCCNC(=O)c1ccc(Cn2cc(Br)cc([N+](=O)[O-])c2=O)nc1)c1ccc(-c2c3nc(c(-c4ccccc4)c4ccc([nH]4)c(-c4ccccc4)c4nc(c(-c5ccccc5)c5ccc2[nH]5)C=C4)C=C3)cc1
REMARK SMILES IDX 5 1 4 2 3 3 1 4 2 5 28 7 29 8 75 9 30 10 74 11 31 12 32 13
REMARK SMILES IDX 33 14 68 15 34 16 73 17 67 18 69 19 35 20 72 21 66 22 65 23
REMARK SMILES IDX 36 25 58 26 43 27 57 28 44 29 47 30 56 31 70 32 45 33 46 34
REMARK SMILES IDX 55 36 71 37 48 38 37 39 38 40 42 41 39 42 41 43 40 44 59 45
REMARK SMILES IDX 60 46 64 47 61 48 63 49 62 50 49 51 50 52 54 53 51 54 53 55
REMARK SMILES IDX 52 56 6 57 7 58 8 59 9 61 10 62 11 63 27 64 12 65 26 66
REMARK SMILES IDX 13 67 14 68 15 69 16 70 24 71 17 72 20 73 25 74 18 75 19 76
REMARK SMILES IDX 21 77 22 78 23 79
REMARK H PARENT 3 6 69 24 47 35 7 60
REMARK Flexibility Score: inf
ROOT
ATOM      1  C   UNL A   1      32.585  28.547  25.974  1.00  0.00     0.042 C 
ENDROOT
BRANCH   1   2
ATOM      2  C   UNL A   1      33.597  28.712  27.101  1.00  0.00     0.118 C 
BRANCH   2   3
ATOM      3  N   UNL A   1      33.641  30.074  27.615  1.00  0.00    -0.352 N 
ATOM      4  O   UNL A   1      34.322  31.820  28.841  1.00  0.00    -0.269 OA
ATOM      5  C   UNL A   1      34.606  30.741  28.325  1.00  0.00     0.251 C 
ATOM      6  H   UNL A   1      32.838  30.609  27.419  1.00  0.00     0.163 HD
BRANCH   5   7
ATOM      7  C   UNL A   1      35.974  30.198  28.475  1.00  0.00     0.039 A 
ATOM      8  C   UNL A   1      36.339  29.643  29.707  1.00  0.00     0.014 A 
ATOM      9  C   UNL A   1      36.928  30.313  27.462  1.00  0.00     0.014 A 
ATOM     10  C   UNL A   1      37.645  29.192  29.914  1.00  0.00     0.010 A 
ATOM     11  C   UNL A   1      38.203  29.782  27.636  1.00  0.00     0.010 A 
ATOM     12  C   UNL A   1      38.586  29.250  28.876  1.00  0.00    -0.014 A 
BRANCH  12  13
ATOM     13  C   UNL A   1      39.998  28.841  29.090  1.00  0.00     0.031 A 
ATOM     14  C   UNL A   1      40.447  27.468  28.665  1.00  0.00     0.074 A 
ATOM     15  C   UNL A   1      40.864  29.679  29.690  1.00  0.00     0.049 A 
ATOM     16  N   UNL A   1      41.617  26.898  28.818  1.00  0.00    -0.248 NA
ATOM     17  C   UNL A   1      39.449  26.612  28.001  1.00  0.00     0.031 C 
ATOM     18  C   UNL A   1      40.549  31.028  30.160  1.00  0.00     0.029 A 
ATOM     19  N   UNL A   1      42.191  29.516  30.004  1.00  0.00    -0.354 N 
ATOM     20  C   UNL A   1      41.482  25.617  28.294  1.00  0.00     0.074 A 
ATOM     21  C   UNL A   1      40.110  25.472  27.866  1.00  0.00     0.031 C 
ATOM     22  C   UNL A   1      41.658  31.582  30.674  1.00  0.00     0.029 A 
ATOM     23  C   UNL A   1      42.751  30.615  30.610  1.00  0.00     0.049 A 
ATOM     24  H   UNL A   1      42.693  28.692  29.813  1.00  0.00     0.167 HD
ATOM     25  C   UNL A   1      42.425  24.656  28.157  1.00  0.00     0.031 A 
ATOM     26  C   UNL A   1      44.002  30.821  31.067  1.00  0.00     0.031 A 
ATOM     27  C   UNL A   1      43.798  24.815  28.549  1.00  0.00     0.049 A 
ATOM     28  C   UNL A   1      45.031  29.735  30.915  1.00  0.00     0.074 A 
ATOM     29  C   UNL A   1      44.842  23.919  28.395  1.00  0.00     0.029 A 
ATOM     30  N   UNL A   1      44.321  25.942  29.164  1.00  0.00    -0.354 N 
ATOM     31  N   UNL A   1      44.900  28.548  30.372  1.00  0.00    -0.248 NA
ATOM     32  C   UNL A   1      46.381  30.018  31.425  1.00  0.00     0.031 C 
ATOM     33  C   UNL A   1      45.983  24.480  28.971  1.00  0.00     0.029 A 
ATOM     34  C   UNL A   1      45.666  25.753  29.420  1.00  0.00     0.049 A 
ATOM     35  H   UNL A   1      43.810  26.753  29.386  1.00  0.00     0.167 HD
ATOM     36  C   UNL A   1      46.153  27.952  30.454  1.00  0.00     0.074 A 
ATOM     37  C   UNL A   1      47.034  28.914  31.085  1.00  0.00     0.031 C 
ATOM     38  C   UNL A   1      46.535  26.719  30.044  1.00  0.00     0.031 A 
BRANCH  25  39
ATOM     39  C   UNL A   1      42.014  23.345  27.545  1.00  0.00    -0.014 A 
ATOM     40  C   UNL A   1      41.426  22.355  28.348  1.00  0.00     0.009 A 
ATOM     41  C   UNL A   1      42.283  23.055  26.198  1.00  0.00     0.009 A 
ATOM     42  C   UNL A   1      41.126  21.099  27.819  1.00  0.00     0.001 A 
ATOM     43  C   UNL A   1      41.952  21.808  25.663  1.00  0.00     0.001 A 
ATOM     44  C   UNL A   1      41.383  20.829  26.476  1.00  0.00     0.000 A 
ENDBRANCH  25  39
BRANCH  26  45
ATOM     45  C   UNL A   1      44.348  32.130  31.683  1.00  0.00    -0.014 A 
ATOM     46  C   UNL A   1      44.175  32.344  33.060  1.00  0.00     0.009 A 
ATOM     47  C   UNL A   1      44.807  33.191  30.886  1.00  0.00     0.009 A 
ATOM     48  C   UNL A   1      44.430  33.597  33.622  1.00  0.00     0.001 A 
ATOM     49  C   UNL A   1      45.089  34.434  31.456  1.00  0.00     0.001 A 
ATOM     50  C   UNL A   1      44.892  34.640  32.821  1.00  0.00     0.000 A 
ENDBRANCH  26  45
BRANCH  38  51
ATOM     51  C   UNL A   1      47.971  26.320  30.239  1.00  0.00    -0.014 A 
ATOM     52  C   UNL A   1      48.380  25.778  31.469  1.00  0.00     0.009 A 
ATOM     53  C   UNL A   1      48.937  26.593  29.260  1.00  0.00     0.009 A 
ATOM     54  C   UNL A   1      49.731  25.540  31.723  1.00  0.00     0.001 A 
ATOM     55  C   UNL A   1      50.285  26.325  29.507  1.00  0.00     0.001 A 
ATOM     56  C   UNL A   1      50.682  25.811  30.741  1.00  0.00     0.000 A 
ENDBRANCH  38  51
ENDBRANCH  12  13
ENDBRANCH   5   7
ENDBRANCH   2   3
ENDBRANCH   1   2
BRANCH   1  57
ATOM     57  C   UNL A   1      33.056  29.084  24.627  1.00  0.00     0.118 C 
BRANCH  57  58
ATOM     58  N   UNL A   1      31.956  29.316  23.704  1.00  0.00    -0.352 N 
ATOM     59  C   UNL A   1      31.467  28.507  22.711  1.00  0.00     0.252 C 
ATOM     60  H   UNL A   1      31.496  30.180  23.808  1.00  0.00     0.163 HD
ATOM     61  O   UNL A   1      30.656  28.944  21.898  1.00  0.00    -0.269 OA
BRANCH  59  62
ATOM     62  C   UNL A   1      31.934  27.120  22.599  1.00  0.00     0.058 A 
ATOM     63  C   UNL A   1      31.159  26.031  22.996  1.00  0.00     0.017 A 
ATOM     64  C   UNL A   1      33.188  26.881  22.074  1.00  0.00     0.125 A 
ATOM     65  C   UNL A   1      31.705  24.748  22.942  1.00  0.00     0.026 A 
ATOM     66  N   UNL A   1      33.736  25.645  22.016  1.00  0.00    -0.259 NA
ATOM     67  C   UNL A   1      33.007  24.594  22.470  1.00  0.00     0.060 A 
BRANCH  67  68
ATOM     68  C   UNL A   1      33.670  23.230  22.424  1.00  0.00     0.181 C 
BRANCH  68  69
ATOM     69  N   UNL A   1      34.304  22.897  23.700  1.00  0.00    -0.303 N 
ATOM     70  C   UNL A   1      33.537  22.815  24.855  1.00  0.00     0.105 A 
ATOM     71  C   UNL A   1      35.693  22.666  23.706  1.00  0.00     0.329 A 
ATOM     72  C   UNL A   1      34.070  22.436  26.028  1.00  0.00     0.041 A 
ATOM     73  C   UNL A   1      36.199  22.066  24.960  1.00  0.00     0.335 A 
ATOM     74  O   UNL A   1      36.437  22.991  22.784  1.00  0.00    -0.261 OA
ATOM     75  Br  UNL A   1      33.081  22.395  27.605  1.00  0.00    -0.049 Br
ATOM     76  C   UNL A   1      35.444  21.988  26.068  1.00  0.00     0.109 A 
BRANCH  73  77
ATOM     77  N   UNL A   1      37.526  21.512  25.001  1.00  0.00     0.068 N 
ATOM     78  O   UNL A   1      37.675  20.338  24.641  1.00  0.00    -0.258 OA
ATOM     79  O   UNL A   1      38.428  22.225  25.468  1.00  0.00    -0.258 OA
ENDBRANCH  73  77
ENDBRANCH  68  69
ENDBRANCH  67  68
ENDBRANCH  59  62
ENDBRANCH  57  58
ENDBRANCH   1  57
TORSDOF 13
ENDMDL
MODEL 3
REMARK VINA RESULT:     -11.4      2.486      8.156
REMARK SMILES O=C(NCCCNC(=O)c1ccc(Cn2cc(Br)cc([N+](=O)[O-])c2=O)nc1)c1ccc(-c2c3nc(c(-c4ccccc4)c4ccc([nH]4)c(-c4ccccc4)c4nc(c(-c5ccccc5)c5ccc2[nH]5)C=C4)C=C3)cc1
REMARK SMILES IDX 5 1 4 2 3 3 1 4 2 5 28 7 29 8 75 9 30 10 74 11 31 12 32 13
REMARK SMILES IDX 33 14 68 15 34 16 73 17 67 18 69 19 35 20 72 21 66 22 65 23
REMARK SMILES IDX 36 25 58 26 43 27 57 28 44 29 47 30 56 31 70 32 45 33 46 34
REMARK SMILES IDX 55 36 71 37 48 38 37 39 38 40 42 41 39 42 41 43 40 44 59 45
REMARK SMILES IDX 60 46 64 47 61 48 63 49 62 50 49 51 50 52 54 53 51 54 53 55
REMARK SMILES IDX 52 56 6 57 7 58 8 59 9 61 10 62 11 63 27 64 12 65 26 66
REMARK SMILES IDX 13 67 14 68 15 69 16 70 24 71 17 72 20 73 25 74 18 75 19 76
REMARK SMILES IDX 21 77 22 78 23 79
REMARK H PARENT 3 6 69 24 47 35 7 60
REMARK Flexibility Score: inf
ROOT
ATOM      1  C   UNL A   1      35.745  22.662  24.669  1.00  0.00     0.042 C 
ENDROOT
BRANCH   1   2
ATOM      2  C   UNL A   1      37.074  23.373  24.893  1.00  0.00     0.118 C 
BRANCH   2   3
ATOM      3  N   UNL A   1      38.088  22.493  25.459  1.00  0.00    -0.352 N 
ATOM      4  O   UNL A   1      40.034  21.873  26.376  1.00  0.00    -0.269 OA
ATOM      5  C   UNL A   1      39.208  22.765  26.200  1.00  0.00     0.251 C 
ATOM      6  H   UNL A   1      37.943  21.537  25.276  1.00  0.00     0.163 HD
BRANCH   5   7
ATOM      7  C   UNL A   1      39.438  24.100  26.796  1.00  0.00     0.039 A 
ATOM      8  C   UNL A   1      40.143  25.051  26.049  1.00  0.00     0.014 A 
ATOM      9  C   UNL A   1      39.061  24.397  28.107  1.00  0.00     0.014 A 
ATOM     10  C   UNL A   1      40.451  26.294  26.607  1.00  0.00     0.010 A 
ATOM     11  C   UNL A   1      39.287  25.667  28.631  1.00  0.00     0.010 A 
ATOM     12  C   UNL A   1      40.017  26.615  27.901  1.00  0.00    -0.014 A 
BRANCH  12  13
ATOM     13  C   UNL A   1      40.387  27.903  28.542  1.00  0.00     0.031 A 
ATOM     14  C   UNL A   1      41.786  28.100  29.063  1.00  0.00     0.074 A 
ATOM     15  C   UNL A   1      39.470  28.878  28.686  1.00  0.00     0.049 A 
ATOM     16  N   UNL A   1      42.290  29.123  29.708  1.00  0.00    -0.248 NA
ATOM     17  C   UNL A   1      42.739  26.996  28.857  1.00  0.00     0.031 C 
ATOM     18  C   UNL A   1      38.079  28.805  28.237  1.00  0.00     0.029 A 
ATOM     19  N   UNL A   1      39.574  30.126  29.252  1.00  0.00    -0.354 N 
ATOM     20  C   UNL A   1      43.604  28.773  30.000  1.00  0.00     0.074 A 
ATOM     21  C   UNL A   1      43.806  27.428  29.512  1.00  0.00     0.031 C 
ATOM     22  C   UNL A   1      37.468  29.967  28.516  1.00  0.00     0.029 A 
ATOM     23  C   UNL A   1      38.408  30.851  29.201  1.00  0.00     0.049 A 
ATOM     24  H   UNL A   1      40.404  30.467  29.654  1.00  0.00     0.167 HD
ATOM     25  C   UNL A   1      44.564  29.516  30.597  1.00  0.00     0.031 A 
ATOM     26  C   UNL A   1      38.125  32.087  29.656  1.00  0.00     0.031 A 
ATOM     27  C   UNL A   1      44.372  30.867  31.049  1.00  0.00     0.049 A 
ATOM     28  C   UNL A   1      39.204  32.890  30.328  1.00  0.00     0.074 A 
ATOM     29  C   UNL A   1      45.303  31.722  31.611  1.00  0.00     0.029 A 
ATOM     30  N   UNL A   1      43.174  31.560  30.982  1.00  0.00    -0.354 N 
ATOM     31  N   UNL A   1      40.455  32.564  30.552  1.00  0.00    -0.248 NA
ATOM     32  C   UNL A   1      38.841  34.235  30.798  1.00  0.00     0.031 C 
ATOM     33  C   UNL A   1      44.654  32.912  31.941  1.00  0.00     0.029 A 
ATOM     34  C   UNL A   1      43.336  32.824  31.519  1.00  0.00     0.049 A 
ATOM     35  H   UNL A   1      42.335  31.206  30.610  1.00  0.00     0.167 HD
ATOM     36  C   UNL A   1      41.032  33.667  31.167  1.00  0.00     0.074 A 
ATOM     37  C   UNL A   1      40.000  34.679  31.268  1.00  0.00     0.031 C 
ATOM     38  C   UNL A   1      42.303  33.825  31.609  1.00  0.00     0.031 A 
BRANCH  25  39
ATOM     39  C   UNL A   1      45.920  28.894  30.790  1.00  0.00    -0.014 A 
ATOM     40  C   UNL A   1      46.219  28.233  31.992  1.00  0.00     0.009 A 
ATOM     41  C   UNL A   1      46.929  29.034  29.824  1.00  0.00     0.009 A 
ATOM     42  C   UNL A   1      47.501  27.733  32.227  1.00  0.00     0.001 A 
ATOM     43  C   UNL A   1      48.202  28.506  30.048  1.00  0.00     0.001 A 
ATOM     44  C   UNL A   1      48.489  27.865  31.252  1.00  0.00     0.000 A 
ENDBRANCH  25  39
BRANCH  26  45
ATOM     45  C   UNL A   1      36.760  32.644  29.456  1.00  0.00    -0.014 A 
ATOM     46  C   UNL A   1      36.421  33.302  28.263  1.00  0.00     0.009 A 
ATOM     47  C   UNL A   1      35.804  32.567  30.481  1.00  0.00     0.009 A 
ATOM     48  C   UNL A   1      35.163  33.890  28.108  1.00  0.00     0.001 A 
ATOM     49  C   UNL A   1      34.537  33.130  30.312  1.00  0.00     0.001 A 
ATOM     50  C   UNL A   1      34.220  33.799  29.130  1.00  0.00     0.000 A 
ENDBRANCH  26  45
BRANCH  38  51
ATOM     51  C   UNL A   1      42.679  35.140  32.233  1.00  0.00    -0.014 A 
ATOM     52  C   UNL A   1      43.418  36.074  31.489  1.00  0.00     0.009 A 
ATOM     53  C   UNL A   1      42.415  35.402  33.585  1.00  0.00     0.009 A 
ATOM     54  C   UNL A   1      43.904  37.235  32.093  1.00  0.00     0.001 A 
ATOM     55  C   UNL A   1      42.877  36.579  34.178  1.00  0.00     0.001 A 
ATOM     56  C   UNL A   1      43.631  37.487  33.435  1.00  0.00     0.000 A 
ENDBRANCH  38  51
ENDBRANCH  12  13
ENDBRANCH   5   7
ENDBRANCH   2   3
ENDBRANCH   1   2
BRANCH   1  57
ATOM     57  C   UNL A   1      35.157  22.026  25.924  1.00  0.00     0.118 C 
BRANCH  57  58
ATOM     58  N   UNL A   1      34.226  20.950  25.620  1.00  0.00    -0.352 N 
ATOM     59  C   UNL A   1      32.857  20.974  25.557  1.00  0.00     0.252 C 
ATOM     60  H   UNL A   1      34.641  20.077  25.431  1.00  0.00     0.163 HD
ATOM     61  O   UNL A   1      32.221  19.926  25.477  1.00  0.00    -0.269 OA
BRANCH  59  62
ATOM     62  C   UNL A   1      32.143  22.256  25.614  1.00  0.00     0.058 A 
ATOM     63  C   UNL A   1      31.581  22.854  24.487  1.00  0.00     0.017 A 
ATOM     64  C   UNL A   1      32.017  22.893  26.832  1.00  0.00     0.125 A 
ATOM     65  C   UNL A   1      30.996  24.115  24.604  1.00  0.00     0.026 A 
ATOM     66  N   UNL A   1      31.455  24.117  26.966  1.00  0.00    -0.259 NA
ATOM     67  C   UNL A   1      30.972  24.729  25.855  1.00  0.00     0.060 A 
BRANCH  67  68
ATOM     68  C   UNL A   1      30.386  26.116  26.039  1.00  0.00     0.181 C 
BRANCH  68  69
ATOM     69  N   UNL A   1      31.355  27.160  25.703  1.00  0.00    -0.303 N 
ATOM     70  C   UNL A   1      31.957  27.171  24.450  1.00  0.00     0.105 A 
ATOM     71  C   UNL A   1      31.643  28.132  26.679  1.00  0.00     0.329 A 
ATOM     72  C   UNL A   1      32.791  28.155  24.079  1.00  0.00     0.041 A 
ATOM     73  C   UNL A   1      32.404  29.293  26.168  1.00  0.00     0.335 A 
ATOM     74  O   UNL A   1      31.352  28.005  27.866  1.00  0.00    -0.261 OA
ATOM     75  Br  UNL A   1      33.671  28.149  22.438  1.00  0.00    -0.049 Br
ATOM     76  C   UNL A   1      32.976  29.291  24.952  1.00  0.00     0.109 A 
BRANCH  73  77
ATOM     77  N   UNL A   1      32.515  30.483  26.970  1.00  0.00     0.068 N 
ATOM     78  O   UNL A   1      33.516  30.608  27.686  1.00  0.00    -0.258 OA
ATOM     79  O   UNL A   1      31.559  31.275  26.950  1.00  0.00    -0.258 OA
ENDBRANCH  73  77
ENDBRANCH  68  69
ENDBRANCH  67  68
ENDBRANCH  59  62
ENDBRANCH  57  58
ENDBRANCH   1  57
TORSDOF 13
ENDMDL
