MODEL 1
REMARK VINA RESULT:     -12.3      0.000      0.000
REMARK SMILES CN1C(=O)C[C@@H](C(=O)NCCCNC(=O)c2ccc(-c3c4nc(c(-c5ccccc5)c5ccc([nH]5)c(-c5ccccc5)c5nc(c(-c6ccccc6)c6ccc3[nH]6)C=C5)C=C4)cc2)C12CCN(c1ccc(Cl)cn1)CC2
REMARK SMILES IDX 11 1 10 2 9 3 7 4 8 5 6 7 1 8 2 9 3 10 64 11 4 12 5 13 65 14
REMARK SMILES IDX 76 15 66 16 75 17 67 18 68 19 69 20 74 21 70 22 73 23 71 24
REMARK SMILES IDX 72 25 12 26 13 27 14 28 15 30 16 31 17 32 63 33 18 34 62 35
REMARK SMILES IDX 19 36 20 37 21 38 56 39 22 40 61 41 55 42 57 43 23 44 60 45
REMARK SMILES IDX 54 46 53 47 24 49 46 50 31 51 45 52 32 53 35 54 44 55 58 56
REMARK SMILES IDX 33 57 34 58 43 60 59 61 36 62 25 63 26 64 30 65 27 66 29 67
REMARK SMILES IDX 28 68 47 69 48 70 52 71 49 72 51 73 50 74 37 75 38 76 42 77
REMARK SMILES IDX 39 78 41 79 40 80
REMARK H PARENT 9 6 13 29 57 48 35 59
REMARK Flexibility Score: inf
ROOT
ATOM      1  C   UNL A   1      31.380  31.012  25.877  1.00  0.00     0.042 C 
ENDROOT
BRANCH   1   2
ATOM      2  C   UNL A   1      31.640  29.587  25.397  1.00  0.00     0.117 C 
BRANCH   2   3
ATOM      3  N   UNL A   1      32.791  29.474  24.514  1.00  0.00    -0.356 N 
ATOM      4  C   UNL A   1      33.084  28.703  23.441  1.00  0.00     0.226 C 
ATOM      5  O   UNL A   1      34.185  28.914  22.918  1.00  0.00    -0.275 OA
ATOM      6  H   UNL A   1      33.517  30.095  24.749  1.00  0.00     0.163 HD
BRANCH   4   7
ATOM      7  C   UNL A   1      32.205  27.592  22.874  1.00  0.00     0.113 C 
ATOM      8  C   UNL A   1      29.869  26.012  25.330  1.00  0.00     0.147 C 
ATOM      9  N   UNL A   1      30.532  26.662  24.216  1.00  0.00    -0.339 N 
ATOM     10  C   UNL A   1      29.867  27.544  23.378  1.00  0.00     0.223 C 
ATOM     11  C   UNL A   1      31.908  26.374  23.782  1.00  0.00     0.058 C 
ATOM     12  O   UNL A   1      28.695  27.879  23.456  1.00  0.00    -0.275 OA
ATOM     13  C   UNL A   1      30.847  28.080  22.370  1.00  0.00     0.116 C 
ATOM     14  C   UNL A   1      32.898  26.191  24.956  1.00  0.00     0.051 C 
ATOM     15  C   UNL A   1      31.866  25.066  22.924  1.00  0.00     0.051 C 
ATOM     16  C   UNL A   1      34.252  25.657  24.505  1.00  0.00     0.120 C 
ATOM     17  C   UNL A   1      33.251  24.515  22.567  1.00  0.00     0.120 C 
ATOM     18  N   UNL A   1      34.005  24.415  23.802  1.00  0.00    -0.356 N 
BRANCH  18  19
ATOM     19  C   UNL A   1      34.791  23.314  24.049  1.00  0.00     0.128 A 
ATOM     20  C   UNL A   1      36.160  23.364  23.769  1.00  0.00     0.048 A 
ATOM     21  N   UNL A   1      34.237  22.220  24.609  1.00  0.00    -0.238 NA
ATOM     22  C   UNL A   1      36.979  22.274  24.059  1.00  0.00     0.026 A 
ATOM     23  C   UNL A   1      35.044  21.156  24.857  1.00  0.00     0.134 A 
ATOM     24  C   UNL A   1      36.406  21.141  24.607  1.00  0.00     0.059 A 
ATOM     25  Cl  UNL A   1      37.365  19.768  24.977  1.00  0.00    -0.083 Cl
ENDBRANCH  18  19
ENDBRANCH   4   7
ENDBRANCH   2   3
ENDBRANCH   1   2
BRANCH   1  26
ATOM     26  C   UNL A   1      32.366  31.484  26.936  1.00  0.00     0.118 C 
BRANCH  26  27
ATOM     27  N   UNL A   1      32.217  32.906  27.202  1.00  0.00    -0.352 N 
ATOM     28  C   UNL A   1      32.940  33.716  28.042  1.00  0.00     0.251 C 
ATOM     29  H   UNL A   1      31.491  33.353  26.709  1.00  0.00     0.163 HD
ATOM     30  O   UNL A   1      32.489  34.805  28.382  1.00  0.00    -0.269 OA
BRANCH  28  31
ATOM     31  C   UNL A   1      34.262  33.277  28.541  1.00  0.00     0.039 A 
ATOM     32  C   UNL A   1      34.335  32.558  29.737  1.00  0.00     0.014 A 
ATOM     33  C   UNL A   1      35.430  33.607  27.851  1.00  0.00     0.014 A 
ATOM     34  C   UNL A   1      35.576  32.126  30.209  1.00  0.00     0.010 A 
ATOM     35  C   UNL A   1      36.654  33.098  28.273  1.00  0.00     0.010 A 
ATOM     36  C   UNL A   1      36.742  32.365  29.465  1.00  0.00    -0.014 A 
BRANCH  36  37
ATOM     37  C   UNL A   1      38.068  31.874  29.921  1.00  0.00     0.031 A 
ATOM     38  C   UNL A   1      38.600  30.559  29.418  1.00  0.00     0.074 A 
ATOM     39  C   UNL A   1      38.762  32.577  30.837  1.00  0.00     0.049 A 
ATOM     40  N   UNL A   1      39.698  29.929  29.752  1.00  0.00    -0.248 NA
ATOM     41  C   UNL A   1      37.775  29.841  28.432  1.00  0.00     0.031 C 
ATOM     42  C   UNL A   1      38.340  33.848  31.431  1.00  0.00     0.029 A 
ATOM     43  N   UNL A   1      39.970  32.318  31.433  1.00  0.00    -0.354 N 
ATOM     44  C   UNL A   1      39.685  28.740  29.034  1.00  0.00     0.074 A 
ATOM     45  C   UNL A   1      38.445  28.707  28.292  1.00  0.00     0.031 C 
ATOM     46  C   UNL A   1      39.289  34.273  32.280  1.00  0.00     0.029 A 
ATOM     47  C   UNL A   1      40.361  33.284  32.329  1.00  0.00     0.049 A 
ATOM     48  H   UNL A   1      40.507  31.517  31.237  1.00  0.00     0.167 HD
ATOM     49  C   UNL A   1      40.629  27.771  28.980  1.00  0.00     0.031 A 
ATOM     50  C   UNL A   1      41.455  33.363  33.109  1.00  0.00     0.031 A 
ATOM     51  C   UNL A   1      41.868  27.810  29.710  1.00  0.00     0.049 A 
ATOM     52  C   UNL A   1      42.478  32.262  33.047  1.00  0.00     0.074 A 
ATOM     53  C   UNL A   1      42.915  26.905  29.680  1.00  0.00     0.029 A 
ATOM     54  N   UNL A   1      42.224  28.806  30.606  1.00  0.00    -0.354 N 
ATOM     55  N   UNL A   1      42.482  31.177  32.313  1.00  0.00    -0.248 NA
ATOM     56  C   UNL A   1      43.654  32.404  33.918  1.00  0.00     0.031 C 
ATOM     57  C   UNL A   1      43.878  27.323  30.603  1.00  0.00     0.029 A 
ATOM     58  C   UNL A   1      43.461  28.523  31.157  1.00  0.00     0.049 A 
ATOM     59  H   UNL A   1      41.678  29.597  30.817  1.00  0.00     0.167 HD
ATOM     60  C   UNL A   1      43.671  30.522  32.610  1.00  0.00     0.074 A 
ATOM     61  C   UNL A   1      44.370  31.341  33.578  1.00  0.00     0.031 C 
ATOM     62  C   UNL A   1      44.142  29.348  32.122  1.00  0.00     0.031 A 
BRANCH  49  63
ATOM     63  C   UNL A   1      40.352  26.579  28.103  1.00  0.00    -0.014 A 
ATOM     64  C   UNL A   1      39.584  25.496  28.563  1.00  0.00     0.009 A 
ATOM     65  C   UNL A   1      40.838  26.552  26.786  1.00  0.00     0.009 A 
ATOM     66  C   UNL A   1      39.346  24.395  27.738  1.00  0.00     0.001 A 
ATOM     67  C   UNL A   1      40.570  25.465  25.953  1.00  0.00     0.001 A 
ATOM     68  C   UNL A   1      39.835  24.383  26.432  1.00  0.00     0.000 A 
ENDBRANCH  49  63
BRANCH  50  69
ATOM     69  C   UNL A   1      41.649  34.531  34.008  1.00  0.00    -0.014 A 
ATOM     70  C   UNL A   1      41.153  34.510  35.320  1.00  0.00     0.009 A 
ATOM     71  C   UNL A   1      42.324  35.676  33.557  1.00  0.00     0.009 A 
ATOM     72  C   UNL A   1      41.302  35.622  36.152  1.00  0.00     0.001 A 
ATOM     73  C   UNL A   1      42.501  36.774  34.402  1.00  0.00     0.001 A 
ATOM     74  C   UNL A   1      41.981  36.751  35.695  1.00  0.00     0.000 A 
ENDBRANCH  50  69
BRANCH  62  75
ATOM     75  C   UNL A   1      45.495  28.898  32.599  1.00  0.00    -0.014 A 
ATOM     76  C   UNL A   1      45.636  28.062  33.718  1.00  0.00     0.009 A 
ATOM     77  C   UNL A   1      46.643  29.282  31.889  1.00  0.00     0.009 A 
ATOM     78  C   UNL A   1      46.903  27.649  34.135  1.00  0.00     0.001 A 
ATOM     79  C   UNL A   1      47.905  28.840  32.287  1.00  0.00     0.001 A 
ATOM     80  C   UNL A   1      48.035  28.032  33.415  1.00  0.00     0.000 A 
ENDBRANCH  62  75
ENDBRANCH  36  37
ENDBRANCH  28  31
ENDBRANCH  26  27
ENDBRANCH   1  26
TORSDOF 11
ENDMDL
MODEL 2
REMARK VINA RESULT:     -12.3      3.625      8.668
REMARK SMILES CN1C(=O)C[C@@H](C(=O)NCCCNC(=O)c2ccc(-c3c4nc(c(-c5ccccc5)c5ccc([nH]5)c(-c5ccccc5)c5nc(c(-c6ccccc6)c6ccc3[nH]6)C=C5)C=C4)cc2)C12CCN(c1ccc(Cl)cn1)CC2
REMARK SMILES IDX 11 1 10 2 9 3 7 4 8 5 6 7 1 8 2 9 3 10 64 11 4 12 5 13 65 14
REMARK SMILES IDX 76 15 66 16 75 17 67 18 68 19 69 20 74 21 70 22 73 23 71 24
REMARK SMILES IDX 72 25 12 26 13 27 14 28 15 30 16 31 17 32 63 33 18 34 62 35
REMARK SMILES IDX 19 36 20 37 21 38 56 39 22 40 61 41 55 42 57 43 23 44 60 45
REMARK SMILES IDX 54 46 53 47 24 49 46 50 31 51 45 52 32 53 35 54 44 55 58 56
REMARK SMILES IDX 33 57 34 58 43 60 59 61 36 62 25 63 26 64 30 65 27 66 29 67
REMARK SMILES IDX 28 68 47 69 48 70 52 71 49 72 51 73 50 74 37 75 38 76 42 77
REMARK SMILES IDX 39 78 41 79 40 80
REMARK H PARENT 9 6 13 29 57 48 35 59
REMARK Flexibility Score: inf
ROOT
ATOM      1  C   UNL A   1      36.962  19.943  24.996  1.00  0.00     0.042 C 
ENDROOT
BRANCH   1   2
ATOM      2  C   UNL A   1      35.814  20.945  24.932  1.00  0.00     0.117 C 
BRANCH   2   3
ATOM      3  N   UNL A   1      35.461  21.505  26.228  1.00  0.00    -0.356 N 
ATOM      4  C   UNL A   1      34.309  21.953  26.779  1.00  0.00     0.226 C 
ATOM      5  O   UNL A   1      34.395  22.347  27.949  1.00  0.00    -0.275 OA
ATOM      6  H   UNL A   1      36.230  21.574  26.838  1.00  0.00     0.163 HD
BRANCH   4   7
ATOM      7  C   UNL A   1      32.961  22.053  26.071  1.00  0.00     0.113 C 
ATOM      8  C   UNL A   1      33.148  22.711  22.394  1.00  0.00     0.147 C 
ATOM      9  N   UNL A   1      32.904  22.229  23.740  1.00  0.00    -0.339 N 
ATOM     10  C   UNL A   1      32.609  20.901  24.004  1.00  0.00     0.223 C 
ATOM     11  C   UNL A   1      32.820  23.090  24.930  1.00  0.00     0.058 C 
ATOM     12  O   UNL A   1      32.518  19.999  23.185  1.00  0.00    -0.275 OA
ATOM     13  C   UNL A   1      32.472  20.725  25.492  1.00  0.00     0.116 C 
ATOM     14  C   UNL A   1      33.881  24.216  24.953  1.00  0.00     0.051 C 
ATOM     15  C   UNL A   1      31.388  23.719  24.955  1.00  0.00     0.051 C 
ATOM     16  C   UNL A   1      33.630  25.238  26.054  1.00  0.00     0.120 C 
ATOM     17  C   UNL A   1      31.206  24.806  26.022  1.00  0.00     0.120 C 
ATOM     18  N   UNL A   1      32.291  25.754  25.859  1.00  0.00    -0.356 N 
BRANCH  18  19
ATOM     19  C   UNL A   1      32.052  27.106  25.949  1.00  0.00     0.128 A 
ATOM     20  C   UNL A   1      32.160  27.745  27.188  1.00  0.00     0.048 A 
ATOM     21  N   UNL A   1      31.769  27.803  24.830  1.00  0.00    -0.238 NA
ATOM     22  C   UNL A   1      31.968  29.122  27.288  1.00  0.00     0.026 A 
ATOM     23  C   UNL A   1      31.557  29.138  24.951  1.00  0.00     0.134 A 
ATOM     24  C   UNL A   1      31.651  29.834  26.145  1.00  0.00     0.059 A 
ATOM     25  Cl  UNL A   1      31.397  31.528  26.212  1.00  0.00    -0.083 Cl
ENDBRANCH  18  19
ENDBRANCH   4   7
ENDBRANCH   2   3
ENDBRANCH   1   2
BRANCH   1  26
ATOM     26  C   UNL A   1      38.285  20.563  25.423  1.00  0.00     0.118 C 
BRANCH  26  27
ATOM     27  N   UNL A   1      39.307  19.548  25.621  1.00  0.00    -0.352 N 
ATOM     28  C   UNL A   1      40.630  19.696  25.958  1.00  0.00     0.251 C 
ATOM     29  H   UNL A   1      39.007  18.618  25.495  1.00  0.00     0.163 HD
ATOM     30  O   UNL A   1      41.416  18.772  25.777  1.00  0.00    -0.269 OA
BRANCH  28  31
ATOM     31  C   UNL A   1      41.110  20.971  26.536  1.00  0.00     0.039 A 
ATOM     32  C   UNL A   1      41.677  21.931  25.693  1.00  0.00     0.014 A 
ATOM     33  C   UNL A   1      41.038  21.201  27.911  1.00  0.00     0.014 A 
ATOM     34  C   UNL A   1      42.120  23.143  26.227  1.00  0.00     0.010 A 
ATOM     35  C   UNL A   1      41.394  22.443  28.427  1.00  0.00     0.010 A 
ATOM     36  C   UNL A   1      41.954  23.422  27.593  1.00  0.00    -0.014 A 
BRANCH  36  37
ATOM     37  C   UNL A   1      42.372  24.723  28.176  1.00  0.00     0.031 A 
ATOM     38  C   UNL A   1      41.361  25.819  28.378  1.00  0.00     0.074 A 
ATOM     39  C   UNL A   1      43.670  24.940  28.461  1.00  0.00     0.049 A 
ATOM     40  N   UNL A   1      41.544  27.044  28.805  1.00  0.00    -0.248 NA
ATOM     41  C   UNL A   1      39.965  25.511  28.028  1.00  0.00     0.031 C 
ATOM     42  C   UNL A   1      44.754  23.973  28.276  1.00  0.00     0.029 A 
ATOM     43  N   UNL A   1      44.301  26.051  28.962  1.00  0.00    -0.354 N 
ATOM     44  C   UNL A   1      40.296  27.651  28.755  1.00  0.00     0.074 A 
ATOM     45  C   UNL A   1      39.375  26.684  28.203  1.00  0.00     0.031 C 
ATOM     46  C   UNL A   1      45.908  24.520  28.691  1.00  0.00     0.029 A 
ATOM     47  C   UNL A   1      45.656  25.891  29.122  1.00  0.00     0.049 A 
ATOM     48  H   UNL A   1      43.826  26.884  29.187  1.00  0.00     0.167 HD
ATOM     49  C   UNL A   1      39.941  28.897  29.153  1.00  0.00     0.031 A 
ATOM     50  C   UNL A   1      46.593  26.753  29.559  1.00  0.00     0.031 A 
ATOM     51  C   UNL A   1      40.857  29.855  29.712  1.00  0.00     0.049 A 
ATOM     52  C   UNL A   1      46.177  28.138  29.972  1.00  0.00     0.074 A 
ATOM     53  C   UNL A   1      40.587  31.123  30.197  1.00  0.00     0.029 A 
ATOM     54  N   UNL A   1      42.220  29.653  29.856  1.00  0.00    -0.354 N 
ATOM     55  N   UNL A   1      44.982  28.674  29.981  1.00  0.00    -0.248 NA
ATOM     56  C   UNL A   1      47.243  29.033  30.444  1.00  0.00     0.031 C 
ATOM     57  C   UNL A   1      41.796  31.710  30.580  1.00  0.00     0.029 A 
ATOM     58  C   UNL A   1      42.810  30.783  30.396  1.00  0.00     0.049 A 
ATOM     59  H   UNL A   1      42.698  28.827  29.612  1.00  0.00     0.167 HD
ATOM     60  C   UNL A   1      45.146  29.958  30.488  1.00  0.00     0.074 A 
ATOM     61  C   UNL A   1      46.554  30.112  30.790  1.00  0.00     0.031 C 
ATOM     62  C   UNL A   1      44.213  30.921  30.687  1.00  0.00     0.031 A 
BRANCH  49  63
ATOM     63  C   UNL A   1      38.499  29.294  28.987  1.00  0.00    -0.014 A 
ATOM     64  C   UNL A   1      37.605  29.271  30.070  1.00  0.00     0.009 A 
ATOM     65  C   UNL A   1      38.034  29.730  27.736  1.00  0.00     0.009 A 
ATOM     66  C   UNL A   1      36.268  29.633  29.895  1.00  0.00     0.001 A 
ATOM     67  C   UNL A   1      36.705  30.123  27.571  1.00  0.00     0.001 A 
ATOM     68  C   UNL A   1      35.821  30.064  28.647  1.00  0.00     0.000 A 
ENDBRANCH  49  63
BRANCH  50  69
ATOM     69  C   UNL A   1      48.016  26.330  29.640  1.00  0.00    -0.014 A 
ATOM     70  C   UNL A   1      48.865  26.470  28.531  1.00  0.00     0.009 A 
ATOM     71  C   UNL A   1      48.532  25.778  30.822  1.00  0.00     0.009 A 
ATOM     72  C   UNL A   1      50.192  26.038  28.596  1.00  0.00     0.001 A 
ATOM     73  C   UNL A   1      49.868  25.378  30.895  1.00  0.00     0.001 A 
ATOM     74  C   UNL A   1      50.694  25.498  29.779  1.00  0.00     0.000 A 
ENDBRANCH  50  69
BRANCH  62  75
ATOM     75  C   UNL A   1      44.680  32.215  31.294  1.00  0.00    -0.014 A 
ATOM     76  C   UNL A   1      44.728  32.396  32.685  1.00  0.00     0.009 A 
ATOM     77  C   UNL A   1      45.120  33.253  30.458  1.00  0.00     0.009 A 
ATOM     78  C   UNL A   1      45.176  33.604  33.224  1.00  0.00     0.001 A 
ATOM     79  C   UNL A   1      45.599  34.446  30.999  1.00  0.00     0.001 A 
ATOM     80  C   UNL A   1      45.617  34.624  32.382  1.00  0.00     0.000 A 
ENDBRANCH  62  75
ENDBRANCH  36  37
ENDBRANCH  28  31
ENDBRANCH  26  27
ENDBRANCH   1  26
TORSDOF 11
ENDMDL
MODEL 3
REMARK VINA RESULT:     -12.1      2.311      6.674
REMARK SMILES CN1C(=O)C[C@@H](C(=O)NCCCNC(=O)c2ccc(-c3c4nc(c(-c5ccccc5)c5ccc([nH]5)c(-c5ccccc5)c5nc(c(-c6ccccc6)c6ccc3[nH]6)C=C5)C=C4)cc2)C12CCN(c1ccc(Cl)cn1)CC2
REMARK SMILES IDX 11 1 10 2 9 3 7 4 8 5 6 7 1 8 2 9 3 10 64 11 4 12 5 13 65 14
REMARK SMILES IDX 76 15 66 16 75 17 67 18 68 19 69 20 74 21 70 22 73 23 71 24
REMARK SMILES IDX 72 25 12 26 13 27 14 28 15 30 16 31 17 32 63 33 18 34 62 35
REMARK SMILES IDX 19 36 20 37 21 38 56 39 22 40 61 41 55 42 57 43 23 44 60 45
REMARK SMILES IDX 54 46 53 47 24 49 46 50 31 51 45 52 32 53 35 54 44 55 58 56
REMARK SMILES IDX 33 57 34 58 43 60 59 61 36 62 25 63 26 64 30 65 27 66 29 67
REMARK SMILES IDX 28 68 47 69 48 70 52 71 49 72 51 73 50 74 37 75 38 76 42 77
REMARK SMILES IDX 39 78 41 79 40 80
REMARK H PARENT 9 6 13 29 57 48 35 59
REMARK Flexibility Score: inf
ROOT
ATOM      1  C   UNL A   1      32.139  28.211  26.958  1.00  0.00     0.042 C 
ENDROOT
BRANCH   1   2
ATOM      2  C   UNL A   1      31.730  28.627  25.549  1.00  0.00     0.117 C 
BRANCH   2   3
ATOM      3  N   UNL A   1      32.804  28.510  24.575  1.00  0.00    -0.356 N 
ATOM      4  C   UNL A   1      33.072  27.649  23.566  1.00  0.00     0.226 C 
ATOM      5  O   UNL A   1      34.099  27.888  22.919  1.00  0.00    -0.275 OA
ATOM      6  H   UNL A   1      33.487  29.212  24.671  1.00  0.00     0.163 HD
BRANCH   4   7
ATOM      7  C   UNL A   1      32.253  26.411  23.208  1.00  0.00     0.113 C 
ATOM      8  C   UNL A   1      30.404  24.856  26.062  1.00  0.00     0.147 C 
ATOM      9  N   UNL A   1      30.858  25.458  24.823  1.00  0.00    -0.339 N 
ATOM     10  C   UNL A   1      30.010  26.192  24.008  1.00  0.00     0.223 C 
ATOM     11  C   UNL A   1      32.195  25.261  24.242  1.00  0.00     0.058 C 
ATOM     12  O   UNL A   1      28.826  26.421  24.208  1.00  0.00    -0.275 OA
ATOM     13  C   UNL A   1      30.801  26.721  22.843  1.00  0.00     0.116 C 
ATOM     14  C   UNL A   1      33.332  25.283  25.291  1.00  0.00     0.051 C 
ATOM     15  C   UNL A   1      32.188  23.881  23.505  1.00  0.00     0.051 C 
ATOM     16  C   UNL A   1      34.670  24.838  24.716  1.00  0.00     0.120 C 
ATOM     17  C   UNL A   1      33.572  23.431  23.020  1.00  0.00     0.120 C 
ATOM     18  N   UNL A   1      34.474  23.519  24.152  1.00  0.00    -0.356 N 
BRANCH  18  19
ATOM     19  C   UNL A   1      35.394  22.524  24.386  1.00  0.00     0.128 A 
ATOM     20  C   UNL A   1      36.758  22.832  24.392  1.00  0.00     0.048 A 
ATOM     21  N   UNL A   1      34.963  21.276  24.658  1.00  0.00    -0.238 NA
ATOM     22  C   UNL A   1      37.701  21.845  24.676  1.00  0.00     0.026 A 
ATOM     23  C   UNL A   1      35.898  20.321  24.902  1.00  0.00     0.134 A 
ATOM     24  C   UNL A   1      37.261  20.558  24.927  1.00  0.00     0.059 A 
ATOM     25  Cl  UNL A   1      38.378  19.305  25.273  1.00  0.00    -0.083 Cl
ENDBRANCH  18  19
ENDBRANCH   4   7
ENDBRANCH   2   3
ENDBRANCH   1   2
BRANCH   1  26
ATOM     26  C   UNL A   1      33.538  28.673  27.344  1.00  0.00     0.118 C 
BRANCH  26  27
ATOM     27  N   UNL A   1      33.557  30.092  27.662  1.00  0.00    -0.352 N 
ATOM     28  C   UNL A   1      34.504  30.820  28.340  1.00  0.00     0.251 C 
ATOM     29  H   UNL A   1      32.778  30.606  27.347  1.00  0.00     0.163 HD
ATOM     30  O   UNL A   1      34.219  31.926  28.790  1.00  0.00    -0.269 OA
BRANCH  28  31
ATOM     31  C   UNL A   1      35.865  30.273  28.532  1.00  0.00     0.039 A 
ATOM     32  C   UNL A   1      36.748  30.250  27.449  1.00  0.00     0.014 A 
ATOM     33  C   UNL A   1      36.255  29.748  29.765  1.00  0.00     0.014 A 
ATOM     34  C   UNL A   1      38.041  29.749  27.622  1.00  0.00     0.010 A 
ATOM     35  C   UNL A   1      37.569  29.335  29.960  1.00  0.00     0.010 A 
ATOM     36  C   UNL A   1      38.472  29.316  28.887  1.00  0.00    -0.014 A 
BRANCH  36  37
ATOM     37  C   UNL A   1      39.856  28.824  29.108  1.00  0.00     0.031 A 
ATOM     38  C   UNL A   1      40.897  29.739  29.695  1.00  0.00     0.074 A 
ATOM     39  C   UNL A   1      40.192  27.579  28.721  1.00  0.00     0.049 A 
ATOM     40  N   UNL A   1      42.172  29.519  29.897  1.00  0.00    -0.248 NA
ATOM     41  C   UNL A   1      40.456  31.091  30.078  1.00  0.00     0.031 C 
ATOM     42  C   UNL A   1      39.286  26.607  28.106  1.00  0.00     0.029 A 
ATOM     43  N   UNL A   1      41.393  26.919  28.782  1.00  0.00    -0.354 N 
ATOM     44  C   UNL A   1      42.683  30.704  30.411  1.00  0.00     0.074 A 
ATOM     45  C   UNL A   1      41.599  31.658  30.434  1.00  0.00     0.031 C 
ATOM     46  C   UNL A   1      39.954  25.465  27.878  1.00  0.00     0.029 A 
ATOM     47  C   UNL A   1      41.345  25.640  28.283  1.00  0.00     0.049 A 
ATOM     48  H   UNL A   1      42.212  27.323  29.150  1.00  0.00     0.167 HD
ATOM     49  C   UNL A   1      43.939  30.969  30.844  1.00  0.00     0.031 A 
ATOM     50  C   UNL A   1      42.313  24.713  28.159  1.00  0.00     0.031 A 
ATOM     51  C   UNL A   1      45.015  30.015  30.830  1.00  0.00     0.049 A 
ATOM     52  C   UNL A   1      43.705  25.040  28.625  1.00  0.00     0.074 A 
ATOM     53  C   UNL A   1      46.309  30.168  31.298  1.00  0.00     0.029 A 
ATOM     54  N   UNL A   1      44.924  28.731  30.316  1.00  0.00    -0.354 N 
ATOM     55  N   UNL A   1      44.156  26.143  29.170  1.00  0.00    -0.248 NA
ATOM     56  C   UNL A   1      44.718  23.987  28.467  1.00  0.00     0.031 C 
ATOM     57  C   UNL A   1      47.016  28.996  31.013  1.00  0.00     0.029 A 
ATOM     58  C   UNL A   1      46.145  28.090  30.429  1.00  0.00     0.049 A 
ATOM     59  H   UNL A   1      44.110  28.333  29.930  1.00  0.00     0.167 HD
ATOM     60  C   UNL A   1      45.497  25.908  29.447  1.00  0.00     0.074 A 
ATOM     61  C   UNL A   1      45.780  24.551  29.026  1.00  0.00     0.031 C 
ATOM     62  C   UNL A   1      46.411  26.740  30.003  1.00  0.00     0.031 A 
BRANCH  49  63
ATOM     63  C   UNL A   1      44.216  32.355  31.363  1.00  0.00    -0.014 A 
ATOM     64  C   UNL A   1      44.058  32.672  32.722  1.00  0.00     0.009 A 
ATOM     65  C   UNL A   1      44.673  33.350  30.485  1.00  0.00     0.009 A 
ATOM     66  C   UNL A   1      44.309  33.965  33.183  1.00  0.00     0.001 A 
ATOM     67  C   UNL A   1      44.956  34.635  30.954  1.00  0.00     0.001 A 
ATOM     68  C   UNL A   1      44.764  34.944  32.300  1.00  0.00     0.000 A 
ENDBRANCH  49  63
BRANCH  50  69
ATOM     69  C   UNL A   1      42.000  23.380  27.576  1.00  0.00    -0.014 A 
ATOM     70  C   UNL A   1      41.442  22.368  28.372  1.00  0.00     0.009 A 
ATOM     71  C   UNL A   1      42.264  23.111  26.225  1.00  0.00     0.009 A 
ATOM     72  C   UNL A   1      41.182  21.106  27.834  1.00  0.00     0.001 A 
ATOM     73  C   UNL A   1      41.973  21.858  25.681  1.00  0.00     0.001 A 
ATOM     74  C   UNL A   1      41.442  20.853  26.488  1.00  0.00     0.000 A 
ENDBRANCH  50  69
BRANCH  62  75
ATOM     75  C   UNL A   1      47.795  26.195  30.223  1.00  0.00    -0.014 A 
ATOM     76  C   UNL A   1      48.744  26.169  29.190  1.00  0.00     0.009 A 
ATOM     77  C   UNL A   1      48.166  25.742  31.499  1.00  0.00     0.009 A 
ATOM     78  C   UNL A   1      50.026  25.667  29.422  1.00  0.00     0.001 A 
ATOM     79  C   UNL A   1      49.458  25.273  31.737  1.00  0.00     0.001 A 
ATOM     80  C   UNL A   1      50.384  25.227  30.696  1.00  0.00     0.000 A 
ENDBRANCH  62  75
ENDBRANCH  36  37
ENDBRANCH  28  31
ENDBRANCH  26  27
ENDBRANCH   1  26
TORSDOF 11
ENDMDL
