MODEL 1
REMARK VINA RESULT:     -11.5      0.000      0.000
REMARK SMILES N#C/C(=C/c1cccc(OCC(=O)NCCCNC(=O)c2ccc(-c3c4nc(c(-c5ccccc5)c5ccc([nH]5)c(-c5ccccc5)c5nc(c(-c6ccccc6)c6ccc3[nH]6)C=C5)C=C4)cc2)c1)c1nc2ccccc2[nH]1
REMARK SMILES IDX 15 1 14 2 12 3 13 4 11 6 10 7 9 8 5 9 6 10 69 11 7 12 8 13
REMARK SMILES IDX 4 14 3 15 2 16 1 17 70 18 71 19 78 20 72 21 77 22 73 24
REMARK SMILES IDX 76 25 74 26 75 27 16 28 17 29 18 30 19 31 20 33 21 34 22 35
REMARK SMILES IDX 68 36 23 37 67 38 24 39 25 40 26 41 61 42 27 43 66 44 60 45
REMARK SMILES IDX 62 46 28 47 65 48 59 49 58 50 29 52 51 53 36 54 50 55 37 56
REMARK SMILES IDX 40 57 49 58 63 59 38 60 39 61 48 63 64 64 41 65 30 66 31 67
REMARK SMILES IDX 35 68 32 69 34 70 33 71 52 72 53 73 57 74 54 75 56 76 55 77
REMARK SMILES IDX 42 78 43 79 47 80 44 81 46 82 45 83
REMARK H PARENT 14 5 78 23 18 32 62 51 40 62
REMARK Flexibility Score: inf
ROOT
ATOM      1  C   UNL A   1      35.316  21.325  25.804  1.00  0.00     0.117 C 
ENDROOT
BRANCH   1   2
ATOM      2  N   UNL A   1      34.704  21.935  26.968  1.00  0.00    -0.353 N 
ATOM      3  C   UNL A   1      33.385  22.261  27.145  1.00  0.00     0.257 C 
ATOM      4  O   UNL A   1      32.959  22.493  28.279  1.00  0.00    -0.271 OA
ATOM      5  H   UNL A   1      35.306  22.138  27.720  1.00  0.00     0.163 HD
BRANCH   3   6
ATOM      6  C   UNL A   1      32.445  22.299  25.937  1.00  0.00     0.329 C 
BRANCH   6   7
ATOM      7  O   UNL A   1      31.768  23.528  25.722  1.00  0.00    -0.484 OA
BRANCH   7   8
ATOM      8  C   UNL A   1      32.027  24.212  24.565  1.00  0.00     0.120 A 
ATOM      9  C   UNL A   1      31.668  25.898  22.844  1.00  0.00    -0.021 A 
ATOM     10  C   UNL A   1      32.844  25.493  22.208  1.00  0.00     0.008 A 
ATOM     11  C   UNL A   1      31.251  25.234  24.011  1.00  0.00     0.054 A 
ATOM     12  C   UNL A   1      33.608  24.455  22.741  1.00  0.00     0.004 A 
ATOM     13  C   UNL A   1      33.201  23.824  23.916  1.00  0.00     0.046 A 
BRANCH   9  14
ATOM     14  C   UNL A   1      30.886  27.011  22.275  1.00  0.00     0.031 C 
ATOM     15  C   UNL A   1      30.879  28.284  22.719  1.00  0.00     0.095 C 
BRANCH  15  16
ATOM     16  C   UNL A   1      30.023  29.324  22.015  1.00  0.00     0.103 C 
ATOM     17  N   UNL A   1      29.313  30.187  21.431  1.00  0.00    -0.192 NA
ENDBRANCH  15  16
BRANCH  15  18
ATOM     18  C   UNL A   1      31.702  28.719  23.796  1.00  0.00     0.149 A 
ATOM     19  N   UNL A   1      32.872  28.278  24.219  1.00  0.00    -0.228 NA
ATOM     20  N   UNL A   1      31.266  29.761  24.586  1.00  0.00    -0.337 N 
ATOM     21  C   UNL A   1      33.176  29.028  25.329  1.00  0.00     0.089 A 
ATOM     22  C   UNL A   1      32.182  29.960  25.588  1.00  0.00     0.066 A 
ATOM     23  H   UNL A   1      30.437  30.276  24.454  1.00  0.00     0.168 HD
ATOM     24  C   UNL A   1      34.282  28.956  26.184  1.00  0.00     0.030 A 
ATOM     25  C   UNL A   1      32.207  30.827  26.682  1.00  0.00     0.028 A 
ATOM     26  C   UNL A   1      34.327  29.799  27.304  1.00  0.00     0.002 A 
ATOM     27  C   UNL A   1      33.301  30.715  27.548  1.00  0.00     0.002 A 
ENDBRANCH  15  18
ENDBRANCH   9  14
ENDBRANCH   7   8
ENDBRANCH   6   7
ENDBRANCH   3   6
ENDBRANCH   1   2
BRANCH   1  28
ATOM     28  C   UNL A   1      36.203  22.252  24.979  1.00  0.00     0.042 C 
BRANCH  28  29
ATOM     29  C   UNL A   1      37.279  23.027  25.736  1.00  0.00     0.118 C 
BRANCH  29  30
ATOM     30  N   UNL A   1      38.586  22.390  25.789  1.00  0.00    -0.352 N 
ATOM     31  C   UNL A   1      39.769  22.875  26.306  1.00  0.00     0.251 C 
ATOM     32  H   UNL A   1      38.632  21.486  25.401  1.00  0.00     0.163 HD
ATOM     33  O   UNL A   1      40.785  22.200  26.263  1.00  0.00    -0.269 OA
BRANCH  31  34
ATOM     34  C   UNL A   1      39.813  24.240  26.875  1.00  0.00     0.039 A 
ATOM     35  C   UNL A   1      39.281  24.447  28.151  1.00  0.00     0.014 A 
ATOM     36  C   UNL A   1      40.396  25.298  26.173  1.00  0.00     0.014 A 
ATOM     37  C   UNL A   1      39.426  25.693  28.768  1.00  0.00     0.010 A 
ATOM     38  C   UNL A   1      40.572  26.529  26.804  1.00  0.00     0.010 A 
ATOM     39  C   UNL A   1      40.119  26.726  28.118  1.00  0.00    -0.014 A 
BRANCH  39  40
ATOM     40  C   UNL A   1      40.465  27.983  28.830  1.00  0.00     0.031 A 
ATOM     41  C   UNL A   1      41.769  28.128  29.555  1.00  0.00     0.074 A 
ATOM     42  C   UNL A   1      39.549  28.971  28.890  1.00  0.00     0.049 A 
ATOM     43  N   UNL A   1      42.192  29.123  30.294  1.00  0.00    -0.248 NA
ATOM     44  C   UNL A   1      42.715  27.009  29.448  1.00  0.00     0.031 C 
ATOM     45  C   UNL A   1      38.231  28.943  28.252  1.00  0.00     0.029 A 
ATOM     46  N   UNL A   1      39.582  30.183  29.533  1.00  0.00    -0.354 N 
ATOM     47  C   UNL A   1      43.448  28.746  30.752  1.00  0.00     0.074 A 
ATOM     48  C   UNL A   1      43.705  27.421  30.228  1.00  0.00     0.031 C 
ATOM     49  C   UNL A   1      37.587  30.089  28.527  1.00  0.00     0.029 A 
ATOM     50  C   UNL A   1      38.428  30.912  29.389  1.00  0.00     0.049 A 
ATOM     51  H   UNL A   1      40.359  30.499  30.047  1.00  0.00     0.167 HD
ATOM     52  C   UNL A   1      44.310  29.445  31.529  1.00  0.00     0.031 A 
ATOM     53  C   UNL A   1      38.075  32.105  29.904  1.00  0.00     0.031 A 
ATOM     54  C   UNL A   1      44.056  30.760  32.056  1.00  0.00     0.049 A 
ATOM     55  C   UNL A   1      39.036  32.842  30.790  1.00  0.00     0.074 A 
ATOM     56  C   UNL A   1      44.893  31.559  32.816  1.00  0.00     0.029 A 
ATOM     57  N   UNL A   1      42.876  31.465  31.885  1.00  0.00    -0.354 N 
ATOM     58  N   UNL A   1      40.243  32.497  31.165  1.00  0.00    -0.248 NA
ATOM     59  C   UNL A   1      38.587  34.138  31.321  1.00  0.00     0.031 C 
ATOM     60  C   UNL A   1      44.202  32.733  33.140  1.00  0.00     0.029 A 
ATOM     61  C   UNL A   1      42.953  32.681  32.544  1.00  0.00     0.049 A 
ATOM     62  H   UNL A   1      42.097  31.149  31.371  1.00  0.00     0.167 HD
ATOM     63  C   UNL A   1      40.709  33.543  31.951  1.00  0.00     0.074 A 
ATOM     64  C   UNL A   1      39.658  34.538  31.994  1.00  0.00     0.031 C 
ATOM     65  C   UNL A   1      41.904  33.665  32.578  1.00  0.00     0.031 A 
BRANCH  52  66
ATOM     66  C   UNL A   1      45.616  28.786  31.871  1.00  0.00    -0.014 A 
ATOM     67  C   UNL A   1      45.737  27.963  33.001  1.00  0.00     0.009 A 
ATOM     68  C   UNL A   1      46.726  28.957  31.029  1.00  0.00     0.009 A 
ATOM     69  C   UNL A   1      46.955  27.348  33.299  1.00  0.00     0.001 A 
ATOM     70  C   UNL A   1      47.936  28.323  31.319  1.00  0.00     0.001 A 
ATOM     71  C   UNL A   1      48.052  27.527  32.457  1.00  0.00     0.000 A 
ENDBRANCH  52  66
BRANCH  53  72
ATOM     72  C   UNL A   1      36.745  32.683  29.588  1.00  0.00    -0.014 A 
ATOM     73  C   UNL A   1      35.689  32.569  30.505  1.00  0.00     0.009 A 
ATOM     74  C   UNL A   1      36.523  33.348  28.373  1.00  0.00     0.009 A 
ATOM     75  C   UNL A   1      34.430  33.092  30.200  1.00  0.00     0.001 A 
ATOM     76  C   UNL A   1      35.270  33.891  28.082  1.00  0.00     0.001 A 
ATOM     77  C   UNL A   1      34.223  33.755  28.992  1.00  0.00     0.000 A 
ENDBRANCH  53  72
BRANCH  65  78
ATOM     78  C   UNL A   1      42.154  34.937  33.335  1.00  0.00    -0.014 A 
ATOM     79  C   UNL A   1      41.629  35.133  34.621  1.00  0.00     0.009 A 
ATOM     80  C   UNL A   1      42.967  35.931  32.770  1.00  0.00     0.009 A 
ATOM     81  C   UNL A   1      41.895  36.314  35.317  1.00  0.00     0.001 A 
ATOM     82  C   UNL A   1      43.250  37.101  33.477  1.00  0.00     0.001 A 
ATOM     83  C   UNL A   1      42.708  37.294  34.747  1.00  0.00     0.000 A 
ENDBRANCH  65  78
ENDBRANCH  39  40
ENDBRANCH  31  34
ENDBRANCH  29  30
ENDBRANCH  28  29
ENDBRANCH   1  28
TORSDOF 15
ENDMDL
MODEL 2
REMARK VINA RESULT:     -11.5      2.455      8.230
REMARK SMILES N#C/C(=C/c1cccc(OCC(=O)NCCCNC(=O)c2ccc(-c3c4nc(c(-c5ccccc5)c5ccc([nH]5)c(-c5ccccc5)c5nc(c(-c6ccccc6)c6ccc3[nH]6)C=C5)C=C4)cc2)c1)c1nc2ccccc2[nH]1
REMARK SMILES IDX 15 1 14 2 12 3 13 4 11 6 10 7 9 8 5 9 6 10 69 11 7 12 8 13
REMARK SMILES IDX 4 14 3 15 2 16 1 17 70 18 71 19 78 20 72 21 77 22 73 24
REMARK SMILES IDX 76 25 74 26 75 27 16 28 17 29 18 30 19 31 20 33 21 34 22 35
REMARK SMILES IDX 68 36 23 37 67 38 24 39 25 40 26 41 61 42 27 43 66 44 60 45
REMARK SMILES IDX 62 46 28 47 65 48 59 49 58 50 29 52 51 53 36 54 50 55 37 56
REMARK SMILES IDX 40 57 49 58 63 59 38 60 39 61 48 63 64 64 41 65 30 66 31 67
REMARK SMILES IDX 35 68 32 69 34 70 33 71 52 72 53 73 57 74 54 75 56 76 55 77
REMARK SMILES IDX 42 78 43 79 47 80 44 81 46 82 45 83
REMARK H PARENT 14 5 78 23 18 32 62 51 40 62
REMARK Flexibility Score: inf
ROOT
ATOM      1  C   UNL A   1      31.773  29.399  25.189  1.00  0.00     0.117 C 
ENDROOT
BRANCH   1   2
ATOM      2  N   UNL A   1      31.420  29.345  23.783  1.00  0.00    -0.353 N 
ATOM      3  C   UNL A   1      30.730  28.357  23.132  1.00  0.00     0.257 C 
ATOM      4  O   UNL A   1      30.248  28.579  22.019  1.00  0.00    -0.271 OA
ATOM      5  H   UNL A   1      31.709  30.108  23.233  1.00  0.00     0.163 HD
BRANCH   3   6
ATOM      6  C   UNL A   1      30.535  26.996  23.808  1.00  0.00     0.329 C 
BRANCH   6   7
ATOM      7  O   UNL A   1      31.718  26.365  24.274  1.00  0.00    -0.484 OA
BRANCH   7   8
ATOM      8  C   UNL A   1      32.093  25.186  23.688  1.00  0.00     0.120 A 
ATOM      9  C   UNL A   1      32.315  22.769  23.485  1.00  0.00    -0.021 A 
ATOM     10  C   UNL A   1      32.893  22.933  22.223  1.00  0.00     0.008 A 
ATOM     11  C   UNL A   1      31.941  23.905  24.224  1.00  0.00     0.054 A 
ATOM     12  C   UNL A   1      33.073  24.211  21.695  1.00  0.00     0.004 A 
ATOM     13  C   UNL A   1      32.669  25.329  22.424  1.00  0.00     0.046 A 
BRANCH   9  14
ATOM     14  C   UNL A   1      32.116  21.409  24.016  1.00  0.00     0.031 C 
ATOM     15  C   UNL A   1      33.015  20.694  24.722  1.00  0.00     0.095 C 
BRANCH  15  16
ATOM     16  C   UNL A   1      32.654  19.301  25.213  1.00  0.00     0.103 C 
ATOM     17  N   UNL A   1      32.355  18.146  25.620  1.00  0.00    -0.192 NA
ENDBRANCH  15  16
BRANCH  15  18
ATOM     18  C   UNL A   1      34.285  21.220  25.092  1.00  0.00     0.149 A 
ATOM     19  N   UNL A   1      34.626  22.413  25.543  1.00  0.00    -0.228 NA
ATOM     20  N   UNL A   1      35.398  20.414  24.972  1.00  0.00    -0.337 N 
ATOM     21  C   UNL A   1      35.992  22.386  25.678  1.00  0.00     0.089 A 
ATOM     22  C   UNL A   1      36.504  21.148  25.320  1.00  0.00     0.066 A 
ATOM     23  H   UNL A   1      35.398  19.473  24.686  1.00  0.00     0.168 HD
ATOM     24  C   UNL A   1      36.873  23.395  26.088  1.00  0.00     0.030 A 
ATOM     25  C   UNL A   1      37.869  20.852  25.317  1.00  0.00     0.028 A 
ATOM     26  C   UNL A   1      38.251  23.134  26.077  1.00  0.00     0.002 A 
ATOM     27  C   UNL A   1      38.737  21.883  25.693  1.00  0.00     0.002 A 
ENDBRANCH  15  18
ENDBRANCH   9  14
ENDBRANCH   7   8
ENDBRANCH   6   7
ENDBRANCH   3   6
ENDBRANCH   1   2
BRANCH   1  28
ATOM     28  C   UNL A   1      33.254  29.196  25.492  1.00  0.00     0.042 C 
BRANCH  28  29
ATOM     29  C   UNL A   1      33.654  29.141  26.965  1.00  0.00     0.118 C 
BRANCH  29  30
ATOM     30  N   UNL A   1      33.679  30.423  27.652  1.00  0.00    -0.352 N 
ATOM     31  C   UNL A   1      34.700  30.999  28.379  1.00  0.00     0.251 C 
ATOM     32  H   UNL A   1      32.851  30.953  27.590  1.00  0.00     0.163 HD
ATOM     33  O   UNL A   1      34.547  32.093  28.899  1.00  0.00    -0.269 OA
BRANCH  31  34
ATOM     34  C   UNL A   1      35.970  30.264  28.565  1.00  0.00     0.039 A 
ATOM     35  C   UNL A   1      36.909  30.284  27.530  1.00  0.00     0.014 A 
ATOM     36  C   UNL A   1      36.247  29.587  29.755  1.00  0.00     0.014 A 
ATOM     37  C   UNL A   1      38.168  29.712  27.725  1.00  0.00     0.010 A 
ATOM     38  C   UNL A   1      37.517  29.049  29.963  1.00  0.00     0.010 A 
ATOM     39  C   UNL A   1      38.498  29.136  28.963  1.00  0.00    -0.014 A 
BRANCH  39  40
ATOM     40  C   UNL A   1      39.888  28.710  29.264  1.00  0.00     0.031 A 
ATOM     41  C   UNL A   1      40.858  29.644  29.925  1.00  0.00     0.074 A 
ATOM     42  C   UNL A   1      40.299  27.493  28.857  1.00  0.00     0.049 A 
ATOM     43  N   UNL A   1      42.129  29.462  30.183  1.00  0.00    -0.248 NA
ATOM     44  C   UNL A   1      40.340  30.956  30.337  1.00  0.00     0.031 C 
ATOM     45  C   UNL A   1      39.464  26.500  28.177  1.00  0.00     0.029 A 
ATOM     46  N   UNL A   1      41.530  26.891  28.939  1.00  0.00    -0.354 N 
ATOM     47  C   UNL A   1      42.567  30.638  30.777  1.00  0.00     0.074 A 
ATOM     48  C   UNL A   1      41.432  31.537  30.815  1.00  0.00     0.031 C 
ATOM     49  C   UNL A   1      40.203  25.410  27.916  1.00  0.00     0.029 A 
ATOM     50  C   UNL A   1      41.569  25.641  28.372  1.00  0.00     0.049 A 
ATOM     51  H   UNL A   1      42.310  27.314  29.366  1.00  0.00     0.167 HD
ATOM     52  C   UNL A   1      43.799  30.938  31.253  1.00  0.00     0.031 A 
ATOM     53  C   UNL A   1      42.591  24.778  28.220  1.00  0.00     0.031 A 
ATOM     54  C   UNL A   1      44.931  30.050  31.212  1.00  0.00     0.049 A 
ATOM     55  C   UNL A   1      43.954  25.150  28.727  1.00  0.00     0.074 A 
ATOM     56  C   UNL A   1      46.206  30.256  31.713  1.00  0.00     0.029 A 
ATOM     57  N   UNL A   1      44.928  28.793  30.631  1.00  0.00    -0.354 N 
ATOM     58  N   UNL A   1      44.337  26.244  29.339  1.00  0.00    -0.248 NA
ATOM     59  C   UNL A   1      45.027  24.164  28.527  1.00  0.00     0.031 C 
ATOM     60  C   UNL A   1      46.986  29.137  31.398  1.00  0.00     0.029 A 
ATOM     61  C   UNL A   1      46.184  28.219  30.741  1.00  0.00     0.049 A 
ATOM     62  H   UNL A   1      44.148  28.368  30.204  1.00  0.00     0.167 HD
ATOM     63  C   UNL A   1      45.685  26.068  29.621  1.00  0.00     0.074 A 
ATOM     64  C   UNL A   1      46.053  24.760  29.121  1.00  0.00     0.031 C 
ATOM     65  C   UNL A   1      46.539  26.916  30.243  1.00  0.00     0.031 A 
BRANCH  52  66
ATOM     66  C   UNL A   1      43.991  32.301  31.854  1.00  0.00    -0.014 A 
ATOM     67  C   UNL A   1      43.840  32.512  33.233  1.00  0.00     0.009 A 
ATOM     68  C   UNL A   1      44.367  33.379  31.036  1.00  0.00     0.009 A 
ATOM     69  C   UNL A   1      44.032  33.784  33.778  1.00  0.00     0.001 A 
ATOM     70  C   UNL A   1      44.580  34.643  31.588  1.00  0.00     0.001 A 
ATOM     71  C   UNL A   1      44.404  34.847  32.955  1.00  0.00     0.000 A 
ENDBRANCH  52  66
BRANCH  53  72
ATOM     72  C   UNL A   1      42.363  23.469  27.560  1.00  0.00    -0.014 A 
ATOM     73  C   UNL A   1      42.611  23.317  26.187  1.00  0.00     0.009 A 
ATOM     74  C   UNL A   1      41.897  22.368  28.294  1.00  0.00     0.009 A 
ATOM     75  C   UNL A   1      42.375  22.091  25.559  1.00  0.00     0.001 A 
ATOM     76  C   UNL A   1      41.685  21.138  27.668  1.00  0.00     0.001 A 
ATOM     77  C   UNL A   1      41.916  21.004  26.300  1.00  0.00     0.000 A 
ENDBRANCH  53  72
BRANCH  65  78
ATOM     78  C   UNL A   1      47.947  26.441  30.452  1.00  0.00    -0.014 A 
ATOM     79  C   UNL A   1      48.917  26.577  29.446  1.00  0.00     0.009 A 
ATOM     80  C   UNL A   1      48.319  25.894  31.689  1.00  0.00     0.009 A 
ATOM     81  C   UNL A   1      50.228  26.150  29.670  1.00  0.00     0.001 A 
ATOM     82  C   UNL A   1      49.635  25.489  31.918  1.00  0.00     0.001 A 
ATOM     83  C   UNL A   1      50.586  25.612  30.906  1.00  0.00     0.000 A 
ENDBRANCH  65  78
ENDBRANCH  39  40
ENDBRANCH  31  34
ENDBRANCH  29  30
ENDBRANCH  28  29
ENDBRANCH   1  28
TORSDOF 15
ENDMDL
MODEL 3
REMARK VINA RESULT:     -11.3      3.696      8.524
REMARK SMILES N#C/C(=C/c1cccc(OCC(=O)NCCCNC(=O)c2ccc(-c3c4nc(c(-c5ccccc5)c5ccc([nH]5)c(-c5ccccc5)c5nc(c(-c6ccccc6)c6ccc3[nH]6)C=C5)C=C4)cc2)c1)c1nc2ccccc2[nH]1
REMARK SMILES IDX 15 1 14 2 12 3 13 4 11 6 10 7 9 8 5 9 6 10 69 11 7 12 8 13
REMARK SMILES IDX 4 14 3 15 2 16 1 17 70 18 71 19 78 20 72 21 77 22 73 24
REMARK SMILES IDX 76 25 74 26 75 27 16 28 17 29 18 30 19 31 20 33 21 34 22 35
REMARK SMILES IDX 68 36 23 37 67 38 24 39 25 40 26 41 61 42 27 43 66 44 60 45
REMARK SMILES IDX 62 46 28 47 65 48 59 49 58 50 29 52 51 53 36 54 50 55 37 56
REMARK SMILES IDX 40 57 49 58 63 59 38 60 39 61 48 63 64 64 41 65 30 66 31 67
REMARK SMILES IDX 35 68 32 69 34 70 33 71 52 72 53 73 57 74 54 75 56 76 55 77
REMARK SMILES IDX 42 78 43 79 47 80 44 81 46 82 45 83
REMARK H PARENT 14 5 78 23 18 32 62 51 40 62
REMARK Flexibility Score: inf
ROOT
ATOM      1  C   UNL A   1      34.976  33.770  28.025  1.00  0.00     0.117 C 
ENDROOT
BRANCH   1   2
ATOM      2  N   UNL A   1      35.956  32.705  28.134  1.00  0.00    -0.353 N 
ATOM      3  C   UNL A   1      35.763  31.367  27.913  1.00  0.00     0.257 C 
ATOM      4  O   UNL A   1      36.736  30.628  27.751  1.00  0.00    -0.271 OA
ATOM      5  H   UNL A   1      36.865  32.976  28.396  1.00  0.00     0.163 HD
BRANCH   3   6
ATOM      6  C   UNL A   1      34.339  30.809  27.833  1.00  0.00     0.329 C 
BRANCH   6   7
ATOM      7  O   UNL A   1      33.849  30.555  26.526  1.00  0.00    -0.484 OA
BRANCH   7   8
ATOM      8  C   UNL A   1      33.501  29.269  26.207  1.00  0.00     0.120 A 
ATOM      9  C   UNL A   1      33.246  27.320  24.769  1.00  0.00    -0.021 A 
ATOM     10  C   UNL A   1      32.781  26.582  25.860  1.00  0.00     0.008 A 
ATOM     11  C   UNL A   1      33.579  28.674  24.945  1.00  0.00     0.054 A 
ATOM     12  C   UNL A   1      32.673  27.178  27.116  1.00  0.00     0.004 A 
ATOM     13  C   UNL A   1      33.037  28.514  27.286  1.00  0.00     0.046 A 
BRANCH   9  14
ATOM     14  C   UNL A   1      33.371  26.665  23.455  1.00  0.00     0.031 C 
ATOM     15  C   UNL A   1      32.461  26.702  22.460  1.00  0.00     0.095 C 
BRANCH  15  16
ATOM     16  C   UNL A   1      32.742  25.980  21.153  1.00  0.00     0.103 C 
ATOM     17  N   UNL A   1      32.976  25.381  20.068  1.00  0.00    -0.192 NA
ENDBRANCH  15  16
BRANCH  15  18
ATOM     18  C   UNL A   1      31.257  27.455  22.557  1.00  0.00     0.149 A 
ATOM     19  N   UNL A   1      30.091  27.151  23.096  1.00  0.00    -0.228 NA
ATOM     20  N   UNL A   1      31.219  28.719  22.007  1.00  0.00    -0.337 N 
ATOM     21  C   UNL A   1      29.273  28.227  22.851  1.00  0.00     0.089 A 
ATOM     22  C   UNL A   1      29.952  29.222  22.162  1.00  0.00     0.066 A 
ATOM     23  H   UNL A   1      31.972  29.182  21.575  1.00  0.00     0.168 HD
ATOM     24  C   UNL A   1      27.924  28.420  23.173  1.00  0.00     0.030 A 
ATOM     25  C   UNL A   1      29.352  30.411  21.741  1.00  0.00     0.028 A 
ATOM     26  C   UNL A   1      27.289  29.595  22.746  1.00  0.00     0.002 A 
ATOM     27  C   UNL A   1      27.994  30.570  22.038  1.00  0.00     0.002 A 
ENDBRANCH  15  18
ENDBRANCH   9  14
ENDBRANCH   7   8
ENDBRANCH   6   7
ENDBRANCH   3   6
ENDBRANCH   1   2
BRANCH   1  28
ATOM     28  C   UNL A   1      34.082  33.953  29.247  1.00  0.00     0.042 C 
BRANCH  28  29
ATOM     29  C   UNL A   1      33.663  35.383  29.584  1.00  0.00     0.118 C 
BRANCH  29  30
ATOM     30  N   UNL A   1      32.624  35.505  30.595  1.00  0.00    -0.352 N 
ATOM     31  C   UNL A   1      32.693  35.243  31.948  1.00  0.00     0.251 C 
ATOM     32  H   UNL A   1      31.749  35.819  30.269  1.00  0.00     0.163 HD
ATOM     33  O   UNL A   1      31.712  35.397  32.658  1.00  0.00    -0.269 OA
BRANCH  31  34
ATOM     34  C   UNL A   1      33.952  34.728  32.530  1.00  0.00     0.039 A 
ATOM     35  C   UNL A   1      33.954  33.444  33.082  1.00  0.00     0.014 A 
ATOM     36  C   UNL A   1      35.123  35.489  32.509  1.00  0.00     0.014 A 
ATOM     37  C   UNL A   1      35.155  32.881  33.519  1.00  0.00     0.010 A 
ATOM     38  C   UNL A   1      36.327  34.912  32.911  1.00  0.00     0.010 A 
ATOM     39  C   UNL A   1      36.358  33.592  33.389  1.00  0.00    -0.014 A 
BRANCH  39  40
ATOM     40  C   UNL A   1      37.667  32.941  33.651  1.00  0.00     0.031 A 
ATOM     41  C   UNL A   1      38.239  31.938  32.694  1.00  0.00     0.074 A 
ATOM     42  C   UNL A   1      38.301  33.199  34.812  1.00  0.00     0.049 A 
ATOM     43  N   UNL A   1      39.326  31.216  32.812  1.00  0.00    -0.248 NA
ATOM     44  C   UNL A   1      37.490  31.705  31.452  1.00  0.00     0.031 C 
ATOM     45  C   UNL A   1      37.837  34.132  35.842  1.00  0.00     0.029 A 
ATOM     46  N   UNL A   1      39.465  32.686  35.329  1.00  0.00    -0.354 N 
ATOM     47  C   UNL A   1      39.385  30.434  31.666  1.00  0.00     0.074 A 
ATOM     48  C   UNL A   1      38.211  30.751  30.880  1.00  0.00     0.031 C 
ATOM     49  C   UNL A   1      38.713  34.132  36.860  1.00  0.00     0.029 A 
ATOM     50  C   UNL A   1      39.775  33.175  36.574  1.00  0.00     0.049 A 
ATOM     51  H   UNL A   1      40.024  32.031  34.852  1.00  0.00     0.167 HD
ATOM     52  C   UNL A   1      40.336  29.541  31.300  1.00  0.00     0.031 A 
ATOM     53  C   UNL A   1      40.793  32.877  37.404  1.00  0.00     0.031 A 
ATOM     54  C   UNL A   1      41.502  29.219  32.081  1.00  0.00     0.049 A 
ATOM     55  C   UNL A   1      41.813  31.858  36.988  1.00  0.00     0.074 A 
ATOM     56  C   UNL A   1      42.539  28.359  31.765  1.00  0.00     0.029 A 
ATOM     57  N   UNL A   1      41.779  29.738  33.335  1.00  0.00    -0.354 N 
ATOM     58  N   UNL A   1      41.886  31.171  35.875  1.00  0.00    -0.248 NA
ATOM     59  C   UNL A   1      42.897  31.579  37.942  1.00  0.00     0.031 C 
ATOM     60  C   UNL A   1      43.426  28.326  32.848  1.00  0.00     0.029 A 
ATOM     61  C   UNL A   1      42.962  29.199  33.816  1.00  0.00     0.049 A 
ATOM     62  H   UNL A   1      41.221  30.393  33.813  1.00  0.00     0.167 HD
ATOM     63  C   UNL A   1      43.035  30.398  35.982  1.00  0.00     0.074 A 
ATOM     64  C   UNL A   1      43.632  30.706  37.264  1.00  0.00     0.031 C 
ATOM     65  C   UNL A   1      43.548  29.515  35.092  1.00  0.00     0.031 A 
BRANCH  52  66
ATOM     66  C   UNL A   1      40.144  28.831  29.990  1.00  0.00    -0.014 A 
ATOM     67  C   UNL A   1      39.551  27.561  29.936  1.00  0.00     0.009 A 
ATOM     68  C   UNL A   1      40.523  29.460  28.793  1.00  0.00     0.009 A 
ATOM     69  C   UNL A   1      39.370  26.918  28.709  1.00  0.00     0.001 A 
ATOM     70  C   UNL A   1      40.320  28.824  27.567  1.00  0.00     0.001 A 
ATOM     71  C   UNL A   1      39.752  27.552  27.526  1.00  0.00     0.000 A 
ENDBRANCH  52  66
BRANCH  53  72
ATOM     72  C   UNL A   1      40.900  33.559  38.718  1.00  0.00    -0.014 A 
ATOM     73  C   UNL A   1      40.288  33.008  39.853  1.00  0.00     0.009 A 
ATOM     74  C   UNL A   1      41.611  34.762  38.843  1.00  0.00     0.009 A 
ATOM     75  C   UNL A   1      40.368  33.660  41.086  1.00  0.00     0.001 A 
ATOM     76  C   UNL A   1      41.710  35.399  40.082  1.00  0.00     0.001 A 
ATOM     77  C   UNL A   1      41.082  34.852  41.200  1.00  0.00     0.000 A 
ENDBRANCH  53  72
BRANCH  65  78
ATOM     78  C   UNL A   1      44.841  28.845  35.459  1.00  0.00    -0.014 A 
ATOM     79  C   UNL A   1      46.077  29.408  35.108  1.00  0.00     0.009 A 
ATOM     80  C   UNL A   1      44.819  27.657  36.207  1.00  0.00     0.009 A 
ATOM     81  C   UNL A   1      47.268  28.780  35.480  1.00  0.00     0.001 A 
ATOM     82  C   UNL A   1      46.010  27.044  36.596  1.00  0.00     0.001 A 
ATOM     83  C   UNL A   1      47.233  27.603  36.227  1.00  0.00     0.000 A 
ENDBRANCH  65  78
ENDBRANCH  39  40
ENDBRANCH  31  34
ENDBRANCH  29  30
ENDBRANCH  28  29
ENDBRANCH   1  28
TORSDOF 15
ENDMDL
