MODEL 1
REMARK VINA RESULT:     -11.9      0.000      0.000
REMARK SMILES [NH3+][C@@H](CCC1=c2ccccc2=NC1)C(=O)NCCCNC(=O)c1ccc(-c2c3nc(c(-c4ccccc4)c4ccc([nH]4)c(-c4ccccc4)c4nc(c(-c5ccccc5)c5ccc2[nH]5)C=C4)C=C3)cc1
REMARK SMILES IDX 17 1 16 2 14 3 15 4 2 6 1 7 3 11 4 12 5 13 6 14 13 15 7 16
REMARK SMILES IDX 11 17 12 18 8 19 10 20 9 21 18 22 19 23 20 24 21 25 22 27
REMARK SMILES IDX 23 28 24 29 70 30 25 31 69 32 26 33 27 34 28 35 63 36 29 37
REMARK SMILES IDX 68 38 62 39 64 40 30 41 67 42 61 43 60 44 31 46 53 47 38 48
REMARK SMILES IDX 52 49 39 50 42 51 51 52 65 53 40 54 41 55 50 57 66 58 43 59
REMARK SMILES IDX 32 60 33 61 37 62 34 63 36 64 35 65 54 66 55 67 59 68 56 69
REMARK SMILES IDX 58 70 57 71 44 72 45 73 49 74 46 75 48 76 47 77
REMARK H PARENT 16 5 1 8 1 9 1 10 20 26 64 45 42 56
REMARK Flexibility Score: inf
ROOT
ATOM      1  C   UNL A   1      34.439  23.018  25.614  1.00  0.00     0.118 C 
ENDROOT
BRANCH   1   2
ATOM      2  N   UNL A   1      33.506  23.965  26.156  1.00  0.00    -0.351 N 
ATOM      3  C   UNL A   1      32.159  23.844  26.270  1.00  0.00     0.278 C 
ATOM      4  O   UNL A   1      31.566  24.680  26.954  1.00  0.00    -0.268 OA
ATOM      5  H   UNL A   1      33.893  24.808  26.486  1.00  0.00     0.163 HD
BRANCH   3   6
ATOM      6  C   UNL A   1      31.416  22.713  25.544  1.00  0.00     0.271 C 
BRANCH   6   7
ATOM      7  N   UNL A   1      30.181  22.298  26.247  1.00  0.00    -0.347 N 
ATOM      8  H   UNL A   1      29.537  23.088  26.296  1.00  0.00     0.345 HD
ATOM      9  H   UNL A   1      30.414  21.990  27.191  1.00  0.00     0.345 HD
ATOM     10  H   UNL A   1      29.740  21.533  25.738  1.00  0.00     0.345 HD
ENDBRANCH   6   7
BRANCH   6  11
ATOM     11  C   UNL A   1      31.273  22.866  24.014  1.00  0.00     0.080 C 
BRANCH  11  12
ATOM     12  C   UNL A   1      30.587  24.082  23.299  1.00  0.00     0.040 C 
BRANCH  12  13
ATOM     13  C   UNL A   1      31.407  25.242  22.748  1.00  0.00    -0.039 C 
ATOM     14  C   UNL A   1      31.336  26.574  22.975  1.00  0.00     0.001 A 
ATOM     15  C   UNL A   1      32.637  24.872  21.875  1.00  0.00     0.174 C 
ATOM     16  C   UNL A   1      30.564  27.758  24.176  1.00  0.00     0.010 A 
ATOM     17  C   UNL A   1      33.088  26.994  22.348  1.00  0.00     0.065 A 
ATOM     18  N   UNL A   1      33.610  26.013  21.684  1.00  0.00    -0.280 NA
ATOM     19  C   UNL A   1      31.436  28.994  24.826  1.00  0.00     0.001 A 
ATOM     20  C   UNL A   1      33.951  28.531  23.102  1.00  0.00     0.028 A 
ATOM     21  C   UNL A   1      33.247  29.336  24.274  1.00  0.00     0.002 A 
ENDBRANCH  12  13
ENDBRANCH  11  12
ENDBRANCH   6  11
ENDBRANCH   3   6
ENDBRANCH   1   2
BRANCH   1  22
ATOM     22  C   UNL A   1      34.878  23.436  24.232  1.00  0.00     0.042 C 
BRANCH  22  23
ATOM     23  C   UNL A   1      36.207  22.445  23.634  1.00  0.00     0.118 C 
BRANCH  23  24
ATOM     24  N   UNL A   1      37.647  21.338  24.678  1.00  0.00    -0.352 N 
ATOM     25  C   UNL A   1      38.776  21.366  25.755  1.00  0.00     0.251 C 
ATOM     26  H   UNL A   1      37.585  20.411  24.353  1.00  0.00     0.163 HD
ATOM     27  O   UNL A   1      39.356  20.282  25.916  1.00  0.00    -0.269 OA
BRANCH  25  28
ATOM     28  C   UNL A   1      39.372  22.579  26.577  1.00  0.00     0.039 A 
ATOM     29  C   UNL A   1      38.899  23.881  26.481  1.00  0.00     0.014 A 
ATOM     30  C   UNL A   1      40.467  22.454  27.451  1.00  0.00     0.014 A 
ATOM     31  C   UNL A   1      39.727  24.985  26.698  1.00  0.00     0.010 A 
ATOM     32  C   UNL A   1      41.155  23.609  27.970  1.00  0.00     0.010 A 
ATOM     33  C   UNL A   1      40.849  24.905  27.515  1.00  0.00    -0.014 A 
BRANCH  33  34
ATOM     34  C   UNL A   1      41.573  26.201  27.837  1.00  0.00     0.031 A 
ATOM     35  C   UNL A   1      42.886  26.564  27.172  1.00  0.00     0.074 A 
ATOM     36  C   UNL A   1      40.967  27.159  28.590  1.00  0.00     0.049 A 
ATOM     37  N   UNL A   1      43.607  27.655  27.297  1.00  0.00    -0.248 NA
ATOM     38  C   UNL A   1      43.451  25.591  26.227  1.00  0.00     0.031 C 
ATOM     39  C   UNL A   1      39.647  27.023  29.216  1.00  0.00     0.029 A 
ATOM     40  N   UNL A   1      41.323  28.458  28.904  1.00  0.00    -0.354 N 
ATOM     41  C   UNL A   1      44.719  27.483  26.477  1.00  0.00     0.074 A 
ATOM     42  C   UNL A   1      44.584  26.180  25.864  1.00  0.00     0.031 C 
ATOM     43  C   UNL A   1      39.259  28.201  29.721  1.00  0.00     0.029 A 
ATOM     44  C   UNL A   1      40.359  29.147  29.615  1.00  0.00     0.049 A 
ATOM     45  H   UNL A   1      42.186  28.855  28.645  1.00  0.00     0.167 HD
ATOM     46  C   UNL A   1      45.756  28.329  26.254  1.00  0.00     0.031 A 
ATOM     47  C   UNL A   1      40.349  30.381  30.168  1.00  0.00     0.031 A 
ATOM     48  C   UNL A   1      45.880  29.638  26.847  1.00  0.00     0.049 A 
ATOM     49  C   UNL A   1      41.562  31.252  30.009  1.00  0.00     0.074 A 
ATOM     50  C   UNL A   1      46.917  30.546  26.711  1.00  0.00     0.029 A 
ATOM     51  N   UNL A   1      44.940  30.231  27.677  1.00  0.00    -0.354 N 
ATOM     52  N   UNL A   1      42.635  31.032  29.290  1.00  0.00    -0.248 NA
ATOM     53  C   UNL A   1      41.578  32.527  30.740  1.00  0.00     0.031 C 
ATOM     54  C   UNL A   1      46.649  31.644  27.530  1.00  0.00     0.029 A 
ATOM     55  C   UNL A   1      45.394  31.474  28.089  1.00  0.00     0.049 A 
ATOM     56  H   UNL A   1      44.079  29.829  27.934  1.00  0.00     0.167 HD
ATOM     57  C   UNL A   1      43.444  32.147  29.463  1.00  0.00     0.074 A 
ATOM     58  C   UNL A   1      42.727  33.054  30.335  1.00  0.00     0.031 C 
ATOM     59  C   UNL A   1      44.673  32.386  28.946  1.00  0.00     0.031 A 
BRANCH  46  60
ATOM     60  C   UNL A   1      46.888  27.861  25.369  1.00  0.00    -0.014 A 
ATOM     61  C   UNL A   1      46.829  28.113  23.987  1.00  0.00     0.009 A 
ATOM     62  C   UNL A   1      47.953  27.096  25.866  1.00  0.00     0.009 A 
ATOM     63  C   UNL A   1      47.794  27.595  23.121  1.00  0.00     0.001 A 
ATOM     64  C   UNL A   1      48.941  26.611  25.003  1.00  0.00     0.001 A 
ATOM     65  C   UNL A   1      48.854  26.851  23.631  1.00  0.00     0.000 A 
ENDBRANCH  46  60
BRANCH  47  66
ATOM     66  C   UNL A   1      39.166  30.835  30.967  1.00  0.00    -0.014 A 
ATOM     67  C   UNL A   1      38.137  31.579  30.358  1.00  0.00     0.009 A 
ATOM     68  C   UNL A   1      39.061  30.568  32.341  1.00  0.00     0.009 A 
ATOM     69  C   UNL A   1      37.075  32.092  31.107  1.00  0.00     0.001 A 
ATOM     70  C   UNL A   1      37.971  31.042  33.081  1.00  0.00     0.001 A 
ATOM     71  C   UNL A   1      36.989  31.820  32.468  1.00  0.00     0.000 A 
ENDBRANCH  47  66
BRANCH  59  72
ATOM     72  C   UNL A   1      45.341  33.697  29.266  1.00  0.00    -0.014 A 
ATOM     73  C   UNL A   1      45.195  34.781  28.383  1.00  0.00     0.009 A 
ATOM     74  C   UNL A   1      46.217  33.826  30.354  1.00  0.00     0.009 A 
ATOM     75  C   UNL A   1      45.939  35.948  28.559  1.00  0.00     0.001 A 
ATOM     76  C   UNL A   1      46.928  35.011  30.552  1.00  0.00     0.001 A 
ATOM     77  C   UNL A   1      46.802  36.063  29.646  1.00  0.00     0.000 A 
ENDBRANCH  59  72
ENDBRANCH  33  34
ENDBRANCH  25  28
ENDBRANCH  23  24
ENDBRANCH  22  23
ENDBRANCH   1  22
TORSDOF 14
ENDMDL
MODEL 2
REMARK VINA RESULT:     -11.9      1.559      1.979
REMARK SMILES [NH3+][C@@H](CCC1=c2ccccc2=NC1)C(=O)NCCCNC(=O)c1ccc(-c2c3nc(c(-c4ccccc4)c4ccc([nH]4)c(-c4ccccc4)c4nc(c(-c5ccccc5)c5ccc2[nH]5)C=C4)C=C3)cc1
REMARK SMILES IDX 17 1 16 2 14 3 15 4 2 6 1 7 3 11 4 12 5 13 6 14 13 15 7 16
REMARK SMILES IDX 11 17 12 18 8 19 10 20 9 21 18 22 19 23 20 24 21 25 22 27
REMARK SMILES IDX 23 28 24 29 70 30 25 31 69 32 26 33 27 34 28 35 63 36 29 37
REMARK SMILES IDX 68 38 62 39 64 40 30 41 67 42 61 43 60 44 31 46 53 47 38 48
REMARK SMILES IDX 52 49 39 50 42 51 51 52 65 53 40 54 41 55 50 57 66 58 43 59
REMARK SMILES IDX 32 60 33 61 37 62 34 63 36 64 35 65 54 66 55 67 59 68 56 69
REMARK SMILES IDX 58 70 57 71 44 72 45 73 49 74 46 75 48 76 47 77
REMARK H PARENT 16 5 1 8 1 9 1 10 20 26 64 45 42 56
REMARK Flexibility Score: inf
ROOT
ATOM      1  C   UNL A   1      34.757  21.428  24.694  1.00  0.00     0.118 C 
ENDROOT
BRANCH   1   2
ATOM      2  N   UNL A   1      33.723  20.434  24.754  1.00  0.00    -0.351 N 
ATOM      3  C   UNL A   1      32.602  20.344  23.994  1.00  0.00     0.278 C 
ATOM      4  O   UNL A   1      31.949  19.301  24.060  1.00  0.00    -0.268 OA
ATOM      5  H   UNL A   1      33.842  19.730  25.432  1.00  0.00     0.163 HD
BRANCH   3   6
ATOM      6  C   UNL A   1      32.166  21.520  23.108  1.00  0.00     0.271 C 
BRANCH   6   7
ATOM      7  N   UNL A   1      31.453  21.082  21.887  1.00  0.00    -0.347 N 
ATOM      8  H   UNL A   1      32.133  20.792  21.184  1.00  0.00     0.345 HD
ATOM      9  H   UNL A   1      30.896  21.855  21.523  1.00  0.00     0.345 HD
ATOM     10  H   UNL A   1      30.842  20.298  22.113  1.00  0.00     0.345 HD
ENDBRANCH   6   7
BRANCH   6  11
ATOM     11  C   UNL A   1      31.525  22.720  23.839  1.00  0.00     0.080 C 
BRANCH  11  12
ATOM     12  C   UNL A   1      30.773  23.900  23.130  1.00  0.00     0.040 C 
BRANCH  12  13
ATOM     13  C   UNL A   1      31.515  25.146  22.662  1.00  0.00    -0.039 C 
ATOM     14  C   UNL A   1      31.379  26.448  23.003  1.00  0.00     0.001 A 
ATOM     15  C   UNL A   1      32.739  24.918  21.733  1.00  0.00     0.174 C 
ATOM     16  C   UNL A   1      30.576  27.482  24.318  1.00  0.00     0.010 A 
ATOM     17  C   UNL A   1      33.089  27.015  22.376  1.00  0.00     0.065 A 
ATOM     18  N   UNL A   1      33.645  26.124  21.620  1.00  0.00    -0.280 NA
ATOM     19  C   UNL A   1      31.398  28.705  25.052  1.00  0.00     0.001 A 
ATOM     20  C   UNL A   1      33.887  28.529  23.239  1.00  0.00     0.028 A 
ATOM     21  C   UNL A   1      33.173  29.193  24.491  1.00  0.00     0.002 A 
ENDBRANCH  12  13
ENDBRANCH  11  12
ENDBRANCH   6  11
ENDBRANCH   3   6
ENDBRANCH   1   2
BRANCH   1  22
ATOM     22  C   UNL A   1      35.884  21.078  25.634  1.00  0.00     0.042 C 
BRANCH  22  23
ATOM     23  C   UNL A   1      36.893  19.778  25.001  1.00  0.00     0.118 C 
BRANCH  23  24
ATOM     24  N   UNL A   1      38.907  19.328  25.363  1.00  0.00    -0.352 N 
ATOM     25  C   UNL A   1      40.248  19.803  26.005  1.00  0.00     0.251 C 
ATOM     26  H   UNL A   1      39.080  18.448  24.957  1.00  0.00     0.163 HD
ATOM     27  O   UNL A   1      41.202  19.033  25.824  1.00  0.00    -0.269 OA
BRANCH  25  28
ATOM     28  C   UNL A   1      40.604  21.159  26.738  1.00  0.00     0.039 A 
ATOM     29  C   UNL A   1      39.950  22.359  26.498  1.00  0.00     0.014 A 
ATOM     30  C   UNL A   1      41.651  21.279  27.671  1.00  0.00     0.014 A 
ATOM     31  C   UNL A   1      40.589  23.593  26.651  1.00  0.00     0.010 A 
ATOM     32  C   UNL A   1      42.126  22.566  28.111  1.00  0.00     0.010 A 
ATOM     33  C   UNL A   1      41.658  23.756  27.524  1.00  0.00    -0.014 A 
BRANCH  33  34
ATOM     34  C   UNL A   1      42.159  25.171  27.757  1.00  0.00     0.031 A 
ATOM     35  C   UNL A   1      43.399  25.699  27.064  1.00  0.00     0.074 A 
ATOM     36  C   UNL A   1      41.401  26.064  28.450  1.00  0.00     0.049 A 
ATOM     37  N   UNL A   1      43.933  26.898  27.114  1.00  0.00    -0.248 NA
ATOM     38  C   UNL A   1      44.121  24.771  26.181  1.00  0.00     0.031 C 
ATOM     39  C   UNL A   1      40.117  25.756  29.089  1.00  0.00     0.029 A 
ATOM     40  N   UNL A   1      41.540  27.421  28.677  1.00  0.00    -0.354 N 
ATOM     41  C   UNL A   1      45.063  26.856  26.302  1.00  0.00     0.074 A 
ATOM     42  C   UNL A   1      45.145  25.512  25.776  1.00  0.00     0.031 C 
ATOM     43  C   UNL A   1      39.540  26.885  29.518  1.00  0.00     0.029 A 
ATOM     44  C   UNL A   1      40.472  27.989  29.346  1.00  0.00     0.049 A 
ATOM     45  H   UNL A   1      42.327  27.936  28.389  1.00  0.00     0.167 HD
ATOM     46  C   UNL A   1      45.949  27.844  26.019  1.00  0.00     0.031 A 
ATOM     47  C   UNL A   1      40.257  29.238  29.818  1.00  0.00     0.031 A 
ATOM     48  C   UNL A   1      45.855  29.192  26.526  1.00  0.00     0.049 A 
ATOM     49  C   UNL A   1      41.314  30.282  29.597  1.00  0.00     0.074 A 
ATOM     50  C   UNL A   1      46.732  30.246  26.326  1.00  0.00     0.029 A 
ATOM     51  N   UNL A   1      44.827  29.676  27.320  1.00  0.00    -0.354 N 
ATOM     52  N   UNL A   1      42.413  30.194  28.888  1.00  0.00    -0.248 NA
ATOM     53  C   UNL A   1      41.118  31.588  30.243  1.00  0.00     0.031 C 
ATOM     54  C   UNL A   1      46.284  31.335  27.073  1.00  0.00     0.029 A 
ATOM     55  C   UNL A   1      45.070  31.001  27.649  1.00  0.00     0.049 A 
ATOM     56  H   UNL A   1      44.041  29.157  27.607  1.00  0.00     0.167 HD
ATOM     57  C   UNL A   1      43.028  31.435  28.985  1.00  0.00     0.074 A 
ATOM     58  C   UNL A   1      42.169  32.267  29.799  1.00  0.00     0.031 C 
ATOM     59  C   UNL A   1      44.205  31.836  28.447  1.00  0.00     0.031 A 
BRANCH  46  60
ATOM     60  C   UNL A   1      47.148  27.510  25.162  1.00  0.00    -0.014 A 
ATOM     61  C   UNL A   1      48.328  27.055  25.778  1.00  0.00     0.009 A 
ATOM     62  C   UNL A   1      47.157  27.732  23.777  1.00  0.00     0.009 A 
ATOM     63  C   UNL A   1      49.491  26.849  25.034  1.00  0.00     0.001 A 
ATOM     64  C   UNL A   1      48.313  27.486  23.027  1.00  0.00     0.001 A 
ATOM     65  C   UNL A   1      49.480  27.058  23.658  1.00  0.00     0.000 A 
ENDBRANCH  46  60
BRANCH  47  66
ATOM     66  C   UNL A   1      39.012  29.544  30.591  1.00  0.00    -0.014 A 
ATOM     67  C   UNL A   1      38.988  29.393  31.992  1.00  0.00     0.009 A 
ATOM     68  C   UNL A   1      37.831  29.952  29.951  1.00  0.00     0.009 A 
ATOM     69  C   UNL A   1      37.809  29.582  32.718  1.00  0.00     0.001 A 
ATOM     70  C   UNL A   1      36.663  30.187  30.688  1.00  0.00     0.001 A 
ATOM     71  C   UNL A   1      36.648  29.983  32.067  1.00  0.00     0.000 A 
ENDBRANCH  47  66
BRANCH  59  72
ATOM     72  C   UNL A   1      44.649  33.257  28.679  1.00  0.00    -0.014 A 
ATOM     73  C   UNL A   1      45.391  33.569  29.832  1.00  0.00     0.009 A 
ATOM     74  C   UNL A   1      44.227  34.302  27.845  1.00  0.00     0.009 A 
ATOM     75  C   UNL A   1      45.666  34.895  30.164  1.00  0.00     0.001 A 
ATOM     76  C   UNL A   1      44.540  35.626  28.158  1.00  0.00     0.001 A 
ATOM     77  C   UNL A   1      45.244  35.923  29.324  1.00  0.00     0.000 A 
ENDBRANCH  59  72
ENDBRANCH  33  34
ENDBRANCH  25  28
ENDBRANCH  23  24
ENDBRANCH  22  23
ENDBRANCH   1  22
TORSDOF 14
ENDMDL
MODEL 3
REMARK VINA RESULT:     -11.8      4.085      9.336
REMARK SMILES [NH3+][C@@H](CCC1=c2ccccc2=NC1)C(=O)NCCCNC(=O)c1ccc(-c2c3nc(c(-c4ccccc4)c4ccc([nH]4)c(-c4ccccc4)c4nc(c(-c5ccccc5)c5ccc2[nH]5)C=C4)C=C3)cc1
REMARK SMILES IDX 17 1 16 2 14 3 15 4 2 6 1 7 3 11 4 12 5 13 6 14 13 15 7 16
REMARK SMILES IDX 11 17 12 18 8 19 10 20 9 21 18 22 19 23 20 24 21 25 22 27
REMARK SMILES IDX 23 28 24 29 70 30 25 31 69 32 26 33 27 34 28 35 63 36 29 37
REMARK SMILES IDX 68 38 62 39 64 40 30 41 67 42 61 43 60 44 31 46 53 47 38 48
REMARK SMILES IDX 52 49 39 50 42 51 51 52 65 53 40 54 41 55 50 57 66 58 43 59
REMARK SMILES IDX 32 60 33 61 37 62 34 63 36 64 35 65 54 66 55 67 59 68 56 69
REMARK SMILES IDX 58 70 57 71 44 72 45 73 49 74 46 75 48 76 47 77
REMARK H PARENT 16 5 1 8 1 9 1 10 20 26 64 45 42 56
REMARK Flexibility Score: inf
ROOT
ATOM      1  C   UNL A   1      31.336  29.336  24.631  1.00  0.00     0.118 C 
ENDROOT
BRANCH   1   2
ATOM      2  N   UNL A   1      32.506  29.335  23.801  1.00  0.00    -0.351 N 
ATOM      3  C   UNL A   1      33.175  28.267  23.296  1.00  0.00     0.278 C 
ATOM      4  O   UNL A   1      34.030  28.484  22.435  1.00  0.00    -0.268 OA
ATOM      5  H   UNL A   1      32.869  30.220  23.569  1.00  0.00     0.163 HD
BRANCH   3   6
ATOM      6  C   UNL A   1      32.880  26.850  23.810  1.00  0.00     0.271 C 
BRANCH   6   7
ATOM      7  N   UNL A   1      32.882  25.839  22.729  1.00  0.00    -0.347 N 
ATOM      8  H   UNL A   1      33.277  26.248  21.882  1.00  0.00     0.345 HD
ATOM      9  H   UNL A   1      31.925  25.535  22.546  1.00  0.00     0.345 HD
ATOM     10  H   UNL A   1      33.445  25.038  23.014  1.00  0.00     0.345 HD
ENDBRANCH   6   7
BRANCH   6  11
ATOM     11  C   UNL A   1      33.621  26.427  25.097  1.00  0.00     0.080 C 
BRANCH  11  12
ATOM     12  C   UNL A   1      33.119  25.325  26.094  1.00  0.00     0.040 C 
BRANCH  12  13
ATOM     13  C   UNL A   1      33.562  23.873  25.960  1.00  0.00    -0.039 C 
ATOM     14  C   UNL A   1      34.228  23.230  24.973  1.00  0.00     0.001 A 
ATOM     15  C   UNL A   1      33.357  22.965  27.203  1.00  0.00     0.174 C 
ATOM     16  C   UNL A   1      35.236  23.623  23.467  1.00  0.00     0.010 A 
ATOM     17  C   UNL A   1      34.786  21.739  26.026  1.00  0.00     0.065 A 
ATOM     18  N   UNL A   1      34.148  21.677  27.149  1.00  0.00    -0.280 NA
ATOM     19  C   UNL A   1      36.662  22.852  23.177  1.00  0.00     0.001 A 
ATOM     20  C   UNL A   1      36.406  20.853  25.511  1.00  0.00     0.028 A 
ATOM     21  C   UNL A   1      37.277  21.428  24.316  1.00  0.00     0.002 A 
ENDBRANCH  12  13
ENDBRANCH  11  12
ENDBRANCH   6  11
ENDBRANCH   3   6
ENDBRANCH   1   2
BRANCH   1  22
ATOM     22  C   UNL A   1      31.640  29.944  25.978  1.00  0.00     0.042 C 
BRANCH  22  23
ATOM     23  C   UNL A   1      31.035  31.595  26.108  1.00  0.00     0.118 C 
BRANCH  23  24
ATOM     24  N   UNL A   1      31.783  33.230  27.183  1.00  0.00    -0.352 N 
ATOM     25  C   UNL A   1      33.012  33.844  27.923  1.00  0.00     0.251 C 
ATOM     26  H   UNL A   1      31.052  33.886  27.249  1.00  0.00     0.163 HD
ATOM     27  O   UNL A   1      32.793  34.943  28.454  1.00  0.00    -0.269 OA
BRANCH  25  28
ATOM     28  C   UNL A   1      34.444  33.233  28.204  1.00  0.00     0.039 A 
ATOM     29  C   UNL A   1      34.674  31.883  28.428  1.00  0.00     0.014 A 
ATOM     30  C   UNL A   1      35.611  34.014  28.294  1.00  0.00     0.014 A 
ATOM     31  C   UNL A   1      35.733  31.436  29.224  1.00  0.00     0.010 A 
ATOM     32  C   UNL A   1      36.841  33.475  28.816  1.00  0.00     0.010 A 
ATOM     33  C   UNL A   1      36.891  32.189  29.386  1.00  0.00    -0.014 A 
BRANCH  33  34
ATOM     34  C   UNL A   1      38.052  31.535  30.113  1.00  0.00     0.031 A 
ATOM     35  C   UNL A   1      38.293  31.763  31.592  1.00  0.00     0.074 A 
ATOM     36  C   UNL A   1      38.798  30.577  29.498  1.00  0.00     0.049 A 
ATOM     37  N   UNL A   1      39.210  31.240  32.375  1.00  0.00    -0.248 NA
ATOM     38  C   UNL A   1      37.376  32.675  32.289  1.00  0.00     0.031 C 
ATOM     39  C   UNL A   1      38.626  30.147  28.105  1.00  0.00     0.029 A 
ATOM     40  N   UNL A   1      39.791  29.733  29.960  1.00  0.00    -0.354 N 
ATOM     41  C   UNL A   1      38.998  31.784  33.639  1.00  0.00     0.074 A 
ATOM     42  C   UNL A   1      37.872  32.683  33.520  1.00  0.00     0.031 C 
ATOM     43  C   UNL A   1      39.378  29.065  27.868  1.00  0.00     0.029 A 
ATOM     44  C   UNL A   1      40.221  28.809  29.026  1.00  0.00     0.049 A 
ATOM     45  H   UNL A   1      40.159  29.785  30.871  1.00  0.00     0.167 HD
ATOM     46  C   UNL A   1      39.676  31.556  34.792  1.00  0.00     0.031 A 
ATOM     47  C   UNL A   1      41.204  27.881  29.054  1.00  0.00     0.031 A 
ATOM     48  C   UNL A   1      40.785  30.641  34.917  1.00  0.00     0.049 A 
ATOM     49  C   UNL A   1      42.022  27.735  30.305  1.00  0.00     0.074 A 
ATOM     50  C   UNL A   1      41.558  30.380  36.036  1.00  0.00     0.029 A 
ATOM     51  N   UNL A   1      41.273  29.835  33.900  1.00  0.00    -0.354 N 
ATOM     52  N   UNL A   1      41.848  28.319  31.465  1.00  0.00    -0.248 NA
ATOM     53  C   UNL A   1      43.172  26.822  30.257  1.00  0.00     0.031 C 
ATOM     54  C   UNL A   1      42.568  29.489  35.672  1.00  0.00     0.029 A 
ATOM     55  C   UNL A   1      42.360  29.107  34.358  1.00  0.00     0.049 A 
ATOM     56  H   UNL A   1      40.903  29.787  32.989  1.00  0.00     0.167 HD
ATOM     57  C   UNL A   1      42.851  27.830  32.291  1.00  0.00     0.074 A 
ATOM     58  C   UNL A   1      43.615  26.882  31.507  1.00  0.00     0.031 C 
ATOM     59  C   UNL A   1      43.112  28.149  33.581  1.00  0.00     0.031 A 
BRANCH  46  60
ATOM     60  C   UNL A   1      39.289  32.344  36.021  1.00  0.00    -0.014 A 
ATOM     61  C   UNL A   1      38.268  31.856  36.857  1.00  0.00     0.009 A 
ATOM     62  C   UNL A   1      39.846  33.599  36.306  1.00  0.00     0.009 A 
ATOM     63  C   UNL A   1      37.800  32.611  37.935  1.00  0.00     0.001 A 
ATOM     64  C   UNL A   1      39.404  34.337  37.410  1.00  0.00     0.001 A 
ATOM     65  C   UNL A   1      38.374  33.849  38.214  1.00  0.00     0.000 A 
ENDBRANCH  46  60
BRANCH  47  66
ATOM     66  C   UNL A   1      41.496  27.062  27.835  1.00  0.00    -0.014 A 
ATOM     67  C   UNL A   1      42.510  27.454  26.939  1.00  0.00     0.009 A 
ATOM     68  C   UNL A   1      40.756  25.909  27.529  1.00  0.00     0.009 A 
ATOM     69  C   UNL A   1      42.733  26.756  25.749  1.00  0.00     0.001 A 
ATOM     70  C   UNL A   1      41.013  25.183  26.359  1.00  0.00     0.001 A 
ATOM     71  C   UNL A   1      41.987  25.617  25.461  1.00  0.00     0.000 A 
ENDBRANCH  47  66
BRANCH  59  72
ATOM     72  C   UNL A   1      44.256  27.455  34.273  1.00  0.00    -0.014 A 
ATOM     73  C   UNL A   1      44.012  26.271  34.991  1.00  0.00     0.009 A 
ATOM     74  C   UNL A   1      45.533  28.030  34.333  1.00  0.00     0.009 A 
ATOM     75  C   UNL A   1      45.008  25.702  35.784  1.00  0.00     0.001 A 
ATOM     76  C   UNL A   1      46.541  27.434  35.093  1.00  0.00     0.001 A 
ATOM     77  C   UNL A   1      46.274  26.281  35.831  1.00  0.00     0.000 A 
ENDBRANCH  59  72
ENDBRANCH  33  34
ENDBRANCH  25  28
ENDBRANCH  23  24
ENDBRANCH  22  23
ENDBRANCH   1  22
TORSDOF 14
ENDMDL
