MODEL 1
REMARK VINA RESULT:      -9.7      0.000      0.000
REMARK SMILES CC(C)C[C@H](NC(=O)[C@H](C)NC(=O)[C@@H](NC(=O)CNC(=O)OCc1ccccc1)C(C)C)C(=O)NCCCNC(=O)c1ccc(-c2c3nc(c(-c4ccccc4)c4ccc([nH]4)c(-c4ccccc4)c4nc(c(-c5ccccc5)c5ccc2[nH]5)C=C4)C=C3)cc1
REMARK SMILES IDX 6 1 7 2 8 3 5 5 4 6 2 7 1 8 3 9 33 10 34 11 35 12 36 14
REMARK SMILES IDX 37 15 38 16 39 17 40 18 41 20 42 21 43 22 89 23 44 24 88 25
REMARK SMILES IDX 45 26 46 27 47 28 82 29 48 30 87 31 81 32 83 33 49 34 86 35
REMARK SMILES IDX 80 36 79 37 50 39 72 40 57 41 71 42 58 43 61 44 70 45 84 46
REMARK SMILES IDX 59 47 60 48 69 50 85 51 62 52 51 53 52 54 56 55 53 56 55 57
REMARK SMILES IDX 54 58 73 59 74 60 78 61 75 62 77 63 76 64 63 65 64 66 68 67
REMARK SMILES IDX 65 68 67 69 66 70 9 71 10 72 11 73 12 74 13 76 14 77 15 78
REMARK SMILES IDX 16 79 17 81 18 82 19 83 20 84 21 86 22 87 23 88 24 89 25 90
REMARK SMILES IDX 29 91 26 92 28 93 27 94 30 95 31 96 32 97
REMARK H PARENT 6 4 35 13 39 19 83 38 61 49 11 75 15 80 19 85
REMARK Flexibility Score: inf
ROOT
ATOM      1  N   UNL A   1      35.547  22.397  23.823  1.00  0.00    -0.343 N 
ATOM      2  C   UNL A   1      34.717  23.475  23.777  1.00  0.00     0.242 C 
ATOM      3  O   UNL A   1      34.157  23.685  22.696  1.00  0.00    -0.273 OA
ATOM      4  H   UNL A   1      36.077  22.231  23.011  1.00  0.00     0.164 HD
ENDROOT
BRANCH   1   5
ATOM      5  C   UNL A   1      35.757  21.451  24.922  1.00  0.00     0.171 C 
BRANCH   5   6
ATOM      6  C   UNL A   1      34.842  20.211  24.776  1.00  0.00     0.038 C 
BRANCH   6   7
ATOM      7  C   UNL A   1      33.354  20.324  25.142  1.00  0.00    -0.015 C 
ATOM      8  C   UNL A   1      32.488  20.663  23.923  1.00  0.00     0.007 C 
ATOM      9  C   UNL A   1      32.835  19.018  25.753  1.00  0.00     0.007 C 
ENDBRANCH   6   7
ENDBRANCH   5   6
BRANCH   5  10
ATOM     10  C   UNL A   1      37.234  21.244  25.285  1.00  0.00     0.242 C 
ATOM     11  O   UNL A   1      37.832  20.232  24.903  1.00  0.00    -0.273 OA
ATOM     12  N   UNL A   1      37.970  22.155  25.971  1.00  0.00    -0.354 N 
ATOM     13  H   UNL A   1      38.806  21.804  26.354  1.00  0.00     0.163 HD
BRANCH  12  14
ATOM     14  C   UNL A   1      37.726  23.558  26.230  1.00  0.00     0.117 C 
BRANCH  14  15
ATOM     15  C   UNL A   1      38.668  24.141  27.257  1.00  0.00     0.042 C 
BRANCH  15  16
ATOM     16  C   UNL A   1      40.126  23.945  26.876  1.00  0.00     0.118 C 
BRANCH  16  17
ATOM     17  N   UNL A   1      40.586  24.874  25.843  1.00  0.00    -0.352 N 
ATOM     18  C   UNL A   1      41.675  25.715  25.832  1.00  0.00     0.251 C 
ATOM     19  H   UNL A   1      40.032  24.902  25.031  1.00  0.00     0.163 HD
ATOM     20  O   UNL A   1      41.813  26.552  24.947  1.00  0.00    -0.269 OA
BRANCH  18  21
ATOM     21  C   UNL A   1      42.652  25.621  26.931  1.00  0.00     0.039 A 
ATOM     22  C   UNL A   1      43.401  24.455  27.087  1.00  0.00     0.014 A 
ATOM     23  C   UNL A   1      42.900  26.737  27.726  1.00  0.00     0.014 A 
ATOM     24  C   UNL A   1      44.491  24.460  27.959  1.00  0.00     0.010 A 
ATOM     25  C   UNL A   1      44.065  26.788  28.474  1.00  0.00     0.010 A 
ATOM     26  C   UNL A   1      44.874  25.650  28.599  1.00  0.00    -0.014 A 
BRANCH  26  27
ATOM     27  C   UNL A   1      46.118  25.745  29.401  1.00  0.00     0.031 A 
ATOM     28  C   UNL A   1      47.442  25.906  28.708  1.00  0.00     0.074 A 
ATOM     29  C   UNL A   1      46.065  25.593  30.740  1.00  0.00     0.049 A 
ATOM     30  N   UNL A   1      48.646  25.910  29.219  1.00  0.00    -0.248 NA
ATOM     31  C   UNL A   1      47.414  26.042  27.241  1.00  0.00     0.031 C 
ATOM     32  C   UNL A   1      44.848  25.374  31.528  1.00  0.00     0.029 A 
ATOM     33  N   UNL A   1      47.067  25.593  31.678  1.00  0.00    -0.354 N 
ATOM     34  C   UNL A   1      49.512  26.024  28.138  1.00  0.00     0.074 A 
ATOM     35  C   UNL A   1      48.703  26.014  26.941  1.00  0.00     0.031 C 
ATOM     36  C   UNL A   1      45.172  25.305  32.829  1.00  0.00     0.029 A 
ATOM     37  C   UNL A   1      46.619  25.418  32.965  1.00  0.00     0.049 A 
ATOM     38  H   UNL A   1      48.018  25.709  31.450  1.00  0.00     0.167 HD
ATOM     39  C   UNL A   1      50.858  26.156  28.140  1.00  0.00     0.031 A 
ATOM     40  C   UNL A   1      47.300  25.345  34.125  1.00  0.00     0.031 A 
ATOM     41  C   UNL A   1      51.659  26.180  29.333  1.00  0.00     0.049 A 
ATOM     42  C   UNL A   1      48.797  25.470  34.099  1.00  0.00     0.074 A 
ATOM     43  C   UNL A   1      53.024  26.372  29.449  1.00  0.00     0.029 A 
ATOM     44  N   UNL A   1      51.165  26.004  30.616  1.00  0.00    -0.354 N 
ATOM     45  N   UNL A   1      49.594  25.659  33.075  1.00  0.00    -0.248 NA
ATOM     46  C   UNL A   1      49.490  25.379  35.392  1.00  0.00     0.031 C 
ATOM     47  C   UNL A   1      53.366  26.245  30.799  1.00  0.00     0.029 A 
ATOM     48  C   UNL A   1      52.205  26.046  31.529  1.00  0.00     0.049 A 
ATOM     49  H   UNL A   1      50.218  25.869  30.844  1.00  0.00     0.167 HD
ATOM     50  C   UNL A   1      50.877  25.733  33.601  1.00  0.00     0.074 A 
ATOM     51  C   UNL A   1      50.749  25.593  35.036  1.00  0.00     0.031 C 
ATOM     52  C   UNL A   1      52.057  25.899  32.954  1.00  0.00     0.031 A 
BRANCH  39  53
ATOM     53  C   UNL A   1      51.544  26.277  26.807  1.00  0.00    -0.014 A 
ATOM     54  C   UNL A   1      52.172  25.173  26.206  1.00  0.00     0.009 A 
ATOM     55  C   UNL A   1      51.543  27.506  26.131  1.00  0.00     0.009 A 
ATOM     56  C   UNL A   1      52.821  25.309  24.977  1.00  0.00     0.001 A 
ATOM     57  C   UNL A   1      52.161  27.630  24.886  1.00  0.00     0.001 A 
ATOM     58  C   UNL A   1      52.809  26.536  24.315  1.00  0.00     0.000 A 
ENDBRANCH  39  53
BRANCH  40  59
ATOM     59  C   UNL A   1      46.575  25.151  35.410  1.00  0.00    -0.014 A 
ATOM     60  C   UNL A   1      46.131  26.256  36.153  1.00  0.00     0.009 A 
ATOM     61  C   UNL A   1      46.335  23.861  35.910  1.00  0.00     0.009 A 
ATOM     62  C   UNL A   1      45.493  26.076  37.382  1.00  0.00     0.001 A 
ATOM     63  C   UNL A   1      45.666  23.682  37.124  1.00  0.00     0.001 A 
ATOM     64  C   UNL A   1      45.256  24.790  37.864  1.00  0.00     0.000 A 
ENDBRANCH  40  59
BRANCH  52  65
ATOM     65  C   UNL A   1      53.300  25.967  33.798  1.00  0.00    -0.014 A 
ATOM     66  C   UNL A   1      54.050  24.817  34.085  1.00  0.00     0.009 A 
ATOM     67  C   UNL A   1      53.749  27.210  34.272  1.00  0.00     0.009 A 
ATOM     68  C   UNL A   1      55.207  24.906  34.862  1.00  0.00     0.001 A 
ATOM     69  C   UNL A   1      54.924  27.300  35.018  1.00  0.00     0.001 A 
ATOM     70  C   UNL A   1      55.647  26.147  35.322  1.00  0.00     0.000 A 
ENDBRANCH  52  65
ENDBRANCH  26  27
ENDBRANCH  18  21
ENDBRANCH  16  17
ENDBRANCH  15  16
ENDBRANCH  14  15
ENDBRANCH  12  14
ENDBRANCH   5  10
ENDBRANCH   1   5
BRANCH   2  71
ATOM     71  C   UNL A   1      34.649  24.516  24.921  1.00  0.00     0.168 C 
ATOM     72  C   UNL A   1      33.722  24.278  26.099  1.00  0.00     0.041 C 
BRANCH  71  73
ATOM     73  N   UNL A   1      34.347  25.822  24.356  1.00  0.00    -0.343 N 
ATOM     74  C   UNL A   1      33.146  26.434  24.194  1.00  0.00     0.243 C 
ATOM     75  H   UNL A   1      35.127  26.337  24.046  1.00  0.00     0.164 HD
ATOM     76  O   UNL A   1      33.149  27.508  23.583  1.00  0.00    -0.273 OA
BRANCH  74  77
ATOM     77  C   UNL A   1      31.836  25.931  24.886  1.00  0.00     0.174 C 
BRANCH  77  78
ATOM     78  N   UNL A   1      31.380  26.737  26.052  1.00  0.00    -0.343 N 
ATOM     79  C   UNL A   1      31.885  27.634  26.944  1.00  0.00     0.240 C 
ATOM     80  H   UNL A   1      30.427  26.573  26.232  1.00  0.00     0.164 HD
ATOM     81  O   UNL A   1      31.129  27.924  27.881  1.00  0.00    -0.273 OA
BRANCH  79  82
ATOM     82  C   UNL A   1      33.290  28.272  26.898  1.00  0.00     0.219 C 
BRANCH  82  83
ATOM     83  N   UNL A   1      33.353  29.640  27.384  1.00  0.00    -0.312 N 
ATOM     84  C   UNL A   1      34.482  30.334  27.712  1.00  0.00     0.407 C 
ATOM     85  H   UNL A   1      32.497  30.114  27.485  1.00  0.00     0.167 HD
ATOM     86  O   UNL A   1      34.415  31.354  28.377  1.00  0.00    -0.225 OA
BRANCH  84  87
ATOM     87  O   UNL A   1      35.618  29.750  27.255  1.00  0.00    -0.445 OA
BRANCH  87  88
ATOM     88  C   UNL A   1      36.853  30.190  27.850  1.00  0.00     0.270 C 
BRANCH  88  89
ATOM     89  C   UNL A   1      37.565  29.197  28.736  1.00  0.00    -0.011 A 
ATOM     90  C   UNL A   1      38.555  28.332  28.256  1.00  0.00     0.007 A 
ATOM     91  C   UNL A   1      37.264  29.178  30.108  1.00  0.00     0.007 A 
ATOM     92  C   UNL A   1      39.277  27.523  29.131  1.00  0.00     0.000 A 
ATOM     93  C   UNL A   1      37.973  28.353  30.981  1.00  0.00     0.000 A 
ATOM     94  C   UNL A   1      38.992  27.539  30.493  1.00  0.00     0.000 A 
ENDBRANCH  88  89
ENDBRANCH  87  88
ENDBRANCH  84  87
ENDBRANCH  82  83
ENDBRANCH  79  82
ENDBRANCH  77  78
BRANCH  77  95
ATOM     95  C   UNL A   1      30.741  25.559  23.876  1.00  0.00     0.015 C 
ATOM     96  C   UNL A   1      30.635  24.075  23.517  1.00  0.00     0.010 C 
ATOM     97  C   UNL A   1      29.374  26.076  24.334  1.00  0.00     0.010 C 
ENDBRANCH  77  95
ENDBRANCH  74  77
ENDBRANCH  71  73
ENDBRANCH   2  71
TORSDOF 23
ENDMDL
MODEL 2
REMARK VINA RESULT:      -9.7      3.899      5.384
REMARK SMILES CC(C)C[C@H](NC(=O)[C@H](C)NC(=O)[C@@H](NC(=O)CNC(=O)OCc1ccccc1)C(C)C)C(=O)NCCCNC(=O)c1ccc(-c2c3nc(c(-c4ccccc4)c4ccc([nH]4)c(-c4ccccc4)c4nc(c(-c5ccccc5)c5ccc2[nH]5)C=C4)C=C3)cc1
REMARK SMILES IDX 6 1 7 2 8 3 5 5 4 6 2 7 1 8 3 9 33 10 34 11 35 12 36 14
REMARK SMILES IDX 37 15 38 16 39 17 40 18 41 20 42 21 43 22 89 23 44 24 88 25
REMARK SMILES IDX 45 26 46 27 47 28 82 29 48 30 87 31 81 32 83 33 49 34 86 35
REMARK SMILES IDX 80 36 79 37 50 39 72 40 57 41 71 42 58 43 61 44 70 45 84 46
REMARK SMILES IDX 59 47 60 48 69 50 85 51 62 52 51 53 52 54 56 55 53 56 55 57
REMARK SMILES IDX 54 58 73 59 74 60 78 61 75 62 77 63 76 64 63 65 64 66 68 67
REMARK SMILES IDX 65 68 67 69 66 70 9 71 10 72 11 73 12 74 13 76 14 77 15 78
REMARK SMILES IDX 16 79 17 81 18 82 19 83 20 84 21 86 22 87 23 88 24 89 25 90
REMARK SMILES IDX 29 91 26 92 28 93 27 94 30 95 31 96 32 97
REMARK H PARENT 6 4 35 13 39 19 83 38 61 49 11 75 15 80 19 85
REMARK Flexibility Score: inf
ROOT
ATOM      1  N   UNL A   1      34.011  23.954  22.965  1.00  0.00    -0.343 N 
ATOM      2  C   UNL A   1      33.204  24.994  23.313  1.00  0.00     0.242 C 
ATOM      3  O   UNL A   1      32.169  25.124  22.651  1.00  0.00    -0.273 OA
ATOM      4  H   UNL A   1      34.077  23.768  22.001  1.00  0.00     0.164 HD
ENDROOT
BRANCH   1   5
ATOM      5  C   UNL A   1      34.795  23.075  23.836  1.00  0.00     0.171 C 
BRANCH   5   6
ATOM      6  C   UNL A   1      34.073  21.726  24.068  1.00  0.00     0.038 C 
BRANCH   6   7
ATOM      7  C   UNL A   1      33.123  21.575  25.266  1.00  0.00    -0.015 C 
ATOM      8  C   UNL A   1      32.926  20.107  25.660  1.00  0.00     0.007 C 
ATOM      9  C   UNL A   1      33.649  22.335  26.488  1.00  0.00     0.007 C 
ENDBRANCH   6   7
ENDBRANCH   5   6
BRANCH   5  10
ATOM     10  C   UNL A   1      36.297  23.067  23.514  1.00  0.00     0.242 C 
ATOM     11  O   UNL A   1      36.680  22.991  22.342  1.00  0.00    -0.273 OA
ATOM     12  N   UNL A   1      37.264  23.200  24.457  1.00  0.00    -0.354 N 
ATOM     13  H   UNL A   1      38.163  22.929  24.165  1.00  0.00     0.163 HD
BRANCH  12  14
ATOM     14  C   UNL A   1      37.188  23.678  25.821  1.00  0.00     0.117 C 
BRANCH  14  15
ATOM     15  C   UNL A   1      38.440  24.397  26.265  1.00  0.00     0.042 C 
BRANCH  15  16
ATOM     16  C   UNL A   1      39.306  23.539  27.171  1.00  0.00     0.118 C 
BRANCH  16  17
ATOM     17  N   UNL A   1      40.307  22.755  26.446  1.00  0.00    -0.352 N 
ATOM     18  C   UNL A   1      41.605  23.070  26.114  1.00  0.00     0.251 C 
ATOM     19  H   UNL A   1      40.007  21.867  26.151  1.00  0.00     0.163 HD
ATOM     20  O   UNL A   1      42.248  22.357  25.352  1.00  0.00    -0.269 OA
BRANCH  18  21
ATOM     21  C   UNL A   1      42.194  24.307  26.657  1.00  0.00     0.039 A 
ATOM     22  C   UNL A   1      42.013  24.621  28.004  1.00  0.00     0.014 A 
ATOM     23  C   UNL A   1      43.020  25.086  25.851  1.00  0.00     0.014 A 
ATOM     24  C   UNL A   1      42.772  25.646  28.569  1.00  0.00     0.010 A 
ATOM     25  C   UNL A   1      43.877  25.997  26.443  1.00  0.00     0.010 A 
ATOM     26  C   UNL A   1      43.763  26.288  27.810  1.00  0.00    -0.014 A 
BRANCH  26  27
ATOM     27  C   UNL A   1      44.704  27.265  28.412  1.00  0.00     0.031 A 
ATOM     28  C   UNL A   1      44.571  28.727  28.085  1.00  0.00     0.074 A 
ATOM     29  C   UNL A   1      45.727  26.829  29.174  1.00  0.00     0.049 A 
ATOM     30  N   UNL A   1      45.347  29.722  28.427  1.00  0.00    -0.248 NA
ATOM     31  C   UNL A   1      43.439  29.118  27.226  1.00  0.00     0.031 C 
ATOM     32  C   UNL A   1      45.999  25.430  29.520  1.00  0.00     0.029 A 
ATOM     33  N   UNL A   1      46.738  27.521  29.792  1.00  0.00    -0.354 N 
ATOM     34  C   UNL A   1      44.811  30.845  27.808  1.00  0.00     0.074 A 
ATOM     35  C   UNL A   1      43.690  30.400  27.014  1.00  0.00     0.031 C 
ATOM     36  C   UNL A   1      47.075  25.375  30.322  1.00  0.00     0.029 A 
ATOM     37  C   UNL A   1      47.602  26.723  30.501  1.00  0.00     0.049 A 
ATOM     38  H   UNL A   1      46.834  28.499  29.734  1.00  0.00     0.167 HD
ATOM     39  C   UNL A   1      45.196  32.137  27.914  1.00  0.00     0.031 A 
ATOM     40  C   UNL A   1      48.704  27.039  31.208  1.00  0.00     0.031 A 
ATOM     41  C   UNL A   1      46.303  32.580  28.717  1.00  0.00     0.049 A 
ATOM     42  C   UNL A   1      49.126  28.479  31.291  1.00  0.00     0.074 A 
ATOM     43  C   UNL A   1      46.740  33.873  28.943  1.00  0.00     0.029 A 
ATOM     44  N   UNL A   1      47.150  31.739  29.423  1.00  0.00    -0.354 N 
ATOM     45  N   UNL A   1      48.560  29.539  30.766  1.00  0.00    -0.248 NA
ATOM     46  C   UNL A   1      50.337  28.768  32.072  1.00  0.00     0.031 C 
ATOM     47  C   UNL A   1      47.892  33.810  29.733  1.00  0.00     0.029 A 
ATOM     48  C   UNL A   1      48.130  32.483  30.056  1.00  0.00     0.049 A 
ATOM     49  H   UNL A   1      47.066  30.759  29.466  1.00  0.00     0.167 HD
ATOM     50  C   UNL A   1      49.331  30.621  31.172  1.00  0.00     0.074 A 
ATOM     51  C   UNL A   1      50.389  30.090  32.006  1.00  0.00     0.031 C 
ATOM     52  C   UNL A   1      49.178  31.936  30.878  1.00  0.00     0.031 A 
BRANCH  39  53
ATOM     53  C   UNL A   1      44.415  33.159  27.135  1.00  0.00    -0.014 A 
ATOM     54  C   UNL A   1      43.631  34.128  27.783  1.00  0.00     0.009 A 
ATOM     55  C   UNL A   1      44.481  33.167  25.734  1.00  0.00     0.009 A 
ATOM     56  C   UNL A   1      42.897  35.057  27.042  1.00  0.00     0.001 A 
ATOM     57  C   UNL A   1      43.774  34.119  24.998  1.00  0.00     0.001 A 
ATOM     58  C   UNL A   1      42.975  35.056  25.651  1.00  0.00     0.000 A 
ENDBRANCH  39  53
BRANCH  40  59
ATOM     59  C   UNL A   1      49.482  25.976  31.901  1.00  0.00    -0.014 A 
ATOM     60  C   UNL A   1      50.549  25.336  31.251  1.00  0.00     0.009 A 
ATOM     61  C   UNL A   1      49.154  25.584  33.208  1.00  0.00     0.009 A 
ATOM     62  C   UNL A   1      51.250  24.306  31.883  1.00  0.00     0.001 A 
ATOM     63  C   UNL A   1      49.879  24.577  33.851  1.00  0.00     0.001 A 
ATOM     64  C   UNL A   1      50.917  23.931  33.184  1.00  0.00     0.000 A 
ENDBRANCH  40  59
BRANCH  52  65
ATOM     65  C   UNL A   1      50.164  32.894  31.487  1.00  0.00    -0.014 A 
ATOM     66  C   UNL A   1      51.332  33.269  30.807  1.00  0.00     0.009 A 
ATOM     67  C   UNL A   1      49.892  33.465  32.741  1.00  0.00     0.009 A 
ATOM     68  C   UNL A   1      52.228  34.170  31.387  1.00  0.00     0.001 A 
ATOM     69  C   UNL A   1      50.771  34.391  33.302  1.00  0.00     0.001 A 
ATOM     70  C   UNL A   1      51.943  34.735  32.630  1.00  0.00     0.000 A 
ENDBRANCH  52  65
ENDBRANCH  26  27
ENDBRANCH  18  21
ENDBRANCH  16  17
ENDBRANCH  15  16
ENDBRANCH  14  15
ENDBRANCH  12  14
ENDBRANCH   5  10
ENDBRANCH   1   5
BRANCH   2  71
ATOM     71  C   UNL A   1      33.649  26.089  24.313  1.00  0.00     0.168 C 
ATOM     72  C   UNL A   1      32.786  26.396  25.523  1.00  0.00     0.041 C 
BRANCH  71  73
ATOM     73  N   UNL A   1      33.880  27.328  23.587  1.00  0.00    -0.343 N 
ATOM     74  C   UNL A   1      33.018  28.339  23.313  1.00  0.00     0.243 C 
ATOM     75  H   UNL A   1      34.795  27.450  23.245  1.00  0.00     0.164 HD
ATOM     76  O   UNL A   1      33.437  29.242  22.579  1.00  0.00    -0.273 OA
BRANCH  74  77
ATOM     77  C   UNL A   1      31.627  28.484  24.015  1.00  0.00     0.174 C 
BRANCH  77  78
ATOM     78  N   UNL A   1      31.431  29.741  24.788  1.00  0.00    -0.343 N 
ATOM     79  C   UNL A   1      31.919  30.350  25.904  1.00  0.00     0.240 C 
ATOM     80  H   UNL A   1      30.740  30.301  24.366  1.00  0.00     0.164 HD
ATOM     81  O   UNL A   1      31.304  31.364  26.260  1.00  0.00    -0.273 OA
BRANCH  79  82
ATOM     82  C   UNL A   1      33.119  29.875  26.750  1.00  0.00     0.219 C 
BRANCH  82  83
ATOM     83  N   UNL A   1      33.667  30.877  27.648  1.00  0.00    -0.312 N 
ATOM     84  C   UNL A   1      34.882  30.837  28.268  1.00  0.00     0.407 C 
ATOM     85  H   UNL A   1      33.105  31.665  27.828  1.00  0.00     0.167 HD
ATOM     86  O   UNL A   1      35.124  31.566  29.215  1.00  0.00    -0.225 OA
BRANCH  84  87
ATOM     87  O   UNL A   1      35.718  29.908  27.739  1.00  0.00    -0.445 OA
BRANCH  87  88
ATOM     88  C   UNL A   1      37.118  30.240  27.715  1.00  0.00     0.270 C 
BRANCH  88  89
ATOM     89  C   UNL A   1      38.060  29.242  28.344  1.00  0.00    -0.011 A 
ATOM     90  C   UNL A   1      39.218  28.789  27.700  1.00  0.00     0.007 A 
ATOM     91  C   UNL A   1      37.795  28.792  29.647  1.00  0.00     0.007 A 
ATOM     92  C   UNL A   1      40.125  27.968  28.366  1.00  0.00     0.000 A 
ATOM     93  C   UNL A   1      38.694  27.953  30.307  1.00  0.00     0.000 A 
ATOM     94  C   UNL A   1      39.868  27.556  29.671  1.00  0.00     0.000 A 
ENDBRANCH  88  89
ENDBRANCH  87  88
ENDBRANCH  84  87
ENDBRANCH  82  83
ENDBRANCH  79  82
ENDBRANCH  77  78
BRANCH  77  95
ATOM     95  C   UNL A   1      30.460  28.088  23.099  1.00  0.00     0.015 C 
ATOM     96  C   UNL A   1      29.467  27.077  23.678  1.00  0.00     0.010 C 
ATOM     97  C   UNL A   1      29.705  29.325  22.604  1.00  0.00     0.010 C 
ENDBRANCH  77  95
ENDBRANCH  74  77
ENDBRANCH  71  73
ENDBRANCH   2  71
TORSDOF 23
ENDMDL
MODEL 3
REMARK VINA RESULT:      -9.5     11.935     16.629
REMARK SMILES CC(C)C[C@H](NC(=O)[C@H](C)NC(=O)[C@@H](NC(=O)CNC(=O)OCc1ccccc1)C(C)C)C(=O)NCCCNC(=O)c1ccc(-c2c3nc(c(-c4ccccc4)c4ccc([nH]4)c(-c4ccccc4)c4nc(c(-c5ccccc5)c5ccc2[nH]5)C=C4)C=C3)cc1
REMARK SMILES IDX 6 1 7 2 8 3 5 5 4 6 2 7 1 8 3 9 33 10 34 11 35 12 36 14
REMARK SMILES IDX 37 15 38 16 39 17 40 18 41 20 42 21 43 22 89 23 44 24 88 25
REMARK SMILES IDX 45 26 46 27 47 28 82 29 48 30 87 31 81 32 83 33 49 34 86 35
REMARK SMILES IDX 80 36 79 37 50 39 72 40 57 41 71 42 58 43 61 44 70 45 84 46
REMARK SMILES IDX 59 47 60 48 69 50 85 51 62 52 51 53 52 54 56 55 53 56 55 57
REMARK SMILES IDX 54 58 73 59 74 60 78 61 75 62 77 63 76 64 63 65 64 66 68 67
REMARK SMILES IDX 65 68 67 69 66 70 9 71 10 72 11 73 12 74 13 76 14 77 15 78
REMARK SMILES IDX 16 79 17 81 18 82 19 83 20 84 21 86 22 87 23 88 24 89 25 90
REMARK SMILES IDX 29 91 26 92 28 93 27 94 30 95 31 96 32 97
REMARK H PARENT 6 4 35 13 39 19 83 38 61 49 11 75 15 80 19 85
REMARK Flexibility Score: inf
ROOT
ATOM      1  N   UNL A   1      45.501  41.701  26.405  1.00  0.00    -0.343 N 
ATOM      2  C   UNL A   1      44.198  41.314  26.490  1.00  0.00     0.242 C 
ATOM      3  O   UNL A   1      43.372  42.069  25.967  1.00  0.00    -0.273 OA
ATOM      4  H   UNL A   1      45.667  42.667  26.493  1.00  0.00     0.164 HD
ENDROOT
BRANCH   1   5
ATOM      5  C   UNL A   1      46.690  40.869  26.201  1.00  0.00     0.171 C 
BRANCH   5   6
ATOM      6  C   UNL A   1      47.139  40.200  27.522  1.00  0.00     0.038 C 
BRANCH   6   7
ATOM      7  C   UNL A   1      48.363  40.753  28.269  1.00  0.00    -0.015 C 
ATOM      8  C   UNL A   1      49.631  39.945  27.970  1.00  0.00     0.007 C 
ATOM      9  C   UNL A   1      48.625  42.215  27.894  1.00  0.00     0.007 C 
ENDBRANCH   6   7
ENDBRANCH   5   6
BRANCH   5  10
ATOM     10  C   UNL A   1      46.638  40.022  24.921  1.00  0.00     0.242 C 
ATOM     11  O   UNL A   1      46.442  40.562  23.827  1.00  0.00    -0.273 OA
ATOM     12  N   UNL A   1      46.858  38.683  24.902  1.00  0.00    -0.354 N 
ATOM     13  H   UNL A   1      46.552  38.228  24.085  1.00  0.00     0.163 HD
BRANCH  12  14
ATOM     14  C   UNL A   1      47.471  37.817  25.886  1.00  0.00     0.117 C 
BRANCH  14  15
ATOM     15  C   UNL A   1      46.524  36.769  26.422  1.00  0.00     0.042 C 
BRANCH  15  16
ATOM     16  C   UNL A   1      46.906  35.367  25.978  1.00  0.00     0.118 C 
BRANCH  16  17
ATOM     17  N   UNL A   1      46.097  34.870  24.864  1.00  0.00    -0.352 N 
ATOM     18  C   UNL A   1      44.856  34.276  24.868  1.00  0.00     0.251 C 
ATOM     19  H   UNL A   1      46.504  34.976  23.974  1.00  0.00     0.163 HD
ATOM     20  O   UNL A   1      44.401  33.765  23.851  1.00  0.00    -0.269 OA
BRANCH  18  21
ATOM     21  C   UNL A   1      44.101  34.227  26.132  1.00  0.00     0.039 A 
ATOM     22  C   UNL A   1      44.408  33.252  27.080  1.00  0.00     0.014 A 
ATOM     23  C   UNL A   1      43.171  35.225  26.415  1.00  0.00     0.014 A 
ATOM     24  C   UNL A   1      43.874  33.362  28.364  1.00  0.00     0.010 A 
ATOM     25  C   UNL A   1      42.763  35.417  27.725  1.00  0.00     0.010 A 
ATOM     26  C   UNL A   1      43.110  34.487  28.715  1.00  0.00    -0.014 A 
BRANCH  26  27
ATOM     27  C   UNL A   1      42.661  34.729  30.108  1.00  0.00     0.031 A 
ATOM     28  C   UNL A   1      43.637  35.250  31.126  1.00  0.00     0.074 A 
ATOM     29  C   UNL A   1      41.409  34.393  30.477  1.00  0.00     0.049 A 
ATOM     30  N   UNL A   1      43.471  35.434  32.410  1.00  0.00    -0.248 NA
ATOM     31  C   UNL A   1      44.993  35.571  30.646  1.00  0.00     0.031 C 
ATOM     32  C   UNL A   1      40.382  33.826  29.597  1.00  0.00     0.029 A 
ATOM     33  N   UNL A   1      40.786  34.475  31.697  1.00  0.00    -0.354 N 
ATOM     34  C   UNL A   1      44.702  35.866  32.889  1.00  0.00     0.074 A 
ATOM     35  C   UNL A   1      45.623  35.849  31.777  1.00  0.00     0.031 C 
ATOM     36  C   UNL A   1      39.248  33.653  30.296  1.00  0.00     0.029 A 
ATOM     37  C   UNL A   1      39.481  34.043  31.682  1.00  0.00     0.049 A 
ATOM     38  H   UNL A   1      41.231  34.814  32.507  1.00  0.00     0.167 HD
ATOM     39  C   UNL A   1      45.031  36.272  34.137  1.00  0.00     0.031 A 
ATOM     40  C   UNL A   1      38.577  33.959  32.676  1.00  0.00     0.031 A 
ATOM     41  C   UNL A   1      44.109  36.302  35.239  1.00  0.00     0.049 A 
ATOM     42  C   UNL A   1      38.974  34.392  34.059  1.00  0.00     0.074 A 
ATOM     43  C   UNL A   1      44.324  36.753  36.528  1.00  0.00     0.029 A 
ATOM     44  N   UNL A   1      42.797  35.860  35.180  1.00  0.00    -0.354 N 
ATOM     45  N   UNL A   1      40.119  34.875  34.478  1.00  0.00    -0.248 NA
ATOM     46  C   UNL A   1      37.950  34.275  35.107  1.00  0.00     0.031 C 
ATOM     47  C   UNL A   1      43.161  36.523  37.269  1.00  0.00     0.029 A 
ATOM     48  C   UNL A   1      42.200  35.994  36.421  1.00  0.00     0.049 A 
ATOM     49  H   UNL A   1      42.356  35.503  34.375  1.00  0.00     0.167 HD
ATOM     50  C   UNL A   1      39.946  35.142  35.830  1.00  0.00     0.074 A 
ATOM     51  C   UNL A   1      38.579  34.790  36.154  1.00  0.00     0.031 C 
ATOM     52  C   UNL A   1      40.839  35.632  36.725  1.00  0.00     0.031 A 
BRANCH  39  53
ATOM     53  C   UNL A   1      46.452  36.707  34.371  1.00  0.00    -0.014 A 
ATOM     54  C   UNL A   1      47.437  35.792  34.780  1.00  0.00     0.009 A 
ATOM     55  C   UNL A   1      46.815  38.044  34.160  1.00  0.00     0.009 A 
ATOM     56  C   UNL A   1      48.747  36.219  35.012  1.00  0.00     0.001 A 
ATOM     57  C   UNL A   1      48.132  38.460  34.357  1.00  0.00     0.001 A 
ATOM     58  C   UNL A   1      49.094  37.551  34.794  1.00  0.00     0.000 A 
ENDBRANCH  39  53
BRANCH  40  59
ATOM     59  C   UNL A   1      37.205  33.451  32.402  1.00  0.00    -0.014 A 
ATOM     60  C   UNL A   1      36.161  34.341  32.107  1.00  0.00     0.009 A 
ATOM     61  C   UNL A   1      36.927  32.075  32.449  1.00  0.00     0.009 A 
ATOM     62  C   UNL A   1      34.863  33.868  31.897  1.00  0.00     0.001 A 
ATOM     63  C   UNL A   1      35.635  31.603  32.204  1.00  0.00     0.001 A 
ATOM     64  C   UNL A   1      34.603  32.500  31.940  1.00  0.00     0.000 A 
ENDBRANCH  40  59
BRANCH  52  65
ATOM     65  C   UNL A   1      40.356  35.842  38.133  1.00  0.00    -0.014 A 
ATOM     66  C   UNL A   1      40.568  34.877  39.129  1.00  0.00     0.009 A 
ATOM     67  C   UNL A   1      39.720  37.046  38.476  1.00  0.00     0.009 A 
ATOM     68  C   UNL A   1      40.120  35.098  40.433  1.00  0.00     0.001 A 
ATOM     69  C   UNL A   1      39.306  37.280  39.787  1.00  0.00     0.001 A 
ATOM     70  C   UNL A   1      39.496  36.301  40.762  1.00  0.00     0.000 A 
ENDBRANCH  52  65
ENDBRANCH  26  27
ENDBRANCH  18  21
ENDBRANCH  16  17
ENDBRANCH  15  16
ENDBRANCH  14  15
ENDBRANCH  12  14
ENDBRANCH   5  10
ENDBRANCH   1   5
BRANCH   2  71
ATOM     71  C   UNL A   1      43.742  40.134  27.382  1.00  0.00     0.168 C 
ATOM     72  C   UNL A   1      43.730  38.726  26.815  1.00  0.00     0.041 C 
BRANCH  71  73
ATOM     73  N   UNL A   1      42.421  40.426  27.916  1.00  0.00    -0.343 N 
ATOM     74  C   UNL A   1      42.065  40.832  29.161  1.00  0.00     0.243 C 
ATOM     75  H   UNL A   1      41.677  40.312  27.281  1.00  0.00     0.164 HD
ATOM     76  O   UNL A   1      40.853  40.908  29.394  1.00  0.00    -0.273 OA
BRANCH  74  77
ATOM     77  C   UNL A   1      43.098  41.360  30.210  1.00  0.00     0.174 C 
BRANCH  77  78
ATOM     78  N   UNL A   1      43.172  42.841  30.343  1.00  0.00    -0.343 N 
ATOM     79  C   UNL A   1      44.047  43.854  30.093  1.00  0.00     0.240 C 
ATOM     80  H   UNL A   1      42.337  43.195  30.726  1.00  0.00     0.164 HD
ATOM     81  O   UNL A   1      43.711  44.960  30.541  1.00  0.00    -0.273 OA
BRANCH  79  82
ATOM     82  C   UNL A   1      45.393  43.734  29.347  1.00  0.00     0.219 C 
BRANCH  82  83
ATOM     83  N   UNL A   1      46.040  45.000  29.049  1.00  0.00    -0.312 N 
ATOM     84  C   UNL A   1      46.591  45.370  27.857  1.00  0.00     0.407 C 
ATOM     85  H   UNL A   1      46.084  45.657  29.780  1.00  0.00     0.167 HD
ATOM     86  O   UNL A   1      47.357  46.317  27.791  1.00  0.00    -0.225 OA
BRANCH  84  87
ATOM     87  O   UNL A   1      46.220  44.568  26.827  1.00  0.00    -0.445 OA
BRANCH  87  88
ATOM     88  C   UNL A   1      45.407  45.169  25.803  1.00  0.00     0.270 C 
BRANCH  88  89
ATOM     89  C   UNL A   1      45.766  44.837  24.374  1.00  0.00    -0.011 A 
ATOM     90  C   UNL A   1      47.045  45.053  23.849  1.00  0.00     0.007 A 
ATOM     91  C   UNL A   1      44.794  44.238  23.556  1.00  0.00     0.007 A 
ATOM     92  C   UNL A   1      47.369  44.615  22.566  1.00  0.00     0.000 A 
ATOM     93  C   UNL A   1      45.113  43.818  22.265  1.00  0.00     0.000 A 
ATOM     94  C   UNL A   1      46.406  43.990  21.777  1.00  0.00     0.000 A 
ENDBRANCH  88  89
ENDBRANCH  87  88
ENDBRANCH  84  87
ENDBRANCH  82  83
ENDBRANCH  79  82
ENDBRANCH  77  78
BRANCH  77  95
ATOM     95  C   UNL A   1      43.043  40.584  31.534  1.00  0.00     0.015 C 
ATOM     96  C   UNL A   1      44.245  39.685  31.834  1.00  0.00     0.010 C 
ATOM     97  C   UNL A   1      42.800  41.529  32.715  1.00  0.00     0.010 C 
ENDBRANCH  77  95
ENDBRANCH  74  77
ENDBRANCH  71  73
ENDBRANCH   2  71
TORSDOF 23
ENDMDL
