MODEL 1
REMARK VINA RESULT:     -10.6      0.000      0.000
REMARK SMILES Cc1ccc(C[N@H+]2CCC[C@@H](C(=O)NCCCNC(=O)c3ccc(-c4c5nc(c(-c6ccccc6)c6ccc([nH]6)c(-c6ccccc6)c6nc(c(-c7ccccc7)c7ccc4[nH]7)C=C6)C=C5)cc3)C2)o1
REMARK SMILES IDX 16 1 15 2 14 3 12 4 13 5 11 7 7 8 8 9 69 10 9 12 10 13 6 14
REMARK SMILES IDX 5 15 1 16 2 17 3 18 70 19 4 20 17 21 18 22 19 23 20 25 21 26
REMARK SMILES IDX 22 27 68 28 23 29 67 30 24 31 25 32 26 33 61 34 27 35 66 36
REMARK SMILES IDX 60 37 62 38 28 39 65 40 59 41 58 42 29 44 51 45 36 46 50 47
REMARK SMILES IDX 37 48 40 49 49 50 63 51 38 52 39 53 48 55 64 56 41 57 30 58
REMARK SMILES IDX 31 59 35 60 32 61 34 62 33 63 52 64 53 65 57 66 54 67 56 68
REMARK SMILES IDX 55 69 42 70 43 71 47 72 44 73 46 74 45 75
REMARK H PARENT 14 6 7 11 18 24 62 43 40 54
REMARK Flexibility Score: inf
ROOT
ATOM      1  C   UNL A   1      32.100  27.947  27.288  1.00  0.00     0.042 C 
ENDROOT
BRANCH   1   2
ATOM      2  C   UNL A   1      31.914  26.792  26.309  1.00  0.00     0.117 C 
BRANCH   2   3
ATOM      3  N   UNL A   1      31.272  25.660  26.951  1.00  0.00    -0.356 N 
ATOM      4  C   UNL A   1      31.141  24.371  26.536  1.00  0.00     0.228 C 
ATOM      5  O   UNL A   1      30.390  23.637  27.182  1.00  0.00    -0.275 OA
ATOM      6  H   UNL A   1      30.867  25.855  27.827  1.00  0.00     0.163 HD
BRANCH   4   7
ATOM      7  C   UNL A   1      31.942  23.863  25.351  1.00  0.00     0.133 C 
ATOM      8  N   UNL A   1      33.428  21.983  24.697  1.00  0.00    -0.328 N 
ATOM      9  C   UNL A   1      32.575  21.670  23.544  1.00  0.00     0.262 C 
ATOM     10  C   UNL A   1      32.649  22.578  25.796  1.00  0.00     0.276 C 
ATOM     11  H   UNL A   1      34.104  22.680  24.384  1.00  0.00     0.348 HD
ATOM     12  C   UNL A   1      31.840  22.917  23.040  1.00  0.00     0.062 C 
ATOM     13  C   UNL A   1      31.034  23.581  24.154  1.00  0.00     0.025 C 
BRANCH   8  14
ATOM     14  C   UNL A   1      34.216  20.814  25.153  1.00  0.00     0.338 C 
BRANCH  14  15
ATOM     15  C   UNL A   1      35.701  20.989  25.156  1.00  0.00     0.158 A 
ATOM     16  C   UNL A   1      38.235  23.325  26.065  1.00  0.00     0.087 C 
ATOM     17  C   UNL A   1      37.531  22.127  25.567  1.00  0.00     0.101 A 
ATOM     18  C   UNL A   1      37.938  20.878  25.155  1.00  0.00     0.046 A 
ATOM     19  O   UNL A   1      36.176  22.216  25.516  1.00  0.00    -0.460 OA
ATOM     20  C   UNL A   1      36.756  20.145  24.883  1.00  0.00     0.052 A 
ENDBRANCH  14  15
ENDBRANCH   8  14
ENDBRANCH   4   7
ENDBRANCH   2   3
ENDBRANCH   1   2
BRANCH   1  21
ATOM     21  C   UNL A   1      33.498  28.562  27.255  1.00  0.00     0.118 C 
BRANCH  21  22
ATOM     22  N   UNL A   1      33.489  29.990  27.541  1.00  0.00    -0.352 N 
ATOM     23  C   UNL A   1      34.433  30.779  28.145  1.00  0.00     0.251 C 
ATOM     24  H   UNL A   1      32.675  30.465  27.254  1.00  0.00     0.163 HD
ATOM     25  O   UNL A   1      34.149  31.934  28.462  1.00  0.00    -0.269 OA
BRANCH  23  26
ATOM     26  C   UNL A   1      35.781  30.252  28.435  1.00  0.00     0.039 A 
ATOM     27  C   UNL A   1      36.752  30.298  27.430  1.00  0.00     0.014 A 
ATOM     28  C   UNL A   1      36.086  29.685  29.676  1.00  0.00     0.014 A 
ATOM     29  C   UNL A   1      38.043  29.834  27.690  1.00  0.00     0.010 A 
ATOM     30  C   UNL A   1      37.391  29.293  29.957  1.00  0.00     0.010 A 
ATOM     31  C   UNL A   1      38.382  29.361  28.967  1.00  0.00    -0.014 A 
BRANCH  31  32
ATOM     32  C   UNL A   1      39.768  28.937  29.286  1.00  0.00     0.031 A 
ATOM     33  C   UNL A   1      40.273  27.593  28.841  1.00  0.00     0.074 A 
ATOM     34  C   UNL A   1      40.552  29.737  30.035  1.00  0.00     0.049 A 
ATOM     35  N   UNL A   1      41.426  27.022  29.083  1.00  0.00    -0.248 NA
ATOM     36  C   UNL A   1      39.352  26.771  28.039  1.00  0.00     0.031 C 
ATOM     37  C   UNL A   1      40.170  31.050  30.560  1.00  0.00     0.029 A 
ATOM     38  N   UNL A   1      41.834  29.557  30.491  1.00  0.00    -0.354 N 
ATOM     39  C   UNL A   1      41.363  25.772  28.482  1.00  0.00     0.074 A 
ATOM     40  C   UNL A   1      40.043  25.648  27.902  1.00  0.00     0.031 C 
ATOM     41  C   UNL A   1      41.204  31.567  31.244  1.00  0.00     0.029 A 
ATOM     42  C   UNL A   1      42.303  30.608  31.240  1.00  0.00     0.049 A 
ATOM     43  H   UNL A   1      42.366  28.751  30.300  1.00  0.00     0.167 HD
ATOM     44  C   UNL A   1      42.321  24.819  28.403  1.00  0.00     0.031 A 
ATOM     45  C   UNL A   1      43.486  30.779  31.862  1.00  0.00     0.031 A 
ATOM     46  C   UNL A   1      43.639  24.945  28.967  1.00  0.00     0.049 A 
ATOM     47  C   UNL A   1      44.528  29.701  31.769  1.00  0.00     0.074 A 
ATOM     48  C   UNL A   1      44.697  24.056  28.894  1.00  0.00     0.029 A 
ATOM     49  N   UNL A   1      44.077  26.029  29.712  1.00  0.00    -0.354 N 
ATOM     50  N   UNL A   1      44.473  28.550  31.144  1.00  0.00    -0.248 NA
ATOM     51  C   UNL A   1      45.801  29.953  32.461  1.00  0.00     0.031 C 
ATOM     52  C   UNL A   1      45.762  24.583  29.633  1.00  0.00     0.029 A 
ATOM     53  C   UNL A   1      45.383  25.822  30.122  1.00  0.00     0.049 A 
ATOM     54  H   UNL A   1      43.539  26.827  29.920  1.00  0.00     0.167 HD
ATOM     55  C   UNL A   1      45.711  27.953  31.344  1.00  0.00     0.074 A 
ATOM     56  C   UNL A   1      46.500  28.875  32.135  1.00  0.00     0.031 C 
ATOM     57  C   UNL A   1      46.154  26.748  30.909  1.00  0.00     0.031 A 
BRANCH  44  58
ATOM     58  C   UNL A   1      41.974  23.548  27.679  1.00  0.00    -0.014 A 
ATOM     59  C   UNL A   1      42.280  23.380  26.319  1.00  0.00     0.009 A 
ATOM     60  C   UNL A   1      41.362  22.493  28.373  1.00  0.00     0.009 A 
ATOM     61  C   UNL A   1      41.945  22.195  25.660  1.00  0.00     0.001 A 
ATOM     62  C   UNL A   1      41.054  21.299  27.719  1.00  0.00     0.001 A 
ATOM     63  C   UNL A   1      41.337  21.154  26.361  1.00  0.00     0.000 A 
ENDBRANCH  44  58
BRANCH  45  64
ATOM     64  C   UNL A   1      43.756  32.030  32.614  1.00  0.00    -0.014 A 
ATOM     65  C   UNL A   1      43.460  32.114  33.983  1.00  0.00     0.009 A 
ATOM     66  C   UNL A   1      44.304  33.150  31.968  1.00  0.00     0.009 A 
ATOM     67  C   UNL A   1      43.683  33.301  34.684  1.00  0.00     0.001 A 
ATOM     68  C   UNL A   1      44.553  34.326  32.678  1.00  0.00     0.001 A 
ATOM     69  C   UNL A   1      44.233  34.404  34.034  1.00  0.00     0.000 A 
ENDBRANCH  45  64
BRANCH  57  70
ATOM     70  C   UNL A   1      47.569  26.375  31.249  1.00  0.00    -0.014 A 
ATOM     71  C   UNL A   1      47.882  25.720  32.450  1.00  0.00     0.009 A 
ATOM     72  C   UNL A   1      48.598  26.653  30.336  1.00  0.00     0.009 A 
ATOM     73  C   UNL A   1      49.203  25.379  32.743  1.00  0.00     0.001 A 
ATOM     74  C   UNL A   1      49.914  26.286  30.620  1.00  0.00     0.001 A 
ATOM     75  C   UNL A   1      50.217  25.657  31.827  1.00  0.00     0.000 A 
ENDBRANCH  57  70
ENDBRANCH  31  32
ENDBRANCH  23  26
ENDBRANCH  21  22
ENDBRANCH   1  21
TORSDOF 12
ENDMDL
MODEL 2
REMARK VINA RESULT:     -10.5      0.715      6.212
REMARK SMILES Cc1ccc(C[N@H+]2CCC[C@@H](C(=O)NCCCNC(=O)c3ccc(-c4c5nc(c(-c6ccccc6)c6ccc([nH]6)c(-c6ccccc6)c6nc(c(-c7ccccc7)c7ccc4[nH]7)C=C6)C=C5)cc3)C2)o1
REMARK SMILES IDX 16 1 15 2 14 3 12 4 13 5 11 7 7 8 8 9 69 10 9 12 10 13 6 14
REMARK SMILES IDX 5 15 1 16 2 17 3 18 70 19 4 20 17 21 18 22 19 23 20 25 21 26
REMARK SMILES IDX 22 27 68 28 23 29 67 30 24 31 25 32 26 33 61 34 27 35 66 36
REMARK SMILES IDX 60 37 62 38 28 39 65 40 59 41 58 42 29 44 51 45 36 46 50 47
REMARK SMILES IDX 37 48 40 49 49 50 63 51 38 52 39 53 48 55 64 56 41 57 30 58
REMARK SMILES IDX 31 59 35 60 32 61 34 62 33 63 52 64 53 65 57 66 54 67 56 68
REMARK SMILES IDX 55 69 42 70 43 71 47 72 44 73 46 74 45 75
REMARK H PARENT 14 6 7 11 18 24 62 43 40 54
REMARK Flexibility Score: inf
ROOT
ATOM      1  C   UNL A   1      32.134  27.904  27.282  1.00  0.00     0.042 C 
ENDROOT
BRANCH   1   2
ATOM      2  C   UNL A   1      31.970  26.742  26.308  1.00  0.00     0.117 C 
BRANCH   2   3
ATOM      3  N   UNL A   1      31.331  25.608  26.950  1.00  0.00    -0.356 N 
ATOM      4  C   UNL A   1      31.194  24.321  26.530  1.00  0.00     0.228 C 
ATOM      5  O   UNL A   1      30.447  23.586  27.179  1.00  0.00    -0.275 OA
ATOM      6  H   UNL A   1      30.933  25.800  27.830  1.00  0.00     0.163 HD
BRANCH   4   7
ATOM      7  C   UNL A   1      31.984  23.818  25.336  1.00  0.00     0.133 C 
ATOM      8  N   UNL A   1      33.503  21.966  24.678  1.00  0.00    -0.328 N 
ATOM      9  C   UNL A   1      32.636  21.617  23.545  1.00  0.00     0.262 C 
ATOM     10  C   UNL A   1      32.731  22.556  25.784  1.00  0.00     0.276 C 
ATOM     11  H   UNL A   1      34.155  22.675  24.342  1.00  0.00     0.348 HD
ATOM     12  C   UNL A   1      31.861  22.839  23.040  1.00  0.00     0.062 C 
ATOM     13  C   UNL A   1      31.060  23.498  24.160  1.00  0.00     0.025 C 
BRANCH   8  14
ATOM     14  C   UNL A   1      34.328  20.822  25.134  1.00  0.00     0.338 C 
BRANCH  14  15
ATOM     15  C   UNL A   1      35.804  21.054  25.161  1.00  0.00     0.158 A 
ATOM     16  C   UNL A   1      38.234  23.479  26.121  1.00  0.00     0.087 C 
ATOM     17  C   UNL A   1      37.584  22.258  25.606  1.00  0.00     0.101 A 
ATOM     18  C   UNL A   1      38.044  21.027  25.196  1.00  0.00     0.046 A 
ATOM     19  O   UNL A   1      36.228  22.296  25.533  1.00  0.00    -0.460 OA
ATOM     20  C   UNL A   1      36.896  20.251  24.902  1.00  0.00     0.052 A 
ENDBRANCH  14  15
ENDBRANCH   8  14
ENDBRANCH   4   7
ENDBRANCH   2   3
ENDBRANCH   1   2
BRANCH   1  21
ATOM     21  C   UNL A   1      33.526  28.534  27.258  1.00  0.00     0.118 C 
BRANCH  21  22
ATOM     22  N   UNL A   1      33.483  29.990  27.311  1.00  0.00    -0.352 N 
ATOM     23  C   UNL A   1      34.362  30.881  27.868  1.00  0.00     0.251 C 
ATOM     24  H   UNL A   1      32.698  30.398  26.879  1.00  0.00     0.163 HD
ATOM     25  O   UNL A   1      34.045  32.067  27.970  1.00  0.00    -0.269 OA
BRANCH  23  26
ATOM     26  C   UNL A   1      35.680  30.433  28.362  1.00  0.00     0.039 A 
ATOM     27  C   UNL A   1      35.758  29.839  29.625  1.00  0.00     0.014 A 
ATOM     28  C   UNL A   1      36.839  30.622  27.604  1.00  0.00     0.014 A 
ATOM     29  C   UNL A   1      36.988  29.378  30.100  1.00  0.00     0.010 A 
ATOM     30  C   UNL A   1      38.049  30.096  28.047  1.00  0.00     0.010 A 
ATOM     31  C   UNL A   1      38.137  29.471  29.300  1.00  0.00    -0.014 A 
BRANCH  31  32
ATOM     32  C   UNL A   1      39.436  28.917  29.753  1.00  0.00     0.031 A 
ATOM     33  C   UNL A   1      40.279  29.672  30.744  1.00  0.00     0.074 A 
ATOM     34  C   UNL A   1      39.890  27.765  29.223  1.00  0.00     0.049 A 
ATOM     35  N   UNL A   1      41.470  29.382  31.205  1.00  0.00    -0.248 NA
ATOM     36  C   UNL A   1      39.722  30.930  31.267  1.00  0.00     0.031 C 
ATOM     37  C   UNL A   1      39.186  26.954  28.227  1.00  0.00     0.029 A 
ATOM     38  N   UNL A   1      41.058  27.079  29.444  1.00  0.00    -0.354 N 
ATOM     39  C   UNL A   1      41.811  30.426  32.055  1.00  0.00     0.074 A 
ATOM     40  C   UNL A   1      40.722  31.379  32.011  1.00  0.00     0.031 C 
ATOM     41  C   UNL A   1      39.924  25.869  27.943  1.00  0.00     0.029 A 
ATOM     42  C   UNL A   1      41.168  25.928  28.704  1.00  0.00     0.049 A 
ATOM     43  H   UNL A   1      41.751  27.383  30.073  1.00  0.00     0.167 HD
ATOM     44  C   UNL A   1      42.920  30.573  32.816  1.00  0.00     0.031 A 
ATOM     45  C   UNL A   1      42.163  25.022  28.638  1.00  0.00     0.031 A 
ATOM     46  C   UNL A   1      43.998  29.621  32.872  1.00  0.00     0.049 A 
ATOM     47  C   UNL A   1      43.389  25.214  29.484  1.00  0.00     0.074 A 
ATOM     48  C   UNL A   1      45.140  29.655  33.653  1.00  0.00     0.029 A 
ATOM     49  N   UNL A   1      44.067  28.464  32.112  1.00  0.00    -0.354 N 
ATOM     50  N   UNL A   1      43.668  26.178  30.329  1.00  0.00    -0.248 NA
ATOM     51  C   UNL A   1      44.434  24.186  29.375  1.00  0.00     0.031 C 
ATOM     52  C   UNL A   1      45.921  28.540  33.333  1.00  0.00     0.029 A 
ATOM     53  C   UNL A   1      45.242  27.787  32.391  1.00  0.00     0.049 A 
ATOM     54  H   UNL A   1      43.383  28.169  31.468  1.00  0.00     0.167 HD
ATOM     55  C   UNL A   1      44.906  25.858  30.870  1.00  0.00     0.074 A 
ATOM     56  C   UNL A   1      45.316  24.605  30.271  1.00  0.00     0.031 C 
ATOM     57  C   UNL A   1      45.636  26.542  31.786  1.00  0.00     0.031 A 
BRANCH  44  58
ATOM     58  C   UNL A   1      43.025  31.818  33.653  1.00  0.00    -0.014 A 
ATOM     59  C   UNL A   1      42.522  31.857  34.963  1.00  0.00     0.009 A 
ATOM     60  C   UNL A   1      43.662  32.956  33.136  1.00  0.00     0.009 A 
ATOM     61  C   UNL A   1      42.622  33.024  35.725  1.00  0.00     0.001 A 
ATOM     62  C   UNL A   1      43.786  34.112  33.909  1.00  0.00     0.001 A 
ATOM     63  C   UNL A   1      43.257  34.148  35.199  1.00  0.00     0.000 A 
ENDBRANCH  44  58
BRANCH  45  64
ATOM     64  C   UNL A   1      42.034  23.840  27.750  1.00  0.00    -0.014 A 
ATOM     65  C   UNL A   1      42.552  23.871  26.446  1.00  0.00     0.009 A 
ATOM     66  C   UNL A   1      41.387  22.676  28.196  1.00  0.00     0.009 A 
ATOM     67  C   UNL A   1      42.403  22.771  25.599  1.00  0.00     0.001 A 
ATOM     68  C   UNL A   1      41.265  21.568  27.356  1.00  0.00     0.001 A 
ATOM     69  C   UNL A   1      41.764  21.619  26.055  1.00  0.00     0.000 A 
ENDBRANCH  45  64
BRANCH  57  70
ATOM     70  C   UNL A   1      46.937  25.929  32.219  1.00  0.00    -0.014 A 
ATOM     71  C   UNL A   1      48.126  26.166  31.512  1.00  0.00     0.009 A 
ATOM     72  C   UNL A   1      46.978  25.132  33.374  1.00  0.00     0.009 A 
ATOM     73  C   UNL A   1      49.325  25.589  31.936  1.00  0.00     0.001 A 
ATOM     74  C   UNL A   1      48.183  24.581  33.811  1.00  0.00     0.001 A 
ATOM     75  C   UNL A   1      49.353  24.802  33.087  1.00  0.00     0.000 A 
ENDBRANCH  57  70
ENDBRANCH  31  32
ENDBRANCH  23  26
ENDBRANCH  21  22
ENDBRANCH   1  21
TORSDOF 12
ENDMDL
MODEL 3
REMARK VINA RESULT:     -10.5      3.907      6.393
REMARK SMILES Cc1ccc(C[N@H+]2CCC[C@@H](C(=O)NCCCNC(=O)c3ccc(-c4c5nc(c(-c6ccccc6)c6ccc([nH]6)c(-c6ccccc6)c6nc(c(-c7ccccc7)c7ccc4[nH]7)C=C6)C=C5)cc3)C2)o1
REMARK SMILES IDX 16 1 15 2 14 3 12 4 13 5 11 7 7 8 8 9 69 10 9 12 10 13 6 14
REMARK SMILES IDX 5 15 1 16 2 17 3 18 70 19 4 20 17 21 18 22 19 23 20 25 21 26
REMARK SMILES IDX 22 27 68 28 23 29 67 30 24 31 25 32 26 33 61 34 27 35 66 36
REMARK SMILES IDX 60 37 62 38 28 39 65 40 59 41 58 42 29 44 51 45 36 46 50 47
REMARK SMILES IDX 37 48 40 49 49 50 63 51 38 52 39 53 48 55 64 56 41 57 30 58
REMARK SMILES IDX 31 59 35 60 32 61 34 62 33 63 52 64 53 65 57 66 54 67 56 68
REMARK SMILES IDX 55 69 42 70 43 71 47 72 44 73 46 74 45 75
REMARK H PARENT 14 6 7 11 18 24 62 43 40 54
REMARK Flexibility Score: inf
ROOT
ATOM      1  C   UNL A   1      31.404  32.137  26.730  1.00  0.00     0.042 C 
ENDROOT
BRANCH   1   2
ATOM      2  C   UNL A   1      31.590  30.662  26.389  1.00  0.00     0.117 C 
BRANCH   2   3
ATOM      3  N   UNL A   1      32.986  30.276  26.486  1.00  0.00    -0.356 N 
ATOM      4  C   UNL A   1      33.575  29.058  26.337  1.00  0.00     0.228 C 
ATOM      5  O   UNL A   1      34.763  28.957  26.650  1.00  0.00    -0.275 OA
ATOM      6  H   UNL A   1      33.606  31.012  26.692  1.00  0.00     0.163 HD
BRANCH   4   7
ATOM      7  C   UNL A   1      32.791  27.897  25.753  1.00  0.00     0.133 C 
ATOM      8  N   UNL A   1      31.596  27.232  23.680  1.00  0.00    -0.328 N 
ATOM      9  C   UNL A   1      32.411  26.016  23.564  1.00  0.00     0.262 C 
ATOM     10  C   UNL A   1      32.337  28.313  24.349  1.00  0.00     0.276 C 
ATOM     11  H   UNL A   1      30.795  26.996  24.265  1.00  0.00     0.348 HD
ATOM     12  C   UNL A   1      32.894  25.537  24.937  1.00  0.00     0.062 C 
ATOM     13  C   UNL A   1      33.652  26.635  25.679  1.00  0.00     0.025 C 
BRANCH   8  14
ATOM     14  C   UNL A   1      31.045  27.670  22.376  1.00  0.00     0.338 C 
BRANCH  14  15
ATOM     15  C   UNL A   1      29.781  28.467  22.438  1.00  0.00     0.158 A 
ATOM     16  C   UNL A   1      28.133  31.215  20.876  1.00  0.00     0.087 C 
ATOM     17  C   UNL A   1      28.454  30.078  21.760  1.00  0.00     0.101 A 
ATOM     18  C   UNL A   1      27.741  29.357  22.692  1.00  0.00     0.046 A 
ATOM     19  O   UNL A   1      29.711  29.575  21.645  1.00  0.00    -0.460 OA
ATOM     20  C   UNL A   1      28.600  28.320  23.134  1.00  0.00     0.052 A 
ENDBRANCH  14  15
ENDBRANCH   8  14
ENDBRANCH   4   7
ENDBRANCH   2   3
ENDBRANCH   1   2
BRANCH   1  21
ATOM     21  C   UNL A   1      32.677  32.819  27.228  1.00  0.00     0.118 C 
BRANCH  21  22
ATOM     22  N   UNL A   1      32.454  34.202  27.626  1.00  0.00    -0.352 N 
ATOM     23  C   UNL A   1      33.036  34.943  28.622  1.00  0.00     0.251 C 
ATOM     24  H   UNL A   1      31.777  34.682  27.095  1.00  0.00     0.163 HD
ATOM     25  O   UNL A   1      32.568  36.043  28.915  1.00  0.00    -0.269 OA
BRANCH  23  26
ATOM     26  C   UNL A   1      34.208  34.427  29.357  1.00  0.00     0.039 A 
ATOM     27  C   UNL A   1      34.009  33.820  30.600  1.00  0.00     0.014 A 
ATOM     28  C   UNL A   1      35.501  34.566  28.845  1.00  0.00     0.014 A 
ATOM     29  C   UNL A   1      35.099  33.297  31.300  1.00  0.00     0.010 A 
ATOM     30  C   UNL A   1      36.576  33.980  29.508  1.00  0.00     0.010 A 
ATOM     31  C   UNL A   1      36.386  33.341  30.742  1.00  0.00    -0.014 A 
BRANCH  31  32
ATOM     32  C   UNL A   1      37.544  32.722  31.433  1.00  0.00     0.031 A 
ATOM     33  C   UNL A   1      38.232  31.525  30.837  1.00  0.00     0.074 A 
ATOM     34  C   UNL A   1      37.936  33.198  32.631  1.00  0.00     0.049 A 
ATOM     35  N   UNL A   1      39.214  30.809  31.326  1.00  0.00    -0.248 NA
ATOM     36  C   UNL A   1      37.737  31.055  29.533  1.00  0.00     0.031 C 
ATOM     37  C   UNL A   1      37.330  34.330  33.334  1.00  0.00     0.029 A 
ATOM     38  N   UNL A   1      38.936  32.781  33.473  1.00  0.00    -0.354 N 
ATOM     39  C   UNL A   1      39.440  29.798  30.401  1.00  0.00     0.074 A 
ATOM     40  C   UNL A   1      38.465  29.964  29.345  1.00  0.00     0.031 C 
ATOM     41  C   UNL A   1      37.987  34.534  34.487  1.00  0.00     0.029 A 
ATOM     42  C   UNL A   1      39.031  33.523  34.624  1.00  0.00     0.049 A 
ATOM     43  H   UNL A   1      39.530  32.021  33.271  1.00  0.00     0.167 HD
ATOM     44  C   UNL A   1      40.384  28.828  30.419  1.00  0.00     0.031 A 
ATOM     45  C   UNL A   1      39.862  33.402  35.677  1.00  0.00     0.031 A 
ATOM     46  C   UNL A   1      41.363  28.668  31.462  1.00  0.00     0.049 A 
ATOM     47  C   UNL A   1      40.893  32.310  35.678  1.00  0.00     0.074 A 
ATOM     48  C   UNL A   1      42.395  27.748  31.543  1.00  0.00     0.029 A 
ATOM     49  N   UNL A   1      41.429  29.446  32.606  1.00  0.00    -0.354 N 
ATOM     50  N   UNL A   1      41.132  31.398  34.766  1.00  0.00    -0.248 NA
ATOM     51  C   UNL A   1      41.776  32.236  36.851  1.00  0.00     0.031 C 
ATOM     52  C   UNL A   1      43.058  27.942  32.759  1.00  0.00     0.029 A 
ATOM     53  C   UNL A   1      42.472  29.014  33.410  1.00  0.00     0.049 A 
ATOM     54  H   UNL A   1      40.825  30.193  32.818  1.00  0.00     0.167 HD
ATOM     55  C   UNL A   1      42.209  30.662  35.243  1.00  0.00     0.074 A 
ATOM     56  C   UNL A   1      42.585  31.242  36.516  1.00  0.00     0.031 C 
ATOM     57  C   UNL A   1      42.832  29.601  34.674  1.00  0.00     0.031 A 
BRANCH  44  58
ATOM     58  C   UNL A   1      40.400  27.857  29.272  1.00  0.00    -0.014 A 
ATOM     59  C   UNL A   1      39.624  26.687  29.299  1.00  0.00     0.009 A 
ATOM     60  C   UNL A   1      41.177  28.129  28.135  1.00  0.00     0.009 A 
ATOM     61  C   UNL A   1      39.654  25.792  28.227  1.00  0.00     0.001 A 
ATOM     62  C   UNL A   1      41.184  27.247  27.053  1.00  0.00     0.001 A 
ATOM     63  C   UNL A   1      40.430  26.074  27.104  1.00  0.00     0.000 A 
ENDBRANCH  44  58
BRANCH  45  64
ATOM     64  C   UNL A   1      39.765  34.352  36.814  1.00  0.00    -0.014 A 
ATOM     65  C   UNL A   1      40.457  35.573  36.780  1.00  0.00     0.009 A 
ATOM     66  C   UNL A   1      38.988  34.043  37.941  1.00  0.00     0.009 A 
ATOM     67  C   UNL A   1      40.393  36.453  37.862  1.00  0.00     0.001 A 
ATOM     68  C   UNL A   1      38.903  34.938  39.010  1.00  0.00     0.001 A 
ATOM     69  C   UNL A   1      39.614  36.138  38.973  1.00  0.00     0.000 A 
ENDBRANCH  45  64
BRANCH  57  70
ATOM     70  C   UNL A   1      44.007  29.022  35.409  1.00  0.00    -0.014 A 
ATOM     71  C   UNL A   1      45.304  29.525  35.224  1.00  0.00     0.009 A 
ATOM     72  C   UNL A   1      43.805  27.981  36.329  1.00  0.00     0.009 A 
ATOM     73  C   UNL A   1      46.380  28.975  35.922  1.00  0.00     0.001 A 
ATOM     74  C   UNL A   1      44.879  27.452  37.046  1.00  0.00     0.001 A 
ATOM     75  C   UNL A   1      46.166  27.943  36.835  1.00  0.00     0.000 A 
ENDBRANCH  57  70
ENDBRANCH  31  32
ENDBRANCH  23  26
ENDBRANCH  21  22
ENDBRANCH   1  21
TORSDOF 12
ENDMDL
