MODEL 1
REMARK VINA RESULT:     -11.2      0.000      0.000
REMARK SMILES CSCC[C@@H](NC1=[NH+]S(=O)(=O)c2ccccc21)C(=O)NCCCNC(=O)c1ccc(-c2c3nc(c(-c4ccccc4)c4ccc([nH]4)c(-c4ccccc4)c4nc(c(-c5ccccc5)c5ccc2[nH]5)C=C4)C=C3)cc1
REMARK SMILES IDX 21 1 20 2 18 3 19 4 5 6 4 7 3 8 2 9 1 10 6 11 7 12 8 14
REMARK SMILES IDX 17 15 9 16 12 18 16 19 10 20 11 21 13 22 15 23 14 24 22 25
REMARK SMILES IDX 23 26 24 27 25 28 26 30 27 31 28 32 74 33 29 34 73 35 30 36
REMARK SMILES IDX 31 37 32 38 67 39 33 40 72 41 66 42 68 43 34 44 71 45 65 46
REMARK SMILES IDX 64 47 35 49 57 50 42 51 56 52 43 53 46 54 55 55 69 56 44 57
REMARK SMILES IDX 45 58 54 60 70 61 47 62 36 63 37 64 41 65 38 66 40 67 39 68
REMARK SMILES IDX 58 69 59 70 63 71 60 72 62 73 61 74 48 75 49 76 53 77 50 78
REMARK SMILES IDX 52 79 51 80
REMARK H PARENT 20 5 6 13 8 17 24 29 68 48 46 59
REMARK Flexibility Score: inf
ROOT
ATOM      1  C   UNL A   1      36.293  20.841  24.852  1.00  0.00     0.118 C 
ENDROOT
BRANCH   1   2
ATOM      2  N   UNL A   1      35.582  21.014  26.106  1.00  0.00    -0.352 N 
ATOM      3  C   UNL A   1      34.337  21.521  26.358  1.00  0.00     0.264 C 
ATOM      4  O   UNL A   1      33.956  21.526  27.533  1.00  0.00    -0.270 OA
ATOM      5  H   UNL A   1      36.077  20.717  26.904  1.00  0.00     0.163 HD
BRANCH   3   6
ATOM      6  C   UNL A   1      33.481  22.178  25.246  1.00  0.00     0.262 C 
BRANCH   6   7
ATOM      7  C   UNL A   1      32.276  21.251  25.002  1.00  0.00     0.071 C 
BRANCH   7   8
ATOM      8  C   UNL A   1      32.518  20.036  24.109  1.00  0.00     0.074 C 
BRANCH   8   9
ATOM      9  S   UNL A   1      32.671  18.456  24.996  1.00  0.00    -0.165 SA
ATOM     10  C   UNL A   1      34.199  17.813  24.276  1.00  0.00     0.085 C 
ENDBRANCH   8   9
ENDBRANCH   7   8
ENDBRANCH   6   7
BRANCH   6  11
ATOM     11  N   UNL A   1      33.052  23.553  25.561  1.00  0.00    -0.261 N 
ATOM     12  C   UNL A   1      32.870  24.537  24.620  1.00  0.00     0.292 C 
ATOM     13  H   UNL A   1      32.885  23.780  26.505  1.00  0.00     0.306 HD
ATOM     14  N   UNL A   1      32.633  24.316  23.362  1.00  0.00    -0.162 N 
ATOM     15  C   UNL A   1      33.093  25.958  24.983  1.00  0.00     0.087 A 
ATOM     16  S   UNL A   1      32.716  25.702  22.488  1.00  0.00     0.329 S 
ATOM     17  H   UNL A   1      32.428  23.431  22.982  1.00  0.00     0.327 HD
ATOM     18  C   UNL A   1      33.094  26.731  23.838  1.00  0.00     0.124 A 
ATOM     19  C   UNL A   1      33.450  26.509  26.202  1.00  0.00     0.018 A 
ATOM     20  O   UNL A   1      31.418  26.087  22.004  1.00  0.00    -0.179 OA
ATOM     21  O   UNL A   1      33.905  25.679  21.650  1.00  0.00    -0.179 OA
ATOM     22  C   UNL A   1      33.477  28.058  23.822  1.00  0.00     0.025 A 
ATOM     23  C   UNL A   1      33.821  27.859  26.227  1.00  0.00     0.001 A 
ATOM     24  C   UNL A   1      33.843  28.624  25.044  1.00  0.00     0.002 A 
ENDBRANCH   6  11
ENDBRANCH   3   6
ENDBRANCH   1   2
BRANCH   1  25
ATOM     25  C   UNL A   1      37.426  19.838  24.952  1.00  0.00     0.042 C 
BRANCH  25  26
ATOM     26  C   UNL A   1      38.725  20.440  25.462  1.00  0.00     0.118 C 
BRANCH  26  27
ATOM     27  N   UNL A   1      39.776  19.447  25.643  1.00  0.00    -0.352 N 
ATOM     28  C   UNL A   1      41.077  19.612  26.053  1.00  0.00     0.251 C 
ATOM     29  H   UNL A   1      39.514  18.519  25.440  1.00  0.00     0.163 HD
ATOM     30  O   UNL A   1      41.878  18.686  25.961  1.00  0.00    -0.269 OA
BRANCH  28  31
ATOM     31  C   UNL A   1      41.522  20.920  26.581  1.00  0.00     0.039 A 
ATOM     32  C   UNL A   1      42.076  21.855  25.703  1.00  0.00     0.014 A 
ATOM     33  C   UNL A   1      41.392  21.223  27.938  1.00  0.00     0.014 A 
ATOM     34  C   UNL A   1      42.422  23.124  26.173  1.00  0.00     0.010 A 
ATOM     35  C   UNL A   1      41.654  22.512  28.387  1.00  0.00     0.010 A 
ATOM     36  C   UNL A   1      42.176  23.474  27.510  1.00  0.00    -0.014 A 
BRANCH  36  37
ATOM     37  C   UNL A   1      42.476  24.830  28.030  1.00  0.00     0.031 A 
ATOM     38  C   UNL A   1      43.873  25.165  28.475  1.00  0.00     0.074 A 
ATOM     39  C   UNL A   1      41.483  25.728  28.182  1.00  0.00     0.049 A 
ATOM     40  N   UNL A   1      44.310  26.237  29.086  1.00  0.00    -0.248 NA
ATOM     41  C   UNL A   1      44.908  24.148  28.228  1.00  0.00     0.031 C 
ATOM     42  C   UNL A   1      40.078  25.517  27.826  1.00  0.00     0.029 A 
ATOM     43  N   UNL A   1      41.509  27.002  28.691  1.00  0.00    -0.354 N 
ATOM     44  C   UNL A   1      45.658  26.005  29.328  1.00  0.00     0.074 A 
ATOM     45  C   UNL A   1      45.960  24.683  28.829  1.00  0.00     0.031 C 
ATOM     46  C   UNL A   1      39.382  26.632  28.104  1.00  0.00     0.029 A 
ATOM     47  C   UNL A   1      40.280  27.618  28.694  1.00  0.00     0.049 A 
ATOM     48  H   UNL A   1      42.328  27.434  29.023  1.00  0.00     0.167 HD
ATOM     49  C   UNL A   1      46.570  26.828  29.900  1.00  0.00     0.031 A 
ATOM     50  C   UNL A   1      39.920  28.841  29.127  1.00  0.00     0.031 A 
ATOM     51  C   UNL A   1      46.284  28.157  30.362  1.00  0.00     0.049 A 
ATOM     52  C   UNL A   1      40.959  29.747  29.724  1.00  0.00     0.074 A 
ATOM     53  C   UNL A   1      47.149  29.081  30.921  1.00  0.00     0.029 A 
ATOM     54  N   UNL A   1      45.038  28.758  30.298  1.00  0.00    -0.354 N 
ATOM     55  N   UNL A   1      42.233  29.520  29.925  1.00  0.00    -0.248 NA
ATOM     56  C   UNL A   1      40.507  31.081  30.146  1.00  0.00     0.031 C 
ATOM     57  C   UNL A   1      46.420  30.241  31.210  1.00  0.00     0.029 A 
ATOM     58  C   UNL A   1      45.111  30.045  30.802  1.00  0.00     0.049 A 
ATOM     59  H   UNL A   1      44.222  28.334  29.947  1.00  0.00     0.167 HD
ATOM     60  C   UNL A   1      42.741  30.690  30.473  1.00  0.00     0.074 A 
ATOM     61  C   UNL A   1      41.641  31.627  30.562  1.00  0.00     0.031 C 
ATOM     62  C   UNL A   1      44.008  30.963  30.867  1.00  0.00     0.031 A 
BRANCH  49  63
ATOM     63  C   UNL A   1      47.967  26.303  30.049  1.00  0.00    -0.014 A 
ATOM     64  C   UNL A   1      48.397  25.726  31.254  1.00  0.00     0.009 A 
ATOM     65  C   UNL A   1      48.856  26.362  28.964  1.00  0.00     0.009 A 
ATOM     66  C   UNL A   1      49.701  25.246  31.380  1.00  0.00     0.001 A 
ATOM     67  C   UNL A   1      50.153  25.861  29.088  1.00  0.00     0.001 A 
ATOM     68  C   UNL A   1      50.576  25.311  30.297  1.00  0.00     0.000 A 
ENDBRANCH  49  63
BRANCH  50  69
ATOM     69  C   UNL A   1      38.513  29.293  28.996  1.00  0.00    -0.014 A 
ATOM     70  C   UNL A   1      37.646  29.230  30.098  1.00  0.00     0.009 A 
ATOM     71  C   UNL A   1      38.025  29.772  27.771  1.00  0.00     0.009 A 
ATOM     72  C   UNL A   1      36.309  29.611  29.968  1.00  0.00     0.001 A 
ATOM     73  C   UNL A   1      36.692  30.173  27.651  1.00  0.00     0.001 A 
ATOM     74  C   UNL A   1      35.834  30.083  28.746  1.00  0.00     0.000 A 
ENDBRANCH  50  69
BRANCH  62  75
ATOM     75  C   UNL A   1      44.275  32.343  31.389  1.00  0.00    -0.014 A 
ATOM     76  C   UNL A   1      44.638  33.386  30.525  1.00  0.00     0.009 A 
ATOM     77  C   UNL A   1      44.122  32.608  32.758  1.00  0.00     0.009 A 
ATOM     78  C   UNL A   1      44.868  34.668  31.029  1.00  0.00     0.001 A 
ATOM     79  C   UNL A   1      44.334  33.893  33.256  1.00  0.00     0.001 A 
ATOM     80  C   UNL A   1      44.713  34.920  32.393  1.00  0.00     0.000 A 
ENDBRANCH  62  75
ENDBRANCH  36  37
ENDBRANCH  28  31
ENDBRANCH  26  27
ENDBRANCH  25  26
ENDBRANCH   1  25
TORSDOF 14
ENDMDL
MODEL 2
REMARK VINA RESULT:     -11.1      0.603      5.956
REMARK SMILES CSCC[C@@H](NC1=[NH+]S(=O)(=O)c2ccccc21)C(=O)NCCCNC(=O)c1ccc(-c2c3nc(c(-c4ccccc4)c4ccc([nH]4)c(-c4ccccc4)c4nc(c(-c5ccccc5)c5ccc2[nH]5)C=C4)C=C3)cc1
REMARK SMILES IDX 21 1 20 2 18 3 19 4 5 6 4 7 3 8 2 9 1 10 6 11 7 12 8 14
REMARK SMILES IDX 17 15 9 16 12 18 16 19 10 20 11 21 13 22 15 23 14 24 22 25
REMARK SMILES IDX 23 26 24 27 25 28 26 30 27 31 28 32 74 33 29 34 73 35 30 36
REMARK SMILES IDX 31 37 32 38 67 39 33 40 72 41 66 42 68 43 34 44 71 45 65 46
REMARK SMILES IDX 64 47 35 49 57 50 42 51 56 52 43 53 46 54 55 55 69 56 44 57
REMARK SMILES IDX 45 58 54 60 70 61 47 62 36 63 37 64 41 65 38 66 40 67 39 68
REMARK SMILES IDX 58 69 59 70 63 71 60 72 62 73 61 74 48 75 49 76 53 77 50 78
REMARK SMILES IDX 52 79 51 80
REMARK H PARENT 20 5 6 13 8 17 24 29 68 48 46 59
REMARK Flexibility Score: inf
ROOT
ATOM      1  C   UNL A   1      36.595  21.336  24.871  1.00  0.00     0.118 C 
ENDROOT
BRANCH   1   2
ATOM      2  N   UNL A   1      35.875  21.317  26.131  1.00  0.00    -0.352 N 
ATOM      3  C   UNL A   1      34.568  21.607  26.410  1.00  0.00     0.264 C 
ATOM      4  O   UNL A   1      34.199  21.479  27.582  1.00  0.00    -0.270 OA
ATOM      5  H   UNL A   1      36.415  21.052  26.910  1.00  0.00     0.163 HD
BRANCH   3   6
ATOM      6  C   UNL A   1      33.612  22.191  25.340  1.00  0.00     0.262 C 
BRANCH   6   7
ATOM      7  C   UNL A   1      32.426  21.216  25.219  1.00  0.00     0.071 C 
BRANCH   7   8
ATOM      8  C   UNL A   1      32.426  20.285  24.009  1.00  0.00     0.074 C 
BRANCH   8   9
ATOM      9  S   UNL A   1      33.384  18.755  24.225  1.00  0.00    -0.165 SA
ATOM     10  C   UNL A   1      32.729  18.168  25.804  1.00  0.00     0.085 C 
ENDBRANCH   8   9
ENDBRANCH   7   8
ENDBRANCH   6   7
BRANCH   6  11
ATOM     11  N   UNL A   1      33.159  23.563  25.633  1.00  0.00    -0.261 N 
ATOM     12  C   UNL A   1      32.939  24.522  24.673  1.00  0.00     0.292 C 
ATOM     13  H   UNL A   1      33.005  23.808  26.574  1.00  0.00     0.306 HD
ATOM     14  N   UNL A   1      32.683  24.267  23.425  1.00  0.00    -0.162 N 
ATOM     15  C   UNL A   1      33.137  25.955  25.001  1.00  0.00     0.087 A 
ATOM     16  S   UNL A   1      32.720  25.635  22.520  1.00  0.00     0.329 S 
ATOM     17  H   UNL A   1      32.490  23.370  23.069  1.00  0.00     0.327 HD
ATOM     18  C   UNL A   1      33.100  26.702  23.840  1.00  0.00     0.124 A 
ATOM     19  C   UNL A   1      33.504  26.540  26.201  1.00  0.00     0.018 A 
ATOM     20  O   UNL A   1      31.405  25.982  22.052  1.00  0.00    -0.179 OA
ATOM     21  O   UNL A   1      33.893  25.619  21.660  1.00  0.00    -0.179 OA
ATOM     22  C   UNL A   1      33.454  28.036  23.787  1.00  0.00     0.025 A 
ATOM     23  C   UNL A   1      33.846  27.898  26.189  1.00  0.00     0.001 A 
ATOM     24  C   UNL A   1      33.830  28.637  24.989  1.00  0.00     0.002 A 
ENDBRANCH   6  11
ENDBRANCH   3   6
ENDBRANCH   1   2
BRANCH   1  25
ATOM     25  C   UNL A   1      37.722  20.322  24.822  1.00  0.00     0.042 C 
BRANCH  25  26
ATOM     26  C   UNL A   1      38.797  20.561  25.871  1.00  0.00     0.118 C 
BRANCH  26  27
ATOM     27  N   UNL A   1      39.858  19.562  25.830  1.00  0.00    -0.352 N 
ATOM     28  C   UNL A   1      41.205  19.704  26.064  1.00  0.00     0.251 C 
ATOM     29  H   UNL A   1      39.566  18.650  25.600  1.00  0.00     0.163 HD
ATOM     30  O   UNL A   1      41.980  18.792  25.794  1.00  0.00    -0.269 OA
BRANCH  28  31
ATOM     31  C   UNL A   1      41.726  20.972  26.618  1.00  0.00     0.039 A 
ATOM     32  C   UNL A   1      42.144  21.977  25.740  1.00  0.00     0.014 A 
ATOM     33  C   UNL A   1      41.800  21.172  27.998  1.00  0.00     0.014 A 
ATOM     34  C   UNL A   1      42.559  23.209  26.249  1.00  0.00     0.010 A 
ATOM     35  C   UNL A   1      42.129  22.425  28.500  1.00  0.00     0.010 A 
ATOM     36  C   UNL A   1      42.516  23.456  27.630  1.00  0.00    -0.014 A 
BRANCH  36  37
ATOM     37  C   UNL A   1      42.892  24.772  28.201  1.00  0.00     0.031 A 
ATOM     38  C   UNL A   1      41.831  25.813  28.432  1.00  0.00     0.074 A 
ATOM     39  C   UNL A   1      44.188  25.062  28.429  1.00  0.00     0.049 A 
ATOM     40  N   UNL A   1      41.968  27.066  28.787  1.00  0.00    -0.248 NA
ATOM     41  C   UNL A   1      40.437  25.399  28.205  1.00  0.00     0.031 C 
ATOM     42  C   UNL A   1      45.317  24.156  28.211  1.00  0.00     0.029 A 
ATOM     43  N   UNL A   1      44.771  26.216  28.889  1.00  0.00    -0.354 N 
ATOM     44  C   UNL A   1      40.684  27.595  28.789  1.00  0.00     0.074 A 
ATOM     45  C   UNL A   1      39.787  26.542  28.370  1.00  0.00     0.031 C 
ATOM     46  C   UNL A   1      46.455  24.781  28.560  1.00  0.00     0.029 A 
ATOM     47  C   UNL A   1      46.139  26.139  28.987  1.00  0.00     0.049 A 
ATOM     48  H   UNL A   1      44.259  27.022  29.125  1.00  0.00     0.167 HD
ATOM     49  C   UNL A   1      40.283  28.844  29.125  1.00  0.00     0.031 A 
ATOM     50  C   UNL A   1      47.038  27.063  29.374  1.00  0.00     0.031 A 
ATOM     51  C   UNL A   1      41.165  29.883  29.579  1.00  0.00     0.049 A 
ATOM     52  C   UNL A   1      46.563  28.430  29.778  1.00  0.00     0.074 A 
ATOM     53  C   UNL A   1      40.849  31.170  29.980  1.00  0.00     0.029 A 
ATOM     54  N   UNL A   1      42.537  29.745  29.712  1.00  0.00    -0.354 N 
ATOM     55  N   UNL A   1      45.343  28.906  29.794  1.00  0.00    -0.248 NA
ATOM     56  C   UNL A   1      47.591  29.381  30.224  1.00  0.00     0.031 C 
ATOM     57  C   UNL A   1      42.036  31.816  30.342  1.00  0.00     0.029 A 
ATOM     58  C   UNL A   1      43.083  30.921  30.194  1.00  0.00     0.049 A 
ATOM     59  H   UNL A   1      43.047  28.931  29.495  1.00  0.00     0.167 HD
ATOM     60  C   UNL A   1      45.453  30.204  30.275  1.00  0.00     0.074 A 
ATOM     61  C   UNL A   1      46.856  30.436  30.548  1.00  0.00     0.031 C 
ATOM     62  C   UNL A   1      44.478  31.123  30.472  1.00  0.00     0.031 A 
BRANCH  49  63
ATOM     63  C   UNL A   1      38.817  29.146  29.018  1.00  0.00    -0.014 A 
ATOM     64  C   UNL A   1      37.975  29.035  30.135  1.00  0.00     0.009 A 
ATOM     65  C   UNL A   1      38.278  29.570  27.794  1.00  0.00     0.009 A 
ATOM     66  C   UNL A   1      36.612  29.314  30.020  1.00  0.00     0.001 A 
ATOM     67  C   UNL A   1      36.918  29.869  27.689  1.00  0.00     0.001 A 
ATOM     68  C   UNL A   1      36.086  29.733  28.799  1.00  0.00     0.000 A 
ENDBRANCH  49  63
BRANCH  50  69
ATOM     69  C   UNL A   1      48.482  26.725  29.420  1.00  0.00    -0.014 A 
ATOM     70  C   UNL A   1      49.030  26.123  30.563  1.00  0.00     0.009 A 
ATOM     71  C   UNL A   1      49.322  27.018  28.335  1.00  0.00     0.009 A 
ATOM     72  C   UNL A   1      50.396  25.846  30.630  1.00  0.00     0.001 A 
ATOM     73  C   UNL A   1      50.685  26.720  28.397  1.00  0.00     0.001 A 
ATOM     74  C   UNL A   1      51.222  26.142  29.547  1.00  0.00     0.000 A 
ENDBRANCH  50  69
BRANCH  62  75
ATOM     75  C   UNL A   1      44.893  32.443  31.049  1.00  0.00    -0.014 A 
ATOM     76  C   UNL A   1      44.940  32.644  32.436  1.00  0.00     0.009 A 
ATOM     77  C   UNL A   1      45.278  33.484  30.191  1.00  0.00     0.009 A 
ATOM     78  C   UNL A   1      45.345  33.876  32.954  1.00  0.00     0.001 A 
ATOM     79  C   UNL A   1      45.699  34.707  30.712  1.00  0.00     0.001 A 
ATOM     80  C   UNL A   1      45.726  34.905  32.091  1.00  0.00     0.000 A 
ENDBRANCH  62  75
ENDBRANCH  36  37
ENDBRANCH  28  31
ENDBRANCH  26  27
ENDBRANCH  25  26
ENDBRANCH   1  25
TORSDOF 14
ENDMDL
MODEL 3
REMARK VINA RESULT:     -10.9      2.066      7.774
REMARK SMILES CSCC[C@@H](NC1=[NH+]S(=O)(=O)c2ccccc21)C(=O)NCCCNC(=O)c1ccc(-c2c3nc(c(-c4ccccc4)c4ccc([nH]4)c(-c4ccccc4)c4nc(c(-c5ccccc5)c5ccc2[nH]5)C=C4)C=C3)cc1
REMARK SMILES IDX 21 1 20 2 18 3 19 4 5 6 4 7 3 8 2 9 1 10 6 11 7 12 8 14
REMARK SMILES IDX 17 15 9 16 12 18 16 19 10 20 11 21 13 22 15 23 14 24 22 25
REMARK SMILES IDX 23 26 24 27 25 28 26 30 27 31 28 32 74 33 29 34 73 35 30 36
REMARK SMILES IDX 31 37 32 38 67 39 33 40 72 41 66 42 68 43 34 44 71 45 65 46
REMARK SMILES IDX 64 47 35 49 57 50 42 51 56 52 43 53 46 54 55 55 69 56 44 57
REMARK SMILES IDX 45 58 54 60 70 61 47 62 36 63 37 64 41 65 38 66 40 67 39 68
REMARK SMILES IDX 58 69 59 70 63 71 60 72 62 73 61 74 48 75 49 76 53 77 50 78
REMARK SMILES IDX 52 79 51 80
REMARK H PARENT 20 5 6 13 8 17 24 29 68 48 46 59
REMARK Flexibility Score: inf
ROOT
ATOM      1  C   UNL A   1      33.283  29.168  24.920  1.00  0.00     0.118 C 
ENDROOT
BRANCH   1   2
ATOM      2  N   UNL A   1      33.825  28.927  23.595  1.00  0.00    -0.352 N 
ATOM      3  C   UNL A   1      33.608  27.897  22.722  1.00  0.00     0.264 C 
ATOM      4  O   UNL A   1      34.181  27.953  21.629  1.00  0.00    -0.270 OA
ATOM      5  H   UNL A   1      34.448  29.616  23.274  1.00  0.00     0.163 HD
BRANCH   3   6
ATOM      6  C   UNL A   1      32.782  26.647  23.118  1.00  0.00     0.262 C 
BRANCH   6   7
ATOM      7  C   UNL A   1      31.461  26.713  22.329  1.00  0.00     0.071 C 
BRANCH   7   8
ATOM      8  C   UNL A   1      30.316  27.488  22.976  1.00  0.00     0.074 C 
BRANCH   8   9
ATOM      9  S   UNL A   1      29.997  29.125  22.253  1.00  0.00    -0.165 SA
ATOM     10  C   UNL A   1      29.896  30.139  23.746  1.00  0.00     0.085 C 
ENDBRANCH   8   9
ENDBRANCH   7   8
ENDBRANCH   6   7
BRANCH   6  11
ATOM     11  N   UNL A   1      33.487  25.372  22.890  1.00  0.00    -0.261 N 
ATOM     12  C   UNL A   1      33.342  24.260  23.684  1.00  0.00     0.292 C 
ATOM     13  H   UNL A   1      34.099  25.314  22.120  1.00  0.00     0.306 HD
ATOM     14  N   UNL A   1      32.311  24.025  24.438  1.00  0.00    -0.162 N 
ATOM     15  C   UNL A   1      34.470  23.308  23.836  1.00  0.00     0.087 A 
ATOM     16  S   UNL A   1      32.578  22.743  25.428  1.00  0.00     0.329 S 
ATOM     17  H   UNL A   1      31.476  24.546  24.417  1.00  0.00     0.327 HD
ATOM     18  C   UNL A   1      34.188  22.420  24.855  1.00  0.00     0.124 A 
ATOM     19  C   UNL A   1      35.726  23.332  23.252  1.00  0.00     0.018 A 
ATOM     20  O   UNL A   1      31.757  21.623  25.058  1.00  0.00    -0.179 OA
ATOM     21  O   UNL A   1      32.721  23.209  26.799  1.00  0.00    -0.179 OA
ATOM     22  C   UNL A   1      35.121  21.544  25.375  1.00  0.00     0.025 A 
ATOM     23  C   UNL A   1      36.689  22.441  23.738  1.00  0.00     0.001 A 
ATOM     24  C   UNL A   1      36.392  21.561  24.798  1.00  0.00     0.002 A 
ENDBRANCH   6  11
ENDBRANCH   3   6
ENDBRANCH   1   2
BRANCH   1  25
ATOM     25  C   UNL A   1      33.983  28.362  25.997  1.00  0.00     0.042 C 
BRANCH  25  26
ATOM     26  C   UNL A   1      33.490  28.673  27.402  1.00  0.00     0.118 C 
BRANCH  26  27
ATOM     27  N   UNL A   1      33.550  30.094  27.720  1.00  0.00    -0.352 N 
ATOM     28  C   UNL A   1      34.569  30.825  28.282  1.00  0.00     0.251 C 
ATOM     29  H   UNL A   1      32.738  30.607  27.498  1.00  0.00     0.163 HD
ATOM     30  O   UNL A   1      34.372  31.976  28.656  1.00  0.00    -0.269 OA
BRANCH  28  31
ATOM     31  C   UNL A   1      35.902  30.210  28.462  1.00  0.00     0.039 A 
ATOM     32  C   UNL A   1      36.819  30.253  27.409  1.00  0.00     0.014 A 
ATOM     33  C   UNL A   1      36.246  29.595  29.668  1.00  0.00     0.014 A 
ATOM     34  C   UNL A   1      38.109  29.751  27.596  1.00  0.00     0.010 A 
ATOM     35  C   UNL A   1      37.554  29.175  29.882  1.00  0.00     0.010 A 
ATOM     36  C   UNL A   1      38.498  29.245  28.846  1.00  0.00    -0.014 A 
BRANCH  36  37
ATOM     37  C   UNL A   1      39.875  28.758  29.098  1.00  0.00     0.031 A 
ATOM     38  C   UNL A   1      40.893  29.686  29.705  1.00  0.00     0.074 A 
ATOM     39  C   UNL A   1      40.236  27.521  28.707  1.00  0.00     0.049 A 
ATOM     40  N   UNL A   1      42.178  29.504  29.875  1.00  0.00    -0.248 NA
ATOM     41  C   UNL A   1      40.406  31.002  30.150  1.00  0.00     0.031 C 
ATOM     42  C   UNL A   1      39.357  26.536  28.073  1.00  0.00     0.029 A 
ATOM     43  N   UNL A   1      41.450  26.885  28.778  1.00  0.00    -0.354 N 
ATOM     44  C   UNL A   1      42.656  30.693  30.410  1.00  0.00     0.074 A 
ATOM     45  C   UNL A   1      41.534  31.599  30.507  1.00  0.00     0.031 C 
ATOM     46  C   UNL A   1      40.055  25.412  27.836  1.00  0.00     0.029 A 
ATOM     47  C   UNL A   1      41.435  25.611  28.264  1.00  0.00     0.049 A 
ATOM     48  H   UNL A   1      42.255  27.302  29.162  1.00  0.00     0.167 HD
ATOM     49  C   UNL A   1      43.915  30.999  30.803  1.00  0.00     0.031 A 
ATOM     50  C   UNL A   1      42.425  24.708  28.147  1.00  0.00     0.031 A 
ATOM     51  C   UNL A   1      45.026  30.090  30.745  1.00  0.00     0.049 A 
ATOM     52  C   UNL A   1      43.805  25.060  28.624  1.00  0.00     0.074 A 
ATOM     53  C   UNL A   1      46.331  30.295  31.154  1.00  0.00     0.029 A 
ATOM     54  N   UNL A   1      44.953  28.794  30.263  1.00  0.00    -0.354 N 
ATOM     55  N   UNL A   1      44.234  26.181  29.148  1.00  0.00    -0.248 NA
ATOM     56  C   UNL A   1      44.833  24.017  28.500  1.00  0.00     0.031 C 
ATOM     57  C   UNL A   1      47.055  29.123  30.906  1.00  0.00     0.029 A 
ATOM     58  C   UNL A   1      46.190  28.183  30.370  1.00  0.00     0.049 A 
ATOM     59  H   UNL A   1      44.143  28.370  29.899  1.00  0.00     0.167 HD
ATOM     60  C   UNL A   1      45.575  25.971  29.439  1.00  0.00     0.074 A 
ATOM     61  C   UNL A   1      45.885  24.613  29.044  1.00  0.00     0.031 C 
ATOM     62  C   UNL A   1      46.471  26.828  29.985  1.00  0.00     0.031 A 
BRANCH  49  63
ATOM     63  C   UNL A   1      44.149  32.382  31.337  1.00  0.00    -0.014 A 
ATOM     64  C   UNL A   1      44.419  33.453  30.472  1.00  0.00     0.009 A 
ATOM     65  C   UNL A   1      44.071  32.621  32.717  1.00  0.00     0.009 A 
ATOM     66  C   UNL A   1      44.640  34.733  30.982  1.00  0.00     0.001 A 
ATOM     67  C   UNL A   1      44.270  33.907  33.222  1.00  0.00     0.001 A 
ATOM     68  C   UNL A   1      44.561  34.959  32.356  1.00  0.00     0.000 A 
ENDBRANCH  49  63
BRANCH  50  69
ATOM     69  C   UNL A   1      42.149  23.368  27.569  1.00  0.00    -0.014 A 
ATOM     70  C   UNL A   1      42.476  23.095  26.233  1.00  0.00     0.009 A 
ATOM     71  C   UNL A   1      41.543  22.366  28.341  1.00  0.00     0.009 A 
ATOM     72  C   UNL A   1      42.176  21.853  25.672  1.00  0.00     0.001 A 
ATOM     73  C   UNL A   1      41.263  21.117  27.783  1.00  0.00     0.001 A 
ATOM     74  C   UNL A   1      41.571  20.865  26.447  1.00  0.00     0.000 A 
ENDBRANCH  50  69
BRANCH  62  75
ATOM     75  C   UNL A   1      47.855  26.304  30.225  1.00  0.00    -0.014 A 
ATOM     76  C   UNL A   1      48.237  25.816  31.484  1.00  0.00     0.009 A 
ATOM     77  C   UNL A   1      48.774  26.263  29.166  1.00  0.00     0.009 A 
ATOM     78  C   UNL A   1      49.525  25.318  31.682  1.00  0.00     0.001 A 
ATOM     79  C   UNL A   1      50.054  25.748  29.363  1.00  0.00     0.001 A 
ATOM     80  C   UNL A   1      50.431  25.282  30.621  1.00  0.00     0.000 A 
ENDBRANCH  62  75
ENDBRANCH  36  37
ENDBRANCH  28  31
ENDBRANCH  26  27
ENDBRANCH  25  26
ENDBRANCH   1  25
TORSDOF 14
ENDMDL
