MODEL 1
REMARK VINA RESULT:     -11.1      0.000      0.000
REMARK SMILES O=C(NCCCNC(=O)[C@H]1CCC(=O)N(C2CCCCC2)[C@H]1c1ccccc1)c1ccc(-c2c3nc(c(-c4ccccc4)c4ccc([nH]4)c(-c4ccccc4)c4nc(c(-c5ccccc5)c5ccc2[nH]5)C=C4)C=C3)cc1
REMARK SMILES IDX 4 1 3 2 1 3 2 4 29 6 30 7 76 8 31 9 75 10 32 11 33 12 34 13
REMARK SMILES IDX 69 14 35 15 74 16 68 17 70 18 36 19 73 20 67 21 66 22 37 24
REMARK SMILES IDX 59 25 44 26 58 27 45 28 48 29 57 30 71 31 46 32 47 33 56 35
REMARK SMILES IDX 72 36 49 37 38 38 39 39 43 40 40 41 42 42 41 43 60 44 61 45
REMARK SMILES IDX 65 46 62 47 64 48 63 49 50 50 51 51 55 52 52 53 54 54 53 55
REMARK SMILES IDX 5 56 6 57 7 58 8 59 9 61 10 62 11 63 22 64 12 65 15 66 13 67
REMARK SMILES IDX 14 68 23 69 24 70 28 71 25 72 27 73 26 74 16 75 17 76 21 77
REMARK SMILES IDX 18 78 20 79 19 80
REMARK H PARENT 3 5 70 23 48 34 7 60
REMARK Flexibility Score: inf
ROOT
ATOM      1  C   UNL A   1      36.746  22.985  26.141  1.00  0.00     0.118 C 
ENDROOT
BRANCH   1   2
ATOM      2  N   UNL A   1      37.984  22.223  26.098  1.00  0.00    -0.352 N 
ATOM      3  O   UNL A   1      40.205  21.832  26.131  1.00  0.00    -0.269 OA
ATOM      4  C   UNL A   1      39.279  22.608  26.358  1.00  0.00     0.251 C 
ATOM      5  H   UNL A   1      37.879  21.278  25.841  1.00  0.00     0.163 HD
BRANCH   4   6
ATOM      6  C   UNL A   1      39.572  23.967  26.871  1.00  0.00     0.039 A 
ATOM      7  C   UNL A   1      40.074  24.962  26.034  1.00  0.00     0.014 A 
ATOM      8  C   UNL A   1      39.329  24.257  28.218  1.00  0.00     0.014 A 
ATOM      9  C   UNL A   1      40.518  26.164  26.572  1.00  0.00     0.010 A 
ATOM     10  C   UNL A   1      39.663  25.515  28.735  1.00  0.00     0.010 A 
ATOM     11  C   UNL A   1      40.300  26.467  27.925  1.00  0.00    -0.014 A 
BRANCH  11  12
ATOM     12  C   UNL A   1      40.691  27.806  28.439  1.00  0.00     0.031 A 
ATOM     13  C   UNL A   1      39.672  28.889  28.672  1.00  0.00     0.074 A 
ATOM     14  C   UNL A   1      41.986  28.029  28.741  1.00  0.00     0.049 A 
ATOM     15  N   UNL A   1      39.852  30.097  29.147  1.00  0.00    -0.248 NA
ATOM     16  C   UNL A   1      38.277  28.585  28.321  1.00  0.00     0.031 C 
ATOM     17  C   UNL A   1      43.073  27.062  28.560  1.00  0.00     0.029 A 
ATOM     18  N   UNL A   1      42.605  29.122  29.292  1.00  0.00    -0.354 N 
ATOM     19  C   UNL A   1      38.603  30.705  29.126  1.00  0.00     0.074 A 
ATOM     20  C   UNL A   1      37.676  29.740  28.574  1.00  0.00     0.031 C 
ATOM     21  C   UNL A   1      44.208  27.577  29.054  1.00  0.00     0.029 A 
ATOM     22  C   UNL A   1      43.947  28.935  29.515  1.00  0.00     0.049 A 
ATOM     23  H   UNL A   1      42.133  29.959  29.506  1.00  0.00     0.167 HD
ATOM     24  C   UNL A   1      38.259  31.952  29.531  1.00  0.00     0.031 A 
ATOM     25  C   UNL A   1      44.878  29.765  30.019  1.00  0.00     0.031 A 
ATOM     26  C   UNL A   1      39.180  32.910  30.088  1.00  0.00     0.049 A 
ATOM     27  C   UNL A   1      44.476  31.147  30.432  1.00  0.00     0.074 A 
ATOM     28  C   UNL A   1      38.918  34.187  30.557  1.00  0.00     0.029 A 
ATOM     29  N   UNL A   1      40.540  32.699  30.245  1.00  0.00    -0.354 N 
ATOM     30  N   UNL A   1      43.285  31.695  30.424  1.00  0.00    -0.248 NA
ATOM     31  C   UNL A   1      45.547  32.027  30.917  1.00  0.00     0.031 C 
ATOM     32  C   UNL A   1      40.128  34.765  30.954  1.00  0.00     0.029 A 
ATOM     33  C   UNL A   1      41.136  33.831  30.779  1.00  0.00     0.049 A 
ATOM     34  H   UNL A   1      41.014  31.868  30.012  1.00  0.00     0.167 HD
ATOM     35  C   UNL A   1      43.461  32.983  30.909  1.00  0.00     0.074 A 
ATOM     36  C   UNL A   1      44.869  33.124  31.224  1.00  0.00     0.031 C 
ATOM     37  C   UNL A   1      42.540  33.962  31.073  1.00  0.00     0.031 A 
BRANCH  24  38
ATOM     38  C   UNL A   1      36.825  32.368  29.357  1.00  0.00    -0.014 A 
ATOM     39  C   UNL A   1      35.889  32.228  30.394  1.00  0.00     0.009 A 
ATOM     40  C   UNL A   1      36.411  32.947  28.146  1.00  0.00     0.009 A 
ATOM     41  C   UNL A   1      34.564  32.630  30.210  1.00  0.00     0.001 A 
ATOM     42  C   UNL A   1      35.092  33.370  27.973  1.00  0.00     0.001 A 
ATOM     43  C   UNL A   1      34.167  33.203  29.002  1.00  0.00     0.000 A 
ENDBRANCH  24  38
BRANCH  25  44
ATOM     44  C   UNL A   1      46.284  29.302  30.140  1.00  0.00    -0.014 A 
ATOM     45  C   UNL A   1      46.727  28.672  31.312  1.00  0.00     0.009 A 
ATOM     46  C   UNL A   1      47.178  29.460  29.070  1.00  0.00     0.009 A 
ATOM     47  C   UNL A   1      48.044  28.218  31.412  1.00  0.00     0.001 A 
ATOM     48  C   UNL A   1      48.484  28.979  29.162  1.00  0.00     0.001 A 
ATOM     49  C   UNL A   1      48.919  28.365  30.334  1.00  0.00     0.000 A 
ENDBRANCH  25  44
BRANCH  37  50
ATOM     50  C   UNL A   1      43.029  35.265  31.634  1.00  0.00    -0.014 A 
ATOM     51  C   UNL A   1      43.572  36.255  30.799  1.00  0.00     0.009 A 
ATOM     52  C   UNL A   1      42.931  35.512  33.011  1.00  0.00     0.009 A 
ATOM     53  C   UNL A   1      44.038  37.455  31.339  1.00  0.00     0.001 A 
ATOM     54  C   UNL A   1      43.375  36.722  33.545  1.00  0.00     0.001 A 
ATOM     55  C   UNL A   1      43.935  37.688  32.711  1.00  0.00     0.000 A 
ENDBRANCH  37  50
ENDBRANCH  11  12
ENDBRANCH   4   6
ENDBRANCH   1   2
BRANCH   1  56
ATOM     56  C   UNL A   1      36.633  24.010  25.023  1.00  0.00     0.042 C 
BRANCH  56  57
ATOM     57  C   UNL A   1      36.544  23.386  23.640  1.00  0.00     0.117 C 
BRANCH  57  58
ATOM     58  N   UNL A   1      35.286  22.691  23.418  1.00  0.00    -0.356 N 
ATOM     59  C   UNL A   1      34.051  23.156  23.104  1.00  0.00     0.225 C 
ATOM     60  H   UNL A   1      35.340  21.712  23.511  1.00  0.00     0.163 HD
ATOM     61  O   UNL A   1      33.210  22.313  22.771  1.00  0.00    -0.275 OA
BRANCH  59  62
ATOM     62  C   UNL A   1      33.672  24.629  23.113  1.00  0.00     0.106 C 
ATOM     63  C   UNL A   1      32.601  25.078  22.139  1.00  0.00     0.026 C 
ATOM     64  C   UNL A   1      33.411  25.203  24.516  1.00  0.00     0.128 C 
ATOM     65  C   UNL A   1      32.671  26.578  22.008  1.00  0.00     0.101 C 
ATOM     66  N   UNL A   1      33.058  26.652  24.475  1.00  0.00    -0.332 N 
ATOM     67  C   UNL A   1      32.601  27.306  23.331  1.00  0.00     0.223 C 
ATOM     68  O   UNL A   1      32.232  28.482  23.322  1.00  0.00    -0.275 OA
BRANCH  64  69
ATOM     69  C   UNL A   1      32.422  24.378  25.342  1.00  0.00    -0.025 A 
ATOM     70  C   UNL A   1      31.053  24.321  25.047  1.00  0.00     0.006 A 
ATOM     71  C   UNL A   1      32.895  23.626  26.435  1.00  0.00     0.006 A 
ATOM     72  C   UNL A   1      30.182  23.554  25.828  1.00  0.00     0.000 A 
ATOM     73  C   UNL A   1      32.027  22.843  27.202  1.00  0.00     0.000 A 
ATOM     74  C   UNL A   1      30.670  22.811  26.901  1.00  0.00     0.000 A 
ENDBRANCH  64  69
BRANCH  66  75
ATOM     75  C   UNL A   1      33.212  27.427  25.731  1.00  0.00     0.085 C 
ATOM     76  C   UNL A   1      34.220  28.578  25.551  1.00  0.00     0.025 C 
ATOM     77  C   UNL A   1      31.868  27.904  26.320  1.00  0.00     0.025 C 
ATOM     78  C   UNL A   1      34.349  29.446  26.799  1.00  0.00     0.002 C 
ATOM     79  C   UNL A   1      32.048  28.783  27.553  1.00  0.00     0.002 C 
ATOM     80  C   UNL A   1      32.989  29.948  27.272  1.00  0.00     0.000 C 
ENDBRANCH  66  75
ENDBRANCH  59  62
ENDBRANCH  57  58
ENDBRANCH  56  57
ENDBRANCH   1  56
TORSDOF 12
ENDMDL
MODEL 2
REMARK VINA RESULT:     -11.0      2.398      7.654
REMARK SMILES O=C(NCCCNC(=O)[C@H]1CCC(=O)N(C2CCCCC2)[C@H]1c1ccccc1)c1ccc(-c2c3nc(c(-c4ccccc4)c4ccc([nH]4)c(-c4ccccc4)c4nc(c(-c5ccccc5)c5ccc2[nH]5)C=C4)C=C3)cc1
REMARK SMILES IDX 4 1 3 2 1 3 2 4 29 6 30 7 76 8 31 9 75 10 32 11 33 12 34 13
REMARK SMILES IDX 69 14 35 15 74 16 68 17 70 18 36 19 73 20 67 21 66 22 37 24
REMARK SMILES IDX 59 25 44 26 58 27 45 28 48 29 57 30 71 31 46 32 47 33 56 35
REMARK SMILES IDX 72 36 49 37 38 38 39 39 43 40 40 41 42 42 41 43 60 44 61 45
REMARK SMILES IDX 65 46 62 47 64 48 63 49 50 50 51 51 55 52 52 53 54 54 53 55
REMARK SMILES IDX 5 56 6 57 7 58 8 59 9 61 10 62 11 63 22 64 12 65 15 66 13 67
REMARK SMILES IDX 14 68 23 69 24 70 28 71 25 72 27 73 26 74 16 75 17 76 21 77
REMARK SMILES IDX 18 78 20 79 19 80
REMARK H PARENT 3 5 70 23 48 34 7 60
REMARK Flexibility Score: inf
ROOT
ATOM      1  C   UNL A   1      33.886  29.211  25.973  1.00  0.00     0.118 C 
ENDROOT
BRANCH   1   2
ATOM      2  N   UNL A   1      33.722  30.453  26.713  1.00  0.00    -0.352 N 
ATOM      3  O   UNL A   1      34.090  32.006  28.306  1.00  0.00    -0.269 OA
ATOM      4  C   UNL A   1      34.484  31.001  27.718  1.00  0.00     0.251 C 
ATOM      5  H   UNL A   1      32.937  30.989  26.452  1.00  0.00     0.163 HD
BRANCH   4   6
ATOM      6  C   UNL A   1      35.758  30.366  28.129  1.00  0.00     0.039 A 
ATOM      7  C   UNL A   1      35.871  29.696  29.346  1.00  0.00     0.014 A 
ATOM      8  C   UNL A   1      36.862  30.430  27.273  1.00  0.00     0.014 A 
ATOM      9  C   UNL A   1      37.118  29.275  29.794  1.00  0.00     0.010 A 
ATOM     10  C   UNL A   1      38.092  29.894  27.673  1.00  0.00     0.010 A 
ATOM     11  C   UNL A   1      38.242  29.349  28.957  1.00  0.00    -0.014 A 
BRANCH  11  12
ATOM     12  C   UNL A   1      39.535  28.788  29.431  1.00  0.00     0.031 A 
ATOM     13  C   UNL A   1      40.054  27.469  28.927  1.00  0.00     0.074 A 
ATOM     14  C   UNL A   1      40.271  29.509  30.300  1.00  0.00     0.049 A 
ATOM     15  N   UNL A   1      41.179  26.864  29.219  1.00  0.00    -0.248 NA
ATOM     16  C   UNL A   1      39.204  26.729  27.981  1.00  0.00     0.031 C 
ATOM     17  C   UNL A   1      39.879  30.803  30.867  1.00  0.00     0.029 A 
ATOM     18  N   UNL A   1      41.512  29.277  30.835  1.00  0.00    -0.354 N 
ATOM     19  C   UNL A   1      41.160  25.663  28.518  1.00  0.00     0.074 A 
ATOM     20  C   UNL A   1      39.904  25.617  27.801  1.00  0.00     0.031 C 
ATOM     21  C   UNL A   1      40.886  31.281  31.612  1.00  0.00     0.029 A 
ATOM     22  C   UNL A   1      41.961  30.297  31.639  1.00  0.00     0.049 A 
ATOM     23  H   UNL A   1      42.032  28.459  30.660  1.00  0.00     0.167 HD
ATOM     24  C   UNL A   1      42.102  24.690  28.476  1.00  0.00     0.031 A 
ATOM     25  C   UNL A   1      43.102  30.427  32.338  1.00  0.00     0.031 A 
ATOM     26  C   UNL A   1      43.356  24.740  29.184  1.00  0.00     0.049 A 
ATOM     27  C   UNL A   1      44.114  29.324  32.296  1.00  0.00     0.074 A 
ATOM     28  C   UNL A   1      44.388  23.816  29.175  1.00  0.00     0.029 A 
ATOM     29  N   UNL A   1      43.746  25.765  30.030  1.00  0.00    -0.354 N 
ATOM     30  N   UNL A   1      44.086  28.207  31.611  1.00  0.00    -0.248 NA
ATOM     31  C   UNL A   1      45.311  29.496  33.129  1.00  0.00     0.031 C 
ATOM     32  C   UNL A   1      45.382  24.260  30.054  1.00  0.00     0.029 A 
ATOM     33  C   UNL A   1      44.991  25.485  30.571  1.00  0.00     0.049 A 
ATOM     34  H   UNL A   1      43.216  26.574  30.220  1.00  0.00     0.167 HD
ATOM     35  C   UNL A   1      45.263  27.544  31.923  1.00  0.00     0.074 A 
ATOM     36  C   UNL A   1      45.994  28.397  32.840  1.00  0.00     0.031 C 
ATOM     37  C   UNL A   1      45.698  26.335  31.493  1.00  0.00     0.031 A 
BRANCH  24  38
ATOM     38  C   UNL A   1      41.799  23.466  27.657  1.00  0.00    -0.014 A 
ATOM     39  C   UNL A   1      42.306  23.309  26.357  1.00  0.00     0.009 A 
ATOM     40  C   UNL A   1      41.027  22.432  28.212  1.00  0.00     0.009 A 
ATOM     41  C   UNL A   1      42.017  22.158  25.619  1.00  0.00     0.001 A 
ATOM     42  C   UNL A   1      40.760  21.273  27.482  1.00  0.00     0.001 A 
ATOM     43  C   UNL A   1      41.248  21.141  26.183  1.00  0.00     0.000 A 
ENDBRANCH  24  38
BRANCH  25  44
ATOM     44  C   UNL A   1      43.329  31.650  33.150  1.00  0.00    -0.014 A 
ATOM     45  C   UNL A   1      43.968  32.766  32.591  1.00  0.00     0.009 A 
ATOM     46  C   UNL A   1      42.877  31.716  34.477  1.00  0.00     0.009 A 
ATOM     47  C   UNL A   1      44.157  33.923  33.351  1.00  0.00     0.001 A 
ATOM     48  C   UNL A   1      43.042  32.882  35.224  1.00  0.00     0.001 A 
ATOM     49  C   UNL A   1      43.687  33.982  34.664  1.00  0.00     0.000 A 
ENDBRANCH  25  44
BRANCH  37  50
ATOM     50  C   UNL A   1      47.033  25.877  32.001  1.00  0.00    -0.014 A 
ATOM     51  C   UNL A   1      48.206  26.100  31.262  1.00  0.00     0.009 A 
ATOM     52  C   UNL A   1      47.122  25.228  33.241  1.00  0.00     0.009 A 
ATOM     53  C   UNL A   1      49.438  25.652  31.741  1.00  0.00     0.001 A 
ATOM     54  C   UNL A   1      48.359  24.803  33.730  1.00  0.00     0.001 A 
ATOM     55  C   UNL A   1      49.513  25.008  32.976  1.00  0.00     0.000 A 
ENDBRANCH  37  50
ENDBRANCH  11  12
ENDBRANCH   4   6
ENDBRANCH   1   2
BRANCH   1  56
ATOM     56  C   UNL A   1      33.750  27.972  26.843  1.00  0.00     0.042 C 
BRANCH  56  57
ATOM     57  C   UNL A   1      32.365  27.805  27.443  1.00  0.00     0.117 C 
BRANCH  57  58
ATOM     58  N   UNL A   1      31.351  27.516  26.442  1.00  0.00    -0.356 N 
ATOM     59  C   UNL A   1      30.967  26.348  25.870  1.00  0.00     0.225 C 
ATOM     60  H   UNL A   1      30.855  28.306  26.125  1.00  0.00     0.163 HD
ATOM     61  O   UNL A   1      29.931  26.375  25.196  1.00  0.00    -0.275 OA
BRANCH  59  62
ATOM     62  C   UNL A   1      31.716  25.035  26.039  1.00  0.00     0.106 C 
ATOM     63  C   UNL A   1      30.918  23.755  25.894  1.00  0.00     0.026 C 
ATOM     64  C   UNL A   1      33.029  24.953  25.242  1.00  0.00     0.128 C 
ATOM     65  C   UNL A   1      31.713  22.624  26.495  1.00  0.00     0.101 C 
ATOM     66  N   UNL A   1      33.735  23.654  25.450  1.00  0.00    -0.332 N 
ATOM     67  C   UNL A   1      33.114  22.506  25.939  1.00  0.00     0.223 C 
ATOM     68  O   UNL A   1      33.679  21.414  26.031  1.00  0.00    -0.275 OA
BRANCH  64  69
ATOM     69  C   UNL A   1      32.873  25.307  23.761  1.00  0.00    -0.025 A 
ATOM     70  C   UNL A   1      32.309  24.425  22.828  1.00  0.00     0.006 A 
ATOM     71  C   UNL A   1      33.289  26.574  23.307  1.00  0.00     0.006 A 
ATOM     72  C   UNL A   1      32.184  24.789  21.483  1.00  0.00     0.000 A 
ATOM     73  C   UNL A   1      33.143  26.944  21.968  1.00  0.00     0.000 A 
ATOM     74  C   UNL A   1      32.595  26.049  21.055  1.00  0.00     0.000 A 
ENDBRANCH  64  69
BRANCH  66  75
ATOM     75  C   UNL A   1      35.180  23.603  25.118  1.00  0.00     0.085 C 
ATOM     76  C   UNL A   1      36.030  23.364  26.381  1.00  0.00     0.025 C 
ATOM     77  C   UNL A   1      35.509  22.606  23.987  1.00  0.00     0.025 C 
ATOM     78  C   UNL A   1      37.517  23.229  26.071  1.00  0.00     0.002 C 
ATOM     79  C   UNL A   1      37.007  22.490  23.727  1.00  0.00     0.002 C 
ATOM     80  C   UNL A   1      37.769  22.168  25.006  1.00  0.00     0.000 C 
ENDBRANCH  66  75
ENDBRANCH  59  62
ENDBRANCH  57  58
ENDBRANCH  56  57
ENDBRANCH   1  56
TORSDOF 12
ENDMDL
MODEL 3
REMARK VINA RESULT:     -10.8      2.352      7.388
REMARK SMILES O=C(NCCCNC(=O)[C@H]1CCC(=O)N(C2CCCCC2)[C@H]1c1ccccc1)c1ccc(-c2c3nc(c(-c4ccccc4)c4ccc([nH]4)c(-c4ccccc4)c4nc(c(-c5ccccc5)c5ccc2[nH]5)C=C4)C=C3)cc1
REMARK SMILES IDX 4 1 3 2 1 3 2 4 29 6 30 7 76 8 31 9 75 10 32 11 33 12 34 13
REMARK SMILES IDX 69 14 35 15 74 16 68 17 70 18 36 19 73 20 67 21 66 22 37 24
REMARK SMILES IDX 59 25 44 26 58 27 45 28 48 29 57 30 71 31 46 32 47 33 56 35
REMARK SMILES IDX 72 36 49 37 38 38 39 39 43 40 40 41 42 42 41 43 60 44 61 45
REMARK SMILES IDX 65 46 62 47 64 48 63 49 50 50 51 51 55 52 52 53 54 54 53 55
REMARK SMILES IDX 5 56 6 57 7 58 8 59 9 61 10 62 11 63 22 64 12 65 15 66 13 67
REMARK SMILES IDX 14 68 23 69 24 70 28 71 25 72 27 73 26 74 16 75 17 76 21 77
REMARK SMILES IDX 18 78 20 79 19 80
REMARK H PARENT 3 5 70 23 48 34 7 60
REMARK Flexibility Score: inf
ROOT
ATOM      1  C   UNL A   1      34.011  29.231  25.849  1.00  0.00     0.118 C 
ENDROOT
BRANCH   1   2
ATOM      2  N   UNL A   1      33.731  30.377  26.699  1.00  0.00    -0.352 N 
ATOM      3  O   UNL A   1      33.947  31.796  28.439  1.00  0.00    -0.269 OA
ATOM      4  C   UNL A   1      34.432  30.890  27.766  1.00  0.00     0.251 C 
ATOM      5  H   UNL A   1      32.906  30.866  26.476  1.00  0.00     0.163 HD
BRANCH   4   6
ATOM      6  C   UNL A   1      35.753  30.330  28.139  1.00  0.00     0.039 A 
ATOM      7  C   UNL A   1      35.933  29.642  29.338  1.00  0.00     0.014 A 
ATOM      8  C   UNL A   1      36.833  30.484  27.264  1.00  0.00     0.014 A 
ATOM      9  C   UNL A   1      37.212  29.293  29.753  1.00  0.00     0.010 A 
ATOM     10  C   UNL A   1      38.103  30.020  27.629  1.00  0.00     0.010 A 
ATOM     11  C   UNL A   1      38.313  29.457  28.897  1.00  0.00    -0.014 A 
BRANCH  11  12
ATOM     12  C   UNL A   1      39.649  28.972  29.334  1.00  0.00     0.031 A 
ATOM     13  C   UNL A   1      40.496  29.756  30.299  1.00  0.00     0.074 A 
ATOM     14  C   UNL A   1      40.082  27.778  28.880  1.00  0.00     0.049 A 
ATOM     15  N   UNL A   1      41.667  29.449  30.801  1.00  0.00    -0.248 NA
ATOM     16  C   UNL A   1      39.969  31.051  30.755  1.00  0.00     0.031 C 
ATOM     17  C   UNL A   1      39.356  26.920  27.939  1.00  0.00     0.029 A 
ATOM     18  N   UNL A   1      41.216  27.064  29.172  1.00  0.00    -0.354 N 
ATOM     19  C   UNL A   1      42.029  30.522  31.607  1.00  0.00     0.074 A 
ATOM     20  C   UNL A   1      40.963  31.496  31.514  1.00  0.00     0.031 C 
ATOM     21  C   UNL A   1      40.027  25.770  27.784  1.00  0.00     0.029 A 
ATOM     22  C   UNL A   1      41.263  25.838  28.552  1.00  0.00     0.049 A 
ATOM     23  H   UNL A   1      41.926  27.397  29.766  1.00  0.00     0.167 HD
ATOM     24  C   UNL A   1      43.147  30.680  32.357  1.00  0.00     0.031 A 
ATOM     25  C   UNL A   1      42.203  24.877  28.581  1.00  0.00     0.031 A 
ATOM     26  C   UNL A   1      44.205  29.707  32.456  1.00  0.00     0.049 A 
ATOM     27  C   UNL A   1      43.441  25.089  29.396  1.00  0.00     0.074 A 
ATOM     28  C   UNL A   1      45.361  29.765  33.217  1.00  0.00     0.029 A 
ATOM     29  N   UNL A   1      44.240  28.504  31.770  1.00  0.00    -0.354 N 
ATOM     30  N   UNL A   1      43.755  26.101  30.167  1.00  0.00    -0.248 NA
ATOM     31  C   UNL A   1      44.458  24.031  29.337  1.00  0.00     0.031 C 
ATOM     32  C   UNL A   1      46.117  28.618  32.954  1.00  0.00     0.029 A 
ATOM     33  C   UNL A   1      45.409  27.822  32.068  1.00  0.00     0.049 A 
ATOM     34  H   UNL A   1      43.537  28.181  31.160  1.00  0.00     0.167 HD
ATOM     35  C   UNL A   1      45.003  25.800  30.693  1.00  0.00     0.074 A 
ATOM     36  C   UNL A   1      45.376  24.500  30.171  1.00  0.00     0.031 C 
ATOM     37  C   UNL A   1      45.773  26.537  31.530  1.00  0.00     0.031 A 
BRANCH  24  38
ATOM     38  C   UNL A   1      43.301  31.973  33.110  1.00  0.00    -0.014 A 
ATOM     39  C   UNL A   1      42.831  32.116  34.425  1.00  0.00     0.009 A 
ATOM     40  C   UNL A   1      43.965  33.053  32.506  1.00  0.00     0.009 A 
ATOM     41  C   UNL A   1      42.993  33.325  35.106  1.00  0.00     0.001 A 
ATOM     42  C   UNL A   1      44.147  34.252  33.197  1.00  0.00     0.001 A 
ATOM     43  C   UNL A   1      43.654  34.390  34.494  1.00  0.00     0.000 A 
ENDBRANCH  24  38
BRANCH  25  44
ATOM     44  C   UNL A   1      42.003  23.634  27.793  1.00  0.00    -0.014 A 
ATOM     45  C   UNL A   1      41.308  22.547  28.343  1.00  0.00     0.009 A 
ATOM     46  C   UNL A   1      42.479  23.544  26.476  1.00  0.00     0.009 A 
ATOM     47  C   UNL A   1      41.102  21.389  27.589  1.00  0.00     0.001 A 
ATOM     48  C   UNL A   1      42.246  22.397  25.716  1.00  0.00     0.001 A 
ATOM     49  C   UNL A   1      41.564  21.318  26.274  1.00  0.00     0.000 A 
ENDBRANCH  25  44
BRANCH  37  50
ATOM     50  C   UNL A   1      47.087  25.941  31.941  1.00  0.00    -0.014 A 
ATOM     51  C   UNL A   1      48.233  26.096  31.146  1.00  0.00     0.009 A 
ATOM     52  C   UNL A   1      47.183  25.231  33.147  1.00  0.00     0.009 A 
ATOM     53  C   UNL A   1      49.444  25.521  31.536  1.00  0.00     0.001 A 
ATOM     54  C   UNL A   1      48.401  24.678  33.546  1.00  0.00     0.001 A 
ATOM     55  C   UNL A   1      49.527  24.816  32.737  1.00  0.00     0.000 A 
ENDBRANCH  37  50
ENDBRANCH  11  12
ENDBRANCH   4   6
ENDBRANCH   1   2
BRANCH   1  56
ATOM     56  C   UNL A   1      33.845  27.899  26.563  1.00  0.00     0.042 C 
BRANCH  56  57
ATOM     57  C   UNL A   1      32.489  27.735  27.227  1.00  0.00     0.117 C 
BRANCH  57  58
ATOM     58  N   UNL A   1      31.433  27.421  26.278  1.00  0.00    -0.356 N 
ATOM     59  C   UNL A   1      31.013  26.237  25.768  1.00  0.00     0.225 C 
ATOM     60  H   UNL A   1      30.935  28.205  25.948  1.00  0.00     0.163 HD
ATOM     61  O   UNL A   1      29.952  26.251  25.134  1.00  0.00    -0.275 OA
BRANCH  59  62
ATOM     62  C   UNL A   1      31.751  24.921  25.962  1.00  0.00     0.106 C 
ATOM     63  C   UNL A   1      30.947  23.644  25.823  1.00  0.00     0.026 C 
ATOM     64  C   UNL A   1      33.074  24.822  25.182  1.00  0.00     0.128 C 
ATOM     65  C   UNL A   1      31.728  22.516  26.447  1.00  0.00     0.101 C 
ATOM     66  N   UNL A   1      33.769  23.521  25.414  1.00  0.00    -0.332 N 
ATOM     67  C   UNL A   1      33.134  22.382  25.908  1.00  0.00     0.223 C 
ATOM     68  O   UNL A   1      33.692  21.288  26.020  1.00  0.00    -0.275 OA
BRANCH  64  69
ATOM     69  C   UNL A   1      32.937  25.159  23.695  1.00  0.00    -0.025 A 
ATOM     70  C   UNL A   1      32.360  24.278  22.769  1.00  0.00     0.006 A 
ATOM     71  C   UNL A   1      33.386  26.410  23.228  1.00  0.00     0.006 A 
ATOM     72  C   UNL A   1      32.254  24.626  21.419  1.00  0.00     0.000 A 
ATOM     73  C   UNL A   1      33.259  26.765  21.882  1.00  0.00     0.000 A 
ATOM     74  C   UNL A   1      32.698  25.870  20.977  1.00  0.00     0.000 A 
ENDBRANCH  64  69
BRANCH  66  75
ATOM     75  C   UNL A   1      35.217  23.457  25.099  1.00  0.00     0.085 C 
ATOM     76  C   UNL A   1      36.066  23.547  26.382  1.00  0.00     0.025 C 
ATOM     77  C   UNL A   1      35.597  22.245  24.223  1.00  0.00     0.025 C 
ATOM     78  C   UNL A   1      37.560  23.407  26.109  1.00  0.00     0.002 C 
ATOM     79  C   UNL A   1      37.100  22.137  23.993  1.00  0.00     0.002 C 
ATOM     80  C   UNL A   1      37.865  22.145  25.311  1.00  0.00     0.000 C 
ENDBRANCH  66  75
ENDBRANCH  59  62
ENDBRANCH  57  58
ENDBRANCH  56  57
ENDBRANCH   1  56
TORSDOF 12
ENDMDL
