MODEL 1
REMARK VINA RESULT:     -11.1      0.000      0.000
REMARK SMILES CC[C@@H](C)[C@@H](C(=O)NCCCNC(=O)c1ccc(-c2c3nc(c(-c4ccccc4)c4ccc([nH]4)c(-c4ccccc4)c4nc(c(-c5ccccc5)c5ccc2[nH]5)C=C4)C=C3)cc1)N1C(=O)/C(=C/c2ccc(O)cc2)SC1=S
REMARK SMILES IDX 9 1 8 2 6 3 7 4 5 6 3 7 4 8 2 9 1 10 63 11 64 12 76 13 65 14
REMARK SMILES IDX 66 15 75 16 77 17 67 18 68 19 69 20 74 21 70 22 73 23 71 24
REMARK SMILES IDX 72 25 10 27 11 28 12 29 13 30 14 32 15 33 16 34 62 35 17 36
REMARK SMILES IDX 61 37 18 38 19 39 20 40 55 41 21 42 60 43 54 44 56 45 22 46
REMARK SMILES IDX 59 47 53 48 52 49 23 51 45 52 30 53 44 54 31 55 34 56 43 57
REMARK SMILES IDX 57 58 32 59 33 60 42 62 58 63 35 64 24 65 25 66 29 67 26 68
REMARK SMILES IDX 28 69 27 70 46 71 47 72 51 73 48 74 50 75 49 76 36 77 37 78
REMARK SMILES IDX 41 79 38 80 40 81 39 82
REMARK H PARENT 8 5 72 26 12 31 56 50 34 61
REMARK Flexibility Score: inf
ROOT
ATOM      1  C   UNL A   1      31.685  26.606  26.818  1.00  0.00     0.117 C 
ENDROOT
BRANCH   1   2
ATOM      2  N   UNL A   1      30.842  26.296  25.670  1.00  0.00    -0.354 N 
ATOM      3  C   UNL A   1      31.134  25.950  24.382  1.00  0.00     0.243 C 
ATOM      4  O   UNL A   1      30.206  26.008  23.567  1.00  0.00    -0.273 OA
ATOM      5  H   UNL A   1      29.877  26.345  25.861  1.00  0.00     0.163 HD
BRANCH   3   6
ATOM      6  C   UNL A   1      32.582  25.594  23.932  1.00  0.00     0.184 C 
BRANCH   6   7
ATOM      7  C   UNL A   1      32.582  25.920  22.368  1.00  0.00     0.018 C 
ATOM      8  C   UNL A   1      32.963  24.778  21.424  1.00  0.00     0.010 C 
BRANCH   7   9
ATOM      9  C   UNL A   1      33.486  27.150  22.095  1.00  0.00     0.002 C 
ATOM     10  C   UNL A   1      33.895  27.991  23.293  1.00  0.00     0.004 C 
ENDBRANCH   7   9
ENDBRANCH   6   7
BRANCH   6  11
ATOM     11  N   UNL A   1      32.944  24.168  24.239  1.00  0.00    -0.280 N 
ATOM     12  C   UNL A   1      31.997  23.186  24.502  1.00  0.00     0.266 C 
ATOM     13  C   UNL A   1      34.193  23.753  24.648  1.00  0.00     0.149 C 
ATOM     14  O   UNL A   1      30.852  23.351  24.896  1.00  0.00    -0.268 OA
ATOM     15  C   UNL A   1      32.629  21.830  24.472  1.00  0.00     0.081 C 
ATOM     16  S   UNL A   1      34.333  22.017  24.412  1.00  0.00    -0.054 SA
ATOM     17  S   UNL A   1      35.408  24.633  25.382  1.00  0.00    -0.052 S 
ATOM     18  C   UNL A   1      31.918  20.693  24.506  1.00  0.00     0.029 C 
BRANCH  18  19
ATOM     19  C   UNL A   1      32.453  19.324  24.421  1.00  0.00    -0.024 A 
ATOM     20  C   UNL A   1      32.771  18.647  25.605  1.00  0.00     0.012 A 
ATOM     21  C   UNL A   1      32.658  18.673  23.196  1.00  0.00     0.012 A 
ATOM     22  C   UNL A   1      33.224  17.325  25.568  1.00  0.00     0.047 A 
ATOM     23  C   UNL A   1      33.097  17.346  23.157  1.00  0.00     0.047 A 
ATOM     24  C   UNL A   1      33.365  16.680  24.347  1.00  0.00     0.115 A 
BRANCH  24  25
ATOM     25  O   UNL A   1      33.766  15.377  24.357  1.00  0.00    -0.508 OA
ATOM     26  H   UNL A   1      34.478  15.110  24.904  1.00  0.00     0.293 HD
ENDBRANCH  24  25
ENDBRANCH  18  19
ENDBRANCH   6  11
ENDBRANCH   3   6
ENDBRANCH   1   2
BRANCH   1  27
ATOM     27  C   UNL A   1      31.859  28.118  27.029  1.00  0.00     0.042 C 
BRANCH  27  28
ATOM     28  C   UNL A   1      33.291  28.566  27.323  1.00  0.00     0.118 C 
BRANCH  28  29
ATOM     29  N   UNL A   1      33.370  29.997  27.564  1.00  0.00    -0.352 N 
ATOM     30  C   UNL A   1      34.378  30.756  28.106  1.00  0.00     0.251 C 
ATOM     31  H   UNL A   1      32.571  30.505  27.294  1.00  0.00     0.163 HD
ATOM     32  O   UNL A   1      34.134  31.915  28.436  1.00  0.00    -0.269 OA
BRANCH  30  33
ATOM     33  C   UNL A   1      35.749  30.220  28.314  1.00  0.00     0.039 A 
ATOM     34  C   UNL A   1      36.080  29.717  29.579  1.00  0.00     0.014 A 
ATOM     35  C   UNL A   1      36.740  30.297  27.332  1.00  0.00     0.014 A 
ATOM     36  C   UNL A   1      37.379  29.271  29.848  1.00  0.00     0.010 A 
ATOM     37  C   UNL A   1      38.022  29.796  27.581  1.00  0.00     0.010 A 
ATOM     38  C   UNL A   1      38.363  29.293  28.846  1.00  0.00    -0.014 A 
BRANCH  38  39
ATOM     39  C   UNL A   1      39.749  28.827  29.123  1.00  0.00     0.031 A 
ATOM     40  C   UNL A   1      40.738  29.732  29.812  1.00  0.00     0.074 A 
ATOM     41  C   UNL A   1      40.142  27.598  28.732  1.00  0.00     0.049 A 
ATOM     42  N   UNL A   1      41.998  29.513  30.102  1.00  0.00    -0.248 NA
ATOM     43  C   UNL A   1      40.254  31.062  30.212  1.00  0.00     0.031 C 
ATOM     44  C   UNL A   1      39.304  26.621  28.036  1.00  0.00     0.029 A 
ATOM     45  N   UNL A   1      41.352  26.963  28.864  1.00  0.00    -0.354 N 
ATOM     46  C   UNL A   1      42.460  30.682  30.694  1.00  0.00     0.074 A 
ATOM     47  C   UNL A   1      41.357  31.619  30.691  1.00  0.00     0.031 C 
ATOM     48  C   UNL A   1      40.017  25.504  27.822  1.00  0.00     0.029 A 
ATOM     49  C   UNL A   1      41.371  25.695  28.336  1.00  0.00     0.049 A 
ATOM     50  H   UNL A   1      42.134  27.377  29.296  1.00  0.00     0.167 HD
ATOM     51  C   UNL A   1      43.685  30.952  31.207  1.00  0.00     0.031 A 
ATOM     52  C   UNL A   1      42.363  24.787  28.267  1.00  0.00     0.031 A 
ATOM     53  C   UNL A   1      44.783  30.024  31.238  1.00  0.00     0.049 A 
ATOM     54  C   UNL A   1      43.713  25.109  28.843  1.00  0.00     0.074 A 
ATOM     55  C   UNL A   1      46.041  30.194  31.791  1.00  0.00     0.029 A 
ATOM     56  N   UNL A   1      44.754  28.749  30.698  1.00  0.00    -0.354 N 
ATOM     57  N   UNL A   1      44.114  26.202  29.444  1.00  0.00    -0.248 NA
ATOM     58  C   UNL A   1      44.743  24.065  28.740  1.00  0.00     0.031 C 
ATOM     59  C   UNL A   1      46.787  29.035  31.551  1.00  0.00     0.029 A 
ATOM     60  C   UNL A   1      45.978  28.129  30.887  1.00  0.00     0.049 A 
ATOM     61  H   UNL A   1      43.978  28.344  30.246  1.00  0.00     0.167 HD
ATOM     62  C   UNL A   1      45.433  25.969  29.811  1.00  0.00     0.074 A 
ATOM     63  C   UNL A   1      45.761  24.627  29.376  1.00  0.00     0.031 C 
ATOM     64  C   UNL A   1      46.295  26.795  30.452  1.00  0.00     0.031 A 
BRANCH  51  65
ATOM     65  C   UNL A   1      43.905  32.325  31.778  1.00  0.00    -0.014 A 
ATOM     66  C   UNL A   1      44.332  33.389  30.969  1.00  0.00     0.009 A 
ATOM     67  C   UNL A   1      43.645  32.565  33.137  1.00  0.00     0.009 A 
ATOM     68  C   UNL A   1      44.530  34.658  31.517  1.00  0.00     0.001 A 
ATOM     69  C   UNL A   1      43.819  33.841  33.677  1.00  0.00     0.001 A 
ATOM     70  C   UNL A   1      44.270  34.883  32.869  1.00  0.00     0.000 A 
ENDBRANCH  51  65
BRANCH  52  71
ATOM     71  C   UNL A   1      42.114  23.466  27.634  1.00  0.00    -0.014 A 
ATOM     72  C   UNL A   1      42.422  23.258  26.282  1.00  0.00     0.009 A 
ATOM     73  C   UNL A   1      41.564  22.412  28.379  1.00  0.00     0.009 A 
ATOM     74  C   UNL A   1      42.161  22.026  25.680  1.00  0.00     0.001 A 
ATOM     75  C   UNL A   1      41.327  21.173  27.779  1.00  0.00     0.001 A 
ATOM     76  C   UNL A   1      41.619  20.983  26.430  1.00  0.00     0.000 A 
ENDBRANCH  52  71
BRANCH  64  77
ATOM     77  C   UNL A   1      47.666  26.260  30.749  1.00  0.00    -0.014 A 
ATOM     78  C   UNL A   1      47.980  25.727  32.009  1.00  0.00     0.009 A 
ATOM     79  C   UNL A   1      48.646  26.258  29.744  1.00  0.00     0.009 A 
ATOM     80  C   UNL A   1      49.259  25.228  32.264  1.00  0.00     0.001 A 
ATOM     81  C   UNL A   1      49.917  25.739  29.996  1.00  0.00     0.001 A 
ATOM     82  C   UNL A   1      50.225  25.232  31.257  1.00  0.00     0.000 A 
ENDBRANCH  64  77
ENDBRANCH  38  39
ENDBRANCH  30  33
ENDBRANCH  28  29
ENDBRANCH  27  28
ENDBRANCH   1  27
TORSDOF 15
ENDMDL
MODEL 2
REMARK VINA RESULT:     -11.1      2.386      8.023
REMARK SMILES CC[C@@H](C)[C@@H](C(=O)NCCCNC(=O)c1ccc(-c2c3nc(c(-c4ccccc4)c4ccc([nH]4)c(-c4ccccc4)c4nc(c(-c5ccccc5)c5ccc2[nH]5)C=C4)C=C3)cc1)N1C(=O)/C(=C/c2ccc(O)cc2)SC1=S
REMARK SMILES IDX 9 1 8 2 6 3 7 4 5 6 3 7 4 8 2 9 1 10 63 11 64 12 76 13 65 14
REMARK SMILES IDX 66 15 75 16 77 17 67 18 68 19 69 20 74 21 70 22 73 23 71 24
REMARK SMILES IDX 72 25 10 27 11 28 12 29 13 30 14 32 15 33 16 34 62 35 17 36
REMARK SMILES IDX 61 37 18 38 19 39 20 40 55 41 21 42 60 43 54 44 56 45 22 46
REMARK SMILES IDX 59 47 53 48 52 49 23 51 45 52 30 53 44 54 31 55 34 56 43 57
REMARK SMILES IDX 57 58 32 59 33 60 42 62 58 63 35 64 24 65 25 66 29 67 26 68
REMARK SMILES IDX 28 69 27 70 46 71 47 72 51 73 48 74 50 75 49 76 36 77 37 78
REMARK SMILES IDX 41 79 38 80 40 81 39 82
REMARK H PARENT 8 5 72 26 12 31 56 50 34 61
REMARK Flexibility Score: inf
ROOT
ATOM      1  C   UNL A   1      36.266  20.514  25.210  1.00  0.00     0.117 C 
ENDROOT
BRANCH   1   2
ATOM      2  N   UNL A   1      36.208  21.659  24.309  1.00  0.00    -0.354 N 
ATOM      3  C   UNL A   1      35.172  22.434  23.874  1.00  0.00     0.243 C 
ATOM      4  O   UNL A   1      35.395  23.168  22.904  1.00  0.00    -0.273 OA
ATOM      5  H   UNL A   1      37.084  21.923  23.945  1.00  0.00     0.163 HD
BRANCH   3   6
ATOM      6  C   UNL A   1      33.749  22.337  24.500  1.00  0.00     0.184 C 
BRANCH   6   7
ATOM      7  C   UNL A   1      32.839  21.822  23.291  1.00  0.00     0.018 C 
ATOM      8  C   UNL A   1      31.796  22.800  22.748  1.00  0.00     0.010 C 
BRANCH   7   9
ATOM      9  C   UNL A   1      32.153  20.490  23.688  1.00  0.00     0.002 C 
ATOM     10  C   UNL A   1      32.820  19.662  24.775  1.00  0.00     0.004 C 
ENDBRANCH   7   9
ENDBRANCH   6   7
BRANCH   6  11
ATOM     11  N   UNL A   1      33.284  23.644  25.077  1.00  0.00    -0.280 N 
ATOM     12  C   UNL A   1      34.142  24.704  25.338  1.00  0.00     0.266 C 
ATOM     13  C   UNL A   1      32.085  23.823  25.734  1.00  0.00     0.149 C 
ATOM     14  O   UNL A   1      35.350  24.649  25.518  1.00  0.00    -0.268 OA
ATOM     15  C   UNL A   1      33.362  25.950  25.617  1.00  0.00     0.081 C 
ATOM     16  S   UNL A   1      31.708  25.538  25.794  1.00  0.00    -0.054 SA
ATOM     17  S   UNL A   1      31.126  22.691  26.503  1.00  0.00    -0.052 S 
ATOM     18  C   UNL A   1      33.933  27.161  25.715  1.00  0.00     0.029 C 
BRANCH  18  19
ATOM     19  C   UNL A   1      33.237  28.441  25.927  1.00  0.00    -0.024 A 
ATOM     20  C   UNL A   1      32.301  28.868  24.976  1.00  0.00     0.012 A 
ATOM     21  C   UNL A   1      33.479  29.251  27.046  1.00  0.00     0.012 A 
ATOM     22  C   UNL A   1      31.576  30.047  25.172  1.00  0.00     0.047 A 
ATOM     23  C   UNL A   1      32.745  30.423  27.251  1.00  0.00     0.047 A 
ATOM     24  C   UNL A   1      31.790  30.804  26.317  1.00  0.00     0.115 A 
BRANCH  24  25
ATOM     25  O   UNL A   1      31.031  31.923  26.492  1.00  0.00    -0.508 OA
ATOM     26  H   UNL A   1      30.209  32.006  26.050  1.00  0.00     0.293 HD
ENDBRANCH  24  25
ENDBRANCH  18  19
ENDBRANCH   6  11
ENDBRANCH   3   6
ENDBRANCH   1   2
BRANCH   1  27
ATOM     27  C   UNL A   1      37.529  19.665  25.001  1.00  0.00     0.042 C 
BRANCH  27  28
ATOM     28  C   UNL A   1      38.836  20.345  25.410  1.00  0.00     0.118 C 
BRANCH  28  29
ATOM     29  N   UNL A   1      39.870  19.377  25.736  1.00  0.00    -0.352 N 
ATOM     30  C   UNL A   1      41.171  19.562  26.134  1.00  0.00     0.251 C 
ATOM     31  H   UNL A   1      39.591  18.435  25.659  1.00  0.00     0.163 HD
ATOM     32  O   UNL A   1      41.935  18.598  26.124  1.00  0.00    -0.269 OA
BRANCH  30  33
ATOM     33  C   UNL A   1      41.686  20.886  26.569  1.00  0.00     0.039 A 
ATOM     34  C   UNL A   1      41.596  21.220  27.926  1.00  0.00     0.014 A 
ATOM     35  C   UNL A   1      42.154  21.842  25.663  1.00  0.00     0.014 A 
ATOM     36  C   UNL A   1      41.997  22.484  28.375  1.00  0.00     0.010 A 
ATOM     37  C   UNL A   1      42.611  23.083  26.119  1.00  0.00     0.010 A 
ATOM     38  C   UNL A   1      42.522  23.426  27.477  1.00  0.00    -0.014 A 
BRANCH  38  39
ATOM     39  C   UNL A   1      42.945  24.775  27.943  1.00  0.00     0.031 A 
ATOM     40  C   UNL A   1      41.919  25.833  28.257  1.00  0.00     0.074 A 
ATOM     41  C   UNL A   1      44.255  25.072  28.058  1.00  0.00     0.049 A 
ATOM     42  N   UNL A   1      42.100  27.075  28.637  1.00  0.00    -0.248 NA
ATOM     43  C   UNL A   1      40.506  25.453  28.108  1.00  0.00     0.031 C 
ATOM     44  C   UNL A   1      45.361  24.159  27.767  1.00  0.00     0.029 A 
ATOM     45  N   UNL A   1      44.876  26.233  28.450  1.00  0.00    -0.354 N 
ATOM     46  C   UNL A   1      40.830  27.627  28.749  1.00  0.00     0.074 A 
ATOM     47  C   UNL A   1      39.889  26.597  28.364  1.00  0.00     0.031 C 
ATOM     48  C   UNL A   1      46.523  24.785  28.012  1.00  0.00     0.029 A 
ATOM     49  C   UNL A   1      46.248  26.153  28.445  1.00  0.00     0.049 A 
ATOM     50  H   UNL A   1      44.386  27.046  28.709  1.00  0.00     0.167 HD
ATOM     51  C   UNL A   1      40.473  28.873  29.149  1.00  0.00     0.031 A 
ATOM     52  C   UNL A   1      47.182  27.073  28.750  1.00  0.00     0.031 A 
ATOM     53  C   UNL A   1      41.395  29.898  29.557  1.00  0.00     0.049 A 
ATOM     54  C   UNL A   1      46.762  28.447  29.191  1.00  0.00     0.074 A 
ATOM     55  C   UNL A   1      41.118  31.169  30.032  1.00  0.00     0.029 A 
ATOM     56  N   UNL A   1      42.774  29.770  29.542  1.00  0.00    -0.354 N 
ATOM     57  N   UNL A   1      45.555  28.933  29.339  1.00  0.00    -0.248 NA
ATOM     58  C   UNL A   1      47.838  29.396  29.517  1.00  0.00     0.031 C 
ATOM     59  C   UNL A   1      42.331  31.824  30.269  1.00  0.00     0.029 A 
ATOM     60  C   UNL A   1      43.362  30.945  29.981  1.00  0.00     0.049 A 
ATOM     61  H   UNL A   1      43.264  28.963  29.261  1.00  0.00     0.167 HD
ATOM     62  C   UNL A   1      45.724  30.233  29.798  1.00  0.00     0.074 A 
ATOM     63  C   UNL A   1      47.150  30.457  29.914  1.00  0.00     0.031 C 
ATOM     64  C   UNL A   1      44.780  31.158  30.095  1.00  0.00     0.031 A 
BRANCH  51  65
ATOM     65  C   UNL A   1      39.006  29.198  29.159  1.00  0.00    -0.014 A 
ATOM     66  C   UNL A   1      38.234  29.037  30.320  1.00  0.00     0.009 A 
ATOM     67  C   UNL A   1      38.397  29.709  28.001  1.00  0.00     0.009 A 
ATOM     68  C   UNL A   1      36.872  29.347  30.311  1.00  0.00     0.001 A 
ATOM     69  C   UNL A   1      37.040  30.041  28.002  1.00  0.00     0.001 A 
ATOM     70  C   UNL A   1      36.278  29.851  29.154  1.00  0.00     0.000 A 
ENDBRANCH  51  65
BRANCH  52  71
ATOM     71  C   UNL A   1      48.623  26.722  28.663  1.00  0.00    -0.014 A 
ATOM     72  C   UNL A   1      49.336  26.943  27.476  1.00  0.00     0.009 A 
ATOM     73  C   UNL A   1      49.287  26.161  29.764  1.00  0.00     0.009 A 
ATOM     74  C   UNL A   1      50.683  26.587  27.385  1.00  0.00     0.001 A 
ATOM     75  C   UNL A   1      50.641  25.828  29.677  1.00  0.00     0.001 A 
ATOM     76  C   UNL A   1      51.335  26.034  28.486  1.00  0.00     0.000 A 
ENDBRANCH  52  71
BRANCH  64  77
ATOM     77  C   UNL A   1      45.257  32.487  30.605  1.00  0.00    -0.014 A 
ATOM     78  C   UNL A   1      45.521  32.689  31.968  1.00  0.00     0.009 A 
ATOM     79  C   UNL A   1      45.479  33.540  29.704  1.00  0.00     0.009 A 
ATOM     80  C   UNL A   1      45.971  33.931  32.423  1.00  0.00     0.001 A 
ATOM     81  C   UNL A   1      45.950  34.773  30.158  1.00  0.00     0.001 A 
ATOM     82  C   UNL A   1      46.188  34.970  31.517  1.00  0.00     0.000 A 
ENDBRANCH  64  77
ENDBRANCH  38  39
ENDBRANCH  30  33
ENDBRANCH  28  29
ENDBRANCH  27  28
ENDBRANCH   1  27
TORSDOF 15
ENDMDL
MODEL 3
REMARK VINA RESULT:     -11.0      2.182      8.123
REMARK SMILES CC[C@@H](C)[C@@H](C(=O)NCCCNC(=O)c1ccc(-c2c3nc(c(-c4ccccc4)c4ccc([nH]4)c(-c4ccccc4)c4nc(c(-c5ccccc5)c5ccc2[nH]5)C=C4)C=C3)cc1)N1C(=O)/C(=C/c2ccc(O)cc2)SC1=S
REMARK SMILES IDX 9 1 8 2 6 3 7 4 5 6 3 7 4 8 2 9 1 10 63 11 64 12 76 13 65 14
REMARK SMILES IDX 66 15 75 16 77 17 67 18 68 19 69 20 74 21 70 22 73 23 71 24
REMARK SMILES IDX 72 25 10 27 11 28 12 29 13 30 14 32 15 33 16 34 62 35 17 36
REMARK SMILES IDX 61 37 18 38 19 39 20 40 55 41 21 42 60 43 54 44 56 45 22 46
REMARK SMILES IDX 59 47 53 48 52 49 23 51 45 52 30 53 44 54 31 55 34 56 43 57
REMARK SMILES IDX 57 58 32 59 33 60 42 62 58 63 35 64 24 65 25 66 29 67 26 68
REMARK SMILES IDX 28 69 27 70 46 71 47 72 51 73 48 74 50 75 49 76 36 77 37 78
REMARK SMILES IDX 41 79 38 80 40 81 39 82
REMARK H PARENT 8 5 72 26 12 31 56 50 34 61
REMARK Flexibility Score: inf
ROOT
ATOM      1  C   UNL A   1      36.064  20.856  25.234  1.00  0.00     0.117 C 
ENDROOT
BRANCH   1   2
ATOM      2  N   UNL A   1      35.973  21.901  24.221  1.00  0.00    -0.354 N 
ATOM      3  C   UNL A   1      34.914  22.589  23.702  1.00  0.00     0.243 C 
ATOM      4  O   UNL A   1      35.121  23.227  22.664  1.00  0.00    -0.273 OA
ATOM      5  H   UNL A   1      36.843  22.159  23.837  1.00  0.00     0.163 HD
BRANCH   3   6
ATOM      6  C   UNL A   1      33.489  22.502  24.325  1.00  0.00     0.184 C 
BRANCH   6   7
ATOM      7  C   UNL A   1      32.564  22.078  23.093  1.00  0.00     0.018 C 
ATOM      8  C   UNL A   1      31.284  22.887  22.881  1.00  0.00     0.010 C 
BRANCH   7   9
ATOM      9  C   UNL A   1      32.220  20.569  23.198  1.00  0.00     0.002 C 
ATOM     10  C   UNL A   1      32.506  19.882  24.524  1.00  0.00     0.004 C 
ENDBRANCH   7   9
ENDBRANCH   6   7
BRANCH   6  11
ATOM     11  N   UNL A   1      33.064  23.792  24.969  1.00  0.00    -0.280 N 
ATOM     12  C   UNL A   1      33.932  24.856  25.176  1.00  0.00     0.266 C 
ATOM     13  C   UNL A   1      31.927  23.943  25.733  1.00  0.00     0.149 C 
ATOM     14  O   UNL A   1      35.152  24.811  25.248  1.00  0.00    -0.268 OA
ATOM     15  C   UNL A   1      33.168  26.087  25.550  1.00  0.00     0.081 C 
ATOM     16  S   UNL A   1      31.540  25.652  25.863  1.00  0.00    -0.054 SA
ATOM     17  S   UNL A   1      31.051  22.785  26.559  1.00  0.00    -0.052 S 
ATOM     18  C   UNL A   1      33.734  27.302  25.623  1.00  0.00     0.029 C 
BRANCH  18  19
ATOM     19  C   UNL A   1      33.047  28.569  25.923  1.00  0.00    -0.024 A 
ATOM     20  C   UNL A   1      33.439  29.301  27.052  1.00  0.00     0.012 A 
ATOM     21  C   UNL A   1      32.011  29.070  25.122  1.00  0.00     0.012 A 
ATOM     22  C   UNL A   1      32.853  30.537  27.336  1.00  0.00     0.047 A 
ATOM     23  C   UNL A   1      31.433  30.314  25.396  1.00  0.00     0.047 A 
ATOM     24  C   UNL A   1      31.869  31.042  26.495  1.00  0.00     0.115 A 
BRANCH  24  25
ATOM     25  O   UNL A   1      31.355  32.271  26.783  1.00  0.00    -0.508 OA
ATOM     26  H   UNL A   1      30.546  32.543  26.397  1.00  0.00     0.293 HD
ENDBRANCH  24  25
ENDBRANCH  18  19
ENDBRANCH   6  11
ENDBRANCH   3   6
ENDBRANCH   1   2
BRANCH   1  27
ATOM     27  C   UNL A   1      37.262  19.922  25.009  1.00  0.00     0.042 C 
BRANCH  27  28
ATOM     28  C   UNL A   1      38.632  20.579  25.180  1.00  0.00     0.118 C 
BRANCH  28  29
ATOM     29  N   UNL A   1      39.654  19.611  25.541  1.00  0.00    -0.352 N 
ATOM     30  C   UNL A   1      40.917  19.795  26.049  1.00  0.00     0.251 C 
ATOM     31  H   UNL A   1      39.399  18.670  25.400  1.00  0.00     0.163 HD
ATOM     32  O   UNL A   1      41.696  18.844  26.054  1.00  0.00    -0.269 OA
BRANCH  30  33
ATOM     33  C   UNL A   1      41.372  21.104  26.584  1.00  0.00     0.039 A 
ATOM     34  C   UNL A   1      41.167  21.374  27.943  1.00  0.00     0.014 A 
ATOM     35  C   UNL A   1      41.896  22.107  25.763  1.00  0.00     0.014 A 
ATOM     36  C   UNL A   1      41.508  22.620  28.480  1.00  0.00     0.010 A 
ATOM     37  C   UNL A   1      42.294  23.332  26.311  1.00  0.00     0.010 A 
ATOM     38  C   UNL A   1      42.089  23.610  27.671  1.00  0.00    -0.014 A 
BRANCH  38  39
ATOM     39  C   UNL A   1      42.450  24.942  28.231  1.00  0.00     0.031 A 
ATOM     40  C   UNL A   1      43.876  25.255  28.602  1.00  0.00     0.074 A 
ATOM     41  C   UNL A   1      41.495  25.871  28.438  1.00  0.00     0.049 A 
ATOM     42  N   UNL A   1      44.372  26.345  29.137  1.00  0.00    -0.248 NA
ATOM     43  C   UNL A   1      44.873  24.202  28.357  1.00  0.00     0.031 C 
ATOM     44  C   UNL A   1      40.071  25.702  28.150  1.00  0.00     0.029 A 
ATOM     45  N   UNL A   1      41.584  27.144  28.946  1.00  0.00    -0.354 N 
ATOM     46  C   UNL A   1      45.728  26.099  29.313  1.00  0.00     0.074 A 
ATOM     47  C   UNL A   1      45.972  24.745  28.861  1.00  0.00     0.031 C 
ATOM     48  C   UNL A   1      39.422  26.836  28.463  1.00  0.00     0.029 A 
ATOM     49  C   UNL A   1      40.377  27.799  29.004  1.00  0.00     0.049 A 
ATOM     50  H   UNL A   1      42.431  27.549  29.241  1.00  0.00     0.167 HD
ATOM     51  C   UNL A   1      46.690  26.924  29.794  1.00  0.00     0.031 A 
ATOM     52  C   UNL A   1      40.069  29.033  29.446  1.00  0.00     0.031 A 
ATOM     53  C   UNL A   1      46.468  28.278  30.225  1.00  0.00     0.049 A 
ATOM     54  C   UNL A   1      41.153  29.931  29.974  1.00  0.00     0.074 A 
ATOM     55  C   UNL A   1      47.394  29.204  30.672  1.00  0.00     0.029 A 
ATOM     56  N   UNL A   1      45.231  28.901  30.260  1.00  0.00    -0.354 N 
ATOM     57  N   UNL A   1      42.437  29.696  30.084  1.00  0.00    -0.248 NA
ATOM     58  C   UNL A   1      40.742  31.268  30.429  1.00  0.00     0.031 C 
ATOM     59  C   UNL A   1      46.713  30.377  31.014  1.00  0.00     0.029 A 
ATOM     60  C   UNL A   1      45.368  30.194  30.739  1.00  0.00     0.049 A 
ATOM     61  H   UNL A   1      44.381  28.487  29.986  1.00  0.00     0.167 HD
ATOM     62  C   UNL A   1      42.991  30.862  30.598  1.00  0.00     0.074 A 
ATOM     63  C   UNL A   1      41.906  31.806  30.766  1.00  0.00     0.031 C 
ATOM     64  C   UNL A   1      44.285  31.125  30.902  1.00  0.00     0.031 A 
BRANCH  51  65
ATOM     65  C   UNL A   1      48.087  26.375  29.885  1.00  0.00    -0.014 A 
ATOM     66  C   UNL A   1      48.982  26.486  28.810  1.00  0.00     0.009 A 
ATOM     67  C   UNL A   1      48.523  25.772  31.075  1.00  0.00     0.009 A 
ATOM     68  C   UNL A   1      50.276  25.972  28.913  1.00  0.00     0.001 A 
ATOM     69  C   UNL A   1      49.826  25.280  31.184  1.00  0.00     0.001 A 
ATOM     70  C   UNL A   1      50.697  25.373  30.100  1.00  0.00     0.000 A 
ENDBRANCH  51  65
BRANCH  52  71
ATOM     71  C   UNL A   1      38.663  29.508  29.395  1.00  0.00    -0.014 A 
ATOM     72  C   UNL A   1      38.180  30.172  28.258  1.00  0.00     0.009 A 
ATOM     73  C   UNL A   1      37.801  29.304  30.483  1.00  0.00     0.009 A 
ATOM     74  C   UNL A   1      36.866  30.644  28.221  1.00  0.00     0.001 A 
ATOM     75  C   UNL A   1      36.480  29.756  30.433  1.00  0.00     0.001 A 
ATOM     76  C   UNL A   1      36.017  30.431  29.306  1.00  0.00     0.000 A 
ENDBRANCH  52  71
BRANCH  64  77
ATOM     77  C   UNL A   1      44.603  32.498  31.419  1.00  0.00    -0.014 A 
ATOM     78  C   UNL A   1      44.911  33.551  30.543  1.00  0.00     0.009 A 
ATOM     79  C   UNL A   1      44.560  32.751  32.799  1.00  0.00     0.009 A 
ATOM     80  C   UNL A   1      45.198  34.823  31.043  1.00  0.00     0.001 A 
ATOM     81  C   UNL A   1      44.825  34.028  33.294  1.00  0.00     0.001 A 
ATOM     82  C   UNL A   1      45.152  35.061  32.417  1.00  0.00     0.000 A 
ENDBRANCH  64  77
ENDBRANCH  38  39
ENDBRANCH  30  33
ENDBRANCH  28  29
ENDBRANCH  27  28
ENDBRANCH   1  27
TORSDOF 15
ENDMDL
