MODEL 1
REMARK VINA RESULT:     -11.3      0.000      0.000
REMARK SMILES CC[C@](C)(NC(=O)CNC(=O)c1cccc(Cl)c1)C(=O)NCCCNC(=O)c1ccc(-c2c3nc(c(-c4ccccc4)c4ccc([nH]4)c(-c4ccccc4)c4nc(c(-c5ccccc5)c5ccc2[nH]5)C=C4)C=C3)cc1
REMARK SMILES IDX 22 1 21 2 19 3 20 4 3 6 4 7 2 8 1 9 5 10 6 11 7 13 8 14 9 15
REMARK SMILES IDX 10 16 11 18 12 19 13 20 18 21 14 22 16 23 15 24 17 25 23 26
REMARK SMILES IDX 24 27 25 28 26 29 27 31 28 32 29 33 75 34 30 35 74 36 31 37
REMARK SMILES IDX 32 38 33 39 68 40 34 41 73 42 67 43 69 44 35 45 72 46 66 47
REMARK SMILES IDX 65 48 36 50 58 51 43 52 57 53 44 54 47 55 56 56 70 57 45 58
REMARK SMILES IDX 46 59 55 61 71 62 48 63 37 64 38 65 42 66 39 67 41 68 40 69
REMARK SMILES IDX 59 70 60 71 64 72 61 73 63 74 62 75 49 76 50 77 54 78 51 79
REMARK SMILES IDX 53 80 52 81
REMARK H PARENT 21 5 5 12 9 17 25 30 69 49 47 60
REMARK Flexibility Score: inf
ROOT
ATOM      1  C   UNL A   1      31.582  30.663  26.023  1.00  0.00     0.117 C 
ENDROOT
BRANCH   1   2
ATOM      2  N   UNL A   1      31.029  30.278  24.731  1.00  0.00    -0.354 N 
ATOM      3  C   UNL A   1      31.131  29.111  24.008  1.00  0.00     0.245 C 
ATOM      4  O   UNL A   1      30.190  28.801  23.274  1.00  0.00    -0.272 OA
ATOM      5  H   UNL A   1      30.486  30.976  24.297  1.00  0.00     0.163 HD
BRANCH   3   6
ATOM      6  C   UNL A   1      32.258  28.095  24.236  1.00  0.00     0.116 C 
ATOM      7  C   UNL A   1      33.645  28.646  23.854  1.00  0.00     0.045 C 
BRANCH   6   8
ATOM      8  C   UNL A   1      31.852  26.964  23.232  1.00  0.00     0.035 C 
ATOM      9  C   UNL A   1      32.917  26.320  22.368  1.00  0.00     0.007 C 
ENDBRANCH   6   8
BRANCH   6  10
ATOM     10  N   UNL A   1      32.300  27.706  25.650  1.00  0.00    -0.340 N 
ATOM     11  C   UNL A   1      31.296  27.137  26.403  1.00  0.00     0.240 C 
ATOM     12  H   UNL A   1      33.149  27.872  26.119  1.00  0.00     0.164 HD
ATOM     13  O   UNL A   1      31.385  27.286  27.628  1.00  0.00    -0.273 OA
BRANCH  11  14
ATOM     14  C   UNL A   1      30.212  26.164  25.825  1.00  0.00     0.216 C 
BRANCH  14  15
ATOM     15  N   UNL A   1      29.995  24.809  26.312  1.00  0.00    -0.343 N 
ATOM     16  C   UNL A   1      30.843  23.716  26.356  1.00  0.00     0.251 C 
ATOM     17  H   UNL A   1      29.095  24.643  26.672  1.00  0.00     0.164 HD
ATOM     18  O   UNL A   1      30.619  22.821  27.168  1.00  0.00    -0.269 OA
BRANCH  16  19
ATOM     19  C   UNL A   1      31.935  23.498  25.374  1.00  0.00     0.041 A 
ATOM     20  C   UNL A   1      31.780  22.834  24.155  1.00  0.00     0.014 A 
ATOM     21  C   UNL A   1      33.194  24.009  25.720  1.00  0.00     0.034 A 
ATOM     22  C   UNL A   1      32.908  22.556  23.364  1.00  0.00     0.002 A 
ATOM     23  C   UNL A   1      34.318  23.686  24.959  1.00  0.00     0.041 A 
ATOM     24  C   UNL A   1      34.182  22.942  23.789  1.00  0.00     0.020 A 
ATOM     25  Cl  UNL A   1      35.887  24.120  25.516  1.00  0.00    -0.084 Cl
ENDBRANCH  16  19
ENDBRANCH  14  15
ENDBRANCH  11  14
ENDBRANCH   6  10
ENDBRANCH   3   6
ENDBRANCH   1   2
BRANCH   1  26
ATOM     26  C   UNL A   1      31.402  32.107  26.498  1.00  0.00     0.042 C 
BRANCH  26  27
ATOM     27  C   UNL A   1      32.574  32.809  27.168  1.00  0.00     0.118 C 
BRANCH  27  28
ATOM     28  N   UNL A   1      32.276  34.137  27.667  1.00  0.00    -0.352 N 
ATOM     29  C   UNL A   1      32.957  34.908  28.576  1.00  0.00     0.251 C 
ATOM     30  H   UNL A   1      31.462  34.548  27.298  1.00  0.00     0.163 HD
ATOM     31  O   UNL A   1      32.506  36.013  28.876  1.00  0.00    -0.269 OA
BRANCH  29  32
ATOM     32  C   UNL A   1      34.190  34.420  29.235  1.00  0.00     0.039 A 
ATOM     33  C   UNL A   1      34.055  33.740  30.448  1.00  0.00     0.014 A 
ATOM     34  C   UNL A   1      35.466  34.633  28.701  1.00  0.00     0.014 A 
ATOM     35  C   UNL A   1      35.181  33.218  31.089  1.00  0.00     0.010 A 
ATOM     36  C   UNL A   1      36.586  34.054  29.309  1.00  0.00     0.010 A 
ATOM     37  C   UNL A   1      36.455  33.334  30.507  1.00  0.00    -0.014 A 
BRANCH  37  38
ATOM     38  C   UNL A   1      37.624  32.661  31.137  1.00  0.00     0.031 A 
ATOM     39  C   UNL A   1      38.168  33.114  32.465  1.00  0.00     0.074 A 
ATOM     40  C   UNL A   1      38.207  31.625  30.500  1.00  0.00     0.049 A 
ATOM     41  N   UNL A   1      39.129  32.587  33.185  1.00  0.00    -0.248 NA
ATOM     42  C   UNL A   1      37.569  34.319  33.056  1.00  0.00     0.031 C 
ATOM     43  C   UNL A   1      37.813  31.111  29.186  1.00  0.00     0.029 A 
ATOM     44  N   UNL A   1      39.245  30.808  30.877  1.00  0.00    -0.354 N 
ATOM     45  C   UNL A   1      39.250  33.394  34.309  1.00  0.00     0.074 A 
ATOM     46  C   UNL A   1      38.301  34.476  34.150  1.00  0.00     0.031 C 
ATOM     47  C   UNL A   1      38.564  30.039  28.890  1.00  0.00     0.029 A 
ATOM     48  C   UNL A   1      39.518  29.812  29.970  1.00  0.00     0.049 A 
ATOM     49  H   UNL A   1      39.745  30.924  31.717  1.00  0.00     0.167 HD
ATOM     50  C   UNL A   1      40.062  33.242  35.384  1.00  0.00     0.031 A 
ATOM     51  C   UNL A   1      40.427  28.819  30.002  1.00  0.00     0.031 A 
ATOM     52  C   UNL A   1      41.017  32.174  35.541  1.00  0.00     0.049 A 
ATOM     53  C   UNL A   1      41.325  28.681  31.200  1.00  0.00     0.074 A 
ATOM     54  C   UNL A   1      41.851  31.913  36.615  1.00  0.00     0.029 A 
ATOM     55  N   UNL A   1      41.275  31.197  34.591  1.00  0.00    -0.354 N 
ATOM     56  N   UNL A   1      41.369  29.408  32.290  1.00  0.00    -0.248 NA
ATOM     57  C   UNL A   1      42.288  27.571  31.177  1.00  0.00     0.031 C 
ATOM     58  C   UNL A   1      42.655  30.814  36.292  1.00  0.00     0.029 A 
ATOM     59  C   UNL A   1      42.273  30.348  35.045  1.00  0.00     0.049 A 
ATOM     60  H   UNL A   1      40.817  31.118  33.724  1.00  0.00     0.167 HD
ATOM     61  C   UNL A   1      42.340  28.824  33.094  1.00  0.00     0.074 A 
ATOM     62  C   UNL A   1      42.841  27.671  32.376  1.00  0.00     0.031 C 
ATOM     63  C   UNL A   1      42.776  29.210  34.319  1.00  0.00     0.031 A 
BRANCH  50  64
ATOM     64  C   UNL A   1      39.961  34.270  36.481  1.00  0.00    -0.014 A 
ATOM     65  C   UNL A   1      40.738  35.439  36.459  1.00  0.00     0.009 A 
ATOM     66  C   UNL A   1      39.043  34.088  37.529  1.00  0.00     0.009 A 
ATOM     67  C   UNL A   1      40.627  36.384  37.481  1.00  0.00     0.001 A 
ATOM     68  C   UNL A   1      38.912  35.050  38.533  1.00  0.00     0.001 A 
ATOM     69  C   UNL A   1      39.711  36.192  38.514  1.00  0.00     0.000 A 
ENDBRANCH  50  64
BRANCH  51  70
ATOM     70  C   UNL A   1      40.523  27.857  28.872  1.00  0.00    -0.014 A 
ATOM     71  C   UNL A   1      39.788  26.661  28.884  1.00  0.00     0.009 A 
ATOM     72  C   UNL A   1      41.362  28.125  27.779  1.00  0.00     0.009 A 
ATOM     73  C   UNL A   1      39.917  25.740  27.842  1.00  0.00     0.001 A 
ATOM     74  C   UNL A   1      41.462  27.217  26.722  1.00  0.00     0.001 A 
ATOM     75  C   UNL A   1      40.750  26.021  26.760  1.00  0.00     0.000 A 
ENDBRANCH  51  70
BRANCH  63  76
ATOM     76  C   UNL A   1      43.824  28.348  34.973  1.00  0.00    -0.014 A 
ATOM     77  C   UNL A   1      43.478  27.254  35.782  1.00  0.00     0.009 A 
ATOM     78  C   UNL A   1      45.183  28.638  34.772  1.00  0.00     0.009 A 
ATOM     79  C   UNL A   1      44.469  26.504  36.419  1.00  0.00     0.001 A 
ATOM     80  C   UNL A   1      46.172  27.865  35.381  1.00  0.00     0.001 A 
ATOM     81  C   UNL A   1      45.814  26.807  36.216  1.00  0.00     0.000 A 
ENDBRANCH  63  76
ENDBRANCH  37  38
ENDBRANCH  29  32
ENDBRANCH  27  28
ENDBRANCH  26  27
ENDBRANCH   1  26
TORSDOF 15
ENDMDL
MODEL 2
REMARK VINA RESULT:     -11.2      4.850      9.720
REMARK SMILES CC[C@](C)(NC(=O)CNC(=O)c1cccc(Cl)c1)C(=O)NCCCNC(=O)c1ccc(-c2c3nc(c(-c4ccccc4)c4ccc([nH]4)c(-c4ccccc4)c4nc(c(-c5ccccc5)c5ccc2[nH]5)C=C4)C=C3)cc1
REMARK SMILES IDX 22 1 21 2 19 3 20 4 3 6 4 7 2 8 1 9 5 10 6 11 7 13 8 14 9 15
REMARK SMILES IDX 10 16 11 18 12 19 13 20 18 21 14 22 16 23 15 24 17 25 23 26
REMARK SMILES IDX 24 27 25 28 26 29 27 31 28 32 29 33 75 34 30 35 74 36 31 37
REMARK SMILES IDX 32 38 33 39 68 40 34 41 73 42 67 43 69 44 35 45 72 46 66 47
REMARK SMILES IDX 65 48 36 50 58 51 43 52 57 53 44 54 47 55 56 56 70 57 45 58
REMARK SMILES IDX 46 59 55 61 71 62 48 63 37 64 38 65 42 66 39 67 41 68 40 69
REMARK SMILES IDX 59 70 60 71 64 72 61 73 63 74 62 75 49 76 50 77 54 78 51 79
REMARK SMILES IDX 53 80 52 81
REMARK H PARENT 21 5 5 12 9 17 25 30 69 49 47 60
REMARK Flexibility Score: inf
ROOT
ATOM      1  C   UNL A   1      36.388  20.918  24.955  1.00  0.00     0.117 C 
ENDROOT
BRANCH   1   2
ATOM      2  N   UNL A   1      35.642  21.102  26.194  1.00  0.00    -0.354 N 
ATOM      3  C   UNL A   1      34.391  21.625  26.435  1.00  0.00     0.245 C 
ATOM      4  O   UNL A   1      33.760  21.191  27.400  1.00  0.00    -0.272 OA
ATOM      5  H   UNL A   1      36.115  20.798  27.002  1.00  0.00     0.163 HD
BRANCH   3   6
ATOM      6  C   UNL A   1      33.683  22.559  25.445  1.00  0.00     0.116 C 
ATOM      7  C   UNL A   1      34.520  23.804  25.094  1.00  0.00     0.045 C 
BRANCH   6   8
ATOM      8  C   UNL A   1      32.432  22.991  26.282  1.00  0.00     0.035 C 
ATOM      9  C   UNL A   1      32.184  24.463  26.541  1.00  0.00     0.007 C 
ENDBRANCH   6   8
BRANCH   6  10
ATOM     10  N   UNL A   1      33.398  21.840  24.198  1.00  0.00    -0.340 N 
ATOM     11  C   UNL A   1      32.383  22.075  23.297  1.00  0.00     0.240 C 
ATOM     12  H   UNL A   1      34.006  21.098  23.978  1.00  0.00     0.164 HD
ATOM     13  O   UNL A   1      32.068  21.123  22.572  1.00  0.00    -0.273 OA
BRANCH  11  14
ATOM     14  C   UNL A   1      31.781  23.493  23.006  1.00  0.00     0.216 C 
BRANCH  14  15
ATOM     15  N   UNL A   1      32.292  24.397  21.986  1.00  0.00    -0.343 N 
ATOM     16  C   UNL A   1      32.774  25.691  22.080  1.00  0.00     0.251 C 
ATOM     17  H   UNL A   1      32.297  24.024  21.075  1.00  0.00     0.164 HD
ATOM     18  O   UNL A   1      33.531  26.109  21.206  1.00  0.00    -0.269 OA
BRANCH  16  19
ATOM     19  C   UNL A   1      32.312  26.654  23.111  1.00  0.00     0.041 A 
ATOM     20  C   UNL A   1      31.031  27.209  23.157  1.00  0.00     0.014 A 
ATOM     21  C   UNL A   1      33.247  27.006  24.096  1.00  0.00     0.034 A 
ATOM     22  C   UNL A   1      30.742  28.219  24.091  1.00  0.00     0.002 A 
ATOM     23  C   UNL A   1      32.973  28.044  24.986  1.00  0.00     0.041 A 
ATOM     24  C   UNL A   1      31.727  28.668  24.974  1.00  0.00     0.020 A 
ATOM     25  Cl  UNL A   1      34.207  28.626  26.035  1.00  0.00    -0.084 Cl
ENDBRANCH  16  19
ENDBRANCH  14  15
ENDBRANCH  11  14
ENDBRANCH   6  10
ENDBRANCH   3   6
ENDBRANCH   1   2
BRANCH   1  26
ATOM     26  C   UNL A   1      37.605  19.991  24.961  1.00  0.00     0.042 C 
BRANCH  26  27
ATOM     27  C   UNL A   1      38.822  20.383  25.786  1.00  0.00     0.118 C 
BRANCH  27  28
ATOM     28  N   UNL A   1      39.937  19.462  25.692  1.00  0.00    -0.352 N 
ATOM     29  C   UNL A   1      41.249  19.630  26.059  1.00  0.00     0.251 C 
ATOM     30  H   UNL A   1      39.721  18.583  25.306  1.00  0.00     0.163 HD
ATOM     31  O   UNL A   1      42.044  18.711  25.865  1.00  0.00    -0.269 OA
BRANCH  29  32
ATOM     32  C   UNL A   1      41.734  20.905  26.636  1.00  0.00     0.039 A 
ATOM     33  C   UNL A   1      42.098  21.923  25.752  1.00  0.00     0.014 A 
ATOM     34  C   UNL A   1      41.858  21.110  28.015  1.00  0.00     0.014 A 
ATOM     35  C   UNL A   1      42.518  23.162  26.243  1.00  0.00     0.010 A 
ATOM     36  C   UNL A   1      42.216  22.371  28.506  1.00  0.00     0.010 A 
ATOM     37  C   UNL A   1      42.544  23.413  27.626  1.00  0.00    -0.014 A 
BRANCH  37  38
ATOM     38  C   UNL A   1      42.869  24.777  28.126  1.00  0.00     0.031 A 
ATOM     39  C   UNL A   1      44.292  25.209  28.359  1.00  0.00     0.074 A 
ATOM     40  C   UNL A   1      41.864  25.641  28.380  1.00  0.00     0.049 A 
ATOM     41  N   UNL A   1      44.748  26.385  28.718  1.00  0.00    -0.248 NA
ATOM     42  C   UNL A   1      45.337  24.191  28.179  1.00  0.00     0.031 C 
ATOM     43  C   UNL A   1      40.437  25.339  28.244  1.00  0.00     0.029 A 
ATOM     44  N   UNL A   1      41.888  26.952  28.789  1.00  0.00    -0.354 N 
ATOM     45  C   UNL A   1      46.128  26.248  28.808  1.00  0.00     0.074 A 
ATOM     46  C   UNL A   1      46.429  24.861  28.518  1.00  0.00     0.031 C 
ATOM     47  C   UNL A   1      39.727  26.445  28.516  1.00  0.00     0.029 A 
ATOM     48  C   UNL A   1      40.640  27.521  28.882  1.00  0.00     0.049 A 
ATOM     49  H   UNL A   1      42.719  27.437  28.995  1.00  0.00     0.167 HD
ATOM     50  C   UNL A   1      47.061  27.190  29.088  1.00  0.00     0.031 A 
ATOM     51  C   UNL A   1      40.268  28.771  29.218  1.00  0.00     0.031 A 
ATOM     52  C   UNL A   1      46.765  28.567  29.390  1.00  0.00     0.049 A 
ATOM     53  C   UNL A   1      41.323  29.793  29.538  1.00  0.00     0.074 A 
ATOM     54  C   UNL A   1      47.648  29.604  29.643  1.00  0.00     0.029 A 
ATOM     55  N   UNL A   1      45.489  29.099  29.493  1.00  0.00    -0.354 N 
ATOM     56  N   UNL A   1      42.627  29.664  29.539  1.00  0.00    -0.248 NA
ATOM     57  C   UNL A   1      40.850  31.141  29.885  1.00  0.00     0.031 C 
ATOM     58  C   UNL A   1      46.905  30.748  29.957  1.00  0.00     0.029 A 
ATOM     59  C   UNL A   1      45.561  30.442  29.830  1.00  0.00     0.049 A 
ATOM     60  H   UNL A   1      44.655  28.596  29.347  1.00  0.00     0.167 HD
ATOM     61  C   UNL A   1      43.131  30.920  29.856  1.00  0.00     0.074 A 
ATOM     62  C   UNL A   1      41.992  31.800  30.015  1.00  0.00     0.031 C 
ATOM     63  C   UNL A   1      44.422  31.308  30.000  1.00  0.00     0.031 A 
BRANCH  50  64
ATOM     64  C   UNL A   1      48.504  26.756  29.093  1.00  0.00    -0.014 A 
ATOM     65  C   UNL A   1      49.112  26.258  30.257  1.00  0.00     0.009 A 
ATOM     66  C   UNL A   1      49.254  26.806  27.907  1.00  0.00     0.009 A 
ATOM     67  C   UNL A   1      50.450  25.856  30.243  1.00  0.00     0.001 A 
ATOM     68  C   UNL A   1      50.583  26.373  27.888  1.00  0.00     0.001 A 
ATOM     69  C   UNL A   1      51.182  25.908  29.057  1.00  0.00     0.000 A 
ENDBRANCH  50  64
BRANCH  51  70
ATOM     70  C   UNL A   1      38.827  29.138  29.247  1.00  0.00    -0.014 A 
ATOM     71  C   UNL A   1      38.186  29.616  28.094  1.00  0.00     0.009 A 
ATOM     72  C   UNL A   1      38.088  29.025  30.435  1.00  0.00     0.009 A 
ATOM     73  C   UNL A   1      36.845  30.004  28.137  1.00  0.00     0.001 A 
ATOM     74  C   UNL A   1      36.738  29.381  30.467  1.00  0.00     0.001 A 
ATOM     75  C   UNL A   1      36.121  29.881  29.322  1.00  0.00     0.000 A 
ENDBRANCH  51  70
BRANCH  63  76
ATOM     76  C   UNL A   1      44.667  32.761  30.311  1.00  0.00    -0.014 A 
ATOM     77  C   UNL A   1      44.720  33.232  31.633  1.00  0.00     0.009 A 
ATOM     78  C   UNL A   1      44.849  33.674  29.261  1.00  0.00     0.009 A 
ATOM     79  C   UNL A   1      44.894  34.593  31.893  1.00  0.00     0.001 A 
ATOM     80  C   UNL A   1      45.059  35.028  29.523  1.00  0.00     0.001 A 
ATOM     81  C   UNL A   1      45.067  35.490  30.839  1.00  0.00     0.000 A 
ENDBRANCH  63  76
ENDBRANCH  37  38
ENDBRANCH  29  32
ENDBRANCH  27  28
ENDBRANCH  26  27
ENDBRANCH   1  26
TORSDOF 15
ENDMDL
MODEL 3
REMARK VINA RESULT:     -11.1      4.716      9.244
REMARK SMILES CC[C@](C)(NC(=O)CNC(=O)c1cccc(Cl)c1)C(=O)NCCCNC(=O)c1ccc(-c2c3nc(c(-c4ccccc4)c4ccc([nH]4)c(-c4ccccc4)c4nc(c(-c5ccccc5)c5ccc2[nH]5)C=C4)C=C3)cc1
REMARK SMILES IDX 22 1 21 2 19 3 20 4 3 6 4 7 2 8 1 9 5 10 6 11 7 13 8 14 9 15
REMARK SMILES IDX 10 16 11 18 12 19 13 20 18 21 14 22 16 23 15 24 17 25 23 26
REMARK SMILES IDX 24 27 25 28 26 29 27 31 28 32 29 33 75 34 30 35 74 36 31 37
REMARK SMILES IDX 32 38 33 39 68 40 34 41 73 42 67 43 69 44 35 45 72 46 66 47
REMARK SMILES IDX 65 48 36 50 58 51 43 52 57 53 44 54 47 55 56 56 70 57 45 58
REMARK SMILES IDX 46 59 55 61 71 62 48 63 37 64 38 65 42 66 39 67 41 68 40 69
REMARK SMILES IDX 59 70 60 71 64 72 61 73 63 74 62 75 49 76 50 77 54 78 51 79
REMARK SMILES IDX 53 80 52 81
REMARK H PARENT 21 5 5 12 9 17 25 30 69 49 47 60
REMARK Flexibility Score: inf
ROOT
ATOM      1  C   UNL A   1      36.337  20.805  24.986  1.00  0.00     0.117 C 
ENDROOT
BRANCH   1   2
ATOM      2  N   UNL A   1      35.041  20.223  25.314  1.00  0.00    -0.354 N 
ATOM      3  C   UNL A   1      33.797  20.793  25.456  1.00  0.00     0.245 C 
ATOM      4  O   UNL A   1      32.811  20.105  25.183  1.00  0.00    -0.272 OA
ATOM      5  H   UNL A   1      35.059  19.249  25.459  1.00  0.00     0.163 HD
BRANCH   3   6
ATOM      6  C   UNL A   1      33.602  22.289  25.736  1.00  0.00     0.116 C 
ATOM      7  C   UNL A   1      34.088  22.703  27.138  1.00  0.00     0.045 C 
BRANCH   6   8
ATOM      8  C   UNL A   1      32.042  22.407  25.669  1.00  0.00     0.035 C 
ATOM      9  C   UNL A   1      31.286  22.951  26.864  1.00  0.00     0.007 C 
ENDBRANCH   6   8
BRANCH   6  10
ATOM     10  N   UNL A   1      34.344  23.082  24.749  1.00  0.00    -0.340 N 
ATOM     11  C   UNL A   1      34.134  23.154  23.390  1.00  0.00     0.240 C 
ATOM     12  H   UNL A   1      35.083  23.629  25.101  1.00  0.00     0.164 HD
ATOM     13  O   UNL A   1      35.101  23.519  22.709  1.00  0.00    -0.273 OA
BRANCH  11  14
ATOM     14  C   UNL A   1      32.728  23.015  22.712  1.00  0.00     0.216 C 
BRANCH  14  15
ATOM     15  N   UNL A   1      32.054  24.099  22.012  1.00  0.00    -0.343 N 
ATOM     16  C   UNL A   1      31.796  25.403  22.396  1.00  0.00     0.251 C 
ATOM     17  H   UNL A   1      31.727  23.865  21.114  1.00  0.00     0.164 HD
ATOM     18  O   UNL A   1      31.606  26.253  21.528  1.00  0.00    -0.269 OA
BRANCH  16  19
ATOM     19  C   UNL A   1      31.598  25.807  23.811  1.00  0.00     0.041 A 
ATOM     20  C   UNL A   1      30.394  25.678  24.508  1.00  0.00     0.014 A 
ATOM     21  C   UNL A   1      32.714  26.347  24.467  1.00  0.00     0.034 A 
ATOM     22  C   UNL A   1      30.274  26.222  25.798  1.00  0.00     0.002 A 
ATOM     23  C   UNL A   1      32.576  26.931  25.725  1.00  0.00     0.041 A 
ATOM     24  C   UNL A   1      31.351  26.889  26.387  1.00  0.00     0.020 A 
ATOM     25  Cl  UNL A   1      33.892  27.795  26.421  1.00  0.00    -0.084 Cl
ENDBRANCH  16  19
ENDBRANCH  14  15
ENDBRANCH  11  14
ENDBRANCH   6  10
ENDBRANCH   3   6
ENDBRANCH   1   2
BRANCH   1  26
ATOM     26  C   UNL A   1      37.570  19.899  24.985  1.00  0.00     0.042 C 
BRANCH  26  27
ATOM     27  C   UNL A   1      38.813  20.350  25.739  1.00  0.00     0.118 C 
BRANCH  27  28
ATOM     28  N   UNL A   1      39.910  19.404  25.716  1.00  0.00    -0.352 N 
ATOM     29  C   UNL A   1      41.214  19.561  26.113  1.00  0.00     0.251 C 
ATOM     30  H   UNL A   1      39.686  18.514  25.360  1.00  0.00     0.163 HD
ATOM     31  O   UNL A   1      41.995  18.618  25.980  1.00  0.00    -0.269 OA
BRANCH  29  32
ATOM     32  C   UNL A   1      41.710  20.849  26.650  1.00  0.00     0.039 A 
ATOM     33  C   UNL A   1      42.231  21.776  25.744  1.00  0.00     0.014 A 
ATOM     34  C   UNL A   1      41.695  21.152  28.016  1.00  0.00     0.014 A 
ATOM     35  C   UNL A   1      42.669  23.024  26.191  1.00  0.00     0.010 A 
ATOM     36  C   UNL A   1      42.073  22.426  28.455  1.00  0.00     0.010 A 
ATOM     37  C   UNL A   1      42.559  23.379  27.547  1.00  0.00    -0.014 A 
BRANCH  37  38
ATOM     38  C   UNL A   1      42.910  24.758  27.984  1.00  0.00     0.031 A 
ATOM     39  C   UNL A   1      41.851  25.805  28.204  1.00  0.00     0.074 A 
ATOM     40  C   UNL A   1      44.206  25.074  28.183  1.00  0.00     0.049 A 
ATOM     41  N   UNL A   1      41.984  27.029  28.657  1.00  0.00    -0.248 NA
ATOM     42  C   UNL A   1      40.470  25.441  27.859  1.00  0.00     0.031 C 
ATOM     43  C   UNL A   1      45.339  24.172  27.963  1.00  0.00     0.029 A 
ATOM     44  N   UNL A   1      44.790  26.234  28.630  1.00  0.00    -0.354 N 
ATOM     45  C   UNL A   1      40.707  27.578  28.650  1.00  0.00     0.074 A 
ATOM     46  C   UNL A   1      39.823  26.573  28.099  1.00  0.00     0.031 C 
ATOM     47  C   UNL A   1      46.473  24.794  28.321  1.00  0.00     0.029 A 
ATOM     48  C   UNL A   1      46.156  26.149  28.758  1.00  0.00     0.049 A 
ATOM     49  H   UNL A   1      44.279  27.049  28.839  1.00  0.00     0.167 HD
ATOM     50  C   UNL A   1      40.303  28.798  29.080  1.00  0.00     0.031 A 
ATOM     51  C   UNL A   1      47.056  27.054  29.185  1.00  0.00     0.031 A 
ATOM     52  C   UNL A   1      41.181  29.807  29.618  1.00  0.00     0.049 A 
ATOM     53  C   UNL A   1      46.582  28.406  29.643  1.00  0.00     0.074 A 
ATOM     54  C   UNL A   1      40.856  31.056  30.120  1.00  0.00     0.029 A 
ATOM     55  N   UNL A   1      42.559  29.687  29.713  1.00  0.00    -0.354 N 
ATOM     56  N   UNL A   1      45.362  28.877  29.705  1.00  0.00    -0.248 NA
ATOM     57  C   UNL A   1      47.615  29.342  30.108  1.00  0.00     0.031 C 
ATOM     58  C   UNL A   1      42.041  31.715  30.463  1.00  0.00     0.029 A 
ATOM     59  C   UNL A   1      43.100  30.850  30.241  1.00  0.00     0.049 A 
ATOM     60  H   UNL A   1      43.077  28.894  29.445  1.00  0.00     0.167 HD
ATOM     61  C   UNL A   1      45.476  30.153  30.244  1.00  0.00     0.074 A 
ATOM     62  C   UNL A   1      46.883  30.369  30.514  1.00  0.00     0.031 C 
ATOM     63  C   UNL A   1      44.502  31.062  30.495  1.00  0.00     0.031 A 
BRANCH  50  64
ATOM     64  C   UNL A   1      38.835  29.119  28.974  1.00  0.00    -0.014 A 
ATOM     65  C   UNL A   1      37.975  28.973  30.075  1.00  0.00     0.009 A 
ATOM     66  C   UNL A   1      38.312  29.617  27.769  1.00  0.00     0.009 A 
ATOM     67  C   UNL A   1      36.617  29.281  29.960  1.00  0.00     0.001 A 
ATOM     68  C   UNL A   1      36.960  29.955  27.667  1.00  0.00     0.001 A 
ATOM     69  C   UNL A   1      36.112  29.777  28.759  1.00  0.00     0.000 A 
ENDBRANCH  50  64
BRANCH  51  70
ATOM     70  C   UNL A   1      48.502  26.707  29.225  1.00  0.00    -0.014 A 
ATOM     71  C   UNL A   1      49.337  26.983  28.132  1.00  0.00     0.009 A 
ATOM     72  C   UNL A   1      49.052  26.081  30.355  1.00  0.00     0.009 A 
ATOM     73  C   UNL A   1      50.683  26.613  28.155  1.00  0.00     0.001 A 
ATOM     74  C   UNL A   1      50.407  25.742  30.390  1.00  0.00     0.001 A 
ATOM     75  C   UNL A   1      51.218  25.997  29.286  1.00  0.00     0.000 A 
ENDBRANCH  51  70
BRANCH  63  76
ATOM     76  C   UNL A   1      44.928  32.361  31.127  1.00  0.00    -0.014 A 
ATOM     77  C   UNL A   1      44.984  32.517  32.521  1.00  0.00     0.009 A 
ATOM     78  C   UNL A   1      45.280  33.447  30.310  1.00  0.00     0.009 A 
ATOM     79  C   UNL A   1      45.331  33.749  33.082  1.00  0.00     0.001 A 
ATOM     80  C   UNL A   1      45.661  34.666  30.872  1.00  0.00     0.001 A 
ATOM     81  C   UNL A   1      45.672  34.821  32.258  1.00  0.00     0.000 A 
ENDBRANCH  63  76
ENDBRANCH  37  38
ENDBRANCH  29  32
ENDBRANCH  27  28
ENDBRANCH  26  27
ENDBRANCH   1  26
TORSDOF 15
ENDMDL
