MODEL 1
REMARK VINA RESULT:     -11.0      0.000      0.000
REMARK SMILES COc1ccc(/C=C2/SC(=S)N(c3ccc(C(=O)NCCCNC(=O)c4ccc(-c5c6nc(c(-c7ccccc7)c7ccc([nH]7)c(-c7ccccc7)c7nc(c(-c8ccccc8)c8ccc5[nH]8)C=C7)C=C6)cc4)c(O)c3)C2=O)cc1OC
REMARK SMILES IDX 20 1 19 2 17 3 18 4 16 6 13 7 14 8 76 9 15 10 74 11 12 12
REMARK SMILES IDX 7 13 8 14 9 15 77 16 10 17 78 18 11 19 6 20 3 21 4 22 80 23
REMARK SMILES IDX 5 24 79 25 2 26 1 27 81 28 82 29 75 30 21 32 22 33 23 34
REMARK SMILES IDX 24 35 25 37 26 38 27 39 73 40 28 41 72 42 29 43 30 44 31 45
REMARK SMILES IDX 66 46 32 47 71 48 65 49 67 50 33 51 70 52 64 53 63 54 34 56
REMARK SMILES IDX 56 57 41 58 55 59 42 60 45 61 54 62 68 63 43 64 44 65 53 67
REMARK SMILES IDX 69 68 46 69 35 70 36 71 40 72 37 73 39 74 38 75 57 76 58 77
REMARK SMILES IDX 62 78 59 79 61 80 60 81 47 82 48 83 52 84 49 85 51 86 50 87
REMARK H PARENT 19 5 75 31 23 36 67 55 45 66
REMARK Flexibility Score: inf
ROOT
ATOM      1  C   UNL A   1      40.279  26.846  28.006  1.00  0.00     0.118 C 
ENDROOT
BRANCH   1   2
ATOM      2  N   UNL A   1      40.564  27.189  29.387  1.00  0.00    -0.352 N 
ATOM      3  C   UNL A   1      40.019  28.116  30.238  1.00  0.00     0.255 C 
ATOM      4  O   UNL A   1      40.503  28.177  31.371  1.00  0.00    -0.269 OA
ATOM      5  H   UNL A   1      41.286  26.654  29.790  1.00  0.00     0.163 HD
BRANCH   3   6
ATOM      6  C   UNL A   1      38.839  28.971  29.922  1.00  0.00     0.081 A 
ATOM      7  C   UNL A   1      36.718  30.624  29.025  1.00  0.00     0.054 A 
ATOM      8  C   UNL A   1      37.867  30.474  28.248  1.00  0.00     0.028 A 
ATOM      9  C   UNL A   1      36.614  29.916  30.227  1.00  0.00     0.073 A 
ATOM     10  C   UNL A   1      38.922  29.678  28.707  1.00  0.00     0.020 A 
ATOM     11  C   UNL A   1      37.645  29.064  30.646  1.00  0.00     0.130 A 
BRANCH   7  12
ATOM     12  N   UNL A   1      35.604  31.368  28.553  1.00  0.00    -0.261 N 
ATOM     13  C   UNL A   1      32.335  31.167  27.008  1.00  0.00     0.029 C 
ATOM     14  C   UNL A   1      33.511  31.589  27.496  1.00  0.00     0.081 C 
ATOM     15  S   UNL A   1      33.713  33.107  28.286  1.00  0.00    -0.054 SA
ATOM     16  C   UNL A   1      34.778  30.801  27.587  1.00  0.00     0.270 C 
ATOM     17  C   UNL A   1      35.229  32.609  29.040  1.00  0.00     0.152 C 
ATOM     18  O   UNL A   1      35.011  29.807  26.918  1.00  0.00    -0.268 OA
ATOM     19  S   UNL A   1      36.030  33.603  30.122  1.00  0.00    -0.051 S 
BRANCH  13  20
ATOM     20  C   UNL A   1      32.087  29.795  26.557  1.00  0.00    -0.020 A 
ATOM     21  C   UNL A   1      31.469  27.222  25.629  1.00  0.00     0.160 A 
ATOM     22  C   UNL A   1      31.472  27.504  27.003  1.00  0.00     0.051 A 
ATOM     23  C   UNL A   1      31.781  28.226  24.704  1.00  0.00     0.161 A 
ATOM     24  C   UNL A   1      31.787  28.784  27.468  1.00  0.00     0.012 A 
ATOM     25  C   UNL A   1      32.108  29.500  25.186  1.00  0.00     0.058 A 
BRANCH  21  26
ATOM     26  O   UNL A   1      31.060  25.981  25.221  1.00  0.00    -0.493 OA
ATOM     27  C   UNL A   1      29.667  25.955  24.917  1.00  0.00     0.278 C 
ENDBRANCH  21  26
BRANCH  23  28
ATOM     28  O   UNL A   1      31.818  28.157  23.338  1.00  0.00    -0.493 OA
ATOM     29  C   UNL A   1      30.894  28.933  22.592  1.00  0.00     0.278 C 
ENDBRANCH  23  28
ENDBRANCH  13  20
ENDBRANCH   7  12
BRANCH  11  30
ATOM     30  O   UNL A   1      37.400  28.278  31.734  1.00  0.00    -0.507 OA
ATOM     31  H   UNL A   1      36.518  28.100  31.995  1.00  0.00     0.293 HD
ENDBRANCH  11  30
ENDBRANCH   3   6
ENDBRANCH   1   2
BRANCH   1  32
ATOM     32  C   UNL A   1      39.752  25.413  27.900  1.00  0.00     0.042 C 
BRANCH  32  33
ATOM     33  C   UNL A   1      39.784  24.853  26.482  1.00  0.00     0.118 C 
BRANCH  33  34
ATOM     34  N   UNL A   1      40.582  23.638  26.394  1.00  0.00    -0.352 N 
ATOM     35  C   UNL A   1      41.935  23.485  26.212  1.00  0.00     0.251 C 
ATOM     36  H   UNL A   1      40.075  22.798  26.477  1.00  0.00     0.163 HD
ATOM     37  O   UNL A   1      42.391  22.379  25.937  1.00  0.00    -0.269 OA
BRANCH  35  38
ATOM     38  C   UNL A   1      42.849  24.645  26.324  1.00  0.00     0.039 A 
ATOM     39  C   UNL A   1      43.374  24.969  27.580  1.00  0.00     0.014 A 
ATOM     40  C   UNL A   1      43.165  25.431  25.213  1.00  0.00     0.014 A 
ATOM     41  C   UNL A   1      44.271  26.034  27.708  1.00  0.00     0.010 A 
ATOM     42  C   UNL A   1      44.103  26.456  25.330  1.00  0.00     0.010 A 
ATOM     43  C   UNL A   1      44.673  26.761  26.577  1.00  0.00    -0.014 A 
BRANCH  43  44
ATOM     44  C   UNL A   1      45.719  27.811  26.660  1.00  0.00     0.031 A 
ATOM     45  C   UNL A   1      45.340  29.260  26.784  1.00  0.00     0.074 A 
ATOM     46  C   UNL A   1      47.014  27.461  26.524  1.00  0.00     0.049 A 
ATOM     47  N   UNL A   1      46.110  30.318  26.749  1.00  0.00    -0.248 NA
ATOM     48  C   UNL A   1      43.909  29.560  26.947  1.00  0.00     0.031 C 
ATOM     49  C   UNL A   1      47.511  26.094  26.359  1.00  0.00     0.029 A 
ATOM     50  N   UNL A   1      48.147  28.236  26.475  1.00  0.00    -0.354 N 
ATOM     51  C   UNL A   1      45.258  31.408  26.861  1.00  0.00     0.074 A 
ATOM     52  C   UNL A   1      43.910  30.886  26.942  1.00  0.00     0.031 C 
ATOM     53  C   UNL A   1      48.847  26.124  26.227  1.00  0.00     0.029 A 
ATOM     54  C   UNL A   1      49.295  27.513  26.253  1.00  0.00     0.049 A 
ATOM     55  H   UNL A   1      48.139  29.214  26.587  1.00  0.00     0.167 HD
ATOM     56  C   UNL A   1      45.570  32.726  26.902  1.00  0.00     0.031 A 
ATOM     57  C   UNL A   1      50.565  27.920  26.065  1.00  0.00     0.031 A 
ATOM     58  C   UNL A   1      46.910  33.245  26.841  1.00  0.00     0.049 A 
ATOM     59  C   UNL A   1      50.880  29.388  26.090  1.00  0.00     0.074 A 
ATOM     60  C   UNL A   1      47.331  34.558  26.965  1.00  0.00     0.029 A 
ATOM     61  N   UNL A   1      48.045  32.479  26.624  1.00  0.00    -0.354 N 
ATOM     62  N   UNL A   1      50.071  30.402  26.281  1.00  0.00    -0.248 NA
ATOM     63  C   UNL A   1      52.282  29.769  25.871  1.00  0.00     0.031 C 
ATOM     64  C   UNL A   1      48.716  34.593  26.771  1.00  0.00     0.029 A 
ATOM     65  C   UNL A   1      49.161  33.297  26.571  1.00  0.00     0.049 A 
ATOM     66  H   UNL A   1      48.055  31.500  26.524  1.00  0.00     0.167 HD
ATOM     67  C   UNL A   1      50.866  31.537  26.217  1.00  0.00     0.074 A 
ATOM     68  C   UNL A   1      52.225  31.088  25.990  1.00  0.00     0.031 C 
ATOM     69  C   UNL A   1      50.503  32.837  26.333  1.00  0.00     0.031 A 
BRANCH  56  70
ATOM     70  C   UNL A   1      44.440  33.709  27.008  1.00  0.00    -0.014 A 
ATOM     71  C   UNL A   1      43.949  34.122  28.256  1.00  0.00     0.009 A 
ATOM     72  C   UNL A   1      43.902  34.277  25.843  1.00  0.00     0.009 A 
ATOM     73  C   UNL A   1      42.922  35.065  28.334  1.00  0.00     0.001 A 
ATOM     74  C   UNL A   1      42.891  35.237  25.925  1.00  0.00     0.001 A 
ATOM     75  C   UNL A   1      42.399  35.627  27.169  1.00  0.00     0.000 A 
ENDBRANCH  56  70
BRANCH  57  76
ATOM     76  C   UNL A   1      51.633  26.922  25.807  1.00  0.00    -0.014 A 
ATOM     77  C   UNL A   1      51.991  26.586  24.493  1.00  0.00     0.009 A 
ATOM     78  C   UNL A   1      52.294  26.293  26.875  1.00  0.00     0.009 A 
ATOM     79  C   UNL A   1      52.977  25.625  24.254  1.00  0.00     0.001 A 
ATOM     80  C   UNL A   1      53.296  25.352  26.632  1.00  0.00     0.001 A 
ATOM     81  C   UNL A   1      53.631  25.013  25.322  1.00  0.00     0.000 A 
ENDBRANCH  57  76
BRANCH  69  82
ATOM     82  C   UNL A   1      51.590  33.865  26.223  1.00  0.00    -0.014 A 
ATOM     83  C   UNL A   1      51.889  34.466  24.991  1.00  0.00     0.009 A 
ATOM     84  C   UNL A   1      52.289  34.272  27.370  1.00  0.00     0.009 A 
ATOM     85  C   UNL A   1      52.885  35.441  24.906  1.00  0.00     0.001 A 
ATOM     86  C   UNL A   1      53.267  35.262  27.285  1.00  0.00     0.001 A 
ATOM     87  C   UNL A   1      53.569  35.842  26.053  1.00  0.00     0.000 A 
ENDBRANCH  69  82
ENDBRANCH  43  44
ENDBRANCH  35  38
ENDBRANCH  33  34
ENDBRANCH  32  33
ENDBRANCH   1  32
TORSDOF 15
ENDMDL
MODEL 2
REMARK VINA RESULT:     -10.5      0.585      5.666
REMARK SMILES COc1ccc(/C=C2/SC(=S)N(c3ccc(C(=O)NCCCNC(=O)c4ccc(-c5c6nc(c(-c7ccccc7)c7ccc([nH]7)c(-c7ccccc7)c7nc(c(-c8ccccc8)c8ccc5[nH]8)C=C7)C=C6)cc4)c(O)c3)C2=O)cc1OC
REMARK SMILES IDX 20 1 19 2 17 3 18 4 16 6 13 7 14 8 76 9 15 10 74 11 12 12
REMARK SMILES IDX 7 13 8 14 9 15 77 16 10 17 78 18 11 19 6 20 3 21 4 22 80 23
REMARK SMILES IDX 5 24 79 25 2 26 1 27 81 28 82 29 75 30 21 32 22 33 23 34
REMARK SMILES IDX 24 35 25 37 26 38 27 39 73 40 28 41 72 42 29 43 30 44 31 45
REMARK SMILES IDX 66 46 32 47 71 48 65 49 67 50 33 51 70 52 64 53 63 54 34 56
REMARK SMILES IDX 56 57 41 58 55 59 42 60 45 61 54 62 68 63 43 64 44 65 53 67
REMARK SMILES IDX 69 68 46 69 35 70 36 71 40 72 37 73 39 74 38 75 57 76 58 77
REMARK SMILES IDX 62 78 59 79 61 80 60 81 47 82 48 83 52 84 49 85 51 86 50 87
REMARK H PARENT 19 5 75 31 23 36 67 55 45 66
REMARK Flexibility Score: inf
ROOT
ATOM      1  C   UNL A   1      40.372  26.777  26.991  1.00  0.00     0.118 C 
ENDROOT
BRANCH   1   2
ATOM      2  N   UNL A   1      40.710  26.996  28.385  1.00  0.00    -0.352 N 
ATOM      3  C   UNL A   1      40.180  27.821  29.343  1.00  0.00     0.255 C 
ATOM      4  O   UNL A   1      40.713  27.789  30.455  1.00  0.00    -0.269 OA
ATOM      5  H   UNL A   1      41.464  26.448  28.703  1.00  0.00     0.163 HD
BRANCH   3   6
ATOM      6  C   UNL A   1      38.965  28.666  29.161  1.00  0.00     0.081 A 
ATOM      7  C   UNL A   1      36.732  30.283  28.502  1.00  0.00     0.054 A 
ATOM      8  C   UNL A   1      37.751  30.081  27.571  1.00  0.00     0.028 A 
ATOM      9  C   UNL A   1      36.811  29.644  29.744  1.00  0.00     0.073 A 
ATOM     10  C   UNL A   1      38.863  29.304  27.909  1.00  0.00     0.020 A 
ATOM     11  C   UNL A   1      37.894  28.809  30.050  1.00  0.00     0.130 A 
BRANCH   7  12
ATOM     12  N   UNL A   1      35.559  31.008  28.163  1.00  0.00    -0.261 N 
ATOM     13  C   UNL A   1      32.149  30.754  26.971  1.00  0.00     0.029 C 
ATOM     14  C   UNL A   1      33.361  31.196  27.338  1.00  0.00     0.081 C 
ATOM     15  S   UNL A   1      33.615  32.708  28.123  1.00  0.00    -0.054 SA
ATOM     16  C   UNL A   1      34.646  30.435  27.282  1.00  0.00     0.270 C 
ATOM     17  C   UNL A   1      35.213  32.235  28.705  1.00  0.00     0.152 C 
ATOM     18  O   UNL A   1      34.826  29.455  26.577  1.00  0.00    -0.268 OA
ATOM     19  S   UNL A   1      36.104  33.233  29.708  1.00  0.00    -0.051 S 
BRANCH  13  20
ATOM     20  C   UNL A   1      31.881  29.383  26.530  1.00  0.00    -0.020 A 
ATOM     21  C   UNL A   1      31.217  26.806  25.646  1.00  0.00     0.160 A 
ATOM     22  C   UNL A   1      31.444  27.058  27.007  1.00  0.00     0.051 A 
ATOM     23  C   UNL A   1      31.327  27.842  24.711  1.00  0.00     0.161 A 
ATOM     24  C   UNL A   1      31.782  28.340  27.449  1.00  0.00     0.012 A 
ATOM     25  C   UNL A   1      31.680  29.119  25.167  1.00  0.00     0.058 A 
BRANCH  21  26
ATOM     26  O   UNL A   1      30.794  25.557  25.278  1.00  0.00    -0.493 OA
ATOM     27  C   UNL A   1      31.069  24.586  26.284  1.00  0.00     0.278 C 
ENDBRANCH  21  26
BRANCH  23  28
ATOM     28  O   UNL A   1      31.132  27.805  23.357  1.00  0.00    -0.493 OA
ATOM     29  C   UNL A   1      30.744  28.996  22.691  1.00  0.00     0.278 C 
ENDBRANCH  23  28
ENDBRANCH  13  20
ENDBRANCH   7  12
BRANCH  11  30
ATOM     30  O   UNL A   1      37.817  28.087  31.205  1.00  0.00    -0.507 OA
ATOM     31  H   UNL A   1      38.111  27.197  31.222  1.00  0.00     0.293 HD
ENDBRANCH  11  30
ENDBRANCH   3   6
ENDBRANCH   1   2
BRANCH   1  32
ATOM     32  C   UNL A   1      39.947  25.325  26.756  1.00  0.00     0.042 C 
BRANCH  32  33
ATOM     33  C   UNL A   1      40.284  24.394  27.915  1.00  0.00     0.118 C 
BRANCH  33  34
ATOM     34  N   UNL A   1      41.068  23.246  27.482  1.00  0.00    -0.352 N 
ATOM     35  C   UNL A   1      42.284  23.201  26.844  1.00  0.00     0.251 C 
ATOM     36  H   UNL A   1      40.666  22.368  27.676  1.00  0.00     0.163 HD
ATOM     37  O   UNL A   1      42.678  22.144  26.359  1.00  0.00    -0.269 OA
BRANCH  35  38
ATOM     38  C   UNL A   1      43.118  24.418  26.718  1.00  0.00     0.039 A 
ATOM     39  C   UNL A   1      43.687  24.967  27.872  1.00  0.00     0.014 A 
ATOM     40  C   UNL A   1      43.314  25.039  25.482  1.00  0.00     0.014 A 
ATOM     41  C   UNL A   1      44.511  26.093  27.777  1.00  0.00     0.010 A 
ATOM     42  C   UNL A   1      44.181  26.126  25.379  1.00  0.00     0.010 A 
ATOM     43  C   UNL A   1      44.796  26.657  26.524  1.00  0.00    -0.014 A 
BRANCH  43  44
ATOM     44  C   UNL A   1      45.768  27.770  26.377  1.00  0.00     0.031 A 
ATOM     45  C   UNL A   1      47.239  27.488  26.247  1.00  0.00     0.074 A 
ATOM     46  C   UNL A   1      45.330  29.041  26.462  1.00  0.00     0.049 A 
ATOM     47  N   UNL A   1      48.240  28.331  26.230  1.00  0.00    -0.248 NA
ATOM     48  C   UNL A   1      47.637  26.076  26.141  1.00  0.00     0.031 C 
ATOM     49  C   UNL A   1      43.933  29.448  26.627  1.00  0.00     0.029 A 
ATOM     50  N   UNL A   1      46.023  30.227  26.448  1.00  0.00    -0.354 N 
ATOM     51  C   UNL A   1      49.386  27.553  26.137  1.00  0.00     0.074 A 
ATOM     52  C   UNL A   1      48.959  26.169  26.125  1.00  0.00     0.031 C 
ATOM     53  C   UNL A   1      43.871  30.787  26.700  1.00  0.00     0.029 A 
ATOM     54  C   UNL A   1      45.223  31.331  26.631  1.00  0.00     0.049 A 
ATOM     55  H   UNL A   1      46.997  30.282  26.321  1.00  0.00     0.167 HD
ATOM     56  C   UNL A   1      50.678  27.955  26.061  1.00  0.00     0.031 A 
ATOM     57  C   UNL A   1      45.542  32.633  26.756  1.00  0.00     0.031 A 
ATOM     58  C   UNL A   1      51.102  29.329  26.055  1.00  0.00     0.049 A 
ATOM     59  C   UNL A   1      46.984  33.049  26.694  1.00  0.00     0.074 A 
ATOM     60  C   UNL A   1      52.380  29.835  25.891  1.00  0.00     0.029 A 
ATOM     61  N   UNL A   1      50.261  30.416  26.234  1.00  0.00    -0.354 N 
ATOM     62  N   UNL A   1      48.050  32.305  26.522  1.00  0.00    -0.248 NA
ATOM     63  C   UNL A   1      47.267  34.483  26.845  1.00  0.00     0.031 C 
ATOM     64  C   UNL A   1      52.320  31.226  26.023  1.00  0.00     0.029 A 
ATOM     65  C   UNL A   1      50.997  31.588  26.225  1.00  0.00     0.049 A 
ATOM     66  H   UNL A   1      49.284  30.362  26.350  1.00  0.00     0.167 HD
ATOM     67  C   UNL A   1      49.127  33.180  26.532  1.00  0.00     0.074 A 
ATOM     68  C   UNL A   1      48.586  34.513  26.707  1.00  0.00     0.031 C 
ATOM     69  C   UNL A   1      50.447  32.904  26.411  1.00  0.00     0.031 A 
BRANCH  56  70
ATOM     70  C   UNL A   1      51.737  26.892  25.989  1.00  0.00    -0.014 A 
ATOM     71  C   UNL A   1      52.151  26.359  24.758  1.00  0.00     0.009 A 
ATOM     72  C   UNL A   1      52.374  26.465  27.164  1.00  0.00     0.009 A 
ATOM     73  C   UNL A   1      53.164  25.400  24.709  1.00  0.00     0.001 A 
ATOM     74  C   UNL A   1      53.402  25.522  27.110  1.00  0.00     0.001 A 
ATOM     75  C   UNL A   1      53.792  24.987  25.884  1.00  0.00     0.000 A 
ENDBRANCH  56  70
BRANCH  57  76
ATOM     76  C   UNL A   1      44.474  33.638  26.984  1.00  0.00    -0.014 A 
ATOM     77  C   UNL A   1      43.894  34.319  25.904  1.00  0.00     0.009 A 
ATOM     78  C   UNL A   1      44.035  33.928  28.287  1.00  0.00     0.009 A 
ATOM     79  C   UNL A   1      42.909  35.285  26.126  1.00  0.00     0.001 A 
ATOM     80  C   UNL A   1      43.033  34.876  28.502  1.00  0.00     0.001 A 
ATOM     81  C   UNL A   1      42.476  35.559  27.422  1.00  0.00     0.000 A 
ENDBRANCH  57  76
BRANCH  69  82
ATOM     82  C   UNL A   1      51.397  34.064  26.456  1.00  0.00    -0.014 A 
ATOM     83  C   UNL A   1      51.687  34.803  25.299  1.00  0.00     0.009 A 
ATOM     84  C   UNL A   1      51.971  34.453  27.676  1.00  0.00     0.009 A 
ATOM     85  C   UNL A   1      52.552  35.896  25.359  1.00  0.00     0.001 A 
ATOM     86  C   UNL A   1      52.817  35.560  27.737  1.00  0.00     0.001 A 
ATOM     87  C   UNL A   1      53.112  36.277  26.578  1.00  0.00     0.000 A 
ENDBRANCH  69  82
ENDBRANCH  43  44
ENDBRANCH  35  38
ENDBRANCH  33  34
ENDBRANCH  32  33
ENDBRANCH   1  32
TORSDOF 15
ENDMDL
MODEL 3
REMARK VINA RESULT:     -10.3      9.529     15.683
REMARK SMILES COc1ccc(/C=C2/SC(=S)N(c3ccc(C(=O)NCCCNC(=O)c4ccc(-c5c6nc(c(-c7ccccc7)c7ccc([nH]7)c(-c7ccccc7)c7nc(c(-c8ccccc8)c8ccc5[nH]8)C=C7)C=C6)cc4)c(O)c3)C2=O)cc1OC
REMARK SMILES IDX 20 1 19 2 17 3 18 4 16 6 13 7 14 8 76 9 15 10 74 11 12 12
REMARK SMILES IDX 7 13 8 14 9 15 77 16 10 17 78 18 11 19 6 20 3 21 4 22 80 23
REMARK SMILES IDX 5 24 79 25 2 26 1 27 81 28 82 29 75 30 21 32 22 33 23 34
REMARK SMILES IDX 24 35 25 37 26 38 27 39 73 40 28 41 72 42 29 43 30 44 31 45
REMARK SMILES IDX 66 46 32 47 71 48 65 49 67 50 33 51 70 52 64 53 63 54 34 56
REMARK SMILES IDX 56 57 41 58 55 59 42 60 45 61 54 62 68 63 43 64 44 65 53 67
REMARK SMILES IDX 69 68 46 69 35 70 36 71 40 72 37 73 39 74 38 75 57 76 58 77
REMARK SMILES IDX 62 78 59 79 61 80 60 81 47 82 48 83 52 84 49 85 51 86 50 87
REMARK H PARENT 19 5 75 31 23 36 67 55 45 66
REMARK Flexibility Score: inf
ROOT
ATOM      1  C   UNL A   1      46.113  24.206  33.589  1.00  0.00     0.118 C 
ENDROOT
BRANCH   1   2
ATOM      2  N   UNL A   1      44.923  24.363  34.405  1.00  0.00    -0.352 N 
ATOM      3  C   UNL A   1      44.486  23.713  35.530  1.00  0.00     0.255 C 
ATOM      4  O   UNL A   1      43.400  24.074  35.989  1.00  0.00    -0.269 OA
ATOM      5  H   UNL A   1      44.315  25.071  34.091  1.00  0.00     0.163 HD
BRANCH   3   6
ATOM      6  C   UNL A   1      45.266  22.685  36.278  1.00  0.00     0.081 A 
ATOM      7  C   UNL A   1      46.714  20.921  37.958  1.00  0.00     0.054 A 
ATOM      8  C   UNL A   1      46.398  22.206  38.398  1.00  0.00     0.028 A 
ATOM      9  C   UNL A   1      46.270  20.506  36.699  1.00  0.00     0.073 A 
ATOM     10  C   UNL A   1      45.707  23.083  37.555  1.00  0.00     0.020 A 
ATOM     11  C   UNL A   1      45.516  21.365  35.888  1.00  0.00     0.130 A 
BRANCH   7  12
ATOM     12  N   UNL A   1      47.352  19.986  38.817  1.00  0.00    -0.261 N 
ATOM     13  C   UNL A   1      46.932  16.947  40.740  1.00  0.00     0.029 C 
ATOM     14  C   UNL A   1      47.390  18.096  40.221  1.00  0.00     0.081 C 
ATOM     15  S   UNL A   1      49.060  18.397  39.925  1.00  0.00    -0.054 SA
ATOM     16  C   UNL A   1      46.571  19.223  39.679  1.00  0.00     0.270 C 
ATOM     17  C   UNL A   1      48.712  19.723  38.813  1.00  0.00     0.152 C 
ATOM     18  O   UNL A   1      45.396  19.404  39.955  1.00  0.00    -0.268 OA
ATOM     19  S   UNL A   1      49.935  20.504  37.981  1.00  0.00    -0.051 S 
BRANCH  13  20
ATOM     20  C   UNL A   1      45.515  16.576  40.772  1.00  0.00    -0.020 A 
ATOM     21  C   UNL A   1      42.846  15.728  40.914  1.00  0.00     0.160 A 
ATOM     22  C   UNL A   1      43.516  15.776  39.682  1.00  0.00     0.051 A 
ATOM     23  C   UNL A   1      43.506  16.110  42.088  1.00  0.00     0.161 A 
ATOM     24  C   UNL A   1      44.844  16.206  39.608  1.00  0.00     0.012 A 
ATOM     25  C   UNL A   1      44.832  16.551  41.996  1.00  0.00     0.058 A 
BRANCH  21  26
ATOM     26  O   UNL A   1      41.580  15.209  40.945  1.00  0.00    -0.493 OA
ATOM     27  C   UNL A   1      41.528  13.902  40.376  1.00  0.00     0.278 C 
ENDBRANCH  21  26
BRANCH  23  28
ATOM     28  O   UNL A   1      43.038  16.119  43.374  1.00  0.00    -0.493 OA
ATOM     29  C   UNL A   1      43.142  14.933  44.145  1.00  0.00     0.278 C 
ENDBRANCH  23  28
ENDBRANCH  13  20
ENDBRANCH   7  12
BRANCH  11  30
ATOM     30  O   UNL A   1      44.973  20.835  34.754  1.00  0.00    -0.507 OA
ATOM     31  H   UNL A   1      45.048  19.917  34.583  1.00  0.00     0.293 HD
ENDBRANCH  11  30
ENDBRANCH   3   6
ENDBRANCH   1   2
BRANCH   1  32
ATOM     32  C   UNL A   1      47.377  24.413  34.425  1.00  0.00     0.042 C 
BRANCH  32  33
ATOM     33  C   UNL A   1      47.998  25.797  34.264  1.00  0.00     0.118 C 
BRANCH  33  34
ATOM     34  N   UNL A   1      48.128  26.489  35.538  1.00  0.00    -0.352 N 
ATOM     35  C   UNL A   1      47.420  27.555  36.036  1.00  0.00     0.251 C 
ATOM     36  H   UNL A   1      48.830  26.140  36.133  1.00  0.00     0.163 HD
ATOM     37  O   UNL A   1      47.826  28.143  37.035  1.00  0.00    -0.269 OA
BRANCH  35  38
ATOM     38  C   UNL A   1      46.180  28.017  35.371  1.00  0.00     0.039 A 
ATOM     39  C   UNL A   1      44.958  27.458  35.760  1.00  0.00     0.014 A 
ATOM     40  C   UNL A   1      46.216  28.967  34.347  1.00  0.00     0.014 A 
ATOM     41  C   UNL A   1      43.768  27.905  35.178  1.00  0.00     0.010 A 
ATOM     42  C   UNL A   1      45.026  29.453  33.806  1.00  0.00     0.010 A 
ATOM     43  C   UNL A   1      43.791  28.934  34.224  1.00  0.00    -0.014 A 
BRANCH  43  44
ATOM     44  C   UNL A   1      42.537  29.518  33.683  1.00  0.00     0.031 A 
ATOM     45  C   UNL A   1      41.987  29.056  32.363  1.00  0.00     0.074 A 
ATOM     46  C   UNL A   1      41.950  30.538  34.339  1.00  0.00     0.049 A 
ATOM     47  N   UNL A   1      40.977  29.533  31.680  1.00  0.00    -0.248 NA
ATOM     48  C   UNL A   1      42.672  27.926  31.716  1.00  0.00     0.031 C 
ATOM     49  C   UNL A   1      42.406  31.105  35.610  1.00  0.00     0.029 A 
ATOM     50  N   UNL A   1      40.853  31.298  34.010  1.00  0.00    -0.354 N 
ATOM     51  C   UNL A   1      40.920  28.779  30.515  1.00  0.00     0.074 A 
ATOM     52  C   UNL A   1      42.011  27.829  30.571  1.00  0.00     0.031 C 
ATOM     53  C   UNL A   1      41.599  32.121  35.953  1.00  0.00     0.029 A 
ATOM     54  C   UNL A   1      40.597  32.306  34.908  1.00  0.00     0.049 A 
ATOM     55  H   UNL A   1      40.305  31.137  33.209  1.00  0.00     0.167 HD
ATOM     56  C   UNL A   1      40.033  28.865  29.494  1.00  0.00     0.031 A 
ATOM     57  C   UNL A   1      39.676  33.288  34.884  1.00  0.00     0.031 A 
ATOM     58  C   UNL A   1      38.938  29.796  29.446  1.00  0.00     0.049 A 
ATOM     59  C   UNL A   1      38.722  33.376  33.728  1.00  0.00     0.074 A 
ATOM     60  C   UNL A   1      37.936  29.898  28.496  1.00  0.00     0.029 A 
ATOM     61  N   UNL A   1      38.709  30.795  30.378  1.00  0.00    -0.354 N 
ATOM     62  N   UNL A   1      38.630  32.602  32.674  1.00  0.00    -0.248 NA
ATOM     63  C   UNL A   1      37.746  34.475  33.756  1.00  0.00     0.031 C 
ATOM     64  C   UNL A   1      37.130  30.992  28.826  1.00  0.00     0.029 A 
ATOM     65  C   UNL A   1      37.605  31.543  30.006  1.00  0.00     0.049 A 
ATOM     66  H   UNL A   1      39.250  30.949  31.187  1.00  0.00     0.167 HD
ATOM     67  C   UNL A   1      37.581  33.111  31.921  1.00  0.00     0.074 A 
ATOM     68  C   UNL A   1      37.054  34.249  32.648  1.00  0.00     0.031 C 
ATOM     69  C   UNL A   1      37.100  32.677  30.732  1.00  0.00     0.031 A 
BRANCH  56  70
ATOM     70  C   UNL A   1      40.214  27.932  28.331  1.00  0.00    -0.014 A 
ATOM     71  C   UNL A   1      40.965  28.307  27.207  1.00  0.00     0.009 A 
ATOM     72  C   UNL A   1      39.677  26.637  28.390  1.00  0.00     0.009 A 
ATOM     73  C   UNL A   1      41.152  27.412  26.152  1.00  0.00     0.001 A 
ATOM     74  C   UNL A   1      39.885  25.736  27.344  1.00  0.00     0.001 A 
ATOM     75  C   UNL A   1      40.618  26.125  26.224  1.00  0.00     0.000 A 
ENDBRANCH  56  70
BRANCH  57  76
ATOM     76  C   UNL A   1      39.631  34.289  35.979  1.00  0.00    -0.014 A 
ATOM     77  C   UNL A   1      40.279  35.525  35.843  1.00  0.00     0.009 A 
ATOM     78  C   UNL A   1      38.944  34.009  37.172  1.00  0.00     0.009 A 
ATOM     79  C   UNL A   1      40.257  36.453  36.888  1.00  0.00     0.001 A 
ATOM     80  C   UNL A   1      38.903  34.948  38.204  1.00  0.00     0.001 A 
ATOM     81  C   UNL A   1      39.567  36.166  38.064  1.00  0.00     0.000 A 
ENDBRANCH  57  76
BRANCH  69  82
ATOM     82  C   UNL A   1      35.942  33.429  30.145  1.00  0.00    -0.014 A 
ATOM     83  C   UNL A   1      34.746  33.583  30.863  1.00  0.00     0.009 A 
ATOM     84  C   UNL A   1      36.064  34.031  28.883  1.00  0.00     0.009 A 
ATOM     85  C   UNL A   1      33.685  34.308  30.318  1.00  0.00     0.001 A 
ATOM     86  C   UNL A   1      35.010  34.774  28.351  1.00  0.00     0.001 A 
ATOM     87  C   UNL A   1      33.820  34.907  29.065  1.00  0.00     0.000 A 
ENDBRANCH  69  82
ENDBRANCH  43  44
ENDBRANCH  35  38
ENDBRANCH  33  34
ENDBRANCH  32  33
ENDBRANCH   1  32
TORSDOF 15
ENDMDL
