MODEL 1
REMARK VINA RESULT:     -11.0      0.000      0.000
REMARK SMILES COc1cc([N+](=O)[O-])cc([C@H]2[NH2+][C@H](C(=O)NCCCNC(=O)c3ccc(-c4c5nc(c(-c6ccccc6)c6ccc([nH]6)c(-c6ccccc6)c6nc(c(-c7ccccc7)c7ccc4[nH]7)C=C6)C=C5)cc3)CS2)c1O
REMARK SMILES IDX 18 1 17 2 16 3 14 4 15 5 13 7 11 8 12 9 72 10 71 13 10 14
REMARK SMILES IDX 3 15 4 16 73 17 5 18 9 19 2 20 1 21 74 22 6 24 7 25 8 26
REMARK SMILES IDX 19 27 20 28 21 29 22 31 23 32 24 33 70 34 25 35 69 36 26 37
REMARK SMILES IDX 27 38 28 39 63 40 29 41 68 42 62 43 64 44 30 45 67 46 61 47
REMARK SMILES IDX 60 48 31 50 53 51 38 52 52 53 39 54 42 55 51 56 65 57 40 58
REMARK SMILES IDX 41 59 50 61 66 62 43 63 32 64 33 65 37 66 34 67 36 68 35 69
REMARK SMILES IDX 54 70 55 71 59 72 56 73 58 74 57 75 44 76 45 77 49 78 46 79
REMARK SMILES IDX 48 80 47 81
REMARK H PARENT 16 6 12 11 12 12 74 23 20 30 64 49 42 60
REMARK Flexibility Score: inf
ROOT
ATOM      1  C   UNL A   1      31.975  28.101  27.063  1.00  0.00     0.042 C 
ENDROOT
BRANCH   1   2
ATOM      2  C   UNL A   1      31.856  26.882  26.155  1.00  0.00     0.118 C 
BRANCH   2   3
ATOM      3  N   UNL A   1      31.220  25.750  26.796  1.00  0.00    -0.351 N 
ATOM      4  C   UNL A   1      31.264  24.420  26.504  1.00  0.00     0.279 C 
ATOM      5  O   UNL A   1      30.634  23.660  27.246  1.00  0.00    -0.268 OA
ATOM      6  H   UNL A   1      30.660  25.981  27.573  1.00  0.00     0.163 HD
BRANCH   4   7
ATOM      7  C   UNL A   1      32.074  23.852  25.328  1.00  0.00     0.283 C 
ATOM      8  C   UNL A   1      32.713  21.546  24.901  1.00  0.00     0.278 C 
ATOM      9  N   UNL A   1      32.933  22.714  25.764  1.00  0.00    -0.320 N 
ATOM     10  S   UNL A   1      32.184  22.216  23.309  1.00  0.00    -0.087 SA
ATOM     11  H   UNL A   1      33.913  22.992  25.709  1.00  0.00     0.348 HD
ATOM     12  H   UNL A   1      32.693  22.465  26.724  1.00  0.00     0.348 HD
ATOM     13  C   UNL A   1      31.237  23.534  24.099  1.00  0.00     0.151 C 
BRANCH   8  14
ATOM     14  C   UNL A   1      33.883  20.562  24.897  1.00  0.00     0.073 A 
ATOM     15  C   UNL A   1      36.282  19.991  24.880  1.00  0.00     0.167 A 
ATOM     16  C   UNL A   1      35.971  18.656  24.606  1.00  0.00     0.136 A 
ATOM     17  C   UNL A   1      35.243  20.938  25.009  1.00  0.00     0.168 A 
ATOM     18  C   UNL A   1      34.644  18.268  24.450  1.00  0.00     0.273 A 
ATOM     19  C   UNL A   1      33.613  19.206  24.585  1.00  0.00     0.100 A 
BRANCH  15  20
ATOM     20  O   UNL A   1      37.634  20.191  24.966  1.00  0.00    -0.493 OA
ATOM     21  C   UNL A   1      38.473  19.105  25.330  1.00  0.00     0.278 C 
ENDBRANCH  15  20
BRANCH  17  22
ATOM     22  O   UNL A   1      35.585  22.249  25.199  1.00  0.00    -0.504 OA
ATOM     23  H   UNL A   1      35.918  22.755  24.483  1.00  0.00     0.293 HD
ENDBRANCH  17  22
BRANCH  18  24
ATOM     24  N   UNL A   1      34.325  16.875  24.113  1.00  0.00     0.062 N 
ATOM     25  O   UNL A   1      33.516  16.671  23.198  1.00  0.00    -0.258 OA
ATOM     26  O   UNL A   1      34.884  15.983  24.769  1.00  0.00    -0.258 OA
ENDBRANCH  18  24
ENDBRANCH   8  14
ENDBRANCH   4   7
ENDBRANCH   2   3
ENDBRANCH   1   2
BRANCH   1  27
ATOM     27  C   UNL A   1      33.408  28.577  27.277  1.00  0.00     0.118 C 
BRANCH  27  28
ATOM     28  N   UNL A   1      33.470  29.977  27.666  1.00  0.00    -0.352 N 
ATOM     29  C   UNL A   1      34.468  30.695  28.273  1.00  0.00     0.251 C 
ATOM     30  H   UNL A   1      32.660  30.496  27.459  1.00  0.00     0.163 HD
ATOM     31  O   UNL A   1      34.212  31.821  28.694  1.00  0.00    -0.269 OA
BRANCH  29  32
ATOM     32  C   UNL A   1      35.836  30.152  28.425  1.00  0.00     0.039 A 
ATOM     33  C   UNL A   1      36.206  29.627  29.670  1.00  0.00     0.014 A 
ATOM     34  C   UNL A   1      36.785  30.237  27.402  1.00  0.00     0.014 A 
ATOM     35  C   UNL A   1      37.511  29.176  29.879  1.00  0.00     0.010 A 
ATOM     36  C   UNL A   1      38.064  29.717  27.587  1.00  0.00     0.010 A 
ATOM     37  C   UNL A   1      38.448  29.210  28.836  1.00  0.00    -0.014 A 
BRANCH  37  38
ATOM     38  C   UNL A   1      39.847  28.775  29.061  1.00  0.00     0.031 A 
ATOM     39  C   UNL A   1      40.818  29.683  29.767  1.00  0.00     0.074 A 
ATOM     40  C   UNL A   1      40.254  27.571  28.619  1.00  0.00     0.049 A 
ATOM     41  N   UNL A   1      42.073  29.473  30.074  1.00  0.00    -0.248 NA
ATOM     42  C   UNL A   1      40.317  31.010  30.159  1.00  0.00     0.031 C 
ATOM     43  C   UNL A   1      39.420  26.610  27.893  1.00  0.00     0.029 A 
ATOM     44  N   UNL A   1      41.470  26.948  28.725  1.00  0.00    -0.354 N 
ATOM     45  C   UNL A   1      42.514  30.646  30.678  1.00  0.00     0.074 A 
ATOM     46  C   UNL A   1      41.409  31.579  30.645  1.00  0.00     0.031 C 
ATOM     47  C   UNL A   1      40.138  25.500  27.659  1.00  0.00     0.029 A 
ATOM     48  C   UNL A   1      41.485  25.682  28.191  1.00  0.00     0.049 A 
ATOM     49  H   UNL A   1      42.257  27.366  29.142  1.00  0.00     0.167 HD
ATOM     50  C   UNL A   1      43.721  30.917  31.230  1.00  0.00     0.031 A 
ATOM     51  C   UNL A   1      42.470  24.766  28.152  1.00  0.00     0.031 A 
ATOM     52  C   UNL A   1      44.818  29.989  31.272  1.00  0.00     0.049 A 
ATOM     53  C   UNL A   1      43.797  25.084  28.776  1.00  0.00     0.074 A 
ATOM     54  C   UNL A   1      46.069  30.151  31.843  1.00  0.00     0.029 A 
ATOM     55  N   UNL A   1      44.792  28.717  30.721  1.00  0.00    -0.354 N 
ATOM     56  N   UNL A   1      44.182  26.176  29.392  1.00  0.00    -0.248 NA
ATOM     57  C   UNL A   1      44.821  24.031  28.716  1.00  0.00     0.031 C 
ATOM     58  C   UNL A   1      46.811  28.988  31.607  1.00  0.00     0.029 A 
ATOM     59  C   UNL A   1      46.007  28.086  30.930  1.00  0.00     0.049 A 
ATOM     60  H   UNL A   1      44.023  28.321  30.251  1.00  0.00     0.167 HD
ATOM     61  C   UNL A   1      45.480  25.930  29.820  1.00  0.00     0.074 A 
ATOM     62  C   UNL A   1      45.812  24.584  29.402  1.00  0.00     0.031 C 
ATOM     63  C   UNL A   1      46.319  26.746  30.506  1.00  0.00     0.031 A 
BRANCH  50  64
ATOM     64  C   UNL A   1      43.905  32.287  31.823  1.00  0.00    -0.014 A 
ATOM     65  C   UNL A   1      43.589  32.545  33.167  1.00  0.00     0.009 A 
ATOM     66  C   UNL A   1      44.391  33.335  31.027  1.00  0.00     0.009 A 
ATOM     67  C   UNL A   1      43.706  33.836  33.687  1.00  0.00     0.001 A 
ATOM     68  C   UNL A   1      44.535  34.618  31.558  1.00  0.00     0.001 A 
ATOM     69  C   UNL A   1      44.181  34.870  32.883  1.00  0.00     0.000 A 
ENDBRANCH  50  64
BRANCH  51  70
ATOM     70  C   UNL A   1      42.210  23.432  27.556  1.00  0.00    -0.014 A 
ATOM     71  C   UNL A   1      41.568  22.437  28.310  1.00  0.00     0.009 A 
ATOM     72  C   UNL A   1      42.582  23.150  26.234  1.00  0.00     0.009 A 
ATOM     73  C   UNL A   1      41.319  21.180  27.757  1.00  0.00     0.001 A 
ATOM     74  C   UNL A   1      42.314  21.898  25.675  1.00  0.00     0.001 A 
ATOM     75  C   UNL A   1      41.688  20.913  26.439  1.00  0.00     0.000 A 
ENDBRANCH  51  70
BRANCH  63  76
ATOM     76  C   UNL A   1      47.660  26.183  30.879  1.00  0.00    -0.014 A 
ATOM     77  C   UNL A   1      47.908  25.677  32.164  1.00  0.00     0.009 A 
ATOM     78  C   UNL A   1      48.684  26.141  29.920  1.00  0.00     0.009 A 
ATOM     79  C   UNL A   1      49.169  25.175  32.492  1.00  0.00     0.001 A 
ATOM     80  C   UNL A   1      49.935  25.616  30.244  1.00  0.00     0.001 A 
ATOM     81  C   UNL A   1      50.180  25.143  31.532  1.00  0.00     0.000 A 
ENDBRANCH  63  76
ENDBRANCH  37  38
ENDBRANCH  29  32
ENDBRANCH  27  28
ENDBRANCH   1  27
TORSDOF 14
ENDMDL
MODEL 2
REMARK VINA RESULT:     -11.0      2.209      8.250
REMARK SMILES COc1cc([N+](=O)[O-])cc([C@H]2[NH2+][C@H](C(=O)NCCCNC(=O)c3ccc(-c4c5nc(c(-c6ccccc6)c6ccc([nH]6)c(-c6ccccc6)c6nc(c(-c7ccccc7)c7ccc4[nH]7)C=C6)C=C5)cc3)CS2)c1O
REMARK SMILES IDX 18 1 17 2 16 3 14 4 15 5 13 7 11 8 12 9 72 10 71 13 10 14
REMARK SMILES IDX 3 15 4 16 73 17 5 18 9 19 2 20 1 21 74 22 6 24 7 25 8 26
REMARK SMILES IDX 19 27 20 28 21 29 22 31 23 32 24 33 70 34 25 35 69 36 26 37
REMARK SMILES IDX 27 38 28 39 63 40 29 41 68 42 62 43 64 44 30 45 67 46 61 47
REMARK SMILES IDX 60 48 31 50 53 51 38 52 52 53 39 54 42 55 51 56 65 57 40 58
REMARK SMILES IDX 41 59 50 61 66 62 43 63 32 64 33 65 37 66 34 67 36 68 35 69
REMARK SMILES IDX 54 70 55 71 59 72 56 73 58 74 57 75 44 76 45 77 49 78 46 79
REMARK SMILES IDX 48 80 47 81
REMARK H PARENT 16 6 12 11 12 12 74 23 20 30 64 49 42 60
REMARK Flexibility Score: inf
ROOT
ATOM      1  C   UNL A   1      37.322  19.700  25.110  1.00  0.00     0.042 C 
ENDROOT
BRANCH   1   2
ATOM      2  C   UNL A   1      36.163  20.670  24.903  1.00  0.00     0.118 C 
BRANCH   2   3
ATOM      3  N   UNL A   1      36.463  21.725  23.957  1.00  0.00    -0.351 N 
ATOM      4  C   UNL A   1      35.705  22.769  23.518  1.00  0.00     0.279 C 
ATOM      5  O   UNL A   1      36.230  23.545  22.713  1.00  0.00    -0.268 OA
ATOM      6  H   UNL A   1      37.364  21.679  23.562  1.00  0.00     0.163 HD
BRANCH   4   7
ATOM      7  C   UNL A   1      34.269  23.018  24.004  1.00  0.00     0.283 C 
ATOM      8  C   UNL A   1      32.624  24.583  23.135  1.00  0.00     0.278 C 
ATOM      9  N   UNL A   1      33.892  24.454  23.865  1.00  0.00    -0.320 N 
ATOM     10  S   UNL A   1      31.727  23.048  23.455  1.00  0.00    -0.087 SA
ATOM     11  H   UNL A   1      33.790  24.866  24.792  1.00  0.00     0.348 HD
ATOM     12  H   UNL A   1      34.624  24.939  23.344  1.00  0.00     0.348 HD
ATOM     13  C   UNL A   1      33.242  22.069  23.405  1.00  0.00     0.151 C 
BRANCH   8  14
ATOM     14  C   UNL A   1      31.893  25.897  23.412  1.00  0.00     0.073 A 
ATOM     15  C   UNL A   1      30.787  27.992  22.725  1.00  0.00     0.167 A 
ATOM     16  C   UNL A   1      30.796  28.439  24.049  1.00  0.00     0.136 A 
ATOM     17  C   UNL A   1      31.346  26.734  22.410  1.00  0.00     0.168 A 
ATOM     18  C   UNL A   1      31.363  27.654  25.047  1.00  0.00     0.273 A 
ATOM     19  C   UNL A   1      31.912  26.403  24.736  1.00  0.00     0.100 A 
BRANCH  15  20
ATOM     20  O   UNL A   1      30.220  28.909  21.881  1.00  0.00    -0.493 OA
ATOM     21  C   UNL A   1      29.167  29.731  22.359  1.00  0.00     0.278 C 
ENDBRANCH  15  20
BRANCH  17  22
ATOM     22  O   UNL A   1      31.393  26.360  21.095  1.00  0.00    -0.504 OA
ATOM     23  H   UNL A   1      30.846  25.665  20.785  1.00  0.00     0.293 HD
ENDBRANCH  17  22
BRANCH  18  24
ATOM     24  N   UNL A   1      31.415  28.151  26.427  1.00  0.00     0.062 N 
ATOM     25  O   UNL A   1      31.085  27.376  27.335  1.00  0.00    -0.258 OA
ATOM     26  O   UNL A   1      31.782  29.323  26.602  1.00  0.00    -0.258 OA
ENDBRANCH  18  24
ENDBRANCH   8  14
ENDBRANCH   4   7
ENDBRANCH   2   3
ENDBRANCH   1   2
BRANCH   1  27
ATOM     27  C   UNL A   1      38.666  20.382  25.343  1.00  0.00     0.118 C 
BRANCH  27  28
ATOM     28  N   UNL A   1      39.727  19.426  25.619  1.00  0.00    -0.352 N 
ATOM     29  C   UNL A   1      41.010  19.614  26.065  1.00  0.00     0.251 C 
ATOM     30  H   UNL A   1      39.483  18.486  25.459  1.00  0.00     0.163 HD
ATOM     31  O   UNL A   1      41.793  18.668  26.024  1.00  0.00    -0.269 OA
BRANCH  29  32
ATOM     32  C   UNL A   1      41.466  20.918  26.595  1.00  0.00     0.039 A 
ATOM     33  C   UNL A   1      41.309  21.169  27.963  1.00  0.00     0.014 A 
ATOM     34  C   UNL A   1      41.956  21.927  25.760  1.00  0.00     0.014 A 
ATOM     35  C   UNL A   1      41.655  22.414  28.491  1.00  0.00     0.010 A 
ATOM     36  C   UNL A   1      42.372  23.142  26.298  1.00  0.00     0.010 A 
ATOM     37  C   UNL A   1      42.197  23.409  27.663  1.00  0.00    -0.014 A 
BRANCH  37  38
ATOM     38  C   UNL A   1      42.526  24.749  28.205  1.00  0.00     0.031 A 
ATOM     39  C   UNL A   1      43.951  25.103  28.536  1.00  0.00     0.074 A 
ATOM     40  C   UNL A   1      41.544  25.645  28.417  1.00  0.00     0.049 A 
ATOM     41  N   UNL A   1      44.438  26.227  28.998  1.00  0.00    -0.248 NA
ATOM     42  C   UNL A   1      44.957  24.046  28.342  1.00  0.00     0.031 C 
ATOM     43  C   UNL A   1      40.120  25.415  28.169  1.00  0.00     0.029 A 
ATOM     44  N   UNL A   1      41.601  26.933  28.882  1.00  0.00    -0.354 N 
ATOM     45  C   UNL A   1      45.800  26.006  29.165  1.00  0.00     0.074 A 
ATOM     46  C   UNL A   1      46.052  24.627  28.806  1.00  0.00     0.031 C 
ATOM     47  C   UNL A   1      39.442  26.542  28.440  1.00  0.00     0.029 A 
ATOM     48  C   UNL A   1      40.378  27.560  28.908  1.00  0.00     0.049 A 
ATOM     49  H   UNL A   1      42.436  27.368  29.169  1.00  0.00     0.167 HD
ATOM     50  C   UNL A   1      46.761  26.874  29.560  1.00  0.00     0.031 A 
ATOM     51  C   UNL A   1      40.053  28.819  29.253  1.00  0.00     0.031 A 
ATOM     52  C   UNL A   1      46.516  28.248  29.909  1.00  0.00     0.049 A 
ATOM     53  C   UNL A   1      41.134  29.768  29.681  1.00  0.00     0.074 A 
ATOM     54  C   UNL A   1      47.426  29.222  30.284  1.00  0.00     0.029 A 
ATOM     55  N   UNL A   1      45.265  28.843  29.922  1.00  0.00    -0.354 N 
ATOM     56  N   UNL A   1      42.425  29.561  29.782  1.00  0.00    -0.248 NA
ATOM     57  C   UNL A   1      40.713  31.133  30.025  1.00  0.00     0.031 C 
ATOM     58  C   UNL A   1      46.717  30.399  30.556  1.00  0.00     0.029 A 
ATOM     59  C   UNL A   1      45.374  30.169  30.307  1.00  0.00     0.049 A 
ATOM     60  H   UNL A   1      44.421  28.389  29.691  1.00  0.00     0.167 HD
ATOM     61  C   UNL A   1      42.973  30.777  30.169  1.00  0.00     0.074 A 
ATOM     62  C   UNL A   1      41.876  31.717  30.275  1.00  0.00     0.031 C 
ATOM     63  C   UNL A   1      44.271  31.088  30.408  1.00  0.00     0.031 A 
BRANCH  50  64
ATOM     64  C   UNL A   1      48.167  26.345  29.641  1.00  0.00    -0.014 A 
ATOM     65  C   UNL A   1      48.658  25.765  30.822  1.00  0.00     0.009 A 
ATOM     66  C   UNL A   1      49.014  26.436  28.527  1.00  0.00     0.009 A 
ATOM     67  C   UNL A   1      49.984  25.334  30.902  1.00  0.00     0.001 A 
ATOM     68  C   UNL A   1      50.331  25.977  28.599  1.00  0.00     0.001 A 
ATOM     69  C   UNL A   1      50.818  25.439  29.790  1.00  0.00     0.000 A 
ENDBRANCH  50  64
BRANCH  51  70
ATOM     70  C   UNL A   1      38.644  29.272  29.141  1.00  0.00    -0.014 A 
ATOM     71  C   UNL A   1      38.166  29.786  27.925  1.00  0.00     0.009 A 
ATOM     72  C   UNL A   1      37.769  29.178  30.232  1.00  0.00     0.009 A 
ATOM     73  C   UNL A   1      36.842  30.214  27.810  1.00  0.00     0.001 A 
ATOM     74  C   UNL A   1      36.439  29.587  30.108  1.00  0.00     0.001 A 
ATOM     75  C   UNL A   1      35.979  30.109  28.900  1.00  0.00     0.000 A 
ENDBRANCH  51  70
BRANCH  63  76
ATOM     76  C   UNL A   1      44.573  32.515  30.766  1.00  0.00    -0.014 A 
ATOM     77  C   UNL A   1      44.600  32.944  32.102  1.00  0.00     0.009 A 
ATOM     78  C   UNL A   1      44.854  33.439  29.747  1.00  0.00     0.009 A 
ATOM     79  C   UNL A   1      44.866  34.279  32.408  1.00  0.00     0.001 A 
ATOM     80  C   UNL A   1      45.144  34.768  30.058  1.00  0.00     0.001 A 
ATOM     81  C   UNL A   1      45.139  35.189  31.386  1.00  0.00     0.000 A 
ENDBRANCH  63  76
ENDBRANCH  37  38
ENDBRANCH  29  32
ENDBRANCH  27  28
ENDBRANCH   1  27
TORSDOF 14
ENDMDL
MODEL 3
REMARK VINA RESULT:     -11.0      1.623      6.253
REMARK SMILES COc1cc([N+](=O)[O-])cc([C@H]2[NH2+][C@H](C(=O)NCCCNC(=O)c3ccc(-c4c5nc(c(-c6ccccc6)c6ccc([nH]6)c(-c6ccccc6)c6nc(c(-c7ccccc7)c7ccc4[nH]7)C=C6)C=C5)cc3)CS2)c1O
REMARK SMILES IDX 18 1 17 2 16 3 14 4 15 5 13 7 11 8 12 9 72 10 71 13 10 14
REMARK SMILES IDX 3 15 4 16 73 17 5 18 9 19 2 20 1 21 74 22 6 24 7 25 8 26
REMARK SMILES IDX 19 27 20 28 21 29 22 31 23 32 24 33 70 34 25 35 69 36 26 37
REMARK SMILES IDX 27 38 28 39 63 40 29 41 68 42 62 43 64 44 30 45 67 46 61 47
REMARK SMILES IDX 60 48 31 50 53 51 38 52 52 53 39 54 42 55 51 56 65 57 40 58
REMARK SMILES IDX 41 59 50 61 66 62 43 63 32 64 33 65 37 66 34 67 36 68 35 69
REMARK SMILES IDX 54 70 55 71 59 72 56 73 58 74 57 75 44 76 45 77 49 78 46 79
REMARK SMILES IDX 48 80 47 81
REMARK H PARENT 16 6 12 11 12 12 74 23 20 30 64 49 42 60
REMARK Flexibility Score: inf
ROOT
ATOM      1  C   UNL A   1      33.937  27.980  26.128  1.00  0.00     0.042 C 
ENDROOT
BRANCH   1   2
ATOM      2  C   UNL A   1      32.944  28.117  24.978  1.00  0.00     0.118 C 
BRANCH   2   3
ATOM      3  N   UNL A   1      33.574  28.442  23.715  1.00  0.00    -0.351 N 
ATOM      4  C   UNL A   1      33.684  27.721  22.564  1.00  0.00     0.279 C 
ATOM      5  O   UNL A   1      34.261  28.262  21.615  1.00  0.00    -0.268 OA
ATOM      6  H   UNL A   1      33.994  29.332  23.683  1.00  0.00     0.163 HD
BRANCH   4   7
ATOM      7  C   UNL A   1      33.103  26.307  22.408  1.00  0.00     0.283 C 
ATOM      8  C   UNL A   1      32.936  24.544  24.074  1.00  0.00     0.278 C 
ATOM      9  N   UNL A   1      33.857  25.319  23.232  1.00  0.00    -0.320 N 
ATOM     10  S   UNL A   1      31.363  24.537  23.185  1.00  0.00    -0.087 SA
ATOM     11  H   UNL A   1      34.363  24.684  22.615  1.00  0.00     0.348 HD
ATOM     12  H   UNL A   1      34.512  25.820  23.833  1.00  0.00     0.348 HD
ATOM     13  C   UNL A   1      31.598  26.233  22.613  1.00  0.00     0.151 C 
BRANCH   8  14
ATOM     14  C   UNL A   1      33.502  23.194  24.513  1.00  0.00     0.073 A 
ATOM     15  C   UNL A   1      35.301  21.720  25.334  1.00  0.00     0.167 A 
ATOM     16  C   UNL A   1      34.525  20.596  25.039  1.00  0.00     0.136 A 
ATOM     17  C   UNL A   1      34.796  23.009  25.058  1.00  0.00     0.168 A 
ATOM     18  C   UNL A   1      33.267  20.748  24.466  1.00  0.00     0.273 A 
ATOM     19  C   UNL A   1      32.762  22.027  24.198  1.00  0.00     0.100 A 
BRANCH  15  20
ATOM     20  O   UNL A   1      36.518  21.376  25.859  1.00  0.00    -0.493 OA
ATOM     21  C   UNL A   1      37.640  21.271  24.996  1.00  0.00     0.278 C 
ENDBRANCH  15  20
BRANCH  17  22
ATOM     22  O   UNL A   1      35.611  24.084  25.285  1.00  0.00    -0.504 OA
ATOM     23  H   UNL A   1      35.987  24.217  26.133  1.00  0.00     0.293 HD
ENDBRANCH  17  22
BRANCH  18  24
ATOM     24  N   UNL A   1      32.477  19.562  24.111  1.00  0.00     0.062 N 
ATOM     25  O   UNL A   1      32.155  18.787  25.022  1.00  0.00    -0.258 OA
ATOM     26  O   UNL A   1      32.183  19.404  22.917  1.00  0.00    -0.258 OA
ENDBRANCH  18  24
ENDBRANCH   8  14
ENDBRANCH   4   7
ENDBRANCH   2   3
ENDBRANCH   1   2
BRANCH   1  27
ATOM     27  C   UNL A   1      33.393  28.446  27.474  1.00  0.00     0.118 C 
BRANCH  27  28
ATOM     28  N   UNL A   1      33.483  29.889  27.634  1.00  0.00    -0.352 N 
ATOM     29  C   UNL A   1      34.497  30.677  28.114  1.00  0.00     0.251 C 
ATOM     30  H   UNL A   1      32.680  30.382  27.350  1.00  0.00     0.163 HD
ATOM     31  O   UNL A   1      34.263  31.860  28.350  1.00  0.00    -0.269 OA
BRANCH  29  32
ATOM     32  C   UNL A   1      35.857  30.140  28.345  1.00  0.00     0.039 A 
ATOM     33  C   UNL A   1      36.170  29.657  29.622  1.00  0.00     0.014 A 
ATOM     34  C   UNL A   1      36.850  30.192  27.363  1.00  0.00     0.014 A 
ATOM     35  C   UNL A   1      37.464  29.215  29.904  1.00  0.00     0.010 A 
ATOM     36  C   UNL A   1      38.120  29.679  27.622  1.00  0.00     0.010 A 
ATOM     37  C   UNL A   1      38.447  29.214  28.904  1.00  0.00    -0.014 A 
BRANCH  37  38
ATOM     38  C   UNL A   1      39.834  28.788  29.206  1.00  0.00     0.031 A 
ATOM     39  C   UNL A   1      40.319  27.430  28.775  1.00  0.00     0.074 A 
ATOM     40  C   UNL A   1      40.656  29.612  29.882  1.00  0.00     0.049 A 
ATOM     41  N   UNL A   1      41.501  26.887  28.928  1.00  0.00    -0.248 NA
ATOM     42  C   UNL A   1      39.341  26.561  28.102  1.00  0.00     0.031 C 
ATOM     43  C   UNL A   1      40.298  30.940  30.383  1.00  0.00     0.029 A 
ATOM     44  N   UNL A   1      41.966  29.454  30.253  1.00  0.00    -0.354 N 
ATOM     45  C   UNL A   1      41.400  25.610  28.387  1.00  0.00     0.074 A 
ATOM     46  C   UNL A   1      40.032  25.441  27.952  1.00  0.00     0.031 C 
ATOM     47  C   UNL A   1      41.378  31.495  30.957  1.00  0.00     0.029 A 
ATOM     48  C   UNL A   1      42.491  30.553  30.890  1.00  0.00     0.049 A 
ATOM     49  H   UNL A   1      42.481  28.633  30.081  1.00  0.00     0.167 HD
ATOM     50  C   UNL A   1      42.363  24.668  28.245  1.00  0.00     0.031 A 
ATOM     51  C   UNL A   1      43.734  30.780  31.350  1.00  0.00     0.031 A 
ATOM     52  C   UNL A   1      43.727  24.835  28.669  1.00  0.00     0.049 A 
ATOM     53  C   UNL A   1      44.789  29.726  31.176  1.00  0.00     0.074 A 
ATOM     54  C   UNL A   1      44.790  23.958  28.535  1.00  0.00     0.029 A 
ATOM     55  N   UNL A   1      44.218  25.963  29.308  1.00  0.00    -0.354 N 
ATOM     56  N   UNL A   1      44.693  28.544  30.615  1.00  0.00    -0.248 NA
ATOM     57  C   UNL A   1      46.130  30.047  31.684  1.00  0.00     0.031 C 
ATOM     58  C   UNL A   1      45.916  24.543  29.125  1.00  0.00     0.029 A 
ATOM     59  C   UNL A   1      45.565  25.802  29.585  1.00  0.00     0.049 A 
ATOM     60  H   UNL A   1      43.686  26.761  29.533  1.00  0.00     0.167 HD
ATOM     61  C   UNL A   1      45.967  27.995  30.672  1.00  0.00     0.074 A 
ATOM     62  C   UNL A   1      46.819  28.976  31.315  1.00  0.00     0.031 C 
ATOM     63  C   UNL A   1      46.395  26.788  30.226  1.00  0.00     0.031 A 
BRANCH  50  64
ATOM     64  C   UNL A   1      41.955  23.368  27.609  1.00  0.00    -0.014 A 
ATOM     65  C   UNL A   1      41.342  22.352  28.361  1.00  0.00     0.009 A 
ATOM     66  C   UNL A   1      42.196  23.151  26.244  1.00  0.00     0.009 A 
ATOM     67  C   UNL A   1      41.025  21.127  27.771  1.00  0.00     0.001 A 
ATOM     68  C   UNL A   1      41.851  21.935  25.649  1.00  0.00     0.001 A 
ATOM     69  C   UNL A   1      41.278  20.920  26.415  1.00  0.00     0.000 A 
ENDBRANCH  50  64
BRANCH  51  70
ATOM     70  C   UNL A   1      44.064  32.092  31.961  1.00  0.00    -0.014 A 
ATOM     71  C   UNL A   1      44.515  33.149  31.156  1.00  0.00     0.009 A 
ATOM     72  C   UNL A   1      43.916  32.301  33.340  1.00  0.00     0.009 A 
ATOM     73  C   UNL A   1      44.827  34.386  31.721  1.00  0.00     0.001 A 
ATOM     74  C   UNL A   1      44.208  33.547  33.900  1.00  0.00     0.001 A 
ATOM     75  C   UNL A   1      44.669  34.585  33.092  1.00  0.00     0.000 A 
ENDBRANCH  51  70
BRANCH  63  76
ATOM     76  C   UNL A   1      47.858  26.485  30.382  1.00  0.00    -0.014 A 
ATOM     77  C   UNL A   1      48.358  25.876  31.543  1.00  0.00     0.009 A 
ATOM     78  C   UNL A   1      48.744  26.799  29.339  1.00  0.00     0.009 A 
ATOM     79  C   UNL A   1      49.724  25.622  31.672  1.00  0.00     0.001 A 
ATOM     80  C   UNL A   1      50.106  26.519  29.461  1.00  0.00     0.001 A 
ATOM     81  C   UNL A   1      50.596  25.941  30.631  1.00  0.00     0.000 A 
ENDBRANCH  63  76
ENDBRANCH  37  38
ENDBRANCH  29  32
ENDBRANCH  27  28
ENDBRANCH   1  27
TORSDOF 14
ENDMDL
