MODEL 1
REMARK VINA RESULT:     -12.8      0.000      0.000
REMARK SMILES CC1(C)[C@H](O)CC[C@@]2(C)[C@@H]1CC[C@@]1(C)Oc3oc(C(=O)NCCCNC(=O)c4ccc(-c5c6nc(c(-c7ccccc7)c7ccc([nH]7)c(-c7ccccc7)c7nc(c(-c8ccccc8)c8ccc5[nH]8)C=C7)C=C6)cc4)cc(=O)c3C[C@@H]21
REMARK SMILES IDX 23 1 22 2 21 3 19 4 20 5 18 7 1 8 2 9 4 10 10 11 3 12 6 13
REMARK SMILES IDX 8 14 11 15 7 16 81 17 9 18 12 19 13 20 80 21 15 22 14 23
REMARK SMILES IDX 79 24 16 25 77 26 17 27 76 28 78 29 5 30 24 32 25 33 26 34
REMARK SMILES IDX 27 36 28 37 29 38 75 39 30 40 74 41 31 42 32 43 33 44 68 45
REMARK SMILES IDX 34 46 73 47 67 48 69 49 35 50 72 51 66 52 65 53 36 55 58 56
REMARK SMILES IDX 43 57 57 58 44 59 47 60 56 61 70 62 45 63 46 64 55 66 71 67
REMARK SMILES IDX 48 68 37 69 38 70 42 71 39 72 41 73 40 74 59 75 60 76 64 77
REMARK SMILES IDX 61 78 63 79 62 80 49 81 50 82 54 83 51 84 53 85 52 86
REMARK H PARENT 21 6 5 31 25 35 69 54 47 65
REMARK Flexibility Score: inf
ROOT
ATOM      1  C   UNL A   1      42.302  18.796  26.486  1.00  0.00     0.042 C 
ENDROOT
BRANCH   1   2
ATOM      2  C   UNL A   1      41.535  19.590  27.534  1.00  0.00     0.118 C 
BRANCH   2   3
ATOM      3  N   UNL A   1      42.311  20.696  28.087  1.00  0.00    -0.349 N 
ATOM      4  C   UNL A   1      42.091  22.046  28.067  1.00  0.00     0.287 C 
ATOM      5  O   UNL A   1      42.967  22.796  28.487  1.00  0.00    -0.266 OA
ATOM      6  H   UNL A   1      43.135  20.423  28.553  1.00  0.00     0.163 HD
BRANCH   4   7
ATOM      7  C   UNL A   1      40.817  22.590  27.518  1.00  0.00     0.199 A 
ATOM      8  C   UNL A   1      32.800  23.875  22.143  1.00  0.00     0.014 C 
ATOM      9  C   UNL A   1      33.385  24.235  23.533  1.00  0.00    -0.006 C 
ATOM     10  C   UNL A   1      32.214  24.351  24.550  1.00  0.00     0.120 C 
ATOM     11  C   UNL A   1      34.350  23.055  24.018  1.00  0.00     0.004 C 
ATOM     12  C   UNL A   1      34.107  25.605  23.385  1.00  0.00     0.014 C 
ATOM     13  C   UNL A   1      32.684  24.731  25.958  1.00  0.00     0.033 C 
ATOM     14  C   UNL A   1      34.582  23.003  25.584  1.00  0.00    -0.022 C 
ATOM     15  C   UNL A   1      35.582  22.882  23.080  1.00  0.00     0.009 C 
ATOM     16  C   UNL A   1      34.136  24.343  26.239  1.00  0.00     0.010 C 
ATOM     17  C   UNL A   1      36.049  22.613  25.992  1.00  0.00     0.044 C 
ATOM     18  C   UNL A   1      33.648  21.918  26.228  1.00  0.00     0.012 C 
ATOM     19  C   UNL A   1      36.896  22.331  23.640  1.00  0.00     0.049 C 
ATOM     20  C   UNL A   1      36.776  21.657  25.010  1.00  0.00     0.113 C 
ATOM     21  C   UNL A   1      36.957  23.841  26.238  1.00  0.00     0.055 C 
ATOM     22  O   UNL A   1      38.094  21.296  25.501  1.00  0.00    -0.458 OA
ATOM     23  C   UNL A   1      36.101  20.288  24.826  1.00  0.00     0.057 C 
ATOM     24  C   UNL A   1      38.346  23.413  26.554  1.00  0.00     0.081 A 
ATOM     25  C   UNL A   1      38.819  22.195  26.255  1.00  0.00     0.292 A 
ATOM     26  C   UNL A   1      39.203  24.357  27.296  1.00  0.00     0.192 A 
ATOM     27  O   UNL A   1      40.054  21.754  26.718  1.00  0.00    -0.420 OA
ATOM     28  C   UNL A   1      40.513  23.873  27.733  1.00  0.00     0.105 A 
ATOM     29  O   UNL A   1      38.841  25.491  27.581  1.00  0.00    -0.289 OA
BRANCH  10  30
ATOM     30  O   UNL A   1      31.205  25.265  24.126  1.00  0.00    -0.393 OA
ATOM     31  H   UNL A   1      30.446  24.771  23.781  1.00  0.00     0.210 HD
ENDBRANCH  10  30
ENDBRANCH   4   7
ENDBRANCH   2   3
ENDBRANCH   1   2
BRANCH   1  32
ATOM     32  C   UNL A   1      42.705  19.602  25.257  1.00  0.00     0.118 C 
BRANCH  32  33
ATOM     33  N   UNL A   1      43.908  19.092  24.615  1.00  0.00    -0.352 N 
ATOM     34  C   UNL A   1      45.067  19.747  24.270  1.00  0.00     0.251 C 
ATOM     35  H   UNL A   1      43.890  18.133  24.395  1.00  0.00     0.163 HD
ATOM     36  O   UNL A   1      45.916  19.183  23.592  1.00  0.00    -0.269 OA
BRANCH  34  37
ATOM     37  C   UNL A   1      45.281  21.148  24.695  1.00  0.00     0.039 A 
ATOM     38  C   UNL A   1      45.105  22.173  23.761  1.00  0.00     0.014 A 
ATOM     39  C   UNL A   1      45.664  21.448  26.005  1.00  0.00     0.014 A 
ATOM     40  C   UNL A   1      45.244  23.504  24.159  1.00  0.00     0.010 A 
ATOM     41  C   UNL A   1      45.734  22.776  26.418  1.00  0.00     0.010 A 
ATOM     42  C   UNL A   1      45.530  23.815  25.498  1.00  0.00    -0.014 A 
BRANCH  42  43
ATOM     43  C   UNL A   1      45.657  25.219  25.950  1.00  0.00     0.031 A 
ATOM     44  C   UNL A   1      47.004  25.882  25.954  1.00  0.00     0.074 A 
ATOM     45  C   UNL A   1      44.574  25.885  26.397  1.00  0.00     0.049 A 
ATOM     46  N   UNL A   1      47.327  27.084  26.360  1.00  0.00    -0.248 NA
ATOM     47  C   UNL A   1      48.138  25.091  25.448  1.00  0.00     0.031 C 
ATOM     48  C   UNL A   1      43.214  25.347  26.455  1.00  0.00     0.029 A 
ATOM     49  N   UNL A   1      44.451  27.161  26.890  1.00  0.00    -0.354 N 
ATOM     50  C   UNL A   1      48.697  27.190  26.160  1.00  0.00     0.074 A 
ATOM     51  C   UNL A   1      49.154  25.920  25.643  1.00  0.00     0.031 C 
ATOM     52  C   UNL A   1      42.389  26.296  26.929  1.00  0.00     0.029 A 
ATOM     53  C   UNL A   1      43.166  27.493  27.243  1.00  0.00     0.049 A 
ATOM     54  H   UNL A   1      45.212  27.778  26.981  1.00  0.00     0.167 HD
ATOM     55  C   UNL A   1      49.498  28.259  26.366  1.00  0.00     0.031 A 
ATOM     56  C   UNL A   1      42.667  28.632  27.761  1.00  0.00     0.031 A 
ATOM     57  C   UNL A   1      49.045  29.526  26.866  1.00  0.00     0.049 A 
ATOM     58  C   UNL A   1      43.586  29.792  28.024  1.00  0.00     0.074 A 
ATOM     59  C   UNL A   1      49.784  30.678  27.071  1.00  0.00     0.029 A 
ATOM     60  N   UNL A   1      47.742  29.810  27.237  1.00  0.00    -0.354 N 
ATOM     61  N   UNL A   1      44.873  29.886  27.799  1.00  0.00    -0.248 NA
ATOM     62  C   UNL A   1      42.985  31.000  28.608  1.00  0.00     0.031 C 
ATOM     63  C   UNL A   1      48.936  31.647  27.610  1.00  0.00     0.029 A 
ATOM     64  C   UNL A   1      47.660  31.114  27.692  1.00  0.00     0.049 A 
ATOM     65  H   UNL A   1      46.988  29.179  27.186  1.00  0.00     0.167 HD
ATOM     66  C   UNL A   1      45.234  31.168  28.193  1.00  0.00     0.074 A 
ATOM     67  C   UNL A   1      44.030  31.819  28.666  1.00  0.00     0.031 C 
ATOM     68  C   UNL A   1      46.456  31.750  28.161  1.00  0.00     0.031 A 
BRANCH  55  69
ATOM     69  C   UNL A   1      50.954  28.119  26.034  1.00  0.00    -0.014 A 
ATOM     70  C   UNL A   1      51.437  28.469  24.765  1.00  0.00     0.009 A 
ATOM     71  C   UNL A   1      51.864  27.729  27.029  1.00  0.00     0.009 A 
ATOM     72  C   UNL A   1      52.805  28.425  24.494  1.00  0.00     0.001 A 
ATOM     73  C   UNL A   1      53.234  27.707  26.762  1.00  0.00     0.001 A 
ATOM     74  C   UNL A   1      53.702  28.053  25.495  1.00  0.00     0.000 A 
ENDBRANCH  55  69
BRANCH  56  75
ATOM     75  C   UNL A   1      41.210  28.731  28.033  1.00  0.00    -0.014 A 
ATOM     76  C   UNL A   1      40.708  28.424  29.306  1.00  0.00     0.009 A 
ATOM     77  C   UNL A   1      40.325  29.181  27.041  1.00  0.00     0.009 A 
ATOM     78  C   UNL A   1      39.345  28.566  29.580  1.00  0.00     0.001 A 
ATOM     79  C   UNL A   1      38.967  29.340  27.325  1.00  0.00     0.001 A 
ATOM     80  C   UNL A   1      38.479  29.032  28.593  1.00  0.00     0.000 A 
ENDBRANCH  56  75
BRANCH  68  81
ATOM     81  C   UNL A   1      46.579  33.169  28.635  1.00  0.00    -0.014 A 
ATOM     82  C   UNL A   1      46.943  33.456  29.958  1.00  0.00     0.009 A 
ATOM     83  C   UNL A   1      46.459  34.222  27.713  1.00  0.00     0.009 A 
ATOM     84  C   UNL A   1      47.185  34.774  30.350  1.00  0.00     0.001 A 
ATOM     85  C   UNL A   1      46.726  35.535  28.103  1.00  0.00     0.001 A 
ATOM     86  C   UNL A   1      47.087  35.811  29.420  1.00  0.00     0.000 A 
ENDBRANCH  68  81
ENDBRANCH  42  43
ENDBRANCH  34  37
ENDBRANCH  32  33
ENDBRANCH   1  32
TORSDOF 11
ENDMDL
MODEL 2
REMARK VINA RESULT:     -12.8      3.802      9.140
REMARK SMILES CC1(C)[C@H](O)CC[C@@]2(C)[C@@H]1CC[C@@]1(C)Oc3oc(C(=O)NCCCNC(=O)c4ccc(-c5c6nc(c(-c7ccccc7)c7ccc([nH]7)c(-c7ccccc7)c7nc(c(-c8ccccc8)c8ccc5[nH]8)C=C7)C=C6)cc4)cc(=O)c3C[C@@H]21
REMARK SMILES IDX 23 1 22 2 21 3 19 4 20 5 18 7 1 8 2 9 4 10 10 11 3 12 6 13
REMARK SMILES IDX 8 14 11 15 7 16 81 17 9 18 12 19 13 20 80 21 15 22 14 23
REMARK SMILES IDX 79 24 16 25 77 26 17 27 76 28 78 29 5 30 24 32 25 33 26 34
REMARK SMILES IDX 27 36 28 37 29 38 75 39 30 40 74 41 31 42 32 43 33 44 68 45
REMARK SMILES IDX 34 46 73 47 67 48 69 49 35 50 72 51 66 52 65 53 36 55 58 56
REMARK SMILES IDX 43 57 57 58 44 59 47 60 56 61 70 62 45 63 46 64 55 66 71 67
REMARK SMILES IDX 48 68 37 69 38 70 42 71 39 72 41 73 40 74 59 75 60 76 64 77
REMARK SMILES IDX 61 78 63 79 62 80 49 81 50 82 54 83 51 84 53 85 52 86
REMARK H PARENT 21 6 5 31 25 35 69 54 47 65
REMARK Flexibility Score: inf
ROOT
ATOM      1  C   UNL A   1      34.329  33.849  31.788  1.00  0.00     0.042 C 
ENDROOT
BRANCH   1   2
ATOM      2  C   UNL A   1      34.250  34.053  30.281  1.00  0.00     0.118 C 
BRANCH   2   3
ATOM      3  N   UNL A   1      35.550  34.336  29.679  1.00  0.00    -0.349 N 
ATOM      4  C   UNL A   1      36.359  33.568  28.886  1.00  0.00     0.287 C 
ATOM      5  O   UNL A   1      37.482  33.979  28.610  1.00  0.00    -0.266 OA
ATOM      6  H   UNL A   1      35.905  35.233  29.878  1.00  0.00     0.163 HD
BRANCH   4   7
ATOM      7  C   UNL A   1      35.887  32.244  28.393  1.00  0.00     0.199 A 
ATOM      8  C   UNL A   1      30.219  24.860  25.537  1.00  0.00     0.014 C 
ATOM      9  C   UNL A   1      31.665  25.395  25.377  1.00  0.00    -0.006 C 
ATOM     10  C   UNL A   1      32.199  24.975  23.979  1.00  0.00     0.120 C 
ATOM     11  C   UNL A   1      31.642  26.993  25.441  1.00  0.00     0.004 C 
ATOM     12  C   UNL A   1      32.521  24.742  26.500  1.00  0.00     0.014 C 
ATOM     13  C   UNL A   1      33.639  25.435  23.729  1.00  0.00     0.033 C 
ATOM     14  C   UNL A   1      32.897  27.691  24.771  1.00  0.00    -0.022 C 
ATOM     15  C   UNL A   1      31.154  27.518  26.825  1.00  0.00     0.009 C 
ATOM     16  C   UNL A   1      34.039  26.656  24.558  1.00  0.00     0.010 C 
ATOM     17  C   UNL A   1      33.398  28.964  25.543  1.00  0.00     0.044 C 
ATOM     18  C   UNL A   1      32.529  28.177  23.324  1.00  0.00     0.012 C 
ATOM     19  C   UNL A   1      31.642  28.874  27.341  1.00  0.00     0.049 C 
ATOM     20  C   UNL A   1      32.295  29.766  26.282  1.00  0.00     0.113 C 
ATOM     21  C   UNL A   1      34.533  28.656  26.548  1.00  0.00     0.055 C 
ATOM     22  O   UNL A   1      32.837  30.960  26.907  1.00  0.00    -0.458 OA
ATOM     23  C   UNL A   1      31.194  30.335  25.373  1.00  0.00     0.057 C 
ATOM     24  C   UNL A   1      34.920  29.882  27.296  1.00  0.00     0.081 A 
ATOM     25  C   UNL A   1      34.131  30.961  27.385  1.00  0.00     0.292 A 
ATOM     26  C   UNL A   1      36.266  29.922  27.899  1.00  0.00     0.192 A 
ATOM     27  O   UNL A   1      34.582  32.158  27.931  1.00  0.00    -0.420 OA
ATOM     28  C   UNL A   1      36.694  31.184  28.501  1.00  0.00     0.105 A 
ATOM     29  O   UNL A   1      37.028  28.964  27.873  1.00  0.00    -0.289 OA
BRANCH  10  30
ATOM     30  O   UNL A   1      32.107  23.569  23.753  1.00  0.00    -0.393 OA
ATOM     31  H   UNL A   1      32.924  23.254  23.338  1.00  0.00     0.210 HD
ENDBRANCH  10  30
ENDBRANCH   4   7
ENDBRANCH   2   3
ENDBRANCH   1   2
BRANCH   1  32
ATOM     32  C   UNL A   1      35.080  32.592  32.213  1.00  0.00     0.118 C 
BRANCH  32  33
ATOM     33  N   UNL A   1      35.676  32.709  33.536  1.00  0.00    -0.352 N 
ATOM     34  C   UNL A   1      36.893  32.263  33.996  1.00  0.00     0.251 C 
ATOM     35  H   UNL A   1      35.125  33.180  34.202  1.00  0.00     0.163 HD
ATOM     36  O   UNL A   1      37.159  32.319  35.189  1.00  0.00    -0.269 OA
BRANCH  34  37
ATOM     37  C   UNL A   1      37.876  31.689  33.052  1.00  0.00     0.039 A 
ATOM     38  C   UNL A   1      38.010  32.261  31.783  1.00  0.00     0.014 A 
ATOM     39  C   UNL A   1      38.653  30.584  33.410  1.00  0.00     0.014 A 
ATOM     40  C   UNL A   1      38.974  31.770  30.901  1.00  0.00     0.010 A 
ATOM     41  C   UNL A   1      39.660  30.140  32.558  1.00  0.00     0.010 A 
ATOM     42  C   UNL A   1      39.825  30.725  31.294  1.00  0.00    -0.014 A 
BRANCH  42  43
ATOM     43  C   UNL A   1      40.872  30.204  30.385  1.00  0.00     0.031 A 
ATOM     44  C   UNL A   1      42.094  31.029  30.105  1.00  0.00     0.074 A 
ATOM     45  C   UNL A   1      40.707  29.013  29.778  1.00  0.00     0.049 A 
ATOM     46  N   UNL A   1      43.095  30.771  29.302  1.00  0.00    -0.248 NA
ATOM     47  C   UNL A   1      42.205  32.318  30.810  1.00  0.00     0.031 C 
ATOM     48  C   UNL A   1      39.558  28.123  29.957  1.00  0.00     0.029 A 
ATOM     49  N   UNL A   1      41.509  28.348  28.884  1.00  0.00    -0.354 N 
ATOM     50  C   UNL A   1      43.947  31.861  29.403  1.00  0.00     0.074 A 
ATOM     51  C   UNL A   1      43.330  32.806  30.306  1.00  0.00     0.031 C 
ATOM     52  C   UNL A   1      39.744  27.016  29.218  1.00  0.00     0.029 A 
ATOM     53  C   UNL A   1      41.003  27.135  28.486  1.00  0.00     0.049 A 
ATOM     54  H   UNL A   1      42.366  28.707  28.559  1.00  0.00     0.167 HD
ATOM     55  C   UNL A   1      45.150  32.047  28.815  1.00  0.00     0.031 A 
ATOM     56  C   UNL A   1      41.494  26.219  27.628  1.00  0.00     0.031 A 
ATOM     57  C   UNL A   1      45.774  31.105  27.929  1.00  0.00     0.049 A 
ATOM     58  C   UNL A   1      42.812  26.470  26.951  1.00  0.00     0.074 A 
ATOM     59  C   UNL A   1      47.011  31.197  27.316  1.00  0.00     0.029 A 
ATOM     60  N   UNL A   1      45.213  29.903  27.532  1.00  0.00    -0.354 N 
ATOM     61  N   UNL A   1      43.620  27.492  27.083  1.00  0.00    -0.248 NA
ATOM     62  C   UNL A   1      43.286  25.443  26.012  1.00  0.00     0.031 C 
ATOM     63  C   UNL A   1      47.179  30.070  26.510  1.00  0.00     0.029 A 
ATOM     64  C   UNL A   1      46.071  29.254  26.662  1.00  0.00     0.049 A 
ATOM     65  H   UNL A   1      44.337  29.563  27.823  1.00  0.00     0.167 HD
ATOM     66  C   UNL A   1      44.708  27.224  26.262  1.00  0.00     0.074 A 
ATOM     67  C   UNL A   1      44.460  25.940  25.640  1.00  0.00     0.031 C 
ATOM     68  C   UNL A   1      45.813  27.977  26.049  1.00  0.00     0.031 A 
BRANCH  55  69
ATOM     69  C   UNL A   1      45.892  33.315  29.121  1.00  0.00    -0.014 A 
ATOM     70  C   UNL A   1      46.747  33.394  30.230  1.00  0.00     0.009 A 
ATOM     71  C   UNL A   1      45.812  34.403  28.239  1.00  0.00     0.009 A 
ATOM     72  C   UNL A   1      47.505  34.545  30.454  1.00  0.00     0.001 A 
ATOM     73  C   UNL A   1      46.588  35.543  28.453  1.00  0.00     0.001 A 
ATOM     74  C   UNL A   1      47.432  35.614  29.561  1.00  0.00     0.000 A 
ENDBRANCH  55  69
BRANCH  56  75
ATOM     75  C   UNL A   1      40.737  24.963  27.392  1.00  0.00    -0.014 A 
ATOM     76  C   UNL A   1      39.581  24.974  26.600  1.00  0.00     0.009 A 
ATOM     77  C   UNL A   1      41.195  23.742  27.913  1.00  0.00     0.009 A 
ATOM     78  C   UNL A   1      38.896  23.786  26.333  1.00  0.00     0.001 A 
ATOM     79  C   UNL A   1      40.519  22.554  27.628  1.00  0.00     0.001 A 
ATOM     80  C   UNL A   1      39.370  22.577  26.839  1.00  0.00     0.000 A 
ENDBRANCH  56  75
BRANCH  68  81
ATOM     81  C   UNL A   1      46.861  27.448  25.114  1.00  0.00    -0.014 A 
ATOM     82  C   UNL A   1      46.903  27.859  23.774  1.00  0.00     0.009 A 
ATOM     83  C   UNL A   1      47.894  26.639  25.615  1.00  0.00     0.009 A 
ATOM     84  C   UNL A   1      47.962  27.466  22.952  1.00  0.00     0.001 A 
ATOM     85  C   UNL A   1      48.962  26.269  24.797  1.00  0.00     0.001 A 
ATOM     86  C   UNL A   1      48.995  26.681  23.466  1.00  0.00     0.000 A 
ENDBRANCH  68  81
ENDBRANCH  42  43
ENDBRANCH  34  37
ENDBRANCH  32  33
ENDBRANCH   1  32
TORSDOF 11
ENDMDL
MODEL 3
REMARK VINA RESULT:     -12.7      0.231      5.750
REMARK SMILES CC1(C)[C@H](O)CC[C@@]2(C)[C@@H]1CC[C@@]1(C)Oc3oc(C(=O)NCCCNC(=O)c4ccc(-c5c6nc(c(-c7ccccc7)c7ccc([nH]7)c(-c7ccccc7)c7nc(c(-c8ccccc8)c8ccc5[nH]8)C=C7)C=C6)cc4)cc(=O)c3C[C@@H]21
REMARK SMILES IDX 23 1 22 2 21 3 19 4 20 5 18 7 1 8 2 9 4 10 10 11 3 12 6 13
REMARK SMILES IDX 8 14 11 15 7 16 81 17 9 18 12 19 13 20 80 21 15 22 14 23
REMARK SMILES IDX 79 24 16 25 77 26 17 27 76 28 78 29 5 30 24 32 25 33 26 34
REMARK SMILES IDX 27 36 28 37 29 38 75 39 30 40 74 41 31 42 32 43 33 44 68 45
REMARK SMILES IDX 34 46 73 47 67 48 69 49 35 50 72 51 66 52 65 53 36 55 58 56
REMARK SMILES IDX 43 57 57 58 44 59 47 60 56 61 70 62 45 63 46 64 55 66 71 67
REMARK SMILES IDX 48 68 37 69 38 70 42 71 39 72 41 73 40 74 59 75 60 76 64 77
REMARK SMILES IDX 61 78 63 79 62 80 49 81 50 82 54 83 51 84 53 85 52 86
REMARK H PARENT 21 6 5 31 25 35 69 54 47 65
REMARK Flexibility Score: inf
ROOT
ATOM      1  C   UNL A   1      42.449  18.824  26.377  1.00  0.00     0.042 C 
ENDROOT
BRANCH   1   2
ATOM      2  C   UNL A   1      41.611  19.602  27.383  1.00  0.00     0.118 C 
BRANCH   2   3
ATOM      3  N   UNL A   1      42.351  20.688  28.017  1.00  0.00    -0.349 N 
ATOM      4  C   UNL A   1      42.105  22.033  28.067  1.00  0.00     0.287 C 
ATOM      5  O   UNL A   1      42.956  22.774  28.552  1.00  0.00    -0.266 OA
ATOM      6  H   UNL A   1      43.168  20.404  28.488  1.00  0.00     0.163 HD
BRANCH   4   7
ATOM      7  C   UNL A   1      40.836  22.585  27.516  1.00  0.00     0.199 A 
ATOM      8  C   UNL A   1      32.828  23.911  22.139  1.00  0.00     0.014 C 
ATOM      9  C   UNL A   1      33.414  24.270  23.528  1.00  0.00    -0.006 C 
ATOM     10  C   UNL A   1      32.245  24.397  24.544  1.00  0.00     0.120 C 
ATOM     11  C   UNL A   1      34.372  23.085  24.015  1.00  0.00     0.004 C 
ATOM     12  C   UNL A   1      34.146  25.635  23.376  1.00  0.00     0.014 C 
ATOM     13  C   UNL A   1      32.717  24.777  25.951  1.00  0.00     0.033 C 
ATOM     14  C   UNL A   1      34.604  23.036  25.582  1.00  0.00    -0.022 C 
ATOM     15  C   UNL A   1      35.602  22.902  23.078  1.00  0.00     0.009 C 
ATOM     16  C   UNL A   1      34.166  24.379  26.234  1.00  0.00     0.010 C 
ATOM     17  C   UNL A   1      36.067  22.636  25.991  1.00  0.00     0.044 C 
ATOM     18  C   UNL A   1      33.662  21.958  26.228  1.00  0.00     0.012 C 
ATOM     19  C   UNL A   1      36.912  22.343  23.640  1.00  0.00     0.049 C 
ATOM     20  C   UNL A   1      36.788  21.673  25.010  1.00  0.00     0.113 C 
ATOM     21  C   UNL A   1      36.983  23.859  26.234  1.00  0.00     0.055 C 
ATOM     22  O   UNL A   1      38.104  21.305  25.502  1.00  0.00    -0.458 OA
ATOM     23  C   UNL A   1      36.104  20.309  24.830  1.00  0.00     0.057 C 
ATOM     24  C   UNL A   1      38.370  23.422  26.551  1.00  0.00     0.081 A 
ATOM     25  C   UNL A   1      38.834  22.201  26.254  1.00  0.00     0.292 A 
ATOM     26  C   UNL A   1      39.233  24.362  27.291  1.00  0.00     0.192 A 
ATOM     27  O   UNL A   1      40.066  21.751  26.719  1.00  0.00    -0.420 OA
ATOM     28  C   UNL A   1      40.539  23.871  27.728  1.00  0.00     0.105 A 
ATOM     29  O   UNL A   1      38.879  25.499  27.573  1.00  0.00    -0.289 OA
BRANCH  10  30
ATOM     30  O   UNL A   1      31.241  25.317  24.119  1.00  0.00    -0.393 OA
ATOM     31  H   UNL A   1      31.602  26.217  24.131  1.00  0.00     0.210 HD
ENDBRANCH  10  30
ENDBRANCH   4   7
ENDBRANCH   2   3
ENDBRANCH   1   2
BRANCH   1  32
ATOM     32  C   UNL A   1      42.860  19.625  25.148  1.00  0.00     0.118 C 
BRANCH  32  33
ATOM     33  N   UNL A   1      44.137  19.198  24.595  1.00  0.00    -0.352 N 
ATOM     34  C   UNL A   1      45.279  19.925  24.353  1.00  0.00     0.251 C 
ATOM     35  H   UNL A   1      44.192  18.244  24.359  1.00  0.00     0.163 HD
ATOM     36  O   UNL A   1      46.210  19.424  23.736  1.00  0.00    -0.269 OA
BRANCH  34  37
ATOM     37  C   UNL A   1      45.375  21.327  24.815  1.00  0.00     0.039 A 
ATOM     38  C   UNL A   1      45.612  21.579  26.169  1.00  0.00     0.014 A 
ATOM     39  C   UNL A   1      45.221  22.389  23.919  1.00  0.00     0.014 A 
ATOM     40  C   UNL A   1      45.765  22.894  26.613  1.00  0.00     0.010 A 
ATOM     41  C   UNL A   1      45.443  23.694  24.348  1.00  0.00     0.010 A 
ATOM     42  C   UNL A   1      45.711  23.958  25.699  1.00  0.00    -0.014 A 
BRANCH  42  43
ATOM     43  C   UNL A   1      45.896  25.360  26.142  1.00  0.00     0.031 A 
ATOM     44  C   UNL A   1      44.711  26.159  26.601  1.00  0.00     0.074 A 
ATOM     45  C   UNL A   1      47.116  25.928  26.090  1.00  0.00     0.049 A 
ATOM     46  N   UNL A   1      44.660  27.411  26.978  1.00  0.00    -0.248 NA
ATOM     47  C   UNL A   1      43.411  25.467  26.633  1.00  0.00     0.031 C 
ATOM     48  C   UNL A   1      48.343  25.261  25.651  1.00  0.00     0.029 A 
ATOM     49  N   UNL A   1      47.523  27.200  26.410  1.00  0.00    -0.354 N 
ATOM     50  C   UNL A   1      43.329  27.655  27.287  1.00  0.00     0.074 A 
ATOM     51  C   UNL A   1      42.596  26.441  27.010  1.00  0.00     0.031 C 
ATOM     52  C   UNL A   1      49.370  26.123  25.756  1.00  0.00     0.029 A 
ATOM     53  C   UNL A   1      48.868  27.409  26.233  1.00  0.00     0.049 A 
ATOM     54  H   UNL A   1      46.908  27.895  26.736  1.00  0.00     0.167 HD
ATOM     55  C   UNL A   1      42.772  28.784  27.780  1.00  0.00     0.031 A 
ATOM     56  C   UNL A   1      49.617  28.512  26.430  1.00  0.00     0.031 A 
ATOM     57  C   UNL A   1      43.500  29.987  28.069  1.00  0.00     0.049 A 
ATOM     58  C   UNL A   1      48.966  29.769  26.935  1.00  0.00     0.074 A 
ATOM     59  C   UNL A   1      43.020  31.169  28.606  1.00  0.00     0.029 A 
ATOM     60  N   UNL A   1      44.855  30.164  27.847  1.00  0.00    -0.354 N 
ATOM     61  N   UNL A   1      47.712  29.973  27.253  1.00  0.00    -0.248 NA
ATOM     62  C   UNL A   1      49.832  30.944  27.112  1.00  0.00     0.031 C 
ATOM     63  C   UNL A   1      44.077  32.078  28.667  1.00  0.00     0.029 A 
ATOM     64  C   UNL A   1      45.224  31.445  28.216  1.00  0.00     0.049 A 
ATOM     65  H   UNL A   1      45.463  29.483  27.481  1.00  0.00     0.167 HD
ATOM     66  C   UNL A   1      47.640  31.290  27.687  1.00  0.00     0.074 A 
ATOM     67  C   UNL A   1      48.978  31.837  27.599  1.00  0.00     0.031 C 
ATOM     68  C   UNL A   1      46.558  31.979  28.123  1.00  0.00     0.031 A 
BRANCH  55  69
ATOM     69  C   UNL A   1      41.299  28.774  28.061  1.00  0.00    -0.014 A 
ATOM     70  C   UNL A   1      40.817  28.485  29.346  1.00  0.00     0.009 A 
ATOM     71  C   UNL A   1      40.392  29.153  27.059  1.00  0.00     0.009 A 
ATOM     72  C   UNL A   1      39.452  28.570  29.622  1.00  0.00     0.001 A 
ATOM     73  C   UNL A   1      39.030  29.259  27.344  1.00  0.00     0.001 A 
ATOM     74  C   UNL A   1      38.561  28.965  28.624  1.00  0.00     0.000 A 
ENDBRANCH  55  69
BRANCH  56  75
ATOM     75  C   UNL A   1      51.079  28.455  26.174  1.00  0.00    -0.014 A 
ATOM     76  C   UNL A   1      51.591  28.833  24.924  1.00  0.00     0.009 A 
ATOM     77  C   UNL A   1      51.970  28.074  27.189  1.00  0.00     0.009 A 
ATOM     78  C   UNL A   1      52.970  28.830  24.697  1.00  0.00     0.001 A 
ATOM     79  C   UNL A   1      53.348  28.092  26.964  1.00  0.00     0.001 A 
ATOM     80  C   UNL A   1      53.846  28.469  25.718  1.00  0.00     0.000 A 
ENDBRANCH  56  75
BRANCH  68  81
ATOM     81  C   UNL A   1      46.752  33.403  28.555  1.00  0.00    -0.014 A 
ATOM     82  C   UNL A   1      46.551  34.461  27.656  1.00  0.00     0.009 A 
ATOM     83  C   UNL A   1      47.005  33.691  29.906  1.00  0.00     0.009 A 
ATOM     84  C   UNL A   1      46.601  35.783  28.105  1.00  0.00     0.001 A 
ATOM     85  C   UNL A   1      47.031  35.012  30.354  1.00  0.00     0.001 A 
ATOM     86  C   UNL A   1      46.831  36.057  29.454  1.00  0.00     0.000 A 
ENDBRANCH  68  81
ENDBRANCH  42  43
ENDBRANCH  34  37
ENDBRANCH  32  33
ENDBRANCH   1  32
TORSDOF 11
ENDMDL
