MODEL 1
REMARK VINA RESULT:     -12.4      0.000      0.000
REMARK SMILES Cc1cccc(O[C@H](C)C(=O)NNC(=O)[C@H]2[C@@H]3CC[C@@H](C3)[C@@H]2C(=O)NCCCNC(=O)c2ccc(-c3c4nc(c(-c5ccccc5)c5ccc([nH]5)c(-c5ccccc5)c5nc(c(-c6ccccc6)c6ccc3[nH]6)C=C5)C=C4)cc2)c1
REMARK SMILES IDX 23 1 24 2 25 3 22 5 16 6 17 7 18 8 21 9 20 10 19 11 14 12
REMARK SMILES IDX 13 13 15 15 12 16 10 17 11 18 8 20 9 21 7 22 6 23 1 24 2 25
REMARK SMILES IDX 3 26 80 27 4 28 5 29 26 30 27 31 28 32 29 33 30 34 31 36
REMARK SMILES IDX 32 37 33 38 79 39 34 40 78 41 35 42 36 43 37 44 72 45 38 46
REMARK SMILES IDX 77 47 71 48 73 49 39 50 76 51 70 52 69 53 40 55 62 56 47 57
REMARK SMILES IDX 61 58 48 59 51 60 60 61 74 62 49 63 50 64 59 66 75 67 52 68
REMARK SMILES IDX 41 69 42 70 46 71 43 72 45 73 44 74 63 75 64 76 68 77 65 78
REMARK SMILES IDX 67 79 66 80 53 81 54 82 58 83 55 84 57 85 56 86
REMARK H PARENT 25 4 13 14 12 19 29 35 73 54 51 65
REMARK Flexibility Score: inf
ROOT
ATOM      1  C   UNL A   1      33.686  28.570  24.002  1.00  0.00     0.224 C 
ATOM      2  O   UNL A   1      34.013  29.148  22.970  1.00  0.00    -0.275 OA
ATOM      3  N   UNL A   1      34.235  28.969  25.191  1.00  0.00    -0.356 N 
ATOM      4  H   UNL A   1      34.854  29.733  25.141  1.00  0.00     0.163 HD
ENDROOT
BRANCH   1   5
ATOM      5  C   UNL A   1      32.706  27.406  24.031  1.00  0.00     0.094 C 
ATOM      6  C   UNL A   1      32.364  26.801  22.657  1.00  0.00     0.096 C 
ATOM      7  C   UNL A   1      30.815  26.724  22.674  1.00  0.00     0.002 C 
ATOM      8  C   UNL A   1      30.274  28.146  22.421  1.00  0.00     0.005 C 
ATOM      9  C   UNL A   1      30.470  26.567  24.154  1.00  0.00     0.009 C 
ATOM     10  C   UNL A   1      31.302  27.781  24.574  1.00  0.00     0.002 C 
ATOM     11  C   UNL A   1      30.652  28.886  23.716  1.00  0.00     0.005 C 
BRANCH   6  12
ATOM     12  C   UNL A   1      33.033  25.499  22.227  1.00  0.00     0.242 C 
ATOM     13  N   UNL A   1      33.354  24.455  23.043  1.00  0.00    -0.267 N 
ATOM     14  H   UNL A   1      33.870  23.732  22.617  1.00  0.00     0.191 HD
ATOM     15  O   UNL A   1      33.278  25.338  21.023  1.00  0.00    -0.273 OA
BRANCH  13  16
ATOM     16  N   UNL A   1      33.065  24.266  24.368  1.00  0.00    -0.264 N 
ATOM     17  C   UNL A   1      33.830  23.663  25.319  1.00  0.00     0.279 C 
ATOM     18  O   UNL A   1      33.490  23.903  26.490  1.00  0.00    -0.269 OA
ATOM     19  H   UNL A   1      32.193  24.609  24.671  1.00  0.00     0.191 HD
BRANCH  17  20
ATOM     20  C   UNL A   1      34.968  22.636  25.054  1.00  0.00     0.260 C 
ATOM     21  C   UNL A   1      34.381  21.285  24.621  1.00  0.00     0.064 C 
BRANCH  20  22
ATOM     22  O   UNL A   1      36.265  22.919  24.579  1.00  0.00    -0.481 OA
BRANCH  22  23
ATOM     23  C   UNL A   1      37.392  23.004  25.326  1.00  0.00     0.120 A 
ATOM     24  C   UNL A   1      40.063  20.405  26.155  1.00  0.00     0.044 C 
ATOM     25  C   UNL A   1      39.287  21.688  26.125  1.00  0.00    -0.047 A 
ATOM     26  C   UNL A   1      39.674  22.759  26.935  1.00  0.00     0.003 A 
ATOM     27  C   UNL A   1      38.152  21.828  25.318  1.00  0.00     0.049 A 
ATOM     28  C   UNL A   1      38.951  23.950  26.913  1.00  0.00     0.004 A 
ATOM     29  C   UNL A   1      37.820  24.078  26.100  1.00  0.00     0.046 A 
ENDBRANCH  22  23
ENDBRANCH  20  22
ENDBRANCH  17  20
ENDBRANCH  13  16
ENDBRANCH   6  12
ENDBRANCH   1   5
BRANCH   3  30
ATOM     30  C   UNL A   1      34.025  28.414  26.523  1.00  0.00     0.117 C 
BRANCH  30  31
ATOM     31  C   UNL A   1      33.639  29.477  27.546  1.00  0.00     0.042 C 
BRANCH  31  32
ATOM     32  C   UNL A   1      34.432  30.762  27.372  1.00  0.00     0.118 C 
BRANCH  32  33
ATOM     33  N   UNL A   1      33.659  31.975  27.626  1.00  0.00    -0.352 N 
ATOM     34  C   UNL A   1      33.892  33.012  28.516  1.00  0.00     0.251 C 
ATOM     35  H   UNL A   1      32.846  32.071  27.082  1.00  0.00     0.163 HD
ATOM     36  O   UNL A   1      33.101  33.939  28.589  1.00  0.00    -0.269 OA
BRANCH  34  37
ATOM     37  C   UNL A   1      35.168  33.063  29.272  1.00  0.00     0.039 A 
ATOM     38  C   UNL A   1      36.289  33.605  28.627  1.00  0.00     0.014 A 
ATOM     39  C   UNL A   1      35.316  32.391  30.479  1.00  0.00     0.014 A 
ATOM     40  C   UNL A   1      37.562  33.228  29.044  1.00  0.00     0.010 A 
ATOM     41  C   UNL A   1      36.562  31.916  30.817  1.00  0.00     0.010 A 
ATOM     42  C   UNL A   1      37.675  32.279  30.054  1.00  0.00    -0.014 A 
BRANCH  42  43
ATOM     43  C   UNL A   1      38.876  31.498  30.308  1.00  0.00     0.031 A 
ATOM     44  C   UNL A   1      39.031  30.160  29.716  1.00  0.00     0.074 A 
ATOM     45  C   UNL A   1      39.915  32.094  30.933  1.00  0.00     0.049 A 
ATOM     46  N   UNL A   1      39.938  29.319  30.076  1.00  0.00    -0.248 NA
ATOM     47  C   UNL A   1      38.119  29.626  28.710  1.00  0.00     0.031 C 
ATOM     48  C   UNL A   1      41.316  31.684  30.934  1.00  0.00     0.029 A 
ATOM     49  N   UNL A   1      39.851  33.105  31.894  1.00  0.00    -0.354 N 
ATOM     50  C   UNL A   1      39.942  28.303  29.151  1.00  0.00     0.074 A 
ATOM     51  C   UNL A   1      38.716  28.469  28.411  1.00  0.00     0.031 C 
ATOM     52  C   UNL A   1      41.929  32.232  31.994  1.00  0.00     0.029 A 
ATOM     53  C   UNL A   1      40.899  32.860  32.803  1.00  0.00     0.049 A 
ATOM     54  H   UNL A   1      39.201  33.844  31.930  1.00  0.00     0.167 HD
ATOM     55  C   UNL A   1      41.062  27.538  29.029  1.00  0.00     0.031 A 
ATOM     56  C   UNL A   1      40.635  32.536  34.102  1.00  0.00     0.031 A 
ATOM     57  C   UNL A   1      42.018  27.808  30.108  1.00  0.00     0.049 A 
ATOM     58  C   UNL A   1      41.158  31.177  34.523  1.00  0.00     0.074 A 
ATOM     59  C   UNL A   1      43.236  28.463  30.174  1.00  0.00     0.029 A 
ATOM     60  N   UNL A   1      41.613  27.607  31.422  1.00  0.00    -0.354 N 
ATOM     61  N   UNL A   1      41.551  30.246  33.697  1.00  0.00    -0.248 NA
ATOM     62  C   UNL A   1      41.233  30.747  35.914  1.00  0.00     0.031 C 
ATOM     63  C   UNL A   1      43.546  28.679  31.547  1.00  0.00     0.029 A 
ATOM     64  C   UNL A   1      42.531  28.132  32.311  1.00  0.00     0.049 A 
ATOM     65  H   UNL A   1      40.781  27.152  31.686  1.00  0.00     0.167 HD
ATOM     66  C   UNL A   1      41.906  29.118  34.395  1.00  0.00     0.074 A 
ATOM     67  C   UNL A   1      41.698  29.491  35.783  1.00  0.00     0.031 C 
ATOM     68  C   UNL A   1      42.311  27.980  33.748  1.00  0.00     0.031 A 
BRANCH  55  69
ATOM     69  C   UNL A   1      41.404  26.709  27.807  1.00  0.00    -0.014 A 
ATOM     70  C   UNL A   1      42.182  25.546  27.959  1.00  0.00     0.009 A 
ATOM     71  C   UNL A   1      41.079  27.049  26.483  1.00  0.00     0.009 A 
ATOM     72  C   UNL A   1      42.644  24.807  26.859  1.00  0.00     0.001 A 
ATOM     73  C   UNL A   1      41.535  26.317  25.377  1.00  0.00     0.001 A 
ATOM     74  C   UNL A   1      42.328  25.199  25.565  1.00  0.00     0.000 A 
ENDBRANCH  55  69
BRANCH  56  75
ATOM     75  C   UNL A   1      39.392  33.169  34.628  1.00  0.00    -0.014 A 
ATOM     76  C   UNL A   1      38.152  32.600  34.275  1.00  0.00     0.009 A 
ATOM     77  C   UNL A   1      39.441  34.030  35.735  1.00  0.00     0.009 A 
ATOM     78  C   UNL A   1      37.023  32.783  35.078  1.00  0.00     0.001 A 
ATOM     79  C   UNL A   1      38.301  34.225  36.528  1.00  0.00     0.001 A 
ATOM     80  C   UNL A   1      37.107  33.572  36.222  1.00  0.00     0.000 A 
ENDBRANCH  56  75
BRANCH  68  81
ATOM     81  C   UNL A   1      42.552  26.599  34.342  1.00  0.00    -0.014 A 
ATOM     82  C   UNL A   1      43.727  25.849  34.233  1.00  0.00     0.009 A 
ATOM     83  C   UNL A   1      41.528  26.012  35.132  1.00  0.00     0.009 A 
ATOM     84  C   UNL A   1      43.879  24.610  34.878  1.00  0.00     0.001 A 
ATOM     85  C   UNL A   1      41.681  24.795  35.799  1.00  0.00     0.001 A 
ATOM     86  C   UNL A   1      42.864  24.089  35.673  1.00  0.00     0.000 A 
ENDBRANCH  68  81
ENDBRANCH  42  43
ENDBRANCH  34  37
ENDBRANCH  32  33
ENDBRANCH  31  32
ENDBRANCH  30  31
ENDBRANCH   3  30
TORSDOF 15
ENDMDL
MODEL 2
REMARK VINA RESULT:     -12.3      2.863      8.499
REMARK SMILES Cc1cccc(O[C@H](C)C(=O)NNC(=O)[C@H]2[C@@H]3CC[C@@H](C3)[C@@H]2C(=O)NCCCNC(=O)c2ccc(-c3c4nc(c(-c5ccccc5)c5ccc([nH]5)c(-c5ccccc5)c5nc(c(-c6ccccc6)c6ccc3[nH]6)C=C5)C=C4)cc2)c1
REMARK SMILES IDX 23 1 24 2 25 3 22 5 16 6 17 7 18 8 21 9 20 10 19 11 14 12
REMARK SMILES IDX 13 13 15 15 12 16 10 17 11 18 8 20 9 21 7 22 6 23 1 24 2 25
REMARK SMILES IDX 3 26 80 27 4 28 5 29 26 30 27 31 28 32 29 33 30 34 31 36
REMARK SMILES IDX 32 37 33 38 79 39 34 40 78 41 35 42 36 43 37 44 72 45 38 46
REMARK SMILES IDX 77 47 71 48 73 49 39 50 76 51 70 52 69 53 40 55 62 56 47 57
REMARK SMILES IDX 61 58 48 59 51 60 60 61 74 62 49 63 50 64 59 66 75 67 52 68
REMARK SMILES IDX 41 69 42 70 46 71 43 72 45 73 44 74 63 75 64 76 68 77 65 78
REMARK SMILES IDX 67 79 66 80 53 81 54 82 58 83 55 84 57 85 56 86
REMARK H PARENT 25 4 13 14 12 19 29 35 73 54 51 65
REMARK Flexibility Score: inf
ROOT
ATOM      1  C   UNL A   1      34.680  23.009  26.574  1.00  0.00     0.224 C 
ATOM      2  O   UNL A   1      34.202  22.607  27.631  1.00  0.00    -0.275 OA
ATOM      3  N   UNL A   1      36.012  23.323  26.522  1.00  0.00    -0.356 N 
ATOM      4  H   UNL A   1      36.518  23.178  27.354  1.00  0.00     0.163 HD
ENDROOT
BRANCH   1   5
ATOM      5  C   UNL A   1      33.859  23.198  25.306  1.00  0.00     0.094 C 
ATOM      6  C   UNL A   1      32.333  23.136  25.497  1.00  0.00     0.096 C 
ATOM      7  C   UNL A   1      31.871  22.161  24.382  1.00  0.00     0.002 C 
ATOM      8  C   UNL A   1      32.202  20.728  24.848  1.00  0.00     0.005 C 
ATOM      9  C   UNL A   1      32.919  22.332  23.285  1.00  0.00     0.009 C 
ATOM     10  C   UNL A   1      34.093  22.097  24.238  1.00  0.00     0.002 C 
ATOM     11  C   UNL A   1      33.739  20.701  24.791  1.00  0.00     0.005 C 
BRANCH   6  12
ATOM     12  C   UNL A   1      31.533  24.434  25.540  1.00  0.00     0.242 C 
ATOM     13  N   UNL A   1      31.569  25.430  24.608  1.00  0.00    -0.267 N 
ATOM     14  H   UNL A   1      31.063  26.241  24.841  1.00  0.00     0.191 HD
ATOM     15  O   UNL A   1      30.740  24.601  26.477  1.00  0.00    -0.273 OA
BRANCH  13  16
ATOM     16  N   UNL A   1      32.209  25.465  23.398  1.00  0.00    -0.264 N 
ATOM     17  C   UNL A   1      33.341  26.142  23.063  1.00  0.00     0.279 C 
ATOM     18  O   UNL A   1      33.886  25.759  22.014  1.00  0.00    -0.269 OA
ATOM     19  H   UNL A   1      31.797  24.934  22.678  1.00  0.00     0.191 HD
BRANCH  17  20
ATOM     20  C   UNL A   1      33.902  27.393  23.799  1.00  0.00     0.260 C 
ATOM     21  C   UNL A   1      34.107  28.550  22.810  1.00  0.00     0.064 C 
BRANCH  20  22
ATOM     22  O   UNL A   1      33.652  27.768  25.135  1.00  0.00    -0.481 OA
BRANCH  22  23
ATOM     23  C   UNL A   1      33.072  28.919  25.550  1.00  0.00     0.120 A 
ATOM     24  C   UNL A   1      34.167  31.496  28.145  1.00  0.00     0.044 C 
ATOM     25  C   UNL A   1      33.356  30.777  27.109  1.00  0.00    -0.047 A 
ATOM     26  C   UNL A   1      32.078  31.234  26.778  1.00  0.00     0.003 A 
ATOM     27  C   UNL A   1      33.845  29.626  26.480  1.00  0.00     0.049 A 
ATOM     28  C   UNL A   1      31.321  30.564  25.819  1.00  0.00     0.004 A 
ATOM     29  C   UNL A   1      31.821  29.416  25.196  1.00  0.00     0.046 A 
ENDBRANCH  22  23
ENDBRANCH  20  22
ENDBRANCH  17  20
ENDBRANCH  13  16
ENDBRANCH   6  12
ENDBRANCH   1   5
BRANCH   3  30
ATOM     30  C   UNL A   1      36.781  23.845  25.399  1.00  0.00     0.117 C 
BRANCH  30  31
ATOM     31  C   UNL A   1      37.904  22.906  24.971  1.00  0.00     0.042 C 
BRANCH  31  32
ATOM     32  C   UNL A   1      38.461  22.103  26.135  1.00  0.00     0.118 C 
BRANCH  32  33
ATOM     33  N   UNL A   1      39.916  22.157  26.250  1.00  0.00    -0.352 N 
ATOM     34  C   UNL A   1      40.753  23.237  26.486  1.00  0.00     0.251 C 
ATOM     35  H   UNL A   1      40.374  21.294  26.143  1.00  0.00     0.163 HD
ATOM     36  O   UNL A   1      41.962  23.070  26.527  1.00  0.00    -0.269 OA
BRANCH  34  37
ATOM     37  C   UNL A   1      40.174  24.559  26.828  1.00  0.00     0.039 A 
ATOM     38  C   UNL A   1      40.535  25.658  26.036  1.00  0.00     0.014 A 
ATOM     39  C   UNL A   1      39.490  24.756  28.022  1.00  0.00     0.014 A 
ATOM     40  C   UNL A   1      40.464  26.938  26.575  1.00  0.00     0.010 A 
ATOM     41  C   UNL A   1      39.534  26.001  28.605  1.00  0.00     0.010 A 
ATOM     42  C   UNL A   1      40.087  27.077  27.906  1.00  0.00    -0.014 A 
BRANCH  42  43
ATOM     43  C   UNL A   1      40.355  28.260  28.710  1.00  0.00     0.031 A 
ATOM     44  C   UNL A   1      39.346  29.325  28.824  1.00  0.00     0.074 A 
ATOM     45  C   UNL A   1      41.457  28.276  29.491  1.00  0.00     0.049 A 
ATOM     46  N   UNL A   1      39.588  30.493  29.310  1.00  0.00    -0.248 NA
ATOM     47  C   UNL A   1      37.981  29.182  28.326  1.00  0.00     0.031 C 
ATOM     48  C   UNL A   1      41.721  29.122  30.652  1.00  0.00     0.029 A 
ATOM     49  N   UNL A   1      42.677  27.645  29.239  1.00  0.00    -0.354 N 
ATOM     50  C   UNL A   1      38.379  31.117  29.494  1.00  0.00     0.074 A 
ATOM     51  C   UNL A   1      37.434  30.325  28.747  1.00  0.00     0.031 C 
ATOM     52  C   UNL A   1      43.046  29.165  30.866  1.00  0.00     0.029 A 
ATOM     53  C   UNL A   1      43.680  28.498  29.742  1.00  0.00     0.049 A 
ATOM     54  H   UNL A   1      42.811  26.776  28.796  1.00  0.00     0.167 HD
ATOM     55  C   UNL A   1      38.305  32.145  30.384  1.00  0.00     0.031 A 
ATOM     56  C   UNL A   1      44.579  29.089  28.903  1.00  0.00     0.031 A 
ATOM     57  C   UNL A   1      39.637  32.560  30.838  1.00  0.00     0.049 A 
ATOM     58  C   UNL A   1      44.543  30.603  28.919  1.00  0.00     0.074 A 
ATOM     59  C   UNL A   1      40.338  32.415  32.023  1.00  0.00     0.029 A 
ATOM     60  N   UNL A   1      40.557  32.996  29.893  1.00  0.00    -0.354 N 
ATOM     61  N   UNL A   1      43.574  31.317  29.423  1.00  0.00    -0.248 NA
ATOM     62  C   UNL A   1      45.583  31.433  28.322  1.00  0.00     0.031 C 
ATOM     63  C   UNL A   1      41.701  32.744  31.771  1.00  0.00     0.029 A 
ATOM     64  C   UNL A   1      41.818  33.114  30.444  1.00  0.00     0.049 A 
ATOM     65  H   UNL A   1      40.340  33.196  28.954  1.00  0.00     0.167 HD
ATOM     66  C   UNL A   1      43.819  32.653  29.222  1.00  0.00     0.074 A 
ATOM     67  C   UNL A   1      45.098  32.669  28.536  1.00  0.00     0.031 C 
ATOM     68  C   UNL A   1      42.921  33.608  29.621  1.00  0.00     0.031 A 
BRANCH  55  69
ATOM     69  C   UNL A   1      37.023  32.630  31.029  1.00  0.00    -0.014 A 
ATOM     70  C   UNL A   1      36.515  31.951  32.152  1.00  0.00     0.009 A 
ATOM     71  C   UNL A   1      36.220  33.677  30.544  1.00  0.00     0.009 A 
ATOM     72  C   UNL A   1      35.269  32.264  32.716  1.00  0.00     0.001 A 
ATOM     73  C   UNL A   1      34.974  33.999  31.101  1.00  0.00     0.001 A 
ATOM     74  C   UNL A   1      34.493  33.284  32.183  1.00  0.00     0.000 A 
ENDBRANCH  55  69
BRANCH  56  75
ATOM     75  C   UNL A   1      44.908  28.258  27.709  1.00  0.00    -0.014 A 
ATOM     76  C   UNL A   1      45.668  27.087  27.901  1.00  0.00     0.009 A 
ATOM     77  C   UNL A   1      44.176  28.392  26.520  1.00  0.00     0.009 A 
ATOM     78  C   UNL A   1      45.598  26.028  26.992  1.00  0.00     0.001 A 
ATOM     79  C   UNL A   1      44.122  27.333  25.602  1.00  0.00     0.001 A 
ATOM     80  C   UNL A   1      44.799  26.141  25.857  1.00  0.00     0.000 A 
ENDBRANCH  56  75
BRANCH  68  81
ATOM     81  C   UNL A   1      42.938  35.099  29.310  1.00  0.00    -0.014 A 
ATOM     82  C   UNL A   1      43.740  36.060  29.932  1.00  0.00     0.009 A 
ATOM     83  C   UNL A   1      42.114  35.582  28.260  1.00  0.00     0.009 A 
ATOM     84  C   UNL A   1      43.735  37.406  29.526  1.00  0.00     0.001 A 
ATOM     85  C   UNL A   1      42.123  36.911  27.831  1.00  0.00     0.001 A 
ATOM     86  C   UNL A   1      42.939  37.829  28.468  1.00  0.00     0.000 A 
ENDBRANCH  68  81
ENDBRANCH  42  43
ENDBRANCH  34  37
ENDBRANCH  32  33
ENDBRANCH  31  32
ENDBRANCH  30  31
ENDBRANCH   3  30
TORSDOF 15
ENDMDL
MODEL 3
REMARK VINA RESULT:     -12.3      1.240      2.005
REMARK SMILES Cc1cccc(O[C@H](C)C(=O)NNC(=O)[C@H]2[C@@H]3CC[C@@H](C3)[C@@H]2C(=O)NCCCNC(=O)c2ccc(-c3c4nc(c(-c5ccccc5)c5ccc([nH]5)c(-c5ccccc5)c5nc(c(-c6ccccc6)c6ccc3[nH]6)C=C5)C=C4)cc2)c1
REMARK SMILES IDX 23 1 24 2 25 3 22 5 16 6 17 7 18 8 21 9 20 10 19 11 14 12
REMARK SMILES IDX 13 13 15 15 12 16 10 17 11 18 8 20 9 21 7 22 6 23 1 24 2 25
REMARK SMILES IDX 3 26 80 27 4 28 5 29 26 30 27 31 28 32 29 33 30 34 31 36
REMARK SMILES IDX 32 37 33 38 79 39 34 40 78 41 35 42 36 43 37 44 72 45 38 46
REMARK SMILES IDX 77 47 71 48 73 49 39 50 76 51 70 52 69 53 40 55 62 56 47 57
REMARK SMILES IDX 61 58 48 59 51 60 60 61 74 62 49 63 50 64 59 66 75 67 52 68
REMARK SMILES IDX 41 69 42 70 46 71 43 72 45 73 44 74 63 75 64 76 68 77 65 78
REMARK SMILES IDX 67 79 66 80 53 81 54 82 58 83 55 84 57 85 56 86
REMARK H PARENT 25 4 13 14 12 19 29 35 73 54 51 65
REMARK Flexibility Score: inf
ROOT
ATOM      1  C   UNL A   1      33.704  26.291  25.496  1.00  0.00     0.224 C 
ATOM      2  O   UNL A   1      34.432  25.550  24.842  1.00  0.00    -0.275 OA
ATOM      3  N   UNL A   1      34.231  27.433  26.039  1.00  0.00    -0.356 N 
ATOM      4  H   UNL A   1      35.181  27.601  25.840  1.00  0.00     0.163 HD
ENDROOT
BRANCH   1   5
ATOM      5  C   UNL A   1      32.234  25.998  25.757  1.00  0.00     0.094 C 
ATOM      6  C   UNL A   1      31.762  24.591  25.351  1.00  0.00     0.096 C 
ATOM      7  C   UNL A   1      30.470  24.865  24.538  1.00  0.00     0.002 C 
ATOM      8  C   UNL A   1      30.893  25.359  23.140  1.00  0.00     0.005 C 
ATOM      9  C   UNL A   1      29.932  26.167  25.129  1.00  0.00     0.009 C 
ATOM     10  C   UNL A   1      31.261  26.905  24.957  1.00  0.00     0.002 C 
ATOM     11  C   UNL A   1      31.481  26.749  23.437  1.00  0.00     0.005 C 
BRANCH   6  12
ATOM     12  C   UNL A   1      31.590  23.522  26.425  1.00  0.00     0.242 C 
ATOM     13  N   UNL A   1      31.377  22.192  26.207  1.00  0.00    -0.267 N 
ATOM     14  H   UNL A   1      31.191  21.659  27.013  1.00  0.00     0.191 HD
ATOM     15  O   UNL A   1      31.691  23.863  27.612  1.00  0.00    -0.273 OA
BRANCH  13  16
ATOM     16  N   UNL A   1      31.382  21.493  25.029  1.00  0.00    -0.264 N 
ATOM     17  C   UNL A   1      32.447  21.169  24.246  1.00  0.00     0.279 C 
ATOM     18  O   UNL A   1      32.231  20.270  23.417  1.00  0.00    -0.269 OA
ATOM     19  H   UNL A   1      30.503  21.184  24.709  1.00  0.00     0.191 HD
BRANCH  17  20
ATOM     20  C   UNL A   1      33.817  21.906  24.228  1.00  0.00     0.260 C 
ATOM     21  C   UNL A   1      33.916  22.826  23.004  1.00  0.00     0.064 C 
BRANCH  20  22
ATOM     22  O   UNL A   1      34.580  22.296  25.348  1.00  0.00    -0.481 OA
BRANCH  22  23
ATOM     23  C   UNL A   1      35.915  22.132  25.507  1.00  0.00     0.120 A 
ATOM     24  C   UNL A   1      38.609  24.517  26.781  1.00  0.00     0.044 C 
ATOM     25  C   UNL A   1      37.938  23.301  26.216  1.00  0.00    -0.047 A 
ATOM     26  C   UNL A   1      38.703  22.217  25.781  1.00  0.00     0.003 A 
ATOM     27  C   UNL A   1      36.545  23.242  26.083  1.00  0.00     0.049 A 
ATOM     28  C   UNL A   1      38.080  21.089  25.250  1.00  0.00     0.004 A 
ATOM     29  C   UNL A   1      36.688  21.040  25.126  1.00  0.00     0.046 A 
ENDBRANCH  22  23
ENDBRANCH  20  22
ENDBRANCH  17  20
ENDBRANCH  13  16
ENDBRANCH   6  12
ENDBRANCH   1   5
BRANCH   3  30
ATOM     30  C   UNL A   1      33.574  28.433  26.870  1.00  0.00     0.117 C 
BRANCH  30  31
ATOM     31  C   UNL A   1      34.013  29.855  26.535  1.00  0.00     0.042 C 
BRANCH  31  32
ATOM     32  C   UNL A   1      34.397  30.648  27.773  1.00  0.00     0.118 C 
BRANCH  32  33
ATOM     33  N   UNL A   1      33.708  31.931  27.893  1.00  0.00    -0.352 N 
ATOM     34  C   UNL A   1      34.054  33.067  28.608  1.00  0.00     0.251 C 
ATOM     35  H   UNL A   1      32.867  31.999  27.388  1.00  0.00     0.163 HD
ATOM     36  O   UNL A   1      33.320  34.042  28.591  1.00  0.00    -0.269 OA
BRANCH  34  37
ATOM     37  C   UNL A   1      35.378  33.145  29.274  1.00  0.00     0.039 A 
ATOM     38  C   UNL A   1      36.480  33.527  28.496  1.00  0.00     0.014 A 
ATOM     39  C   UNL A   1      35.570  32.637  30.552  1.00  0.00     0.014 A 
ATOM     40  C   UNL A   1      37.757  33.136  28.887  1.00  0.00     0.010 A 
ATOM     41  C   UNL A   1      36.810  32.139  30.881  1.00  0.00     0.010 A 
ATOM     42  C   UNL A   1      37.887  32.328  30.011  1.00  0.00    -0.014 A 
BRANCH  42  43
ATOM     43  C   UNL A   1      39.062  31.520  30.301  1.00  0.00     0.031 A 
ATOM     44  C   UNL A   1      39.208  30.182  29.707  1.00  0.00     0.074 A 
ATOM     45  C   UNL A   1      40.091  32.090  30.967  1.00  0.00     0.049 A 
ATOM     46  N   UNL A   1      40.084  29.319  30.092  1.00  0.00    -0.248 NA
ATOM     47  C   UNL A   1      38.321  29.674  28.665  1.00  0.00     0.031 C 
ATOM     48  C   UNL A   1      41.482  31.648  31.013  1.00  0.00     0.029 A 
ATOM     49  N   UNL A   1      40.015  33.096  31.932  1.00  0.00    -0.354 N 
ATOM     50  C   UNL A   1      40.098  28.309  29.161  1.00  0.00     0.074 A 
ATOM     51  C   UNL A   1      38.903  28.507  28.380  1.00  0.00     0.031 C 
ATOM     52  C   UNL A   1      42.070  32.177  32.098  1.00  0.00     0.029 A 
ATOM     53  C   UNL A   1      41.025  32.823  32.875  1.00  0.00     0.049 A 
ATOM     54  H   UNL A   1      39.381  33.849  31.950  1.00  0.00     0.167 HD
ATOM     55  C   UNL A   1      41.205  27.520  29.073  1.00  0.00     0.031 A 
ATOM     56  C   UNL A   1      40.709  32.496  34.161  1.00  0.00     0.031 A 
ATOM     57  C   UNL A   1      42.128  27.763  30.187  1.00  0.00     0.049 A 
ATOM     58  C   UNL A   1      41.188  31.124  34.591  1.00  0.00     0.074 A 
ATOM     59  C   UNL A   1      43.357  28.391  30.299  1.00  0.00     0.029 A 
ATOM     60  N   UNL A   1      41.673  27.564  31.484  1.00  0.00    -0.354 N 
ATOM     61  N   UNL A   1      41.588  30.189  33.774  1.00  0.00    -0.248 NA
ATOM     62  C   UNL A   1      41.205  30.684  35.981  1.00  0.00     0.031 C 
ATOM     63  C   UNL A   1      43.623  28.592  31.684  1.00  0.00     0.029 A 
ATOM     64  C   UNL A   1      42.570  28.062  32.408  1.00  0.00     0.049 A 
ATOM     65  H   UNL A   1      40.823  27.125  31.716  1.00  0.00     0.167 HD
ATOM     66  C   UNL A   1      41.895  29.049  34.476  1.00  0.00     0.074 A 
ATOM     67  C   UNL A   1      41.646  29.419  35.858  1.00  0.00     0.031 C 
ATOM     68  C   UNL A   1      42.297  27.907  33.836  1.00  0.00     0.031 A 
BRANCH  55  69
ATOM     69  C   UNL A   1      41.572  26.692  27.858  1.00  0.00    -0.014 A 
ATOM     70  C   UNL A   1      41.343  27.215  26.572  1.00  0.00     0.009 A 
ATOM     71  C   UNL A   1      42.058  25.374  27.896  1.00  0.00     0.009 A 
ATOM     72  C   UNL A   1      41.536  26.453  25.410  1.00  0.00     0.001 A 
ATOM     73  C   UNL A   1      42.255  24.604  26.741  1.00  0.00     0.001 A 
ATOM     74  C   UNL A   1      41.984  25.141  25.495  1.00  0.00     0.000 A 
ENDBRANCH  55  69
BRANCH  56  75
ATOM     75  C   UNL A   1      39.463  33.154  34.648  1.00  0.00    -0.014 A 
ATOM     76  C   UNL A   1      38.233  32.505  34.418  1.00  0.00     0.009 A 
ATOM     77  C   UNL A   1      39.517  34.152  35.633  1.00  0.00     0.009 A 
ATOM     78  C   UNL A   1      37.125  32.755  35.233  1.00  0.00     0.001 A 
ATOM     79  C   UNL A   1      38.399  34.412  36.436  1.00  0.00     0.001 A 
ATOM     80  C   UNL A   1      37.219  33.688  36.262  1.00  0.00     0.000 A 
ENDBRANCH  56  75
BRANCH  68  81
ATOM     81  C   UNL A   1      42.487  26.517  34.429  1.00  0.00    -0.014 A 
ATOM     82  C   UNL A   1      41.598  25.858  35.283  1.00  0.00     0.009 A 
ATOM     83  C   UNL A   1      43.636  25.773  34.056  1.00  0.00     0.009 A 
ATOM     84  C   UNL A   1      41.828  24.544  35.724  1.00  0.00     0.001 A 
ATOM     85  C   UNL A   1      43.860  24.456  34.467  1.00  0.00     0.001 A 
ATOM     86  C   UNL A   1      42.950  23.837  35.305  1.00  0.00     0.000 A 
ENDBRANCH  68  81
ENDBRANCH  42  43
ENDBRANCH  34  37
ENDBRANCH  32  33
ENDBRANCH  31  32
ENDBRANCH  30  31
ENDBRANCH   3  30
TORSDOF 15
ENDMDL
