MODEL 1
REMARK VINA RESULT:     -11.6      0.000      0.000
REMARK SMILES CC[C@@]1(C)NC(=O)N(/N=C/c2ccccc2C(=O)NCCCNC(=O)c2ccc(-c3c4nc(c(-c5ccccc5)c5ccc([nH]5)c(-c5ccccc5)c5nc(c(-c6ccccc6)c6ccc3[nH]6)C=C5)C=C4)cc2)C1=O
REMARK SMILES IDX 20 1 19 2 17 3 18 4 16 6 11 7 12 8 13 9 15 10 14 11 10 12
REMARK SMILES IDX 9 13 8 14 3 15 4 16 5 17 74 18 6 19 75 21 7 22 2 23 1 24
REMARK SMILES IDX 21 25 22 26 23 27 24 28 25 30 26 31 27 32 73 33 28 34 72 35
REMARK SMILES IDX 29 36 30 37 31 38 66 39 32 40 71 41 65 42 67 43 33 44 70 45
REMARK SMILES IDX 64 46 63 47 34 49 56 50 41 51 55 52 42 53 45 54 54 55 68 56
REMARK SMILES IDX 43 57 44 58 53 60 69 61 46 62 35 63 36 64 40 65 37 66 39 67
REMARK SMILES IDX 38 68 57 69 58 70 62 71 59 72 61 73 60 74 47 75 48 76 52 77
REMARK SMILES IDX 49 78 51 79 50 80
REMARK H PARENT 19 5 5 20 23 29 67 48 45 59
REMARK Flexibility Score: inf
ROOT
ATOM      1  C   UNL A   1      32.327  27.668  27.057  1.00  0.00     0.118 C 
ENDROOT
BRANCH   1   2
ATOM      2  N   UNL A   1      31.044  27.021  27.082  1.00  0.00    -0.352 N 
ATOM      3  C   UNL A   1      30.499  26.172  26.143  1.00  0.00     0.251 C 
ATOM      4  O   UNL A   1      29.558  25.463  26.508  1.00  0.00    -0.269 OA
ATOM      5  H   UNL A   1      30.483  27.208  27.870  1.00  0.00     0.163 HD
BRANCH   3   6
ATOM      6  C   UNL A   1      30.829  26.208  24.683  1.00  0.00     0.048 A 
ATOM      7  C   UNL A   1      31.638  25.354  23.915  1.00  0.00     0.007 A 
ATOM      8  C   UNL A   1      31.901  25.666  22.563  1.00  0.00     0.010 A 
ATOM      9  C   UNL A   1      31.318  26.776  21.951  1.00  0.00     0.001 A 
ATOM     10  C   UNL A   1      30.228  27.309  24.026  1.00  0.00     0.014 A 
ATOM     11  C   UNL A   1      30.466  27.590  22.679  1.00  0.00     0.001 A 
BRANCH   7  12
ATOM     12  C   UNL A   1      32.331  24.127  24.371  1.00  0.00     0.143 C 
ATOM     13  N   UNL A   1      33.374  24.148  25.129  1.00  0.00    -0.169 NA
BRANCH  13  14
ATOM     14  N   UNL A   1      34.113  22.988  25.320  1.00  0.00    -0.146 N 
ATOM     15  C   UNL A   1      35.681  21.207  25.246  1.00  0.00     0.120 C 
ATOM     16  C   UNL A   1      35.038  19.909  24.760  1.00  0.00     0.045 C 
ATOM     17  N   UNL A   1      35.232  21.512  26.580  1.00  0.00    -0.322 N 
ATOM     18  C   UNL A   1      35.035  22.386  24.479  1.00  0.00     0.276 C 
ATOM     19  C   UNL A   1      34.276  22.508  26.608  1.00  0.00     0.346 C 
ATOM     20  H   UNL A   1      35.570  21.059  27.386  1.00  0.00     0.166 HD
ATOM     21  O   UNL A   1      35.320  22.672  23.321  1.00  0.00    -0.270 OA
ATOM     22  O   UNL A   1      33.800  22.937  27.647  1.00  0.00    -0.246 OA
BRANCH  15  23
ATOM     23  C   UNL A   1      37.212  21.210  25.110  1.00  0.00     0.035 C 
ATOM     24  C   UNL A   1      37.885  22.422  25.747  1.00  0.00     0.007 C 
ENDBRANCH  15  23
ENDBRANCH  13  14
ENDBRANCH   7  12
ENDBRANCH   3   6
ENDBRANCH   1   2
BRANCH   1  25
ATOM     25  C   UNL A   1      32.378  29.140  26.730  1.00  0.00     0.042 C 
BRANCH  25  26
ATOM     26  C   UNL A   1      33.754  29.781  26.851  1.00  0.00     0.118 C 
BRANCH  26  27
ATOM     27  N   UNL A   1      33.892  30.786  27.908  1.00  0.00    -0.352 N 
ATOM     28  C   UNL A   1      34.913  31.090  28.781  1.00  0.00     0.251 C 
ATOM     29  H   UNL A   1      33.098  31.358  28.016  1.00  0.00     0.163 HD
ATOM     30  O   UNL A   1      34.746  31.964  29.632  1.00  0.00    -0.269 OA
BRANCH  28  31
ATOM     31  C   UNL A   1      36.169  30.306  28.806  1.00  0.00     0.039 A 
ATOM     32  C   UNL A   1      36.943  30.286  27.639  1.00  0.00     0.014 A 
ATOM     33  C   UNL A   1      36.626  29.635  29.934  1.00  0.00     0.014 A 
ATOM     34  C   UNL A   1      38.237  29.779  27.656  1.00  0.00     0.010 A 
ATOM     35  C   UNL A   1      37.941  29.190  29.986  1.00  0.00     0.010 A 
ATOM     36  C   UNL A   1      38.759  29.284  28.851  1.00  0.00    -0.014 A 
BRANCH  36  37
ATOM     37  C   UNL A   1      40.121  28.722  28.900  1.00  0.00     0.031 A 
ATOM     38  C   UNL A   1      41.240  29.643  29.272  1.00  0.00     0.074 A 
ATOM     39  C   UNL A   1      40.332  27.429  28.596  1.00  0.00     0.049 A 
ATOM     40  N   UNL A   1      42.528  29.443  29.225  1.00  0.00    -0.248 NA
ATOM     41  C   UNL A   1      40.848  30.985  29.738  1.00  0.00     0.031 C 
ATOM     42  C   UNL A   1      39.292  26.448  28.278  1.00  0.00     0.029 A 
ATOM     43  N   UNL A   1      41.499  26.716  28.506  1.00  0.00    -0.354 N 
ATOM     44  C   UNL A   1      43.099  30.644  29.623  1.00  0.00     0.074 A 
ATOM     45  C   UNL A   1      42.024  31.575  29.877  1.00  0.00     0.031 C 
ATOM     46  C   UNL A   1      39.867  25.256  28.046  1.00  0.00     0.029 A 
ATOM     47  C   UNL A   1      41.316  25.405  28.135  1.00  0.00     0.049 A 
ATOM     48  H   UNL A   1      42.385  27.107  28.687  1.00  0.00     0.167 HD
ATOM     49  C   UNL A   1      44.412  30.939  29.760  1.00  0.00     0.031 A 
ATOM     50  C   UNL A   1      42.228  24.450  27.872  1.00  0.00     0.031 A 
ATOM     51  C   UNL A   1      45.458  29.994  29.493  1.00  0.00     0.049 A 
ATOM     52  C   UNL A   1      43.685  24.823  27.967  1.00  0.00     0.074 A 
ATOM     53  C   UNL A   1      46.826  30.168  29.569  1.00  0.00     0.029 A 
ATOM     54  N   UNL A   1      45.236  28.682  29.093  1.00  0.00    -0.354 N 
ATOM     55  N   UNL A   1      44.222  25.967  28.324  1.00  0.00    -0.248 NA
ATOM     56  C   UNL A   1      44.659  23.784  27.612  1.00  0.00     0.031 C 
ATOM     57  C   UNL A   1      47.433  28.974  29.166  1.00  0.00     0.029 A 
ATOM     58  C   UNL A   1      46.444  28.039  28.895  1.00  0.00     0.049 A 
ATOM     59  H   UNL A   1      44.351  28.270  28.969  1.00  0.00     0.167 HD
ATOM     60  C   UNL A   1      45.596  25.784  28.247  1.00  0.00     0.074 A 
ATOM     61  C   UNL A   1      45.807  24.408  27.837  1.00  0.00     0.031 C 
ATOM     62  C   UNL A   1      46.599  26.667  28.482  1.00  0.00     0.031 A 
BRANCH  49  63
ATOM     63  C   UNL A   1      44.752  32.349  30.154  1.00  0.00    -0.014 A 
ATOM     64  C   UNL A   1      44.900  32.722  31.500  1.00  0.00     0.009 A 
ATOM     65  C   UNL A   1      44.870  33.334  29.161  1.00  0.00     0.009 A 
ATOM     66  C   UNL A   1      45.106  34.059  31.846  1.00  0.00     0.001 A 
ATOM     67  C   UNL A   1      45.107  34.665  29.508  1.00  0.00     0.001 A 
ATOM     68  C   UNL A   1      45.209  35.029  30.850  1.00  0.00     0.000 A 
ENDBRANCH  49  63
BRANCH  50  69
ATOM     69  C   UNL A   1      41.805  23.085  27.455  1.00  0.00    -0.014 A 
ATOM     70  C   UNL A   1      41.530  22.093  28.410  1.00  0.00     0.009 A 
ATOM     71  C   UNL A   1      41.686  22.755  26.094  1.00  0.00     0.009 A 
ATOM     72  C   UNL A   1      41.171  20.801  28.013  1.00  0.00     0.001 A 
ATOM     73  C   UNL A   1      41.296  21.472  25.700  1.00  0.00     0.001 A 
ATOM     74  C   UNL A   1      41.049  20.493  26.660  1.00  0.00     0.000 A 
ENDBRANCH  50  69
BRANCH  62  75
ATOM     75  C   UNL A   1      48.001  26.159  28.313  1.00  0.00    -0.014 A 
ATOM     76  C   UNL A   1      48.743  25.705  29.415  1.00  0.00     0.009 A 
ATOM     77  C   UNL A   1      48.559  26.080  27.029  1.00  0.00     0.009 A 
ATOM     78  C   UNL A   1      50.032  25.203  29.232  1.00  0.00     0.001 A 
ATOM     79  C   UNL A   1      49.836  25.549  26.847  1.00  0.00     0.001 A 
ATOM     80  C   UNL A   1      50.573  25.119  27.950  1.00  0.00     0.000 A 
ENDBRANCH  62  75
ENDBRANCH  36  37
ENDBRANCH  28  31
ENDBRANCH  26  27
ENDBRANCH  25  26
ENDBRANCH   1  25
TORSDOF 13
ENDMDL
MODEL 2
REMARK VINA RESULT:     -11.4      1.397      2.209
REMARK SMILES CC[C@@]1(C)NC(=O)N(/N=C/c2ccccc2C(=O)NCCCNC(=O)c2ccc(-c3c4nc(c(-c5ccccc5)c5ccc([nH]5)c(-c5ccccc5)c5nc(c(-c6ccccc6)c6ccc3[nH]6)C=C5)C=C4)cc2)C1=O
REMARK SMILES IDX 20 1 19 2 17 3 18 4 16 6 11 7 12 8 13 9 15 10 14 11 10 12
REMARK SMILES IDX 9 13 8 14 3 15 4 16 5 17 74 18 6 19 75 21 7 22 2 23 1 24
REMARK SMILES IDX 21 25 22 26 23 27 24 28 25 30 26 31 27 32 73 33 28 34 72 35
REMARK SMILES IDX 29 36 30 37 31 38 66 39 32 40 71 41 65 42 67 43 33 44 70 45
REMARK SMILES IDX 64 46 63 47 34 49 56 50 41 51 55 52 42 53 45 54 54 55 68 56
REMARK SMILES IDX 43 57 44 58 53 60 69 61 46 62 35 63 36 64 40 65 37 66 39 67
REMARK SMILES IDX 38 68 57 69 58 70 62 71 59 72 61 73 60 74 47 75 48 76 52 77
REMARK SMILES IDX 49 78 51 79 50 80
REMARK H PARENT 19 5 5 20 23 29 67 48 45 59
REMARK Flexibility Score: inf
ROOT
ATOM      1  C   UNL A   1      32.081  28.218  26.193  1.00  0.00     0.118 C 
ENDROOT
BRANCH   1   2
ATOM      2  N   UNL A   1      32.495  28.252  24.817  1.00  0.00    -0.352 N 
ATOM      3  C   UNL A   1      31.754  28.615  23.714  1.00  0.00     0.251 C 
ATOM      4  O   UNL A   1      32.380  28.907  22.691  1.00  0.00    -0.269 OA
ATOM      5  H   UNL A   1      33.426  27.981  24.641  1.00  0.00     0.163 HD
BRANCH   3   6
ATOM      6  C   UNL A   1      30.268  28.475  23.614  1.00  0.00     0.048 A 
ATOM      7  C   UNL A   1      29.453  27.337  23.747  1.00  0.00     0.007 A 
ATOM      8  C   UNL A   1      28.069  27.432  23.485  1.00  0.00     0.010 A 
ATOM      9  C   UNL A   1      27.477  28.651  23.158  1.00  0.00     0.001 A 
ATOM     10  C   UNL A   1      29.633  29.704  23.311  1.00  0.00     0.014 A 
ATOM     11  C   UNL A   1      28.258  29.794  23.088  1.00  0.00     0.001 A 
BRANCH   7  12
ATOM     12  C   UNL A   1      29.883  25.964  24.098  1.00  0.00     0.143 C 
ATOM     13  N   UNL A   1      30.336  25.644  25.262  1.00  0.00    -0.169 NA
BRANCH  13  14
ATOM     14  N   UNL A   1      30.945  24.411  25.452  1.00  0.00    -0.146 N 
ATOM     15  C   UNL A   1      32.435  22.573  25.638  1.00  0.00     0.120 C 
ATOM     16  C   UNL A   1      32.160  21.512  24.574  1.00  0.00     0.045 C 
ATOM     17  N   UNL A   1      31.392  22.559  26.631  1.00  0.00    -0.322 N 
ATOM     18  C   UNL A   1      32.182  23.966  25.014  1.00  0.00     0.276 C 
ATOM     19  C   UNL A   1      30.495  23.598  26.478  1.00  0.00     0.346 C 
ATOM     20  H   UNL A   1      31.325  21.882  27.342  1.00  0.00     0.166 HD
ATOM     21  O   UNL A   1      32.972  24.516  24.254  1.00  0.00    -0.270 OA
ATOM     22  O   UNL A   1      29.563  23.783  27.244  1.00  0.00    -0.246 OA
BRANCH  15  23
ATOM     23  C   UNL A   1      33.844  22.468  26.244  1.00  0.00     0.035 C 
ATOM     24  C   UNL A   1      33.872  21.837  27.633  1.00  0.00     0.007 C 
ENDBRANCH  15  23
ENDBRANCH  13  14
ENDBRANCH   7  12
ENDBRANCH   3   6
ENDBRANCH   1   2
BRANCH   1  25
ATOM     25  C   UNL A   1      33.084  28.614  27.250  1.00  0.00     0.042 C 
BRANCH  25  26
ATOM     26  C   UNL A   1      33.922  29.841  26.919  1.00  0.00     0.118 C 
BRANCH  26  27
ATOM     27  N   UNL A   1      34.084  30.809  28.006  1.00  0.00    -0.352 N 
ATOM     28  C   UNL A   1      35.122  31.078  28.870  1.00  0.00     0.251 C 
ATOM     29  H   UNL A   1      33.295  31.380  28.148  1.00  0.00     0.163 HD
ATOM     30  O   UNL A   1      34.974  31.924  29.753  1.00  0.00    -0.269 OA
BRANCH  28  31
ATOM     31  C   UNL A   1      36.374  30.290  28.845  1.00  0.00     0.039 A 
ATOM     32  C   UNL A   1      37.131  30.313  27.667  1.00  0.00     0.014 A 
ATOM     33  C   UNL A   1      36.846  29.572  29.939  1.00  0.00     0.014 A 
ATOM     34  C   UNL A   1      38.423  29.801  27.645  1.00  0.00     0.010 A 
ATOM     35  C   UNL A   1      38.159  29.121  29.953  1.00  0.00     0.010 A 
ATOM     36  C   UNL A   1      38.961  29.256  28.811  1.00  0.00    -0.014 A 
BRANCH  36  37
ATOM     37  C   UNL A   1      40.320  28.688  28.818  1.00  0.00     0.031 A 
ATOM     38  C   UNL A   1      41.458  29.609  29.130  1.00  0.00     0.074 A 
ATOM     39  C   UNL A   1      40.514  27.389  28.528  1.00  0.00     0.049 A 
ATOM     40  N   UNL A   1      42.742  29.401  29.037  1.00  0.00    -0.248 NA
ATOM     41  C   UNL A   1      41.090  30.961  29.588  1.00  0.00     0.031 C 
ATOM     42  C   UNL A   1      39.457  26.409  28.267  1.00  0.00     0.029 A 
ATOM     43  N   UNL A   1      41.673  26.668  28.405  1.00  0.00    -0.354 N 
ATOM     44  C   UNL A   1      43.334  30.606  29.392  1.00  0.00     0.074 A 
ATOM     45  C   UNL A   1      42.274  31.547  29.671  1.00  0.00     0.031 C 
ATOM     46  C   UNL A   1      40.017  25.210  28.034  1.00  0.00     0.029 A 
ATOM     47  C   UNL A   1      41.469  25.352  28.064  1.00  0.00     0.049 A 
ATOM     48  H   UNL A   1      42.566  27.057  28.545  1.00  0.00     0.167 HD
ATOM     49  C   UNL A   1      44.652  30.896  29.474  1.00  0.00     0.031 A 
ATOM     50  C   UNL A   1      42.366  24.388  27.783  1.00  0.00     0.031 A 
ATOM     51  C   UNL A   1      45.683  29.940  29.183  1.00  0.00     0.049 A 
ATOM     52  C   UNL A   1      43.827  24.755  27.816  1.00  0.00     0.074 A 
ATOM     53  C   UNL A   1      47.054  30.108  29.204  1.00  0.00     0.029 A 
ATOM     54  N   UNL A   1      45.439  28.623  28.814  1.00  0.00    -0.354 N 
ATOM     55  N   UNL A   1      44.383  25.901  28.132  1.00  0.00    -0.248 NA
ATOM     56  C   UNL A   1      44.782  23.704  27.441  1.00  0.00     0.031 C 
ATOM     57  C   UNL A   1      47.639  28.904  28.798  1.00  0.00     0.029 A 
ATOM     58  C   UNL A   1      46.635  27.970  28.581  1.00  0.00     0.049 A 
ATOM     59  H   UNL A   1      44.548  28.214  28.732  1.00  0.00     0.167 HD
ATOM     60  C   UNL A   1      45.752  25.709  28.005  1.00  0.00     0.074 A 
ATOM     61  C   UNL A   1      45.940  24.325  27.610  1.00  0.00     0.031 C 
ATOM     62  C   UNL A   1      46.767  26.590  28.186  1.00  0.00     0.031 A 
BRANCH  49  63
ATOM     63  C   UNL A   1      45.014  32.310  29.830  1.00  0.00    -0.014 A 
ATOM     64  C   UNL A   1      45.023  33.332  28.866  1.00  0.00     0.009 A 
ATOM     65  C   UNL A   1      45.410  32.613  31.142  1.00  0.00     0.009 A 
ATOM     66  C   UNL A   1      45.471  34.613  29.197  1.00  0.00     0.001 A 
ATOM     67  C   UNL A   1      45.827  33.902  31.478  1.00  0.00     0.001 A 
ATOM     68  C   UNL A   1      45.872  34.896  30.502  1.00  0.00     0.000 A 
ENDBRANCH  49  63
BRANCH  50  69
ATOM     69  C   UNL A   1      41.920  23.018  27.405  1.00  0.00    -0.014 A 
ATOM     70  C   UNL A   1      41.813  22.642  26.056  1.00  0.00     0.009 A 
ATOM     71  C   UNL A   1      41.582  22.076  28.391  1.00  0.00     0.009 A 
ATOM     72  C   UNL A   1      41.356  21.368  25.706  1.00  0.00     0.001 A 
ATOM     73  C   UNL A   1      41.156  20.793  28.038  1.00  0.00     0.001 A 
ATOM     74  C   UNL A   1      41.034  20.443  26.696  1.00  0.00     0.000 A 
ENDBRANCH  50  69
BRANCH  62  75
ATOM     75  C   UNL A   1      48.160  26.072  27.973  1.00  0.00    -0.014 A 
ATOM     76  C   UNL A   1      48.765  26.122  26.707  1.00  0.00     0.009 A 
ATOM     77  C   UNL A   1      48.891  25.583  29.066  1.00  0.00     0.009 A 
ATOM     78  C   UNL A   1      50.073  25.667  26.538  1.00  0.00     0.001 A 
ATOM     79  C   UNL A   1      50.209  25.158  28.897  1.00  0.00     0.001 A 
ATOM     80  C   UNL A   1      50.795  25.193  27.633  1.00  0.00     0.000 A 
ENDBRANCH  62  75
ENDBRANCH  36  37
ENDBRANCH  28  31
ENDBRANCH  26  27
ENDBRANCH  25  26
ENDBRANCH   1  25
TORSDOF 13
ENDMDL
MODEL 3
REMARK VINA RESULT:     -11.4      1.819      7.764
REMARK SMILES CC[C@@]1(C)NC(=O)N(/N=C/c2ccccc2C(=O)NCCCNC(=O)c2ccc(-c3c4nc(c(-c5ccccc5)c5ccc([nH]5)c(-c5ccccc5)c5nc(c(-c6ccccc6)c6ccc3[nH]6)C=C5)C=C4)cc2)C1=O
REMARK SMILES IDX 20 1 19 2 17 3 18 4 16 6 11 7 12 8 13 9 15 10 14 11 10 12
REMARK SMILES IDX 9 13 8 14 3 15 4 16 5 17 74 18 6 19 75 21 7 22 2 23 1 24
REMARK SMILES IDX 21 25 22 26 23 27 24 28 25 30 26 31 27 32 73 33 28 34 72 35
REMARK SMILES IDX 29 36 30 37 31 38 66 39 32 40 71 41 65 42 67 43 33 44 70 45
REMARK SMILES IDX 64 46 63 47 34 49 56 50 41 51 55 52 42 53 45 54 54 55 68 56
REMARK SMILES IDX 43 57 44 58 53 60 69 61 46 62 35 63 36 64 40 65 37 66 39 67
REMARK SMILES IDX 38 68 57 69 58 70 62 71 59 72 61 73 60 74 47 75 48 76 52 77
REMARK SMILES IDX 49 78 51 79 50 80
REMARK H PARENT 19 5 5 20 23 29 67 48 45 59
REMARK Flexibility Score: inf
ROOT
ATOM      1  C   UNL A   1      37.104  21.258  24.576  1.00  0.00     0.118 C 
ENDROOT
BRANCH   1   2
ATOM      2  N   UNL A   1      36.172  21.742  25.557  1.00  0.00    -0.352 N 
ATOM      3  C   UNL A   1      34.904  21.275  25.829  1.00  0.00     0.251 C 
ATOM      4  O   UNL A   1      34.414  21.589  26.918  1.00  0.00    -0.269 OA
ATOM      5  H   UNL A   1      36.477  22.503  26.103  1.00  0.00     0.163 HD
BRANCH   3   6
ATOM      6  C   UNL A   1      34.019  20.605  24.826  1.00  0.00     0.048 A 
ATOM      7  C   UNL A   1      33.052  21.150  23.962  1.00  0.00     0.007 A 
ATOM      8  C   UNL A   1      32.246  20.292  23.183  1.00  0.00     0.010 A 
ATOM      9  C   UNL A   1      32.432  18.910  23.203  1.00  0.00     0.001 A 
ATOM     10  C   UNL A   1      34.205  19.201  24.800  1.00  0.00     0.014 A 
ATOM     11  C   UNL A   1      33.426  18.364  24.000  1.00  0.00     0.001 A 
BRANCH   7  12
ATOM     12  C   UNL A   1      32.715  22.581  23.786  1.00  0.00     0.143 C 
ATOM     13  N   UNL A   1      33.543  23.446  23.307  1.00  0.00    -0.169 NA
BRANCH  13  14
ATOM     14  N   UNL A   1      33.253  24.801  23.394  1.00  0.00    -0.146 N 
ATOM     15  C   UNL A   1      33.052  27.088  23.997  1.00  0.00     0.120 C 
ATOM     16  C   UNL A   1      31.614  27.450  24.369  1.00  0.00     0.045 C 
ATOM     17  N   UNL A   1      33.158  26.884  22.575  1.00  0.00    -0.322 N 
ATOM     18  C   UNL A   1      33.333  25.648  24.488  1.00  0.00     0.276 C 
ATOM     19  C   UNL A   1      33.214  25.548  22.229  1.00  0.00     0.346 C 
ATOM     20  H   UNL A   1      33.188  27.618  21.920  1.00  0.00     0.166 HD
ATOM     21  O   UNL A   1      33.561  25.369  25.661  1.00  0.00    -0.270 OA
ATOM     22  O   UNL A   1      33.347  25.171  21.076  1.00  0.00    -0.246 OA
BRANCH  15  23
ATOM     23  C   UNL A   1      34.085  28.087  24.541  1.00  0.00     0.035 C 
ATOM     24  C   UNL A   1      33.609  28.860  25.767  1.00  0.00     0.007 C 
ENDBRANCH  15  23
ENDBRANCH  13  14
ENDBRANCH   7  12
ENDBRANCH   3   6
ENDBRANCH   1   2
BRANCH   1  25
ATOM     25  C   UNL A   1      37.892  20.011  24.894  1.00  0.00     0.042 C 
BRANCH  25  26
ATOM     26  C   UNL A   1      38.942  20.170  25.985  1.00  0.00     0.118 C 
BRANCH  26  27
ATOM     27  N   UNL A   1      40.132  19.327  25.845  1.00  0.00    -0.352 N 
ATOM     28  C   UNL A   1      41.467  19.546  26.101  1.00  0.00     0.251 C 
ATOM     29  H   UNL A   1      39.940  18.426  25.499  1.00  0.00     0.163 HD
ATOM     30  O   UNL A   1      42.290  18.670  25.834  1.00  0.00    -0.269 OA
BRANCH  28  31
ATOM     31  C   UNL A   1      41.959  20.858  26.579  1.00  0.00     0.039 A 
ATOM     32  C   UNL A   1      42.364  21.789  25.614  1.00  0.00     0.014 A 
ATOM     33  C   UNL A   1      41.996  21.216  27.922  1.00  0.00     0.014 A 
ATOM     34  C   UNL A   1      42.608  23.112  25.964  1.00  0.00     0.010 A 
ATOM     35  C   UNL A   1      42.166  22.548  28.277  1.00  0.00     0.010 A 
ATOM     36  C   UNL A   1      42.449  23.506  27.292  1.00  0.00    -0.014 A 
BRANCH  36  37
ATOM     37  C   UNL A   1      42.717  24.896  27.701  1.00  0.00     0.031 A 
ATOM     38  C   UNL A   1      44.141  25.289  27.941  1.00  0.00     0.074 A 
ATOM     39  C   UNL A   1      41.701  25.761  27.871  1.00  0.00     0.049 A 
ATOM     40  N   UNL A   1      44.623  26.383  28.461  1.00  0.00    -0.248 NA
ATOM     41  C   UNL A   1      45.161  24.295  27.560  1.00  0.00     0.031 C 
ATOM     42  C   UNL A   1      40.289  25.477  27.605  1.00  0.00     0.029 A 
ATOM     43  N   UNL A   1      41.702  27.060  28.308  1.00  0.00    -0.354 N 
ATOM     44  C   UNL A   1      45.997  26.195  28.502  1.00  0.00     0.074 A 
ATOM     45  C   UNL A   1      46.271  24.874  27.984  1.00  0.00     0.031 C 
ATOM     46  C   UNL A   1      39.562  26.577  27.867  1.00  0.00     0.029 A 
ATOM     47  C   UNL A   1      40.447  27.617  28.379  1.00  0.00     0.049 A 
ATOM     48  H   UNL A   1      42.523  27.546  28.549  1.00  0.00     0.167 HD
ATOM     49  C   UNL A   1      46.945  27.055  28.937  1.00  0.00     0.031 A 
ATOM     50  C   UNL A   1      40.068  28.826  28.837  1.00  0.00     0.031 A 
ATOM     51  C   UNL A   1      46.641  28.360  29.453  1.00  0.00     0.049 A 
ATOM     52  C   UNL A   1      41.136  29.740  29.379  1.00  0.00     0.074 A 
ATOM     53  C   UNL A   1      47.500  29.321  29.948  1.00  0.00     0.029 A 
ATOM     54  N   UNL A   1      45.355  28.882  29.536  1.00  0.00    -0.354 N 
ATOM     55  N   UNL A   1      42.434  29.550  29.435  1.00  0.00    -0.248 NA
ATOM     56  C   UNL A   1      40.690  31.024  29.933  1.00  0.00     0.031 C 
ATOM     57  C   UNL A   1      46.728  30.406  30.377  1.00  0.00     0.029 A 
ATOM     58  C   UNL A   1      45.394  30.144  30.096  1.00  0.00     0.049 A 
ATOM     59  H   UNL A   1      44.538  28.421  29.239  1.00  0.00     0.167 HD
ATOM     60  C   UNL A   1      42.962  30.693  30.020  1.00  0.00     0.074 A 
ATOM     61  C   UNL A   1      41.843  31.582  30.272  1.00  0.00     0.031 C 
ATOM     62  C   UNL A   1      44.249  30.987  30.331  1.00  0.00     0.031 A 
BRANCH  49  63
ATOM     63  C   UNL A   1      48.365  26.565  28.921  1.00  0.00    -0.014 A 
ATOM     64  C   UNL A   1      49.208  26.786  27.819  1.00  0.00     0.009 A 
ATOM     65  C   UNL A   1      48.850  25.817  30.006  1.00  0.00     0.009 A 
ATOM     66  C   UNL A   1      50.486  26.224  27.782  1.00  0.00     0.001 A 
ATOM     67  C   UNL A   1      50.140  25.283  29.979  1.00  0.00     0.001 A 
ATOM     68  C   UNL A   1      50.951  25.473  28.861  1.00  0.00     0.000 A 
ENDBRANCH  49  63
BRANCH  50  69
ATOM     69  C   UNL A   1      38.633  29.221  28.848  1.00  0.00    -0.014 A 
ATOM     70  C   UNL A   1      37.839  29.017  29.989  1.00  0.00     0.009 A 
ATOM     71  C   UNL A   1      38.036  29.793  27.712  1.00  0.00     0.009 A 
ATOM     72  C   UNL A   1      36.482  29.354  29.982  1.00  0.00     0.001 A 
ATOM     73  C   UNL A   1      36.687  30.157  27.718  1.00  0.00     0.001 A 
ATOM     74  C   UNL A   1      35.908  29.928  28.850  1.00  0.00     0.000 A 
ENDBRANCH  50  69
BRANCH  62  75
ATOM     75  C   UNL A   1      44.504  32.325  30.961  1.00  0.00    -0.014 A 
ATOM     76  C   UNL A   1      44.726  33.465  30.174  1.00  0.00     0.009 A 
ATOM     77  C   UNL A   1      44.461  32.452  32.358  1.00  0.00     0.009 A 
ATOM     78  C   UNL A   1      44.926  34.706  30.779  1.00  0.00     0.001 A 
ATOM     79  C   UNL A   1      44.630  33.700  32.957  1.00  0.00     0.001 A 
ATOM     80  C   UNL A   1      44.870  34.824  32.168  1.00  0.00     0.000 A 
ENDBRANCH  62  75
ENDBRANCH  36  37
ENDBRANCH  28  31
ENDBRANCH  26  27
ENDBRANCH  25  26
ENDBRANCH   1  25
TORSDOF 13
ENDMDL
