MODEL 1
REMARK VINA RESULT:     -11.6      0.000      0.000
REMARK SMILES O=C(NCCCNC(=O)[C@H]1C[C@H]2CCCC[C@@H]2[N@@H+]1CC[C@@H]1CCCO1)c1ccc(-c2c3nc(c(-c4ccccc4)c4ccc([nH]4)c(-c4ccccc4)c4nc(c(-c5ccccc5)c5ccc2[nH]5)C=C4)C=C3)cc1
REMARK SMILES IDX 5 1 4 2 3 3 1 4 2 5 26 7 27 8 73 9 28 10 72 11 29 12 30 13
REMARK SMILES IDX 31 14 66 15 32 16 71 17 65 18 67 19 33 20 70 21 64 22 63 23
REMARK SMILES IDX 34 25 56 26 41 27 55 28 42 29 45 30 54 31 68 32 43 33 44 34
REMARK SMILES IDX 53 36 69 37 46 38 35 39 36 40 40 41 37 42 39 43 38 44 57 45
REMARK SMILES IDX 58 46 62 47 59 48 61 49 60 50 47 51 48 52 52 53 49 54 51 55
REMARK SMILES IDX 50 56 6 57 7 58 8 59 9 61 10 62 11 63 18 64 12 65 17 66
REMARK SMILES IDX 13 68 16 69 14 70 15 71 19 72 20 73 21 74 22 75 25 76 23 77
REMARK SMILES IDX 24 78
REMARK H PARENT 3 6 67 24 45 35 7 60 18 67
REMARK Flexibility Score: inf
ROOT
ATOM      1  C   UNL A   1      37.708  19.779  24.752  1.00  0.00     0.042 C 
ENDROOT
BRANCH   1   2
ATOM      2  C   UNL A   1      38.789  20.227  25.738  1.00  0.00     0.118 C 
BRANCH   2   3
ATOM      3  N   UNL A   1      39.946  19.340  25.754  1.00  0.00    -0.352 N 
ATOM      4  O   UNL A   1      42.114  18.741  25.839  1.00  0.00    -0.269 OA
ATOM      5  C   UNL A   1      41.260  19.598  26.055  1.00  0.00     0.251 C 
ATOM      6  H   UNL A   1      39.754  18.405  25.510  1.00  0.00     0.163 HD
BRANCH   5   7
ATOM      7  C   UNL A   1      41.661  20.904  26.619  1.00  0.00     0.039 A 
ATOM      8  C   UNL A   1      41.635  21.132  27.996  1.00  0.00     0.014 A 
ATOM      9  C   UNL A   1      42.104  21.910  25.754  1.00  0.00     0.014 A 
ATOM     10  C   UNL A   1      41.903  22.403  28.492  1.00  0.00     0.010 A 
ATOM     11  C   UNL A   1      42.456  23.162  26.263  1.00  0.00     0.010 A 
ATOM     12  C   UNL A   1      42.321  23.432  27.633  1.00  0.00    -0.014 A 
BRANCH  12  13
ATOM     13  C   UNL A   1      42.640  24.770  28.195  1.00  0.00     0.031 A 
ATOM     14  C   UNL A   1      44.053  25.147  28.544  1.00  0.00     0.074 A 
ATOM     15  C   UNL A   1      41.645  25.661  28.365  1.00  0.00     0.049 A 
ATOM     16  N   UNL A   1      44.513  26.286  29.001  1.00  0.00    -0.248 NA
ATOM     17  C   UNL A   1      45.084  24.115  28.364  1.00  0.00     0.031 C 
ATOM     18  C   UNL A   1      40.233  25.416  28.064  1.00  0.00     0.029 A 
ATOM     19  N   UNL A   1      41.670  26.959  28.809  1.00  0.00    -0.354 N 
ATOM     20  C   UNL A   1      45.878  26.099  29.185  1.00  0.00     0.074 A 
ATOM     21  C   UNL A   1      46.166  24.729  28.818  1.00  0.00     0.031 C 
ATOM     22  C   UNL A   1      39.537  26.543  28.278  1.00  0.00     0.029 A 
ATOM     23  C   UNL A   1      40.440  27.568  28.789  1.00  0.00     0.049 A 
ATOM     24  H   UNL A   1      42.491  27.409  29.112  1.00  0.00     0.167 HD
ATOM     25  C   UNL A   1      46.807  26.989  29.616  1.00  0.00     0.031 A 
ATOM     26  C   UNL A   1      40.074  28.811  29.148  1.00  0.00     0.031 A 
ATOM     27  C   UNL A   1      46.517  28.350  29.985  1.00  0.00     0.049 A 
ATOM     28  C   UNL A   1      41.113  29.763  29.661  1.00  0.00     0.074 A 
ATOM     29  C   UNL A   1      47.395  29.338  30.397  1.00  0.00     0.029 A 
ATOM     30  N   UNL A   1      45.249  28.914  29.997  1.00  0.00    -0.354 N 
ATOM     31  N   UNL A   1      42.406  29.584  29.788  1.00  0.00    -0.248 NA
ATOM     32  C   UNL A   1      40.643  31.091  30.074  1.00  0.00     0.031 C 
ATOM     33  C   UNL A   1      46.651  30.480  30.718  1.00  0.00     0.029 A 
ATOM     34  C   UNL A   1      45.317  30.225  30.440  1.00  0.00     0.049 A 
ATOM     35  H   UNL A   1      44.422  28.450  29.732  1.00  0.00     0.167 HD
ATOM     36  C   UNL A   1      42.908  30.786  30.267  1.00  0.00     0.074 A 
ATOM     37  C   UNL A   1      41.782  31.689  30.395  1.00  0.00     0.031 C 
ATOM     38  C   UNL A   1      44.189  31.112  30.568  1.00  0.00     0.031 A 
BRANCH  25  39
ATOM     39  C   UNL A   1      48.224  26.497  29.751  1.00  0.00    -0.014 A 
ATOM     40  C   UNL A   1      49.163  26.660  28.720  1.00  0.00     0.009 A 
ATOM     41  C   UNL A   1      48.631  25.877  30.943  1.00  0.00     0.009 A 
ATOM     42  C   UNL A   1      50.464  26.170  28.861  1.00  0.00     0.001 A 
ATOM     43  C   UNL A   1      49.941  25.417  31.095  1.00  0.00     0.001 A 
ATOM     44  C   UNL A   1      50.853  25.552  30.049  1.00  0.00     0.000 A 
ENDBRANCH  25  39
BRANCH  26  45
ATOM     45  C   UNL A   1      38.651  29.225  29.023  1.00  0.00    -0.014 A 
ATOM     46  C   UNL A   1      38.149  29.684  27.796  1.00  0.00     0.009 A 
ATOM     47  C   UNL A   1      37.785  29.144  30.125  1.00  0.00     0.009 A 
ATOM     48  C   UNL A   1      36.813  30.071  27.680  1.00  0.00     0.001 A 
ATOM     49  C   UNL A   1      36.442  29.503  29.998  1.00  0.00     0.001 A 
ATOM     50  C   UNL A   1      35.959  29.973  28.778  1.00  0.00     0.000 A 
ENDBRANCH  26  45
BRANCH  38  51
ATOM     51  C   UNL A   1      44.446  32.523  31.022  1.00  0.00    -0.014 A 
ATOM     52  C   UNL A   1      44.715  33.553  30.109  1.00  0.00     0.009 A 
ATOM     53  C   UNL A   1      44.392  32.828  32.393  1.00  0.00     0.009 A 
ATOM     54  C   UNL A   1      44.966  34.851  30.561  1.00  0.00     0.001 A 
ATOM     55  C   UNL A   1      44.611  34.131  32.839  1.00  0.00     0.001 A 
ATOM     56  C   UNL A   1      44.910  35.139  31.925  1.00  0.00     0.000 A 
ENDBRANCH  38  51
ENDBRANCH  12  13
ENDBRANCH   5   7
ENDBRANCH   2   3
ENDBRANCH   1   2
BRANCH   1  57
ATOM     57  C   UNL A   1      36.338  20.397  25.014  1.00  0.00     0.118 C 
BRANCH  57  58
ATOM     58  N   UNL A   1      36.391  21.841  24.962  1.00  0.00    -0.351 N 
ATOM     59  C   UNL A   1      35.412  22.761  25.195  1.00  0.00     0.278 C 
ATOM     60  H   UNL A   1      37.268  22.218  24.722  1.00  0.00     0.163 HD
ATOM     61  O   UNL A   1      35.695  23.930  24.920  1.00  0.00    -0.268 OA
BRANCH  59  62
ATOM     62  C   UNL A   1      34.051  22.340  25.826  1.00  0.00     0.274 C 
ATOM     63  C   UNL A   1      33.559  23.465  26.773  1.00  0.00     0.085 C 
ATOM     64  N   UNL A   1      33.017  22.219  24.768  1.00  0.00    -0.322 N 
ATOM     65  C   UNL A   1      32.269  23.967  26.151  1.00  0.00     0.054 C 
ATOM     66  C   UNL A   1      32.355  23.526  24.700  1.00  0.00     0.188 C 
ATOM     67  H   UNL A   1      33.446  22.024  23.863  1.00  0.00     0.349 HD
ATOM     68  C   UNL A   1      31.905  25.437  26.261  1.00  0.00     0.010 C 
ATOM     69  C   UNL A   1      31.023  23.710  23.974  1.00  0.00     0.065 C 
ATOM     70  C   UNL A   1      30.515  25.621  25.639  1.00  0.00     0.001 C 
ATOM     71  C   UNL A   1      30.433  25.110  24.194  1.00  0.00     0.006 C 
BRANCH  64  72
ATOM     72  C   UNL A   1      32.218  20.986  24.709  1.00  0.00     0.265 C 
BRANCH  72  73
ATOM     73  C   UNL A   1      32.428  19.836  23.686  1.00  0.00     0.093 C 
BRANCH  73  74
ATOM     74  C   UNL A   1      32.988  18.540  24.245  1.00  0.00     0.123 C 
ATOM     75  C   UNL A   1      33.388  17.437  23.289  1.00  0.00     0.034 C 
ATOM     76  O   UNL A   1      32.053  17.878  25.098  1.00  0.00    -0.378 OA
ATOM     77  C   UNL A   1      33.559  16.271  24.258  1.00  0.00     0.031 C 
ATOM     78  C   UNL A   1      32.648  16.617  25.426  1.00  0.00     0.160 C 
ENDBRANCH  73  74
ENDBRANCH  72  73
ENDBRANCH  64  72
ENDBRANCH  59  62
ENDBRANCH  57  58
ENDBRANCH   1  57
TORSDOF 13
ENDMDL
MODEL 2
REMARK VINA RESULT:     -11.5      1.959      7.414
REMARK SMILES O=C(NCCCNC(=O)[C@H]1C[C@H]2CCCC[C@@H]2[N@@H+]1CC[C@@H]1CCCO1)c1ccc(-c2c3nc(c(-c4ccccc4)c4ccc([nH]4)c(-c4ccccc4)c4nc(c(-c5ccccc5)c5ccc2[nH]5)C=C4)C=C3)cc1
REMARK SMILES IDX 5 1 4 2 3 3 1 4 2 5 26 7 27 8 73 9 28 10 72 11 29 12 30 13
REMARK SMILES IDX 31 14 66 15 32 16 71 17 65 18 67 19 33 20 70 21 64 22 63 23
REMARK SMILES IDX 34 25 56 26 41 27 55 28 42 29 45 30 54 31 68 32 43 33 44 34
REMARK SMILES IDX 53 36 69 37 46 38 35 39 36 40 40 41 37 42 39 43 38 44 57 45
REMARK SMILES IDX 58 46 62 47 59 48 61 49 60 50 47 51 48 52 52 53 49 54 51 55
REMARK SMILES IDX 50 56 6 57 7 58 8 59 9 61 10 62 11 63 18 64 12 65 17 66
REMARK SMILES IDX 13 68 16 69 14 70 15 71 19 72 20 73 21 74 22 75 25 76 23 77
REMARK SMILES IDX 24 78
REMARK H PARENT 3 6 67 24 45 35 7 60 18 67
REMARK Flexibility Score: inf
ROOT
ATOM      1  C   UNL A   1      32.257  27.883  27.221  1.00  0.00     0.042 C 
ENDROOT
BRANCH   1   2
ATOM      2  C   UNL A   1      33.609  28.593  27.140  1.00  0.00     0.118 C 
BRANCH   2   3
ATOM      3  N   UNL A   1      33.557  29.971  27.615  1.00  0.00    -0.352 N 
ATOM      4  O   UNL A   1      34.181  31.809  28.754  1.00  0.00    -0.269 OA
ATOM      5  C   UNL A   1      34.493  30.714  28.292  1.00  0.00     0.251 C 
ATOM      6  H   UNL A   1      32.717  30.445  27.419  1.00  0.00     0.163 HD
BRANCH   5   7
ATOM      7  C   UNL A   1      35.865  30.200  28.487  1.00  0.00     0.039 A 
ATOM      8  C   UNL A   1      36.245  29.600  29.688  1.00  0.00     0.014 A 
ATOM      9  C   UNL A   1      36.780  30.292  27.433  1.00  0.00     0.014 A 
ATOM     10  C   UNL A   1      37.571  29.232  29.889  1.00  0.00     0.010 A 
ATOM     11  C   UNL A   1      38.092  29.843  27.607  1.00  0.00     0.010 A 
ATOM     12  C   UNL A   1      38.509  29.345  28.850  1.00  0.00    -0.014 A 
BRANCH  12  13
ATOM     13  C   UNL A   1      39.910  28.908  29.079  1.00  0.00     0.031 A 
ATOM     14  C   UNL A   1      40.894  29.796  29.789  1.00  0.00     0.074 A 
ATOM     15  C   UNL A   1      40.289  27.684  28.664  1.00  0.00     0.049 A 
ATOM     16  N   UNL A   1      42.141  29.554  30.112  1.00  0.00    -0.248 NA
ATOM     17  C   UNL A   1      40.422  31.131  30.185  1.00  0.00     0.031 C 
ATOM     18  C   UNL A   1      39.429  26.727  27.963  1.00  0.00     0.029 A 
ATOM     19  N   UNL A   1      41.485  27.024  28.791  1.00  0.00    -0.354 N 
ATOM     20  C   UNL A   1      42.608  30.711  30.723  1.00  0.00     0.074 A 
ATOM     21  C   UNL A   1      41.519  31.665  30.702  1.00  0.00     0.031 C 
ATOM     22  C   UNL A   1      40.107  25.586  27.773  1.00  0.00     0.029 A 
ATOM     23  C   UNL A   1      41.465  25.750  28.280  1.00  0.00     0.049 A 
ATOM     24  H   UNL A   1      42.281  27.427  29.207  1.00  0.00     0.167 HD
ATOM     25  C   UNL A   1      43.830  30.955  31.259  1.00  0.00     0.031 A 
ATOM     26  C   UNL A   1      42.431  24.817  28.218  1.00  0.00     0.031 A 
ATOM     27  C   UNL A   1      44.912  30.006  31.276  1.00  0.00     0.049 A 
ATOM     28  C   UNL A   1      43.787  25.127  28.781  1.00  0.00     0.074 A 
ATOM     29  C   UNL A   1      46.174  30.146  31.828  1.00  0.00     0.029 A 
ATOM     30  N   UNL A   1      44.866  28.742  30.703  1.00  0.00    -0.354 N 
ATOM     31  N   UNL A   1      44.199  26.209  29.395  1.00  0.00    -0.248 NA
ATOM     32  C   UNL A   1      44.809  24.081  28.646  1.00  0.00     0.031 C 
ATOM     33  C   UNL A   1      46.911  28.992  31.536  1.00  0.00     0.029 A 
ATOM     34  C   UNL A   1      46.086  28.105  30.862  1.00  0.00     0.049 A 
ATOM     35  H   UNL A   1      44.082  28.356  30.251  1.00  0.00     0.167 HD
ATOM     36  C   UNL A   1      45.518  25.965  29.747  1.00  0.00     0.074 A 
ATOM     37  C   UNL A   1      45.833  24.626  29.289  1.00  0.00     0.031 C 
ATOM     38  C   UNL A   1      46.389  26.776  30.397  1.00  0.00     0.031 A 
BRANCH  25  39
ATOM     39  C   UNL A   1      44.070  32.325  31.836  1.00  0.00    -0.014 A 
ATOM     40  C   UNL A   1      43.829  32.608  33.190  1.00  0.00     0.009 A 
ATOM     41  C   UNL A   1      44.567  33.346  31.011  1.00  0.00     0.009 A 
ATOM     42  C   UNL A   1      44.036  33.896  33.693  1.00  0.00     0.001 A 
ATOM     43  C   UNL A   1      44.803  34.624  31.523  1.00  0.00     0.001 A 
ATOM     44  C   UNL A   1      44.525  34.901  32.860  1.00  0.00     0.000 A 
ENDBRANCH  25  39
BRANCH  26  45
ATOM     45  C   UNL A   1      42.140  23.494  27.605  1.00  0.00    -0.014 A 
ATOM     46  C   UNL A   1      42.410  23.265  26.247  1.00  0.00     0.009 A 
ATOM     47  C   UNL A   1      41.610  22.450  28.378  1.00  0.00     0.009 A 
ATOM     48  C   UNL A   1      42.138  22.022  25.673  1.00  0.00     0.001 A 
ATOM     49  C   UNL A   1      41.368  21.199  27.809  1.00  0.00     0.001 A 
ATOM     50  C   UNL A   1      41.625  20.988  26.455  1.00  0.00     0.000 A 
ENDBRANCH  26  45
BRANCH  38  51
ATOM     51  C   UNL A   1      47.754  26.216  30.692  1.00  0.00    -0.014 A 
ATOM     52  C   UNL A   1      48.772  26.211  29.727  1.00  0.00     0.009 A 
ATOM     53  C   UNL A   1      48.029  25.704  31.971  1.00  0.00     0.009 A 
ATOM     54  C   UNL A   1      50.025  25.669  30.024  1.00  0.00     0.001 A 
ATOM     55  C   UNL A   1      49.290  25.193  32.275  1.00  0.00     0.001 A 
ATOM     56  C   UNL A   1      50.284  25.164  31.299  1.00  0.00     0.000 A 
ENDBRANCH  38  51
ENDBRANCH  12  13
ENDBRANCH   5   7
ENDBRANCH   2   3
ENDBRANCH   1   2
BRANCH   1  57
ATOM     57  C   UNL A   1      32.121  26.701  26.266  1.00  0.00     0.118 C 
BRANCH  57  58
ATOM     58  N   UNL A   1      31.314  25.649  26.840  1.00  0.00    -0.351 N 
ATOM     59  C   UNL A   1      31.501  24.298  26.827  1.00  0.00     0.278 C 
ATOM     60  H   UNL A   1      30.506  25.953  27.314  1.00  0.00     0.163 HD
ATOM     61  O   UNL A   1      30.564  23.620  27.260  1.00  0.00    -0.268 OA
BRANCH  59  62
ATOM     62  C   UNL A   1      32.846  23.680  26.344  1.00  0.00     0.274 C 
ATOM     63  C   UNL A   1      32.843  22.158  26.639  1.00  0.00     0.085 C 
ATOM     64  N   UNL A   1      32.964  23.808  24.869  1.00  0.00    -0.322 N 
ATOM     65  C   UNL A   1      32.904  21.493  25.275  1.00  0.00     0.054 C 
ATOM     66  C   UNL A   1      32.421  22.564  24.313  1.00  0.00     0.188 C 
ATOM     67  H   UNL A   1      32.403  24.589  24.528  1.00  0.00     0.349 HD
ATOM     68  C   UNL A   1      32.179  20.179  25.048  1.00  0.00     0.010 C 
ATOM     69  C   UNL A   1      32.666  22.167  22.858  1.00  0.00     0.065 C 
ATOM     70  C   UNL A   1      32.508  19.704  23.627  1.00  0.00     0.001 C 
ATOM     71  C   UNL A   1      32.168  20.748  22.553  1.00  0.00     0.006 C 
BRANCH  64  72
ATOM     72  C   UNL A   1      34.196  24.387  24.314  1.00  0.00     0.265 C 
BRANCH  72  73
ATOM     73  C   UNL A   1      35.530  24.557  25.092  1.00  0.00     0.093 C 
BRANCH  73  74
ATOM     74  C   UNL A   1      36.287  23.279  25.404  1.00  0.00     0.123 C 
ATOM     75  C   UNL A   1      37.756  23.361  25.763  1.00  0.00     0.034 C 
ATOM     76  O   UNL A   1      36.295  22.378  24.296  1.00  0.00    -0.378 OA
ATOM     77  C   UNL A   1      38.154  21.892  25.661  1.00  0.00     0.031 C 
ATOM     78  C   UNL A   1      37.159  21.300  24.675  1.00  0.00     0.160 C 
ENDBRANCH  73  74
ENDBRANCH  72  73
ENDBRANCH  64  72
ENDBRANCH  59  62
ENDBRANCH  57  58
ENDBRANCH   1  57
TORSDOF 13
ENDMDL
MODEL 3
REMARK VINA RESULT:     -11.5      1.892      7.415
REMARK SMILES O=C(NCCCNC(=O)[C@H]1C[C@H]2CCCC[C@@H]2[N@@H+]1CC[C@@H]1CCCO1)c1ccc(-c2c3nc(c(-c4ccccc4)c4ccc([nH]4)c(-c4ccccc4)c4nc(c(-c5ccccc5)c5ccc2[nH]5)C=C4)C=C3)cc1
REMARK SMILES IDX 5 1 4 2 3 3 1 4 2 5 26 7 27 8 73 9 28 10 72 11 29 12 30 13
REMARK SMILES IDX 31 14 66 15 32 16 71 17 65 18 67 19 33 20 70 21 64 22 63 23
REMARK SMILES IDX 34 25 56 26 41 27 55 28 42 29 45 30 54 31 68 32 43 33 44 34
REMARK SMILES IDX 53 36 69 37 46 38 35 39 36 40 40 41 37 42 39 43 38 44 57 45
REMARK SMILES IDX 58 46 62 47 59 48 61 49 60 50 47 51 48 52 52 53 49 54 51 55
REMARK SMILES IDX 50 56 6 57 7 58 8 59 9 61 10 62 11 63 18 64 12 65 17 66
REMARK SMILES IDX 13 68 16 69 14 70 15 71 19 72 20 73 21 74 22 75 25 76 23 77
REMARK SMILES IDX 24 78
REMARK H PARENT 3 6 67 24 45 35 7 60 18 67
REMARK Flexibility Score: inf
ROOT
ATOM      1  C   UNL A   1      32.295  27.920  27.176  1.00  0.00     0.042 C 
ENDROOT
BRANCH   1   2
ATOM      2  C   UNL A   1      33.673  28.585  27.166  1.00  0.00     0.118 C 
BRANCH   2   3
ATOM      3  N   UNL A   1      33.642  29.965  27.637  1.00  0.00    -0.352 N 
ATOM      4  O   UNL A   1      34.294  31.798  28.769  1.00  0.00    -0.269 OA
ATOM      5  C   UNL A   1      34.588  30.696  28.311  1.00  0.00     0.251 C 
ATOM      6  H   UNL A   1      32.809  30.451  27.439  1.00  0.00     0.163 HD
BRANCH   5   7
ATOM      7  C   UNL A   1      35.953  30.162  28.508  1.00  0.00     0.039 A 
ATOM      8  C   UNL A   1      36.335  29.594  29.724  1.00  0.00     0.014 A 
ATOM      9  C   UNL A   1      36.857  30.202  27.441  1.00  0.00     0.014 A 
ATOM     10  C   UNL A   1      37.656  29.208  29.922  1.00  0.00     0.010 A 
ATOM     11  C   UNL A   1      38.162  29.734  27.616  1.00  0.00     0.010 A 
ATOM     12  C   UNL A   1      38.584  29.268  28.870  1.00  0.00    -0.014 A 
BRANCH  12  13
ATOM     13  C   UNL A   1      39.979  28.812  29.098  1.00  0.00     0.031 A 
ATOM     14  C   UNL A   1      40.423  27.437  28.679  1.00  0.00     0.074 A 
ATOM     15  C   UNL A   1      40.860  29.659  29.664  1.00  0.00     0.049 A 
ATOM     16  N   UNL A   1      41.613  26.894  28.763  1.00  0.00    -0.248 NA
ATOM     17  C   UNL A   1      39.402  26.554  28.098  1.00  0.00     0.031 C 
ATOM     18  C   UNL A   1      40.553  31.018  30.114  1.00  0.00     0.029 A 
ATOM     19  N   UNL A   1      42.196  29.512  29.937  1.00  0.00    -0.354 N 
ATOM     20  C   UNL A   1      41.478  25.602  28.269  1.00  0.00     0.074 A 
ATOM     21  C   UNL A   1      40.084  25.433  27.915  1.00  0.00     0.031 C 
ATOM     22  C   UNL A   1      41.679  31.600  30.553  1.00  0.00     0.029 A 
ATOM     23  C   UNL A   1      42.772  30.636  30.475  1.00  0.00     0.049 A 
ATOM     24  H   UNL A   1      42.694  28.681  29.764  1.00  0.00     0.167 HD
ATOM     25  C   UNL A   1      42.428  24.646  28.119  1.00  0.00     0.031 A 
ATOM     26  C   UNL A   1      44.036  30.868  30.871  1.00  0.00     0.031 A 
ATOM     27  C   UNL A   1      43.813  24.815  28.475  1.00  0.00     0.049 A 
ATOM     28  C   UNL A   1      45.059  29.780  30.733  1.00  0.00     0.074 A 
ATOM     29  C   UNL A   1      44.858  23.919  28.327  1.00  0.00     0.029 A 
ATOM     30  N   UNL A   1      44.345  25.954  29.064  1.00  0.00    -0.354 N 
ATOM     31  N   UNL A   1      44.924  28.579  30.224  1.00  0.00    -0.248 NA
ATOM     32  C   UNL A   1      46.411  30.082  31.219  1.00  0.00     0.031 C 
ATOM     33  C   UNL A   1      46.008  24.492  28.882  1.00  0.00     0.029 A 
ATOM     34  C   UNL A   1      45.696  25.771  29.313  1.00  0.00     0.049 A 
ATOM     35  H   UNL A   1      43.837  26.770  29.275  1.00  0.00     0.167 HD
ATOM     36  C   UNL A   1      46.180  27.993  30.300  1.00  0.00     0.074 A 
ATOM     37  C   UNL A   1      47.065  28.976  30.893  1.00  0.00     0.031 C 
ATOM     38  C   UNL A   1      46.565  26.754  29.909  1.00  0.00     0.031 A 
BRANCH  25  39
ATOM     39  C   UNL A   1      41.985  23.311  27.580  1.00  0.00    -0.014 A 
ATOM     40  C   UNL A   1      41.471  22.310  28.419  1.00  0.00     0.009 A 
ATOM     41  C   UNL A   1      42.066  23.060  26.201  1.00  0.00     0.009 A 
ATOM     42  C   UNL A   1      41.092  21.070  27.896  1.00  0.00     0.001 A 
ATOM     43  C   UNL A   1      41.657  21.832  25.676  1.00  0.00     0.001 A 
ATOM     44  C   UNL A   1      41.183  20.834  26.525  1.00  0.00     0.000 A 
ENDBRANCH  25  39
BRANCH  26  45
ATOM     45  C   UNL A   1      44.402  32.198  31.427  1.00  0.00    -0.014 A 
ATOM     46  C   UNL A   1      44.886  33.211  30.587  1.00  0.00     0.009 A 
ATOM     47  C   UNL A   1      44.250  32.464  32.797  1.00  0.00     0.009 A 
ATOM     48  C   UNL A   1      45.228  34.460  31.110  1.00  0.00     0.001 A 
ATOM     49  C   UNL A   1      44.564  33.723  33.312  1.00  0.00     0.001 A 
ATOM     50  C   UNL A   1      45.059  34.717  32.470  1.00  0.00     0.000 A 
ENDBRANCH  26  45
BRANCH  38  51
ATOM     51  C   UNL A   1      48.020  26.408  30.068  1.00  0.00    -0.014 A 
ATOM     52  C   UNL A   1      48.514  25.828  31.246  1.00  0.00     0.009 A 
ATOM     53  C   UNL A   1      48.907  26.649  29.006  1.00  0.00     0.009 A 
ATOM     54  C   UNL A   1      49.874  25.534  31.372  1.00  0.00     0.001 A 
ATOM     55  C   UNL A   1      50.258  26.325  29.122  1.00  0.00     0.001 A 
ATOM     56  C   UNL A   1      50.744  25.779  30.309  1.00  0.00     0.000 A 
ENDBRANCH  38  51
ENDBRANCH  12  13
ENDBRANCH   5   7
ENDBRANCH   2   3
ENDBRANCH   1   2
BRANCH   1  57
ATOM     57  C   UNL A   1      32.170  26.742  26.215  1.00  0.00     0.118 C 
BRANCH  57  58
ATOM     58  N   UNL A   1      31.485  25.629  26.831  1.00  0.00    -0.351 N 
ATOM     59  C   UNL A   1      31.763  24.295  26.780  1.00  0.00     0.278 C 
ATOM     60  H   UNL A   1      30.698  25.870  27.372  1.00  0.00     0.163 HD
ATOM     61  O   UNL A   1      30.912  23.548  27.272  1.00  0.00    -0.268 OA
BRANCH  59  62
ATOM     62  C   UNL A   1      33.106  23.778  26.184  1.00  0.00     0.274 C 
ATOM     63  C   UNL A   1      33.454  22.408  26.821  1.00  0.00     0.085 C 
ATOM     64  N   UNL A   1      32.951  23.523  24.729  1.00  0.00    -0.322 N 
ATOM     65  C   UNL A   1      33.419  21.419  25.670  1.00  0.00     0.054 C 
ATOM     66  C   UNL A   1      32.582  22.108  24.606  1.00  0.00     0.188 C 
ATOM     67  H   UNL A   1      32.198  24.091  24.340  1.00  0.00     0.349 HD
ATOM     68  C   UNL A   1      32.942  19.999  25.914  1.00  0.00     0.010 C 
ATOM     69  C   UNL A   1      32.658  21.378  23.267  1.00  0.00     0.065 C 
ATOM     70  C   UNL A   1      33.119  19.215  24.607  1.00  0.00     0.001 C 
ATOM     71  C   UNL A   1      32.407  19.870  23.415  1.00  0.00     0.006 C 
BRANCH  64  72
ATOM     72  C   UNL A   1      33.935  24.109  23.808  1.00  0.00     0.265 C 
BRANCH  72  73
ATOM     73  C   UNL A   1      35.129  23.343  23.173  1.00  0.00     0.093 C 
BRANCH  73  74
ATOM     74  C   UNL A   1      36.383  23.242  24.023  1.00  0.00     0.123 C 
ATOM     75  C   UNL A   1      36.822  21.884  24.529  1.00  0.00     0.034 C 
ATOM     76  O   UNL A   1      36.272  23.994  25.232  1.00  0.00    -0.378 OA
ATOM     77  C   UNL A   1      37.869  22.292  25.562  1.00  0.00     0.031 C 
ATOM     78  C   UNL A   1      37.447  23.689  25.992  1.00  0.00     0.160 C 
ENDBRANCH  73  74
ENDBRANCH  72  73
ENDBRANCH  64  72
ENDBRANCH  59  62
ENDBRANCH  57  58
ENDBRANCH   1  57
TORSDOF 13
ENDMDL
