MODEL 1
REMARK VINA RESULT:     -10.7      0.000      0.000
REMARK SMILES CCC(CC)(NC(=O)NC[C@H](C)[NH+]1CCCCC1)C(=O)NCCCNC(=O)c1ccc(-c2c3nc(c(-c4ccccc4)c4ccc([nH]4)c(-c4ccccc4)c4nc(c(-c5ccccc5)c5ccc2[nH]5)C=C4)C=C3)cc1
REMARK SMILES IDX 22 1 21 2 19 3 20 4 3 6 2 7 1 8 4 9 5 10 6 11 7 12 8 14 9 15
REMARK SMILES IDX 10 17 11 18 12 19 13 20 14 21 18 22 15 24 17 25 16 26 23 27
REMARK SMILES IDX 24 28 25 29 26 30 27 32 28 33 29 34 75 35 30 36 74 37 31 38
REMARK SMILES IDX 32 39 33 40 68 41 34 42 73 43 67 44 69 45 35 46 72 47 66 48
REMARK SMILES IDX 65 49 36 51 58 52 43 53 57 54 44 55 47 56 56 57 70 58 45 59
REMARK SMILES IDX 46 60 55 62 71 63 48 64 37 65 38 66 42 67 39 68 41 69 40 70
REMARK SMILES IDX 59 71 60 72 64 73 61 74 63 75 62 76 49 77 50 78 54 79 51 80
REMARK SMILES IDX 53 81 52 82
REMARK H PARENT 21 5 6 13 9 16 13 23 25 31 69 50 47 61
REMARK Flexibility Score: inf
ROOT
ATOM      1  C   UNL A   1      35.899  21.294  24.956  1.00  0.00     0.117 C 
ENDROOT
BRANCH   1   2
ATOM      2  N   UNL A   1      35.400  21.443  26.321  1.00  0.00    -0.354 N 
ATOM      3  C   UNL A   1      34.239  21.920  26.883  1.00  0.00     0.245 C 
ATOM      4  O   UNL A   1      34.023  21.591  28.055  1.00  0.00    -0.272 OA
ATOM      5  H   UNL A   1      36.045  21.130  26.996  1.00  0.00     0.163 HD
BRANCH   3   6
ATOM      6  C   UNL A   1      33.145  22.640  26.055  1.00  0.00     0.120 C 
BRANCH   6   7
ATOM      7  C   UNL A   1      32.876  22.152  24.602  1.00  0.00     0.035 C 
ATOM      8  C   UNL A   1      32.328  20.749  24.394  1.00  0.00     0.007 C 
ENDBRANCH   6   7
BRANCH   6   9
ATOM      9  C   UNL A   1      33.706  24.107  26.039  1.00  0.00     0.035 C 
ATOM     10  C   UNL A   1      34.425  24.607  24.801  1.00  0.00     0.007 C 
ENDBRANCH   6   9
BRANCH   6  11
ATOM     11  N   UNL A   1      31.870  22.509  26.773  1.00  0.00    -0.324 N 
ATOM     12  C   UNL A   1      30.700  23.160  26.692  1.00  0.00     0.315 C 
ATOM     13  H   UNL A   1      31.876  21.798  27.453  1.00  0.00     0.166 HD
ATOM     14  O   UNL A   1      29.883  22.939  27.593  1.00  0.00    -0.249 OA
ATOM     15  N   UNL A   1      30.280  23.932  25.679  1.00  0.00    -0.332 N 
ATOM     16  H   UNL A   1      29.298  23.918  25.614  1.00  0.00     0.165 HD
BRANCH  15  17
ATOM     17  C   UNL A   1      30.859  24.796  24.634  1.00  0.00     0.182 C 
BRANCH  17  18
ATOM     18  C   UNL A   1      30.565  26.337  24.768  1.00  0.00     0.200 C 
ATOM     19  C   UNL A   1      30.147  27.032  23.470  1.00  0.00     0.077 C 
BRANCH  18  20
ATOM     20  N   UNL A   1      31.683  27.183  25.176  1.00  0.00    -0.331 N 
ATOM     21  C   UNL A   1      32.357  27.927  24.124  1.00  0.00     0.262 C 
ATOM     22  C   UNL A   1      31.797  27.656  26.537  1.00  0.00     0.262 C 
ATOM     23  H   UNL A   1      32.340  26.424  25.354  1.00  0.00     0.348 HD
ATOM     24  C   UNL A   1      33.819  28.174  24.485  1.00  0.00     0.062 C 
ATOM     25  C   UNL A   1      33.254  27.935  26.904  1.00  0.00     0.062 C 
ATOM     26  C   UNL A   1      33.940  28.812  25.863  1.00  0.00     0.012 C 
ENDBRANCH  18  20
ENDBRANCH  17  18
ENDBRANCH  15  17
ENDBRANCH   6  11
ENDBRANCH   3   6
ENDBRANCH   1   2
BRANCH   1  27
ATOM     27  C   UNL A   1      37.302  20.739  24.665  1.00  0.00     0.042 C 
BRANCH  27  28
ATOM     28  C   UNL A   1      38.428  20.796  25.691  1.00  0.00     0.118 C 
BRANCH  28  29
ATOM     29  N   UNL A   1      39.456  19.781  25.550  1.00  0.00    -0.352 N 
ATOM     30  C   UNL A   1      40.759  19.806  25.988  1.00  0.00     0.251 C 
ATOM     31  H   UNL A   1      39.184  18.962  25.076  1.00  0.00     0.163 HD
ATOM     32  O   UNL A   1      41.481  18.823  25.845  1.00  0.00    -0.269 OA
BRANCH  30  33
ATOM     33  C   UNL A   1      41.323  21.042  26.572  1.00  0.00     0.039 A 
ATOM     34  C   UNL A   1      41.912  21.966  25.703  1.00  0.00     0.014 A 
ATOM     35  C   UNL A   1      41.264  21.304  27.944  1.00  0.00     0.014 A 
ATOM     36  C   UNL A   1      42.365  23.193  26.192  1.00  0.00     0.010 A 
ATOM     37  C   UNL A   1      41.688  22.546  28.427  1.00  0.00     0.010 A 
ATOM     38  C   UNL A   1      42.218  23.511  27.552  1.00  0.00    -0.014 A 
BRANCH  38  39
ATOM     39  C   UNL A   1      42.551  24.869  28.059  1.00  0.00     0.031 A 
ATOM     40  C   UNL A   1      43.946  25.204  28.502  1.00  0.00     0.074 A 
ATOM     41  C   UNL A   1      41.573  25.787  28.185  1.00  0.00     0.049 A 
ATOM     42  N   UNL A   1      44.393  26.298  29.068  1.00  0.00    -0.248 NA
ATOM     43  C   UNL A   1      44.970  24.169  28.297  1.00  0.00     0.031 C 
ATOM     44  C   UNL A   1      40.173  25.593  27.802  1.00  0.00     0.029 A 
ATOM     45  N   UNL A   1      41.603  27.066  28.688  1.00  0.00    -0.354 N 
ATOM     46  C   UNL A   1      45.743  26.078  29.303  1.00  0.00     0.074 A 
ATOM     47  C   UNL A   1      46.037  24.735  28.845  1.00  0.00     0.031 C 
ATOM     48  C   UNL A   1      39.482  26.710  28.076  1.00  0.00     0.029 A 
ATOM     49  C   UNL A   1      40.376  27.684  28.696  1.00  0.00     0.049 A 
ATOM     50  H   UNL A   1      42.426  27.498  29.012  1.00  0.00     0.167 HD
ATOM     51  C   UNL A   1      46.658  26.918  29.848  1.00  0.00     0.031 A 
ATOM     52  C   UNL A   1      40.003  28.889  29.165  1.00  0.00     0.031 A 
ATOM     53  C   UNL A   1      46.370  28.252  30.304  1.00  0.00     0.049 A 
ATOM     54  C   UNL A   1      41.028  29.789  29.797  1.00  0.00     0.074 A 
ATOM     55  C   UNL A   1      47.242  29.187  30.837  1.00  0.00     0.029 A 
ATOM     56  N   UNL A   1      45.116  28.841  30.287  1.00  0.00    -0.354 N 
ATOM     57  N   UNL A   1      42.310  29.580  29.975  1.00  0.00    -0.248 NA
ATOM     58  C   UNL A   1      40.556  31.093  30.286  1.00  0.00     0.031 C 
ATOM     59  C   UNL A   1      46.506  30.327  31.182  1.00  0.00     0.029 A 
ATOM     60  C   UNL A   1      45.187  30.120  30.814  1.00  0.00     0.049 A 
ATOM     61  H   UNL A   1      44.296  28.414  29.949  1.00  0.00     0.167 HD
ATOM     62  C   UNL A   1      42.803  30.738  30.562  1.00  0.00     0.074 A 
ATOM     63  C   UNL A   1      41.685  31.647  30.708  1.00  0.00     0.031 C 
ATOM     64  C   UNL A   1      44.072  31.022  30.941  1.00  0.00     0.031 A 
BRANCH  51  65
ATOM     65  C   UNL A   1      48.062  26.405  30.001  1.00  0.00    -0.014 A 
ATOM     66  C   UNL A   1      49.010  26.564  28.976  1.00  0.00     0.009 A 
ATOM     67  C   UNL A   1      48.456  25.792  31.201  1.00  0.00     0.009 A 
ATOM     68  C   UNL A   1      50.312  26.085  29.139  1.00  0.00     0.001 A 
ATOM     69  C   UNL A   1      49.765  25.340  31.370  1.00  0.00     0.001 A 
ATOM     70  C   UNL A   1      50.689  25.478  30.336  1.00  0.00     0.000 A 
ENDBRANCH  51  65
BRANCH  52  71
ATOM     71  C   UNL A   1      38.585  29.323  29.058  1.00  0.00    -0.014 A 
ATOM     72  C   UNL A   1      38.107  29.905  27.874  1.00  0.00     0.009 A 
ATOM     73  C   UNL A   1      37.706  29.167  30.141  1.00  0.00     0.009 A 
ATOM     74  C   UNL A   1      36.783  30.342  27.785  1.00  0.00     0.001 A 
ATOM     75  C   UNL A   1      36.375  29.581  30.040  1.00  0.00     0.001 A 
ATOM     76  C   UNL A   1      35.918  30.175  28.865  1.00  0.00     0.000 A 
ENDBRANCH  52  71
BRANCH  64  77
ATOM     77  C   UNL A   1      44.340  32.391  31.499  1.00  0.00    -0.014 A 
ATOM     78  C   UNL A   1      44.664  33.472  30.664  1.00  0.00     0.009 A 
ATOM     79  C   UNL A   1      44.206  32.611  32.879  1.00  0.00     0.009 A 
ATOM     80  C   UNL A   1      44.871  34.742  31.207  1.00  0.00     0.001 A 
ATOM     81  C   UNL A   1      44.388  33.887  33.414  1.00  0.00     0.001 A 
ATOM     82  C   UNL A   1      44.727  34.950  32.578  1.00  0.00     0.000 A 
ENDBRANCH  64  77
ENDBRANCH  38  39
ENDBRANCH  30  33
ENDBRANCH  28  29
ENDBRANCH  27  28
ENDBRANCH   1  27
TORSDOF 16
ENDMDL
MODEL 2
REMARK VINA RESULT:     -10.6      3.197      8.430
REMARK SMILES CCC(CC)(NC(=O)NC[C@H](C)[NH+]1CCCCC1)C(=O)NCCCNC(=O)c1ccc(-c2c3nc(c(-c4ccccc4)c4ccc([nH]4)c(-c4ccccc4)c4nc(c(-c5ccccc5)c5ccc2[nH]5)C=C4)C=C3)cc1
REMARK SMILES IDX 22 1 21 2 19 3 20 4 3 6 2 7 1 8 4 9 5 10 6 11 7 12 8 14 9 15
REMARK SMILES IDX 10 17 11 18 12 19 13 20 14 21 18 22 15 24 17 25 16 26 23 27
REMARK SMILES IDX 24 28 25 29 26 30 27 32 28 33 29 34 75 35 30 36 74 37 31 38
REMARK SMILES IDX 32 39 33 40 68 41 34 42 73 43 67 44 69 45 35 46 72 47 66 48
REMARK SMILES IDX 65 49 36 51 58 52 43 53 57 54 44 55 47 56 56 57 70 58 45 59
REMARK SMILES IDX 46 60 55 62 71 63 48 64 37 65 38 66 42 67 39 68 41 69 40 70
REMARK SMILES IDX 59 71 60 72 64 73 61 74 63 75 62 76 49 77 50 78 54 79 51 80
REMARK SMILES IDX 53 81 52 82
REMARK H PARENT 21 5 6 13 9 16 13 23 25 31 69 50 47 61
REMARK Flexibility Score: inf
ROOT
ATOM      1  C   UNL A   1      31.784  29.690  25.319  1.00  0.00     0.117 C 
ENDROOT
BRANCH   1   2
ATOM      2  N   UNL A   1      32.952  29.577  24.451  1.00  0.00    -0.354 N 
ATOM      3  C   UNL A   1      33.406  28.640  23.551  1.00  0.00     0.245 C 
ATOM      4  O   UNL A   1      34.266  29.023  22.750  1.00  0.00    -0.272 OA
ATOM      5  H   UNL A   1      33.557  30.350  24.527  1.00  0.00     0.163 HD
BRANCH   3   6
ATOM      6  C   UNL A   1      32.740  27.252  23.384  1.00  0.00     0.120 C 
BRANCH   6   7
ATOM      7  C   UNL A   1      31.237  27.103  23.761  1.00  0.00     0.035 C 
ATOM      8  C   UNL A   1      30.188  27.632  22.797  1.00  0.00     0.007 C 
ENDBRANCH   6   7
BRANCH   6   9
ATOM      9  C   UNL A   1      33.629  26.382  24.343  1.00  0.00     0.035 C 
ATOM     10  C   UNL A   1      33.258  26.293  25.812  1.00  0.00     0.007 C 
ENDBRANCH   6   9
BRANCH   6  11
ATOM     11  N   UNL A   1      32.848  26.861  21.972  1.00  0.00    -0.324 N 
ATOM     12  C   UNL A   1      32.769  25.682  21.337  1.00  0.00     0.315 C 
ATOM     13  H   UNL A   1      33.011  27.620  21.368  1.00  0.00     0.166 HD
ATOM     14  O   UNL A   1      33.114  25.671  20.151  1.00  0.00    -0.249 OA
ATOM     15  N   UNL A   1      32.247  24.545  21.820  1.00  0.00    -0.332 N 
ATOM     16  H   UNL A   1      31.887  23.991  21.091  1.00  0.00     0.165 HD
BRANCH  15  17
ATOM     17  C   UNL A   1      32.054  23.882  23.123  1.00  0.00     0.182 C 
BRANCH  17  18
ATOM     18  C   UNL A   1      32.930  22.600  23.383  1.00  0.00     0.200 C 
ATOM     19  C   UNL A   1      32.234  21.490  24.174  1.00  0.00     0.077 C 
BRANCH  18  20
ATOM     20  N   UNL A   1      34.136  22.783  24.185  1.00  0.00    -0.331 N 
ATOM     21  C   UNL A   1      34.111  22.242  25.535  1.00  0.00     0.262 C 
ATOM     22  C   UNL A   1      35.417  23.011  23.557  1.00  0.00     0.262 C 
ATOM     23  H   UNL A   1      34.009  23.781  24.354  1.00  0.00     0.348 HD
ATOM     24  C   UNL A   1      35.027  23.042  26.457  1.00  0.00     0.062 C 
ATOM     25  C   UNL A   1      36.355  23.787  24.481  1.00  0.00     0.062 C 
ATOM     26  C   UNL A   1      36.427  23.161  25.869  1.00  0.00     0.012 C 
ENDBRANCH  18  20
ENDBRANCH  17  18
ENDBRANCH  15  17
ENDBRANCH   6  11
ENDBRANCH   3   6
ENDBRANCH   1   2
BRANCH   1  27
ATOM     27  C   UNL A   1      31.774  30.620  26.543  1.00  0.00     0.042 C 
BRANCH  27  28
ATOM     28  C   UNL A   1      32.854  31.670  26.776  1.00  0.00     0.118 C 
BRANCH  28  29
ATOM     29  N   UNL A   1      32.398  32.921  27.351  1.00  0.00    -0.352 N 
ATOM     30  C   UNL A   1      33.074  33.790  28.176  1.00  0.00     0.251 C 
ATOM     31  H   UNL A   1      31.477  33.185  27.121  1.00  0.00     0.163 HD
ATOM     32  O   UNL A   1      32.558  34.849  28.518  1.00  0.00    -0.269 OA
BRANCH  30  33
ATOM     33  C   UNL A   1      34.401  33.421  28.714  1.00  0.00     0.039 A 
ATOM     34  C   UNL A   1      34.446  32.739  29.934  1.00  0.00     0.014 A 
ATOM     35  C   UNL A   1      35.583  33.720  28.031  1.00  0.00     0.014 A 
ATOM     36  C   UNL A   1      35.667  32.279  30.432  1.00  0.00     0.010 A 
ATOM     37  C   UNL A   1      36.801  33.230  28.514  1.00  0.00     0.010 A 
ATOM     38  C   UNL A   1      36.850  32.483  29.705  1.00  0.00    -0.014 A 
BRANCH  38  39
ATOM     39  C   UNL A   1      38.131  31.867  30.142  1.00  0.00     0.031 A 
ATOM     40  C   UNL A   1      39.062  32.599  31.065  1.00  0.00     0.074 A 
ATOM     41  C   UNL A   1      38.490  30.665  29.649  1.00  0.00     0.049 A 
ATOM     42  N   UNL A   1      40.263  32.262  31.465  1.00  0.00    -0.248 NA
ATOM     43  C   UNL A   1      38.588  33.885  31.597  1.00  0.00     0.031 C 
ATOM     44  C   UNL A   1      37.685  29.849  28.737  1.00  0.00     0.029 A 
ATOM     45  N   UNL A   1      39.634  29.927  29.832  1.00  0.00    -0.354 N 
ATOM     46  C   UNL A   1      40.696  33.300  32.279  1.00  0.00     0.074 A 
ATOM     47  C   UNL A   1      39.640  34.292  32.294  1.00  0.00     0.031 C 
ATOM     48  C   UNL A   1      38.356  28.723  28.446  1.00  0.00     0.029 A 
ATOM     49  C   UNL A   1      39.655  28.756  29.112  1.00  0.00     0.049 A 
ATOM     50  H   UNL A   1      40.369  30.210  30.422  1.00  0.00     0.167 HD
ATOM     51  C   UNL A   1      41.865  33.416  32.956  1.00  0.00     0.031 A 
ATOM     52  C   UNL A   1      40.615  27.821  28.984  1.00  0.00     0.031 A 
ATOM     53  C   UNL A   1      42.916  32.433  32.943  1.00  0.00     0.049 A 
ATOM     54  C   UNL A   1      41.917  27.990  29.717  1.00  0.00     0.074 A 
ATOM     55  C   UNL A   1      44.120  32.451  33.628  1.00  0.00     0.029 A 
ATOM     56  N   UNL A   1      42.894  31.259  32.208  1.00  0.00    -0.354 N 
ATOM     57  N   UNL A   1      42.293  28.959  30.515  1.00  0.00    -0.248 NA
ATOM     58  C   UNL A   1      42.922  26.932  29.537  1.00  0.00     0.031 C 
ATOM     59  C   UNL A   1      44.844  31.308  33.272  1.00  0.00     0.029 A 
ATOM     60  C   UNL A   1      44.068  30.553  32.408  1.00  0.00     0.049 A 
ATOM     61  H   UNL A   1      42.151  30.970  31.629  1.00  0.00     0.167 HD
ATOM     62  C   UNL A   1      43.562  28.610  30.959  1.00  0.00     0.074 A 
ATOM     63  C   UNL A   1      43.891  27.340  30.346  1.00  0.00     0.031 C 
ATOM     64  C   UNL A   1      44.379  29.283  31.805  1.00  0.00     0.031 A 
BRANCH  51  65
ATOM     65  C   UNL A   1      42.078  34.670  33.756  1.00  0.00    -0.014 A 
ATOM     66  C   UNL A   1      41.721  34.737  35.113  1.00  0.00     0.009 A 
ATOM     67  C   UNL A   1      42.683  35.787  33.157  1.00  0.00     0.009 A 
ATOM     68  C   UNL A   1      41.931  35.910  35.841  1.00  0.00     0.001 A 
ATOM     69  C   UNL A   1      42.917  36.948  33.895  1.00  0.00     0.001 A 
ATOM     70  C   UNL A   1      42.532  37.012  35.234  1.00  0.00     0.000 A 
ENDBRANCH  51  65
BRANCH  52  71
ATOM     71  C   UNL A   1      40.386  26.633  28.121  1.00  0.00    -0.014 A 
ATOM     72  C   UNL A   1      40.870  26.606  26.805  1.00  0.00     0.009 A 
ATOM     73  C   UNL A   1      39.675  25.524  28.606  1.00  0.00     0.009 A 
ATOM     74  C   UNL A   1      40.627  25.502  25.984  1.00  0.00     0.001 A 
ATOM     75  C   UNL A   1      39.456  24.410  27.791  1.00  0.00     0.001 A 
ATOM     76  C   UNL A   1      39.925  24.404  26.478  1.00  0.00     0.000 A 
ENDBRANCH  52  71
BRANCH  64  77
ATOM     77  C   UNL A   1      45.685  28.637  32.168  1.00  0.00    -0.014 A 
ATOM     78  C   UNL A   1      46.856  28.888  31.435  1.00  0.00     0.009 A 
ATOM     79  C   UNL A   1      45.755  27.810  33.300  1.00  0.00     0.009 A 
ATOM     80  C   UNL A   1      48.065  28.303  31.818  1.00  0.00     0.001 A 
ATOM     81  C   UNL A   1      46.969  27.247  33.694  1.00  0.00     0.001 A 
ATOM     82  C   UNL A   1      48.122  27.489  32.949  1.00  0.00     0.000 A 
ENDBRANCH  64  77
ENDBRANCH  38  39
ENDBRANCH  30  33
ENDBRANCH  28  29
ENDBRANCH  27  28
ENDBRANCH   1  27
TORSDOF 16
ENDMDL
MODEL 3
REMARK VINA RESULT:     -10.5      3.418      8.421
REMARK SMILES CCC(CC)(NC(=O)NC[C@H](C)[NH+]1CCCCC1)C(=O)NCCCNC(=O)c1ccc(-c2c3nc(c(-c4ccccc4)c4ccc([nH]4)c(-c4ccccc4)c4nc(c(-c5ccccc5)c5ccc2[nH]5)C=C4)C=C3)cc1
REMARK SMILES IDX 22 1 21 2 19 3 20 4 3 6 2 7 1 8 4 9 5 10 6 11 7 12 8 14 9 15
REMARK SMILES IDX 10 17 11 18 12 19 13 20 14 21 18 22 15 24 17 25 16 26 23 27
REMARK SMILES IDX 24 28 25 29 26 30 27 32 28 33 29 34 75 35 30 36 74 37 31 38
REMARK SMILES IDX 32 39 33 40 68 41 34 42 73 43 67 44 69 45 35 46 72 47 66 48
REMARK SMILES IDX 65 49 36 51 58 52 43 53 57 54 44 55 47 56 56 57 70 58 45 59
REMARK SMILES IDX 46 60 55 62 71 63 48 64 37 65 38 66 42 67 39 68 41 69 40 70
REMARK SMILES IDX 59 71 60 72 64 73 61 74 63 75 62 76 49 77 50 78 54 79 51 80
REMARK SMILES IDX 53 81 52 82
REMARK H PARENT 21 5 6 13 9 16 13 23 25 31 69 50 47 61
REMARK Flexibility Score: inf
ROOT
ATOM      1  C   UNL A   1      31.773  29.684  25.274  1.00  0.00     0.117 C 
ENDROOT
BRANCH   1   2
ATOM      2  N   UNL A   1      32.932  29.586  24.391  1.00  0.00    -0.354 N 
ATOM      3  C   UNL A   1      33.378  28.661  23.475  1.00  0.00     0.245 C 
ATOM      4  O   UNL A   1      34.228  29.057  22.669  1.00  0.00    -0.272 OA
ATOM      5  H   UNL A   1      33.534  30.360  24.470  1.00  0.00     0.163 HD
BRANCH   3   6
ATOM      6  C   UNL A   1      32.715  27.273  23.299  1.00  0.00     0.120 C 
BRANCH   6   7
ATOM      7  C   UNL A   1      31.233  27.100  23.742  1.00  0.00     0.035 C 
ATOM      8  C   UNL A   1      30.135  27.619  22.829  1.00  0.00     0.007 C 
ENDBRANCH   6   7
BRANCH   6   9
ATOM      9  C   UNL A   1      33.655  26.383  24.190  1.00  0.00     0.035 C 
ATOM     10  C   UNL A   1      33.676  26.608  25.690  1.00  0.00     0.007 C 
ENDBRANCH   6   9
BRANCH   6  11
ATOM     11  N   UNL A   1      32.760  26.924  21.873  1.00  0.00    -0.324 N 
ATOM     12  C   UNL A   1      32.765  25.756  21.214  1.00  0.00     0.315 C 
ATOM     13  H   UNL A   1      32.793  27.708  21.280  1.00  0.00     0.166 HD
ATOM     14  O   UNL A   1      33.019  25.806  20.005  1.00  0.00    -0.249 OA
ATOM     15  N   UNL A   1      32.408  24.558  21.702  1.00  0.00    -0.332 N 
ATOM     16  H   UNL A   1      32.058  23.981  20.986  1.00  0.00     0.165 HD
BRANCH  15  17
ATOM     17  C   UNL A   1      32.388  23.853  22.996  1.00  0.00     0.182 C 
BRANCH  17  18
ATOM     18  C   UNL A   1      33.325  22.593  23.113  1.00  0.00     0.200 C 
ATOM     19  C   UNL A   1      32.655  21.338  23.675  1.00  0.00     0.077 C 
BRANCH  18  20
ATOM     20  N   UNL A   1      34.470  22.710  24.012  1.00  0.00    -0.331 N 
ATOM     21  C   UNL A   1      35.747  23.043  23.403  1.00  0.00     0.262 C 
ATOM     22  C   UNL A   1      34.282  22.986  25.418  1.00  0.00     0.262 C 
ATOM     23  H   UNL A   1      34.574  21.711  24.192  1.00  0.00     0.348 HD
ATOM     24  C   UNL A   1      36.904  22.472  24.220  1.00  0.00     0.062 C 
ATOM     25  C   UNL A   1      35.447  22.445  26.247  1.00  0.00     0.062 C 
ATOM     26  C   UNL A   1      36.794  22.885  25.683  1.00  0.00     0.012 C 
ENDBRANCH  18  20
ENDBRANCH  17  18
ENDBRANCH  15  17
ENDBRANCH   6  11
ENDBRANCH   3   6
ENDBRANCH   1   2
BRANCH   1  27
ATOM     27  C   UNL A   1      31.842  30.427  26.618  1.00  0.00     0.042 C 
BRANCH  27  28
ATOM     28  C   UNL A   1      32.905  31.479  26.912  1.00  0.00     0.118 C 
BRANCH  28  29
ATOM     29  N   UNL A   1      32.410  32.749  27.411  1.00  0.00    -0.352 N 
ATOM     30  C   UNL A   1      33.065  33.696  28.163  1.00  0.00     0.251 C 
ATOM     31  H   UNL A   1      31.477  32.962  27.180  1.00  0.00     0.163 HD
ATOM     32  O   UNL A   1      32.514  34.756  28.443  1.00  0.00    -0.269 OA
BRANCH  30  33
ATOM     33  C   UNL A   1      34.413  33.414  28.701  1.00  0.00     0.039 A 
ATOM     34  C   UNL A   1      34.503  32.710  29.906  1.00  0.00     0.014 A 
ATOM     35  C   UNL A   1      35.573  33.815  28.032  1.00  0.00     0.014 A 
ATOM     36  C   UNL A   1      35.753  32.330  30.400  1.00  0.00     0.010 A 
ATOM     37  C   UNL A   1      36.821  33.406  28.511  1.00  0.00     0.010 A 
ATOM     38  C   UNL A   1      36.921  32.638  29.685  1.00  0.00    -0.014 A 
BRANCH  38  39
ATOM     39  C   UNL A   1      38.242  32.109  30.116  1.00  0.00     0.031 A 
ATOM     40  C   UNL A   1      38.754  30.799  29.589  1.00  0.00     0.074 A 
ATOM     41  C   UNL A   1      38.956  32.781  31.040  1.00  0.00     0.049 A 
ATOM     42  N   UNL A   1      39.830  30.135  29.933  1.00  0.00    -0.248 NA
ATOM     43  C   UNL A   1      37.944  30.141  28.554  1.00  0.00     0.031 C 
ATOM     44  C   UNL A   1      38.572  34.060  31.641  1.00  0.00     0.029 A 
ATOM     45  N   UNL A   1      40.148  32.473  31.650  1.00  0.00    -0.354 N 
ATOM     46  C   UNL A   1      39.818  28.975  29.171  1.00  0.00     0.074 A 
ATOM     47  C   UNL A   1      38.613  29.012  28.367  1.00  0.00     0.031 C 
ATOM     48  C   UNL A   1      39.511  34.429  32.526  1.00  0.00     0.029 A 
ATOM     49  C   UNL A   1      40.540  33.396  32.590  1.00  0.00     0.049 A 
ATOM     50  H   UNL A   1      40.671  31.668  31.434  1.00  0.00     0.167 HD
ATOM     51  C   UNL A   1      40.729  27.971  29.139  1.00  0.00     0.031 A 
ATOM     52  C   UNL A   1      41.596  33.404  33.425  1.00  0.00     0.031 A 
ATOM     53  C   UNL A   1      41.927  27.930  29.936  1.00  0.00     0.049 A 
ATOM     54  C   UNL A   1      42.573  32.262  33.396  1.00  0.00     0.074 A 
ATOM     55  C   UNL A   1      42.925  26.969  29.942  1.00  0.00     0.029 A 
ATOM     56  N   UNL A   1      42.289  28.888  30.869  1.00  0.00    -0.354 N 
ATOM     57  N   UNL A   1      42.568  31.191  32.640  1.00  0.00    -0.248 NA
ATOM     58  C   UNL A   1      43.706  32.333  34.331  1.00  0.00     0.031 C 
ATOM     59  C   UNL A   1      43.869  27.325  30.912  1.00  0.00     0.029 A 
ATOM     60  C   UNL A   1      43.486  28.534  31.470  1.00  0.00     0.049 A 
ATOM     61  H   UNL A   1      41.772  29.701  31.074  1.00  0.00     0.167 HD
ATOM     62  C   UNL A   1      43.711  30.482  32.981  1.00  0.00     0.074 A 
ATOM     63  C   UNL A   1      44.389  31.242  34.010  1.00  0.00     0.031 C 
ATOM     64  C   UNL A   1      44.160  29.305  32.481  1.00  0.00     0.031 A 
BRANCH  51  65
ATOM     65  C   UNL A   1      40.451  26.814  28.220  1.00  0.00    -0.014 A 
ATOM     66  C   UNL A   1      39.668  25.725  28.638  1.00  0.00     0.009 A 
ATOM     67  C   UNL A   1      40.943  26.832  26.906  1.00  0.00     0.009 A 
ATOM     68  C   UNL A   1      39.416  24.662  27.769  1.00  0.00     0.001 A 
ATOM     69  C   UNL A   1      40.667  25.780  26.031  1.00  0.00     0.001 A 
ATOM     70  C   UNL A   1      39.912  24.692  26.465  1.00  0.00     0.000 A 
ENDBRANCH  51  65
BRANCH  52  71
ATOM     71  C   UNL A   1      41.789  34.536  34.369  1.00  0.00    -0.014 A 
ATOM     72  C   UNL A   1      42.525  35.665  33.983  1.00  0.00     0.009 A 
ATOM     73  C   UNL A   1      41.248  34.488  35.663  1.00  0.00     0.009 A 
ATOM     74  C   UNL A   1      42.735  36.715  34.881  1.00  0.00     0.001 A 
ATOM     75  C   UNL A   1      41.435  35.551  36.550  1.00  0.00     0.001 A 
ATOM     76  C   UNL A   1      42.186  36.659  36.161  1.00  0.00     0.000 A 
ENDBRANCH  52  71
BRANCH  64  77
ATOM     77  C   UNL A   1      45.474  28.790  32.993  1.00  0.00    -0.014 A 
ATOM     78  C   UNL A   1      46.691  29.174  32.407  1.00  0.00     0.009 A 
ATOM     79  C   UNL A   1      45.495  27.952  34.120  1.00  0.00     0.009 A 
ATOM     80  C   UNL A   1      47.901  28.709  32.928  1.00  0.00     0.001 A 
ATOM     81  C   UNL A   1      46.707  27.510  34.653  1.00  0.00     0.001 A 
ATOM     82  C   UNL A   1      47.908  27.884  34.053  1.00  0.00     0.000 A 
ENDBRANCH  64  77
ENDBRANCH  38  39
ENDBRANCH  30  33
ENDBRANCH  28  29
ENDBRANCH  27  28
ENDBRANCH   1  27
TORSDOF 16
ENDMDL
