MODEL 1
REMARK VINA RESULT:     -10.8      0.000      0.000
REMARK SMILES CC(C)n1ncnc1C[C@@H](C(=O)NCCCNC(=O)c1ccc(-c2c3nc(c(-c4ccccc4)c4ccc([nH]4)c(-c4ccccc4)c4nc(c(-c5ccccc5)c5ccc2[nH]5)C=C4)C=C3)cc1)c1cccc(Br)c1
REMARK SMILES IDX 14 1 13 2 11 3 12 4 10 6 9 7 8 8 4 9 5 10 6 11 7 12 2 13
REMARK SMILES IDX 1 14 3 15 68 16 69 17 74 18 70 19 72 20 71 21 73 22 15 23
REMARK SMILES IDX 16 24 17 25 18 26 19 28 20 29 21 30 67 31 22 32 66 33 23 34
REMARK SMILES IDX 24 35 25 36 60 37 26 38 65 39 59 40 61 41 27 42 64 43 58 44
REMARK SMILES IDX 57 45 28 47 50 48 35 49 49 50 36 51 39 52 48 53 62 54 37 55
REMARK SMILES IDX 38 56 47 58 63 59 40 60 29 61 30 62 34 63 31 64 33 65 32 66
REMARK SMILES IDX 51 67 52 68 56 69 53 70 55 71 54 72 41 73 42 74 46 75 43 76
REMARK SMILES IDX 45 77 44 78
REMARK H PARENT 13 5 17 27 61 46 39 57
REMARK Flexibility Score: inf
ROOT
ATOM      1  C   UNL A   1      38.180  34.242  32.534  1.00  0.00     0.117 C 
ENDROOT
BRANCH   1   2
ATOM      2  N   UNL A   1      37.063  33.380  32.914  1.00  0.00    -0.355 N 
ATOM      3  C   UNL A   1      35.936  33.026  32.225  1.00  0.00     0.228 C 
ATOM      4  O   UNL A   1      34.981  32.627  32.898  1.00  0.00    -0.274 OA
ATOM      5  H   UNL A   1      37.132  32.991  33.816  1.00  0.00     0.163 HD
BRANCH   3   6
ATOM      6  C   UNL A   1      35.911  33.023  30.682  1.00  0.00     0.116 C 
BRANCH   6   7
ATOM      7  C   UNL A   1      34.442  33.133  30.190  1.00  0.00     0.095 C 
BRANCH   7   8
ATOM      8  C   UNL A   1      33.983  34.501  29.803  1.00  0.00     0.128 A 
ATOM      9  N   UNL A   1      33.363  35.431  30.613  1.00  0.00    -0.248 N 
ATOM     10  N   UNL A   1      33.053  36.538  29.903  1.00  0.00    -0.159 NA
ATOM     11  C   UNL A   1      33.649  36.298  28.739  1.00  0.00     0.246 A 
ATOM     12  N   UNL A   1      34.199  35.058  28.625  1.00  0.00    -0.220 NA
BRANCH   9  13
ATOM     13  C   UNL A   1      33.166  35.439  32.059  1.00  0.00     0.103 C 
ATOM     14  C   UNL A   1      34.239  36.286  32.759  1.00  0.00     0.033 C 
ATOM     15  C   UNL A   1      31.771  35.921  32.457  1.00  0.00     0.033 C 
ENDBRANCH   9  13
ENDBRANCH   7   8
ENDBRANCH   6   7
BRANCH   6  16
ATOM     16  C   UNL A   1      36.560  31.736  30.096  1.00  0.00    -0.034 A 
ATOM     17  C   UNL A   1      36.595  31.529  28.702  1.00  0.00     0.004 A 
ATOM     18  C   UNL A   1      37.106  30.720  30.905  1.00  0.00     0.020 A 
ATOM     19  C   UNL A   1      37.036  30.320  28.151  1.00  0.00     0.001 A 
ATOM     20  C   UNL A   1      37.556  29.515  30.349  1.00  0.00     0.018 A 
ATOM     21  C   UNL A   1      37.502  29.302  28.977  1.00  0.00     0.016 A 
ATOM     22  Br  UNL A   1      38.218  28.147  31.477  1.00  0.00    -0.051 Br
ENDBRANCH   6  16
ENDBRANCH   3   6
ENDBRANCH   1   2
BRANCH   1  23
ATOM     23  C   UNL A   1      39.320  34.153  33.548  1.00  0.00     0.042 C 
BRANCH  23  24
ATOM     24  C   UNL A   1      40.643  33.745  32.934  1.00  0.00     0.118 C 
BRANCH  24  25
ATOM     25  N   UNL A   1      41.132  34.559  31.833  1.00  0.00    -0.352 N 
ATOM     26  C   UNL A   1      41.680  34.177  30.607  1.00  0.00     0.251 C 
ATOM     27  H   UNL A   1      41.067  35.531  31.973  1.00  0.00     0.163 HD
ATOM     28  O   UNL A   1      42.116  35.028  29.862  1.00  0.00    -0.269 OA
BRANCH  26  29
ATOM     29  C   UNL A   1      41.752  32.737  30.208  1.00  0.00     0.039 A 
ATOM     30  C   UNL A   1      40.636  31.888  30.264  1.00  0.00     0.014 A 
ATOM     31  C   UNL A   1      42.946  32.197  29.768  1.00  0.00     0.014 A 
ATOM     32  C   UNL A   1      40.802  30.520  29.996  1.00  0.00     0.010 A 
ATOM     33  C   UNL A   1      43.000  30.991  29.151  1.00  0.00     0.010 A 
ATOM     34  C   UNL A   1      42.029  30.083  29.495  1.00  0.00    -0.014 A 
BRANCH  34  35
ATOM     35  C   UNL A   1      42.476  28.704  29.375  1.00  0.00     0.031 A 
ATOM     36  C   UNL A   1      43.034  28.119  30.608  1.00  0.00     0.074 A 
ATOM     37  C   UNL A   1      41.978  27.880  28.420  1.00  0.00     0.049 A 
ATOM     38  N   UNL A   1      44.262  27.803  30.843  1.00  0.00    -0.248 NA
ATOM     39  C   UNL A   1      42.141  27.991  31.772  1.00  0.00     0.031 C 
ATOM     40  C   UNL A   1      40.967  28.176  27.392  1.00  0.00     0.029 A 
ATOM     41  N   UNL A   1      42.162  26.538  28.275  1.00  0.00    -0.354 N 
ATOM     42  C   UNL A   1      44.258  27.264  32.123  1.00  0.00     0.074 A 
ATOM     43  C   UNL A   1      43.011  27.656  32.723  1.00  0.00     0.031 C 
ATOM     44  C   UNL A   1      40.491  27.019  26.877  1.00  0.00     0.029 A 
ATOM     45  C   UNL A   1      41.247  25.911  27.437  1.00  0.00     0.049 A 
ATOM     46  H   UNL A   1      42.886  26.049  28.728  1.00  0.00     0.167 HD
ATOM     47  C   UNL A   1      45.126  26.284  32.497  1.00  0.00     0.031 A 
ATOM     48  C   UNL A   1      41.095  24.574  27.257  1.00  0.00     0.031 A 
ATOM     49  C   UNL A   1      46.146  26.066  31.500  1.00  0.00     0.049 A 
ATOM     50  C   UNL A   1      42.309  23.910  27.792  1.00  0.00     0.074 A 
ATOM     51  C   UNL A   1      47.088  26.859  30.875  1.00  0.00     0.029 A 
ATOM     52  N   UNL A   1      46.007  24.950  30.706  1.00  0.00    -0.354 N 
ATOM     53  N   UNL A   1      43.490  24.020  27.259  1.00  0.00    -0.248 NA
ATOM     54  C   UNL A   1      42.291  23.446  29.171  1.00  0.00     0.031 C 
ATOM     55  C   UNL A   1      47.110  26.410  29.521  1.00  0.00     0.029 A 
ATOM     56  C   UNL A   1      46.225  25.334  29.409  1.00  0.00     0.049 A 
ATOM     57  H   UNL A   1      45.790  24.040  31.015  1.00  0.00     0.167 HD
ATOM     58  C   UNL A   1      44.363  24.071  28.337  1.00  0.00     0.074 A 
ATOM     59  C   UNL A   1      43.586  23.582  29.472  1.00  0.00     0.031 C 
ATOM     60  C   UNL A   1      45.528  24.782  28.265  1.00  0.00     0.031 A 
BRANCH  47  61
ATOM     61  C   UNL A   1      44.823  25.254  33.558  1.00  0.00    -0.014 A 
ATOM     62  C   UNL A   1      44.238  24.041  33.162  1.00  0.00     0.009 A 
ATOM     63  C   UNL A   1      44.866  25.509  34.944  1.00  0.00     0.009 A 
ATOM     64  C   UNL A   1      43.681  23.160  34.097  1.00  0.00     0.001 A 
ATOM     65  C   UNL A   1      44.360  24.609  35.883  1.00  0.00     0.001 A 
ATOM     66  C   UNL A   1      43.742  23.445  35.457  1.00  0.00     0.000 A 
ENDBRANCH  47  61
BRANCH  48  67
ATOM     67  C   UNL A   1      39.898  23.802  26.851  1.00  0.00    -0.014 A 
ATOM     68  C   UNL A   1      38.695  24.450  26.529  1.00  0.00     0.009 A 
ATOM     69  C   UNL A   1      40.004  22.434  26.538  1.00  0.00     0.009 A 
ATOM     70  C   UNL A   1      37.652  23.766  25.886  1.00  0.00     0.001 A 
ATOM     71  C   UNL A   1      38.963  21.749  25.901  1.00  0.00     0.001 A 
ATOM     72  C   UNL A   1      37.792  22.419  25.562  1.00  0.00     0.000 A 
ENDBRANCH  48  67
BRANCH  60  73
ATOM     73  C   UNL A   1      45.966  25.281  26.908  1.00  0.00    -0.014 A 
ATOM     74  C   UNL A   1      45.489  26.478  26.342  1.00  0.00     0.009 A 
ATOM     75  C   UNL A   1      47.006  24.608  26.250  1.00  0.00     0.009 A 
ATOM     76  C   UNL A   1      46.013  26.967  25.142  1.00  0.00     0.001 A 
ATOM     77  C   UNL A   1      47.545  25.107  25.062  1.00  0.00     0.001 A 
ATOM     78  C   UNL A   1      47.045  26.284  24.505  1.00  0.00     0.000 A 
ENDBRANCH  60  73
ENDBRANCH  34  35
ENDBRANCH  26  29
ENDBRANCH  24  25
ENDBRANCH  23  24
ENDBRANCH   1  23
TORSDOF 14
ENDMDL
MODEL 2
REMARK VINA RESULT:     -10.7      2.798      5.530
REMARK SMILES CC(C)n1ncnc1C[C@@H](C(=O)NCCCNC(=O)c1ccc(-c2c3nc(c(-c4ccccc4)c4ccc([nH]4)c(-c4ccccc4)c4nc(c(-c5ccccc5)c5ccc2[nH]5)C=C4)C=C3)cc1)c1cccc(Br)c1
REMARK SMILES IDX 14 1 13 2 11 3 12 4 10 6 9 7 8 8 4 9 5 10 6 11 7 12 2 13
REMARK SMILES IDX 1 14 3 15 68 16 69 17 74 18 70 19 72 20 71 21 73 22 15 23
REMARK SMILES IDX 16 24 17 25 18 26 19 28 20 29 21 30 67 31 22 32 66 33 23 34
REMARK SMILES IDX 24 35 25 36 60 37 26 38 65 39 59 40 61 41 27 42 64 43 58 44
REMARK SMILES IDX 57 45 28 47 50 48 35 49 49 50 36 51 39 52 48 53 62 54 37 55
REMARK SMILES IDX 38 56 47 58 63 59 40 60 29 61 30 62 34 63 31 64 33 65 32 66
REMARK SMILES IDX 51 67 52 68 56 69 53 70 55 71 54 72 41 73 42 74 46 75 43 76
REMARK SMILES IDX 45 77 44 78
REMARK H PARENT 13 5 17 27 61 46 39 57
REMARK Flexibility Score: inf
ROOT
ATOM      1  C   UNL A   1      35.947  33.380  33.997  1.00  0.00     0.117 C 
ENDROOT
BRANCH   1   2
ATOM      2  N   UNL A   1      36.976  34.416  34.052  1.00  0.00    -0.355 N 
ATOM      3  C   UNL A   1      38.309  34.364  33.753  1.00  0.00     0.228 C 
ATOM      4  O   UNL A   1      39.021  35.240  34.254  1.00  0.00    -0.274 OA
ATOM      5  H   UNL A   1      36.657  35.297  34.355  1.00  0.00     0.163 HD
BRANCH   3   6
ATOM      6  C   UNL A   1      38.864  33.329  32.751  1.00  0.00     0.116 C 
BRANCH   6   7
ATOM      7  C   UNL A   1      39.840  32.372  33.487  1.00  0.00     0.095 C 
BRANCH   7   8
ATOM      8  C   UNL A   1      39.323  31.751  34.743  1.00  0.00     0.128 A 
ATOM      9  N   UNL A   1      39.722  32.031  36.035  1.00  0.00    -0.248 N 
ATOM     10  N   UNL A   1      39.065  31.239  36.911  1.00  0.00    -0.159 NA
ATOM     11  C   UNL A   1      38.177  30.634  36.127  1.00  0.00     0.246 A 
ATOM     12  N   UNL A   1      38.321  30.893  34.798  1.00  0.00    -0.220 NA
BRANCH   9  13
ATOM     13  C   UNL A   1      40.570  33.102  36.548  1.00  0.00     0.103 C 
ATOM     14  C   UNL A   1      40.319  33.336  38.045  1.00  0.00     0.033 C 
ATOM     15  C   UNL A   1      42.055  32.844  36.297  1.00  0.00     0.033 C 
ENDBRANCH   9  13
ENDBRANCH   7   8
ENDBRANCH   6   7
BRANCH   6  16
ATOM     16  C   UNL A   1      39.603  34.013  31.564  1.00  0.00    -0.034 A 
ATOM     17  C   UNL A   1      38.868  34.615  30.522  1.00  0.00     0.004 A 
ATOM     18  C   UNL A   1      41.007  34.039  31.452  1.00  0.00     0.020 A 
ATOM     19  C   UNL A   1      39.496  35.106  29.372  1.00  0.00     0.001 A 
ATOM     20  C   UNL A   1      41.632  34.540  30.303  1.00  0.00     0.018 A 
ATOM     21  C   UNL A   1      40.881  35.053  29.252  1.00  0.00     0.016 A 
ATOM     22  Br  UNL A   1      43.519  34.493  30.161  1.00  0.00    -0.051 Br
ENDBRANCH   6  16
ENDBRANCH   3   6
ENDBRANCH   1   2
BRANCH   1  23
ATOM     23  C   UNL A   1      35.050  33.553  32.772  1.00  0.00     0.042 C 
BRANCH  23  24
ATOM     24  C   UNL A   1      34.943  32.305  31.921  1.00  0.00     0.118 C 
BRANCH  24  25
ATOM     25  N   UNL A   1      34.315  32.454  30.618  1.00  0.00    -0.352 N 
ATOM     26  C   UNL A   1      34.771  32.079  29.353  1.00  0.00     0.251 C 
ATOM     27  H   UNL A   1      33.430  32.886  30.630  1.00  0.00     0.163 HD
ATOM     28  O   UNL A   1      34.122  32.385  28.375  1.00  0.00    -0.269 OA
BRANCH  26  29
ATOM     29  C   UNL A   1      36.050  31.324  29.184  1.00  0.00     0.039 A 
ATOM     30  C   UNL A   1      36.080  29.987  28.757  1.00  0.00     0.014 A 
ATOM     31  C   UNL A   1      37.260  31.936  29.452  1.00  0.00     0.014 A 
ATOM     32  C   UNL A   1      37.304  29.300  28.741  1.00  0.00     0.010 A 
ATOM     33  C   UNL A   1      38.439  31.392  29.064  1.00  0.00     0.010 A 
ATOM     34  C   UNL A   1      38.477  30.023  28.965  1.00  0.00    -0.014 A 
BRANCH  34  35
ATOM     35  C   UNL A   1      39.800  29.474  29.217  1.00  0.00     0.031 A 
ATOM     36  C   UNL A   1      40.066  29.106  30.620  1.00  0.00     0.074 A 
ATOM     37  C   UNL A   1      40.520  28.881  28.231  1.00  0.00     0.049 A 
ATOM     38  N   UNL A   1      40.872  29.684  31.445  1.00  0.00    -0.248 NA
ATOM     39  C   UNL A   1      39.238  28.047  31.221  1.00  0.00     0.031 C 
ATOM     40  C   UNL A   1      40.149  28.683  26.820  1.00  0.00     0.029 A 
ATOM     41  N   UNL A   1      41.684  28.180  28.333  1.00  0.00    -0.354 N 
ATOM     42  C   UNL A   1      40.784  28.941  32.615  1.00  0.00     0.074 A 
ATOM     43  C   UNL A   1      39.591  28.146  32.501  1.00  0.00     0.031 C 
ATOM     44  C   UNL A   1      40.963  27.756  26.265  1.00  0.00     0.029 A 
ATOM     45  C   UNL A   1      41.987  27.391  27.230  1.00  0.00     0.049 A 
ATOM     46  H   UNL A   1      42.265  28.229  29.125  1.00  0.00     0.167 HD
ATOM     47  C   UNL A   1      41.843  28.795  33.458  1.00  0.00     0.031 A 
ATOM     48  C   UNL A   1      42.980  26.470  27.139  1.00  0.00     0.031 A 
ATOM     49  C   UNL A   1      42.935  29.666  33.100  1.00  0.00     0.049 A 
ATOM     50  C   UNL A   1      43.924  26.720  28.255  1.00  0.00     0.074 A 
ATOM     51  C   UNL A   1      43.083  31.027  32.923  1.00  0.00     0.029 A 
ATOM     52  N   UNL A   1      44.006  29.085  32.457  1.00  0.00    -0.354 N 
ATOM     53  N   UNL A   1      44.679  27.776  28.344  1.00  0.00    -0.248 NA
ATOM     54  C   UNL A   1      43.736  25.987  29.497  1.00  0.00     0.031 C 
ATOM     55  C   UNL A   1      43.952  31.162  31.799  1.00  0.00     0.029 A 
ATOM     56  C   UNL A   1      44.330  29.881  31.390  1.00  0.00     0.049 A 
ATOM     57  H   UNL A   1      44.456  28.248  32.717  1.00  0.00     0.167 HD
ATOM     58  C   UNL A   1      44.694  28.089  29.696  1.00  0.00     0.074 A 
ATOM     59  C   UNL A   1      44.211  26.885  30.366  1.00  0.00     0.031 C 
ATOM     60  C   UNL A   1      44.811  29.384  30.117  1.00  0.00     0.031 A 
BRANCH  47  61
ATOM     61  C   UNL A   1      42.048  27.591  34.346  1.00  0.00    -0.014 A 
ATOM     62  C   UNL A   1      41.702  27.696  35.703  1.00  0.00     0.009 A 
ATOM     63  C   UNL A   1      42.778  26.445  33.970  1.00  0.00     0.009 A 
ATOM     64  C   UNL A   1      42.111  26.736  36.637  1.00  0.00     0.001 A 
ATOM     65  C   UNL A   1      43.142  25.458  34.888  1.00  0.00     0.001 A 
ATOM     66  C   UNL A   1      42.831  25.618  36.228  1.00  0.00     0.000 A 
ENDBRANCH  47  61
BRANCH  48  67
ATOM     67  C   UNL A   1      43.076  25.258  26.293  1.00  0.00    -0.014 A 
ATOM     68  C   UNL A   1      44.099  25.121  25.341  1.00  0.00     0.009 A 
ATOM     69  C   UNL A   1      42.308  24.118  26.591  1.00  0.00     0.009 A 
ATOM     70  C   UNL A   1      44.365  23.883  24.736  1.00  0.00     0.001 A 
ATOM     71  C   UNL A   1      42.569  22.883  25.985  1.00  0.00     0.001 A 
ATOM     72  C   UNL A   1      43.608  22.763  25.069  1.00  0.00     0.000 A 
ENDBRANCH  48  67
BRANCH  60  73
ATOM     73  C   UNL A   1      45.190  30.427  29.091  1.00  0.00    -0.014 A 
ATOM     74  C   UNL A   1      44.245  31.084  28.282  1.00  0.00     0.009 A 
ATOM     75  C   UNL A   1      46.520  30.871  29.047  1.00  0.00     0.009 A 
ATOM     76  C   UNL A   1      44.624  32.130  27.436  1.00  0.00     0.001 A 
ATOM     77  C   UNL A   1      46.895  31.931  28.218  1.00  0.00     0.001 A 
ATOM     78  C   UNL A   1      45.949  32.557  27.408  1.00  0.00     0.000 A 
ENDBRANCH  60  73
ENDBRANCH  34  35
ENDBRANCH  26  29
ENDBRANCH  24  25
ENDBRANCH  23  24
ENDBRANCH   1  23
TORSDOF 14
ENDMDL
MODEL 3
REMARK VINA RESULT:     -10.7      5.158      8.838
REMARK SMILES CC(C)n1ncnc1C[C@@H](C(=O)NCCCNC(=O)c1ccc(-c2c3nc(c(-c4ccccc4)c4ccc([nH]4)c(-c4ccccc4)c4nc(c(-c5ccccc5)c5ccc2[nH]5)C=C4)C=C3)cc1)c1cccc(Br)c1
REMARK SMILES IDX 14 1 13 2 11 3 12 4 10 6 9 7 8 8 4 9 5 10 6 11 7 12 2 13
REMARK SMILES IDX 1 14 3 15 68 16 69 17 74 18 70 19 72 20 71 21 73 22 15 23
REMARK SMILES IDX 16 24 17 25 18 26 19 28 20 29 21 30 67 31 22 32 66 33 23 34
REMARK SMILES IDX 24 35 25 36 60 37 26 38 65 39 59 40 61 41 27 42 64 43 58 44
REMARK SMILES IDX 57 45 28 47 50 48 35 49 49 50 36 51 39 52 48 53 62 54 37 55
REMARK SMILES IDX 38 56 47 58 63 59 40 60 29 61 30 62 34 63 31 64 33 65 32 66
REMARK SMILES IDX 51 67 52 68 56 69 53 70 55 71 54 72 41 73 42 74 46 75 43 76
REMARK SMILES IDX 45 77 44 78
REMARK H PARENT 13 5 17 27 61 46 39 57
REMARK Flexibility Score: inf
ROOT
ATOM      1  C   UNL A   1      32.599  29.383  26.276  1.00  0.00     0.117 C 
ENDROOT
BRANCH   1   2
ATOM      2  N   UNL A   1      32.949  29.583  24.871  1.00  0.00    -0.355 N 
ATOM      3  C   UNL A   1      32.731  28.792  23.778  1.00  0.00     0.228 C 
ATOM      4  O   UNL A   1      33.458  28.990  22.800  1.00  0.00    -0.274 OA
ATOM      5  H   UNL A   1      33.420  30.427  24.681  1.00  0.00     0.163 HD
BRANCH   3   6
ATOM      6  C   UNL A   1      31.560  27.787  23.738  1.00  0.00     0.116 C 
BRANCH   6   7
ATOM      7  C   UNL A   1      31.812  26.747  22.613  1.00  0.00     0.095 C 
BRANCH   7   8
ATOM      8  C   UNL A   1      31.744  25.312  23.022  1.00  0.00     0.128 A 
ATOM      9  N   UNL A   1      32.799  24.501  23.391  1.00  0.00    -0.248 N 
ATOM     10  N   UNL A   1      32.360  23.249  23.650  1.00  0.00    -0.159 NA
ATOM     11  C   UNL A   1      31.040  23.400  23.592  1.00  0.00     0.246 A 
ATOM     12  N   UNL A   1      30.624  24.631  23.182  1.00  0.00    -0.220 NA
BRANCH   9  13
ATOM     13  C   UNL A   1      34.191  24.836  23.675  1.00  0.00     0.103 C 
ATOM     14  C   UNL A   1      34.340  25.427  25.085  1.00  0.00     0.033 C 
ATOM     15  C   UNL A   1      35.127  23.641  23.503  1.00  0.00     0.033 C 
ENDBRANCH   9  13
ENDBRANCH   7   8
ENDBRANCH   6   7
BRANCH   6  16
ATOM     16  C   UNL A   1      30.196  28.496  23.496  1.00  0.00    -0.034 A 
ATOM     17  C   UNL A   1      28.999  27.751  23.490  1.00  0.00     0.004 A 
ATOM     18  C   UNL A   1      30.089  29.878  23.245  1.00  0.00     0.020 A 
ATOM     19  C   UNL A   1      27.778  28.331  23.130  1.00  0.00     0.001 A 
ATOM     20  C   UNL A   1      28.862  30.457  22.895  1.00  0.00     0.018 A 
ATOM     21  C   UNL A   1      27.710  29.684  22.814  1.00  0.00     0.016 A 
ATOM     22  Br  UNL A   1      28.772  32.305  22.496  1.00  0.00    -0.051 Br
ENDBRANCH   6  16
ENDBRANCH   3   6
ENDBRANCH   1   2
BRANCH   1  23
ATOM     23  C   UNL A   1      33.629  28.505  26.985  1.00  0.00     0.042 C 
BRANCH  23  24
ATOM     24  C   UNL A   1      35.001  29.139  27.078  1.00  0.00     0.118 C 
BRANCH  24  25
ATOM     25  N   UNL A   1      35.176  30.174  28.084  1.00  0.00    -0.352 N 
ATOM     26  C   UNL A   1      36.225  30.386  28.981  1.00  0.00     0.251 C 
ATOM     27  H   UNL A   1      34.442  30.826  28.142  1.00  0.00     0.163 HD
ATOM     28  O   UNL A   1      36.126  31.264  29.811  1.00  0.00    -0.269 OA
BRANCH  26  29
ATOM     29  C   UNL A   1      37.456  29.537  28.946  1.00  0.00     0.039 A 
ATOM     30  C   UNL A   1      37.708  28.544  29.906  1.00  0.00     0.014 A 
ATOM     31  C   UNL A   1      38.396  29.716  27.949  1.00  0.00     0.014 A 
ATOM     32  C   UNL A   1      38.940  27.871  29.889  1.00  0.00     0.010 A 
ATOM     33  C   UNL A   1      39.378  28.810  27.722  1.00  0.00     0.010 A 
ATOM     34  C   UNL A   1      39.794  28.074  28.804  1.00  0.00    -0.014 A 
BRANCH  34  35
ATOM     35  C   UNL A   1      41.186  27.663  28.707  1.00  0.00     0.031 A 
ATOM     36  C   UNL A   1      41.416  26.409  27.965  1.00  0.00     0.074 A 
ATOM     37  C   UNL A   1      42.198  28.560  28.818  1.00  0.00     0.049 A 
ATOM     38  N   UNL A   1      41.801  25.274  28.441  1.00  0.00    -0.248 NA
ATOM     39  C   UNL A   1      41.047  26.377  26.540  1.00  0.00     0.031 C 
ATOM     40  C   UNL A   1      42.113  30.013  29.040  1.00  0.00     0.029 A 
ATOM     41  N   UNL A   1      43.528  28.373  28.591  1.00  0.00    -0.354 N 
ATOM     42  C   UNL A   1      41.899  24.435  27.338  1.00  0.00     0.074 A 
ATOM     43  C   UNL A   1      41.173  25.078  26.276  1.00  0.00     0.031 C 
ATOM     44  C   UNL A   1      43.300  30.587  28.738  1.00  0.00     0.029 A 
ATOM     45  C   UNL A   1      44.262  29.542  28.428  1.00  0.00     0.049 A 
ATOM     46  H   UNL A   1      43.939  27.479  28.544  1.00  0.00     0.167 HD
ATOM     47  C   UNL A   1      42.814  23.430  27.274  1.00  0.00     0.031 A 
ATOM     48  C   UNL A   1      45.554  29.640  28.023  1.00  0.00     0.031 A 
ATOM     49  C   UNL A   1      43.473  23.226  28.541  1.00  0.00     0.049 A 
ATOM     50  C   UNL A   1      46.168  28.297  28.158  1.00  0.00     0.074 A 
ATOM     51  C   UNL A   1      43.053  22.953  29.828  1.00  0.00     0.029 A 
ATOM     52  N   UNL A   1      44.755  23.714  28.660  1.00  0.00    -0.354 N 
ATOM     53  N   UNL A   1      46.392  27.713  29.299  1.00  0.00    -0.248 NA
ATOM     54  C   UNL A   1      46.161  27.415  27.001  1.00  0.00     0.031 C 
ATOM     55  C   UNL A   1      43.909  23.727  30.668  1.00  0.00     0.029 A 
ATOM     56  C   UNL A   1      44.836  24.381  29.854  1.00  0.00     0.049 A 
ATOM     57  H   UNL A   1      45.482  23.603  28.003  1.00  0.00     0.167 HD
ATOM     58  C   UNL A   1      46.116  26.372  29.071  1.00  0.00     0.074 A 
ATOM     59  C   UNL A   1      46.110  26.231  27.618  1.00  0.00     0.031 C 
ATOM     60  C   UNL A   1      45.627  25.576  30.069  1.00  0.00     0.031 A 
BRANCH  47  61
ATOM     61  C   UNL A   1      43.402  22.911  25.984  1.00  0.00    -0.014 A 
ATOM     62  C   UNL A   1      43.409  21.524  25.765  1.00  0.00     0.009 A 
ATOM     63  C   UNL A   1      44.156  23.694  25.086  1.00  0.00     0.009 A 
ATOM     64  C   UNL A   1      44.171  20.952  24.739  1.00  0.00     0.001 A 
ATOM     65  C   UNL A   1      44.874  23.132  24.029  1.00  0.00     0.001 A 
ATOM     66  C   UNL A   1      44.903  21.756  23.872  1.00  0.00     0.000 A 
ENDBRANCH  47  61
BRANCH  48  67
ATOM     67  C   UNL A   1      46.249  30.749  27.330  1.00  0.00    -0.014 A 
ATOM     68  C   UNL A   1      45.531  31.839  26.810  1.00  0.00     0.009 A 
ATOM     69  C   UNL A   1      47.649  30.864  27.393  1.00  0.00     0.009 A 
ATOM     70  C   UNL A   1      46.187  33.010  26.403  1.00  0.00     0.001 A 
ATOM     71  C   UNL A   1      48.305  32.030  26.983  1.00  0.00     0.001 A 
ATOM     72  C   UNL A   1      47.572  33.110  26.502  1.00  0.00     0.000 A 
ENDBRANCH  48  67
BRANCH  60  73
ATOM     73  C   UNL A   1      45.649  26.119  31.479  1.00  0.00    -0.014 A 
ATOM     74  C   UNL A   1      46.728  25.918  32.359  1.00  0.00     0.009 A 
ATOM     75  C   UNL A   1      44.623  26.988  31.878  1.00  0.00     0.009 A 
ATOM     76  C   UNL A   1      46.763  26.541  33.610  1.00  0.00     0.001 A 
ATOM     77  C   UNL A   1      44.668  27.629  33.119  1.00  0.00     0.001 A 
ATOM     78  C   UNL A   1      45.735  27.402  33.987  1.00  0.00     0.000 A 
ENDBRANCH  60  73
ENDBRANCH  34  35
ENDBRANCH  26  29
ENDBRANCH  24  25
ENDBRANCH  23  24
ENDBRANCH   1  23
TORSDOF 14
ENDMDL
