MODEL 1
REMARK VINA RESULT:      -9.7      0.000      0.000
REMARK SMILES C=CCN(CC(=O)NCCCNC(=O)c1ccc(-c2c3nc(c(-c4ccccc4)c4ccc([nH]4)c(-c4ccccc4)c4nc(c(-c5ccccc5)c5ccc2[nH]5)C=C4)C=C3)cc1)C(=O)NC1CC[NH+](CCC)CC1
REMARK SMILES IDX 6 1 7 2 8 3 5 5 4 6 3 7 2 8 1 9 63 10 64 11 65 12 66 14
REMARK SMILES IDX 67 15 74 16 68 17 73 18 69 19 70 21 71 22 72 23 9 24 10 25
REMARK SMILES IDX 11 26 12 27 13 28 14 30 15 31 16 32 62 33 17 34 61 35 18 36
REMARK SMILES IDX 19 37 20 38 55 39 21 40 60 41 54 42 56 43 22 44 59 45 53 46
REMARK SMILES IDX 52 47 23 49 45 50 30 51 44 52 31 53 34 54 43 55 57 56 32 57
REMARK SMILES IDX 33 58 42 60 58 61 35 62 24 63 25 64 29 65 26 66 28 67 27 68
REMARK SMILES IDX 46 69 47 70 51 71 48 72 50 73 49 74 36 75 37 76 41 77 38 78
REMARK SMILES IDX 40 79 39 80
REMARK H PARENT 8 4 65 13 69 20 12 29 56 48 34 59
REMARK Flexibility Score: inf
ROOT
ATOM      1  C   UNL A   1      33.592  28.596  23.582  1.00  0.00     0.239 C 
ATOM      2  O   UNL A   1      34.284  28.866  22.591  1.00  0.00    -0.273 OA
ATOM      3  N   UNL A   1      33.297  29.650  24.393  1.00  0.00    -0.354 N 
ATOM      4  H   UNL A   1      33.960  30.377  24.353  1.00  0.00     0.163 HD
ENDROOT
BRANCH   1   5
ATOM      5  C   UNL A   1      33.129  27.136  23.783  1.00  0.00     0.221 C 
BRANCH   5   6
ATOM      6  N   UNL A   1      32.463  26.379  22.726  1.00  0.00    -0.312 N 
BRANCH   6   7
ATOM      7  C   UNL A   1      31.219  26.975  22.239  1.00  0.00     0.149 C 
BRANCH   7   8
ATOM      8  C   UNL A   1      30.184  27.056  23.322  1.00  0.00    -0.013 C 
ATOM      9  C   UNL A   1      29.637  25.970  23.887  1.00  0.00     0.006 C 
ENDBRANCH   7   8
ENDBRANCH   6   7
BRANCH   6  10
ATOM     10  C   UNL A   1      32.889  25.251  22.081  1.00  0.00     0.318 C 
ATOM     11  O   UNL A   1      33.367  25.307  20.941  1.00  0.00    -0.249 OA
ATOM     12  N   UNL A   1      32.834  24.002  22.571  1.00  0.00    -0.335 N 
ATOM     13  H   UNL A   1      33.316  23.385  21.974  1.00  0.00     0.165 HD
BRANCH  12  14
ATOM     14  C   UNL A   1      32.281  23.266  23.718  1.00  0.00     0.095 C 
ATOM     15  C   UNL A   1      32.447  24.067  25.030  1.00  0.00     0.086 C 
ATOM     16  C   UNL A   1      32.962  21.921  23.919  1.00  0.00     0.086 C 
ATOM     17  C   UNL A   1      33.901  24.100  25.545  1.00  0.00     0.264 C 
ATOM     18  C   UNL A   1      34.414  22.069  24.326  1.00  0.00     0.264 C 
ATOM     19  N   UNL A   1      34.502  22.769  25.598  1.00  0.00    -0.335 N 
ATOM     20  H   UNL A   1      33.924  22.269  26.274  1.00  0.00     0.348 HD
BRANCH  19  21
ATOM     21  C   UNL A   1      35.853  22.706  26.168  1.00  0.00     0.261 C 
BRANCH  21  22
ATOM     22  C   UNL A   1      36.949  23.638  25.618  1.00  0.00     0.058 C 
ATOM     23  C   UNL A   1      38.333  23.405  26.196  1.00  0.00     0.010 C 
ENDBRANCH  21  22
ENDBRANCH  19  21
ENDBRANCH  12  14
ENDBRANCH   6  10
ENDBRANCH   5   6
ENDBRANCH   1   5
BRANCH   3  24
ATOM     24  C   UNL A   1      32.199  29.913  25.302  1.00  0.00     0.117 C 
BRANCH  24  25
ATOM     25  C   UNL A   1      32.451  29.623  26.780  1.00  0.00     0.042 C 
BRANCH  25  26
ATOM     26  C   UNL A   1      33.856  29.921  27.302  1.00  0.00     0.118 C 
BRANCH  26  27
ATOM     27  N   UNL A   1      33.916  31.015  28.261  1.00  0.00    -0.352 N 
ATOM     28  C   UNL A   1      34.858  31.407  29.173  1.00  0.00     0.251 C 
ATOM     29  H   UNL A   1      33.117  31.589  28.251  1.00  0.00     0.163 HD
ATOM     30  O   UNL A   1      34.560  32.305  29.969  1.00  0.00    -0.269 OA
BRANCH  28  31
ATOM     31  C   UNL A   1      36.202  30.793  29.266  1.00  0.00     0.039 A 
ATOM     32  C   UNL A   1      36.990  30.752  28.107  1.00  0.00     0.014 A 
ATOM     33  C   UNL A   1      36.670  30.178  30.429  1.00  0.00     0.014 A 
ATOM     34  C   UNL A   1      38.261  30.169  28.132  1.00  0.00     0.010 A 
ATOM     35  C   UNL A   1      37.964  29.648  30.471  1.00  0.00     0.010 A 
ATOM     36  C   UNL A   1      38.777  29.647  29.327  1.00  0.00    -0.014 A 
BRANCH  36  37
ATOM     37  C   UNL A   1      40.172  29.134  29.404  1.00  0.00     0.031 A 
ATOM     38  C   UNL A   1      41.302  30.027  29.840  1.00  0.00     0.074 A 
ATOM     39  C   UNL A   1      40.436  27.872  29.012  1.00  0.00     0.049 A 
ATOM     40  N   UNL A   1      42.588  29.774  29.875  1.00  0.00    -0.248 NA
ATOM     41  C   UNL A   1      40.944  31.384  30.276  1.00  0.00     0.031 C 
ATOM     42  C   UNL A   1      39.441  26.904  28.545  1.00  0.00     0.029 A 
ATOM     43  N   UNL A   1      41.626  27.190  28.927  1.00  0.00    -0.354 N 
ATOM     44  C   UNL A   1      43.193  30.944  30.316  1.00  0.00     0.074 A 
ATOM     45  C   UNL A   1      42.137  31.917  30.505  1.00  0.00     0.031 C 
ATOM     46  C   UNL A   1      40.057  25.752  28.239  1.00  0.00     0.029 A 
ATOM     47  C   UNL A   1      41.493  25.912  28.440  1.00  0.00     0.049 A 
ATOM     48  H   UNL A   1      42.490  27.580  29.190  1.00  0.00     0.167 HD
ATOM     49  C   UNL A   1      44.506  31.186  30.553  1.00  0.00     0.031 A 
ATOM     50  C   UNL A   1      42.422  24.975  28.166  1.00  0.00     0.031 A 
ATOM     51  C   UNL A   1      45.558  30.219  30.375  1.00  0.00     0.049 A 
ATOM     52  C   UNL A   1      43.874  25.279  28.406  1.00  0.00     0.074 A 
ATOM     53  C   UNL A   1      46.910  30.359  30.644  1.00  0.00     0.029 A 
ATOM     54  N   UNL A   1      45.380  28.938  29.878  1.00  0.00    -0.354 N 
ATOM     55  N   UNL A   1      44.421  26.373  28.877  1.00  0.00    -0.248 NA
ATOM     56  C   UNL A   1      44.834  24.216  28.080  1.00  0.00     0.031 C 
ATOM     57  C   UNL A   1      47.557  29.178  30.262  1.00  0.00     0.029 A 
ATOM     58  C   UNL A   1      46.601  28.286  29.806  1.00  0.00     0.049 A 
ATOM     59  H   UNL A   1      44.515  28.550  29.616  1.00  0.00     0.167 HD
ATOM     60  C   UNL A   1      45.786  26.121  28.927  1.00  0.00     0.074 A 
ATOM     61  C   UNL A   1      45.982  24.767  28.452  1.00  0.00     0.031 C 
ATOM     62  C   UNL A   1      46.786  26.941  29.331  1.00  0.00     0.031 A 
BRANCH  49  63
ATOM     63  C   UNL A   1      44.884  32.564  31.020  1.00  0.00    -0.014 A 
ATOM     64  C   UNL A   1      45.102  33.607  30.106  1.00  0.00     0.009 A 
ATOM     65  C   UNL A   1      44.977  32.836  32.394  1.00  0.00     0.009 A 
ATOM     66  C   UNL A   1      45.439  34.885  30.557  1.00  0.00     0.001 A 
ATOM     67  C   UNL A   1      45.289  34.119  32.844  1.00  0.00     0.001 A 
ATOM     68  C   UNL A   1      45.529  35.141  31.926  1.00  0.00     0.000 A 
ENDBRANCH  49  63
BRANCH  50  69
ATOM     69  C   UNL A   1      42.006  23.654  27.629  1.00  0.00    -0.014 A 
ATOM     70  C   UNL A   1      41.484  22.672  28.483  1.00  0.00     0.009 A 
ATOM     71  C   UNL A   1      42.133  23.367  26.261  1.00  0.00     0.009 A 
ATOM     72  C   UNL A   1      41.118  21.421  27.983  1.00  0.00     0.001 A 
ATOM     73  C   UNL A   1      41.740  22.126  25.758  1.00  0.00     0.001 A 
ATOM     74  C   UNL A   1      41.242  21.150  26.620  1.00  0.00     0.000 A 
ENDBRANCH  50  69
BRANCH  62  75
ATOM     75  C   UNL A   1      48.182  26.386  29.307  1.00  0.00    -0.014 A 
ATOM     76  C   UNL A   1      48.982  26.477  28.159  1.00  0.00     0.009 A 
ATOM     77  C   UNL A   1      48.718  25.801  30.466  1.00  0.00     0.009 A 
ATOM     78  C   UNL A   1      50.283  25.970  28.163  1.00  0.00     0.001 A 
ATOM     79  C   UNL A   1      50.028  25.319  30.475  1.00  0.00     0.001 A 
ATOM     80  C   UNL A   1      50.806  25.397  29.322  1.00  0.00     0.000 A 
ENDBRANCH  62  75
ENDBRANCH  36  37
ENDBRANCH  28  31
ENDBRANCH  26  27
ENDBRANCH  25  26
ENDBRANCH  24  25
ENDBRANCH   3  24
TORSDOF 17
ENDMDL
MODEL 2
REMARK VINA RESULT:      -9.5      2.655      8.133
REMARK SMILES C=CCN(CC(=O)NCCCNC(=O)c1ccc(-c2c3nc(c(-c4ccccc4)c4ccc([nH]4)c(-c4ccccc4)c4nc(c(-c5ccccc5)c5ccc2[nH]5)C=C4)C=C3)cc1)C(=O)NC1CC[NH+](CCC)CC1
REMARK SMILES IDX 6 1 7 2 8 3 5 5 4 6 3 7 2 8 1 9 63 10 64 11 65 12 66 14
REMARK SMILES IDX 67 15 74 16 68 17 73 18 69 19 70 21 71 22 72 23 9 24 10 25
REMARK SMILES IDX 11 26 12 27 13 28 14 30 15 31 16 32 62 33 17 34 61 35 18 36
REMARK SMILES IDX 19 37 20 38 55 39 21 40 60 41 54 42 56 43 22 44 59 45 53 46
REMARK SMILES IDX 52 47 23 49 45 50 30 51 44 52 31 53 34 54 43 55 57 56 32 57
REMARK SMILES IDX 33 58 42 60 58 61 35 62 24 63 25 64 29 65 26 66 28 67 27 68
REMARK SMILES IDX 46 69 47 70 51 71 48 72 50 73 49 74 36 75 37 76 41 77 38 78
REMARK SMILES IDX 40 79 39 80
REMARK H PARENT 8 4 65 13 69 20 12 29 56 48 34 59
REMARK Flexibility Score: inf
ROOT
ATOM      1  C   UNL A   1      33.344  23.690  22.803  1.00  0.00     0.239 C 
ATOM      2  O   UNL A   1      33.101  24.491  21.889  1.00  0.00    -0.273 OA
ATOM      3  N   UNL A   1      34.570  23.100  22.752  1.00  0.00    -0.354 N 
ATOM      4  H   UNL A   1      34.943  23.043  21.843  1.00  0.00     0.163 HD
ENDROOT
BRANCH   1   5
ATOM      5  C   UNL A   1      32.269  23.464  23.890  1.00  0.00     0.221 C 
BRANCH   5   6
ATOM      6  N   UNL A   1      32.148  24.333  25.058  1.00  0.00    -0.312 N 
BRANCH   6   7
ATOM      7  C   UNL A   1      33.234  24.203  26.030  1.00  0.00     0.149 C 
BRANCH   7   8
ATOM      8  C   UNL A   1      33.302  22.819  26.601  1.00  0.00    -0.013 C 
ATOM      9  C   UNL A   1      33.482  22.580  27.908  1.00  0.00     0.006 C 
ENDBRANCH   7   8
ENDBRANCH   6   7
BRANCH   6  10
ATOM     10  C   UNL A   1      31.215  25.299  25.314  1.00  0.00     0.318 C 
ATOM     11  O   UNL A   1      30.116  25.012  25.807  1.00  0.00    -0.249 OA
ATOM     12  N   UNL A   1      31.357  26.610  25.065  1.00  0.00    -0.335 N 
ATOM     13  H   UNL A   1      30.604  27.110  25.454  1.00  0.00     0.165 HD
BRANCH  12  14
ATOM     14  C   UNL A   1      32.285  27.534  24.394  1.00  0.00     0.095 C 
ATOM     15  C   UNL A   1      32.024  28.996  24.821  1.00  0.00     0.086 C 
ATOM     16  C   UNL A   1      32.157  27.475  22.880  1.00  0.00     0.086 C 
ATOM     17  C   UNL A   1      30.736  29.590  24.214  1.00  0.00     0.264 C 
ATOM     18  C   UNL A   1      30.816  27.988  22.397  1.00  0.00     0.264 C 
ATOM     19  N   UNL A   1      30.658  29.385  22.768  1.00  0.00    -0.335 N 
ATOM     20  H   UNL A   1      31.461  29.900  22.407  1.00  0.00     0.348 HD
BRANCH  19  21
ATOM     21  C   UNL A   1      29.507  30.005  22.101  1.00  0.00     0.261 C 
BRANCH  21  22
ATOM     22  C   UNL A   1      28.256  30.359  22.928  1.00  0.00     0.058 C 
ATOM     23  C   UNL A   1      27.279  29.214  23.126  1.00  0.00     0.010 C 
ENDBRANCH  21  22
ENDBRANCH  19  21
ENDBRANCH  12  14
ENDBRANCH   6  10
ENDBRANCH   5   6
ENDBRANCH   1   5
BRANCH   3  24
ATOM     24  C   UNL A   1      35.434  22.540  23.772  1.00  0.00     0.117 C 
BRANCH  24  25
ATOM     25  C   UNL A   1      36.528  23.455  24.319  1.00  0.00     0.042 C 
BRANCH  25  26
ATOM     26  C   UNL A   1      36.976  23.195  25.757  1.00  0.00     0.118 C 
BRANCH  26  27
ATOM     27  N   UNL A   1      38.252  22.503  25.867  1.00  0.00    -0.352 N 
ATOM     28  C   UNL A   1      39.495  22.897  26.283  1.00  0.00     0.251 C 
ATOM     29  H   UNL A   1      38.214  21.561  25.584  1.00  0.00     0.163 HD
ATOM     30  O   UNL A   1      40.439  22.114  26.121  1.00  0.00    -0.269 OA
BRANCH  28  31
ATOM     31  C   UNL A   1      39.765  24.218  26.894  1.00  0.00     0.039 A 
ATOM     32  C   UNL A   1      39.275  24.460  28.185  1.00  0.00     0.014 A 
ATOM     33  C   UNL A   1      40.402  25.251  26.203  1.00  0.00     0.014 A 
ATOM     34  C   UNL A   1      39.485  25.696  28.805  1.00  0.00     0.010 A 
ATOM     35  C   UNL A   1      40.666  26.466  26.844  1.00  0.00     0.010 A 
ATOM     36  C   UNL A   1      40.220  26.699  28.155  1.00  0.00    -0.014 A 
BRANCH  36  37
ATOM     37  C   UNL A   1      40.560  27.973  28.843  1.00  0.00     0.031 A 
ATOM     38  C   UNL A   1      41.886  28.151  29.531  1.00  0.00     0.074 A 
ATOM     39  C   UNL A   1      39.639  28.956  28.909  1.00  0.00     0.049 A 
ATOM     40  N   UNL A   1      42.311  29.156  30.258  1.00  0.00    -0.248 NA
ATOM     41  C   UNL A   1      42.853  27.052  29.403  1.00  0.00     0.031 C 
ATOM     42  C   UNL A   1      38.306  28.909  28.306  1.00  0.00     0.029 A 
ATOM     43  N   UNL A   1      39.680  30.181  29.529  1.00  0.00    -0.354 N 
ATOM     44  C   UNL A   1      43.584  28.803  30.689  1.00  0.00     0.074 A 
ATOM     45  C   UNL A   1      43.848  27.476  30.169  1.00  0.00     0.031 C 
ATOM     46  C   UNL A   1      37.662  30.057  28.572  1.00  0.00     0.029 A 
ATOM     47  C   UNL A   1      38.516  30.900  29.402  1.00  0.00     0.049 A 
ATOM     48  H   UNL A   1      40.468  30.512  30.017  1.00  0.00     0.167 HD
ATOM     49  C   UNL A   1      44.457  29.518  31.438  1.00  0.00     0.031 A 
ATOM     50  C   UNL A   1      38.162  32.096  29.910  1.00  0.00     0.031 A 
ATOM     51  C   UNL A   1      44.201  30.839  31.950  1.00  0.00     0.049 A 
ATOM     52  C   UNL A   1      39.136  32.855  30.767  1.00  0.00     0.074 A 
ATOM     53  C   UNL A   1      45.050  31.662  32.672  1.00  0.00     0.029 A 
ATOM     54  N   UNL A   1      43.010  31.529  31.800  1.00  0.00    -0.354 N 
ATOM     55  N   UNL A   1      40.357  32.528  31.116  1.00  0.00    -0.248 NA
ATOM     56  C   UNL A   1      38.684  34.150  31.294  1.00  0.00     0.031 C 
ATOM     57  C   UNL A   1      44.354  32.830  33.002  1.00  0.00     0.029 A 
ATOM     58  C   UNL A   1      43.090  32.756  32.440  1.00  0.00     0.049 A 
ATOM     59  H   UNL A   1      42.223  31.197  31.311  1.00  0.00     0.167 HD
ATOM     60  C   UNL A   1      40.826  33.586  31.883  1.00  0.00     0.074 A 
ATOM     61  C   UNL A   1      39.765  34.571  31.936  1.00  0.00     0.031 C 
ATOM     62  C   UNL A   1      42.030  33.727  32.489  1.00  0.00     0.031 A 
BRANCH  49  63
ATOM     63  C   UNL A   1      45.776  28.876  31.768  1.00  0.00    -0.014 A 
ATOM     64  C   UNL A   1      45.946  28.124  32.941  1.00  0.00     0.009 A 
ATOM     65  C   UNL A   1      46.849  28.983  30.870  1.00  0.00     0.009 A 
ATOM     66  C   UNL A   1      47.174  27.524  33.225  1.00  0.00     0.001 A 
ATOM     67  C   UNL A   1      48.068  28.360  31.143  1.00  0.00     0.001 A 
ATOM     68  C   UNL A   1      48.233  27.638  32.324  1.00  0.00     0.000 A 
ENDBRANCH  49  63
BRANCH  50  69
ATOM     69  C   UNL A   1      36.816  32.654  29.624  1.00  0.00    -0.014 A 
ATOM     70  C   UNL A   1      35.757  32.453  30.521  1.00  0.00     0.009 A 
ATOM     71  C   UNL A   1      36.581  33.386  28.449  1.00  0.00     0.009 A 
ATOM     72  C   UNL A   1      34.485  32.955  30.239  1.00  0.00     0.001 A 
ATOM     73  C   UNL A   1      35.315  33.910  28.182  1.00  0.00     0.001 A 
ATOM     74  C   UNL A   1      34.266  33.686  29.072  1.00  0.00     0.000 A 
ENDBRANCH  50  69
BRANCH  62  75
ATOM     75  C   UNL A   1      42.278  35.006  33.236  1.00  0.00    -0.014 A 
ATOM     76  C   UNL A   1      43.019  36.052  32.665  1.00  0.00     0.009 A 
ATOM     77  C   UNL A   1      41.724  35.183  34.514  1.00  0.00     0.009 A 
ATOM     78  C   UNL A   1      43.223  37.239  33.371  1.00  0.00     0.001 A 
ATOM     79  C   UNL A   1      41.907  36.381  35.206  1.00  0.00     0.001 A 
ATOM     80  C   UNL A   1      42.662  37.405  34.637  1.00  0.00     0.000 A 
ENDBRANCH  62  75
ENDBRANCH  36  37
ENDBRANCH  28  31
ENDBRANCH  26  27
ENDBRANCH  25  26
ENDBRANCH  24  25
ENDBRANCH   3  24
TORSDOF 17
ENDMDL
MODEL 3
REMARK VINA RESULT:      -9.5      4.004      7.574
REMARK SMILES C=CCN(CC(=O)NCCCNC(=O)c1ccc(-c2c3nc(c(-c4ccccc4)c4ccc([nH]4)c(-c4ccccc4)c4nc(c(-c5ccccc5)c5ccc2[nH]5)C=C4)C=C3)cc1)C(=O)NC1CC[NH+](CCC)CC1
REMARK SMILES IDX 6 1 7 2 8 3 5 5 4 6 3 7 2 8 1 9 63 10 64 11 65 12 66 14
REMARK SMILES IDX 67 15 74 16 68 17 73 18 69 19 70 21 71 22 72 23 9 24 10 25
REMARK SMILES IDX 11 26 12 27 13 28 14 30 15 31 16 32 62 33 17 34 61 35 18 36
REMARK SMILES IDX 19 37 20 38 55 39 21 40 60 41 54 42 56 43 22 44 59 45 53 46
REMARK SMILES IDX 52 47 23 49 45 50 30 51 44 52 31 53 34 54 43 55 57 56 32 57
REMARK SMILES IDX 33 58 42 60 58 61 35 62 24 63 25 64 29 65 26 66 28 67 27 68
REMARK SMILES IDX 46 69 47 70 51 71 48 72 50 73 49 74 36 75 37 76 41 77 38 78
REMARK SMILES IDX 40 79 39 80
REMARK H PARENT 8 4 65 13 69 20 12 29 56 48 34 59
REMARK Flexibility Score: inf
ROOT
ATOM      1  C   UNL A   1      33.253  28.528  25.418  1.00  0.00     0.239 C 
ATOM      2  O   UNL A   1      34.014  28.440  24.444  1.00  0.00    -0.273 OA
ATOM      3  N   UNL A   1      32.710  29.760  25.624  1.00  0.00    -0.354 N 
ATOM      4  H   UNL A   1      33.259  30.498  25.272  1.00  0.00     0.163 HD
ENDROOT
BRANCH   1   5
ATOM      5  C   UNL A   1      32.990  27.263  26.265  1.00  0.00     0.221 C 
BRANCH   5   6
ATOM      6  N   UNL A   1      32.262  26.112  25.738  1.00  0.00    -0.312 N 
BRANCH   6   7
ATOM      7  C   UNL A   1      31.742  26.287  24.382  1.00  0.00     0.149 C 
BRANCH   7   8
ATOM      8  C   UNL A   1      30.309  26.729  24.392  1.00  0.00    -0.013 C 
ATOM      9  C   UNL A   1      29.811  27.600  23.502  1.00  0.00     0.006 C 
ENDBRANCH   7   8
ENDBRANCH   6   7
BRANCH   6  10
ATOM     10  C   UNL A   1      32.084  24.880  26.303  1.00  0.00     0.318 C 
ATOM     11  O   UNL A   1      31.158  24.668  27.096  1.00  0.00    -0.249 OA
ATOM     12  N   UNL A   1      32.856  23.802  26.091  1.00  0.00    -0.335 N 
ATOM     13  H   UNL A   1      32.449  23.009  26.508  1.00  0.00     0.165 HD
BRANCH  12  14
ATOM     14  C   UNL A   1      34.119  23.435  25.432  1.00  0.00     0.095 C 
ATOM     15  C   UNL A   1      33.878  22.985  23.973  1.00  0.00     0.086 C 
ATOM     16  C   UNL A   1      34.827  22.294  26.147  1.00  0.00     0.086 C 
ATOM     17  C   UNL A   1      33.226  21.591  23.863  1.00  0.00     0.264 C 
ATOM     18  C   UNL A   1      34.052  20.995  26.062  1.00  0.00     0.264 C 
ATOM     19  N   UNL A   1      33.917  20.589  24.672  1.00  0.00    -0.335 N 
ATOM     20  H   UNL A   1      34.851  20.549  24.263  1.00  0.00     0.348 HD
BRANCH  19  21
ATOM     21  C   UNL A   1      33.414  19.216  24.546  1.00  0.00     0.261 C 
BRANCH  21  22
ATOM     22  C   UNL A   1      34.405  18.073  24.251  1.00  0.00     0.058 C 
ATOM     23  C   UNL A   1      33.759  16.754  23.869  1.00  0.00     0.010 C 
ENDBRANCH  21  22
ENDBRANCH  19  21
ENDBRANCH  12  14
ENDBRANCH   6  10
ENDBRANCH   5   6
ENDBRANCH   1   5
BRANCH   3  24
ATOM     24  C   UNL A   1      31.483  30.199  26.258  1.00  0.00     0.117 C 
BRANCH  24  25
ATOM     25  C   UNL A   1      31.337  31.700  26.499  1.00  0.00     0.042 C 
BRANCH  25  26
ATOM     26  C   UNL A   1      32.628  32.474  26.769  1.00  0.00     0.118 C 
BRANCH  26  27
ATOM     27  N   UNL A   1      32.422  33.788  27.360  1.00  0.00    -0.352 N 
ATOM     28  C   UNL A   1      33.028  34.454  28.390  1.00  0.00     0.251 C 
ATOM     29  H   UNL A   1      31.699  34.303  26.931  1.00  0.00     0.163 HD
ATOM     30  O   UNL A   1      32.528  35.521  28.769  1.00  0.00    -0.269 OA
BRANCH  28  31
ATOM     31  C   UNL A   1      34.234  33.949  29.085  1.00  0.00     0.039 A 
ATOM     32  C   UNL A   1      34.056  33.045  30.142  1.00  0.00     0.014 A 
ATOM     33  C   UNL A   1      35.519  34.405  28.788  1.00  0.00     0.014 A 
ATOM     34  C   UNL A   1      35.158  32.548  30.845  1.00  0.00     0.010 A 
ATOM     35  C   UNL A   1      36.626  33.864  29.450  1.00  0.00     0.010 A 
ATOM     36  C   UNL A   1      36.459  32.922  30.478  1.00  0.00    -0.014 A 
BRANCH  36  37
ATOM     37  C   UNL A   1      37.649  32.312  31.130  1.00  0.00     0.031 A 
ATOM     38  C   UNL A   1      38.386  31.170  30.484  1.00  0.00     0.074 A 
ATOM     39  C   UNL A   1      38.029  32.743  32.350  1.00  0.00     0.049 A 
ATOM     40  N   UNL A   1      39.382  30.458  30.954  1.00  0.00    -0.248 NA
ATOM     41  C   UNL A   1      37.935  30.762  29.146  1.00  0.00     0.031 C 
ATOM     42  C   UNL A   1      37.393  33.826  33.102  1.00  0.00     0.029 A 
ATOM     43  N   UNL A   1      39.036  32.311  33.179  1.00  0.00    -0.354 N 
ATOM     44  C   UNL A   1      39.662  29.508  29.980  1.00  0.00     0.074 A 
ATOM     45  C   UNL A   1      38.710  29.714  28.907  1.00  0.00     0.031 C 
ATOM     46  C   UNL A   1      38.030  33.984  34.272  1.00  0.00     0.029 A 
ATOM     47  C   UNL A   1      39.089  32.984  34.375  1.00  0.00     0.049 A 
ATOM     48  H   UNL A   1      39.658  31.587  32.939  1.00  0.00     0.167 HD
ATOM     49  C   UNL A   1      40.629  28.559  29.972  1.00  0.00     0.031 A 
ATOM     50  C   UNL A   1      39.886  32.810  35.447  1.00  0.00     0.031 A 
ATOM     51  C   UNL A   1      41.582  28.356  31.031  1.00  0.00     0.049 A 
ATOM     52  C   UNL A   1      40.929  31.728  35.427  1.00  0.00     0.074 A 
ATOM     53  C   UNL A   1      42.633  27.454  31.084  1.00  0.00     0.029 A 
ATOM     54  N   UNL A   1      41.600  29.059  32.225  1.00  0.00    -0.354 N 
ATOM     55  N   UNL A   1      41.215  30.876  34.473  1.00  0.00    -0.248 NA
ATOM     56  C   UNL A   1      41.759  31.588  36.631  1.00  0.00     0.031 C 
ATOM     57  C   UNL A   1      43.254  27.578  32.332  1.00  0.00     0.029 A 
ATOM     58  C   UNL A   1      42.624  28.592  33.033  1.00  0.00     0.049 A 
ATOM     59  H   UNL A   1      40.977  29.783  32.463  1.00  0.00     0.167 HD
ATOM     60  C   UNL A   1      42.275  30.116  34.952  1.00  0.00     0.074 A 
ATOM     61  C   UNL A   1      42.588  30.616  36.274  1.00  0.00     0.031 C 
ATOM     62  C   UNL A   1      42.928  29.095  34.347  1.00  0.00     0.031 A 
BRANCH  49  63
ATOM     63  C   UNL A   1      40.697  27.647  28.778  1.00  0.00    -0.014 A 
ATOM     64  C   UNL A   1      39.995  26.432  28.750  1.00  0.00     0.009 A 
ATOM     65  C   UNL A   1      41.432  28.032  27.646  1.00  0.00     0.009 A 
ATOM     66  C   UNL A   1      40.058  25.604  27.628  1.00  0.00     0.001 A 
ATOM     67  C   UNL A   1      41.472  27.215  26.515  1.00  0.00     0.001 A 
ATOM     68  C   UNL A   1      40.793  25.998  26.509  1.00  0.00     0.000 A 
ENDBRANCH  49  63
BRANCH  50  69
ATOM     69  C   UNL A   1      39.728  33.684  36.638  1.00  0.00    -0.014 A 
ATOM     70  C   UNL A   1      40.435  34.891  36.733  1.00  0.00     0.009 A 
ATOM     71  C   UNL A   1      38.873  33.313  37.688  1.00  0.00     0.009 A 
ATOM     72  C   UNL A   1      40.307  35.700  37.864  1.00  0.00     0.001 A 
ATOM     73  C   UNL A   1      38.726  34.136  38.806  1.00  0.00     0.001 A 
ATOM     74  C   UNL A   1      39.449  35.323  38.898  1.00  0.00     0.000 A 
ENDBRANCH  50  69
BRANCH  62  75
ATOM     75  C   UNL A   1      44.069  28.468  35.097  1.00  0.00    -0.014 A 
ATOM     76  C   UNL A   1      45.381  28.943  34.955  1.00  0.00     0.009 A 
ATOM     77  C   UNL A   1      43.819  27.415  35.991  1.00  0.00     0.009 A 
ATOM     78  C   UNL A   1      46.425  28.358  35.674  1.00  0.00     0.001 A 
ATOM     79  C   UNL A   1      44.860  26.850  36.729  1.00  0.00     0.001 A 
ATOM     80  C   UNL A   1      46.163  27.317  36.565  1.00  0.00     0.000 A 
ENDBRANCH  62  75
ENDBRANCH  36  37
ENDBRANCH  28  31
ENDBRANCH  26  27
ENDBRANCH  25  26
ENDBRANCH  24  25
ENDBRANCH   3  24
TORSDOF 17
ENDMDL
