MODEL 1
REMARK VINA RESULT:     -10.6      0.000      0.000
REMARK SMILES O=C(Cc1ccn(C(F)F)c(=O)c1)NCCCNC(=O)c1ccc(-c2c3nc(c(-c4ccccc4)c4ccc([nH]4)c(-c4ccccc4)c4nc(c(-c5ccccc5)c5ccc2[nH]5)C=C4)C=C3)cc1
REMARK SMILES IDX 16 1 15 2 14 3 1 4 2 5 3 7 4 8 5 9 13 10 6 11 11 12 7 13
REMARK SMILES IDX 12 14 8 15 9 16 10 17 17 18 18 19 19 20 20 22 21 23 22 24
REMARK SMILES IDX 68 25 23 26 67 27 24 28 25 29 26 30 61 31 27 32 66 33 60 34
REMARK SMILES IDX 62 35 28 36 65 37 59 38 58 39 29 41 51 42 36 43 50 44 37 45
REMARK SMILES IDX 40 46 49 47 63 48 38 49 39 50 48 52 64 53 41 54 30 55 31 56
REMARK SMILES IDX 35 57 32 58 34 59 33 60 52 61 53 62 57 63 54 64 56 65 55 66
REMARK SMILES IDX 42 67 43 68 47 69 44 70 46 71 45 72
REMARK H PARENT 14 6 18 21 62 40 40 51
REMARK Flexibility Score: inf
ROOT
ATOM      1  C   UNL A   1      32.008  28.507  27.340  1.00  0.00     0.042 C 
ENDROOT
BRANCH   1   2
ATOM      2  C   UNL A   1      31.878  27.078  26.838  1.00  0.00     0.117 C 
BRANCH   2   3
ATOM      3  N   UNL A   1      31.192  26.998  25.566  1.00  0.00    -0.356 N 
ATOM      4  O   UNL A   1      33.064  26.721  24.261  1.00  0.00    -0.275 OA
ATOM      5  C   UNL A   1      31.843  26.749  24.374  1.00  0.00     0.224 C 
ATOM      6  H   UNL A   1      30.216  27.126  25.549  1.00  0.00     0.163 HD
BRANCH   5   7
ATOM      7  C   UNL A   1      30.907  26.548  23.179  1.00  0.00     0.135 C 
BRANCH   7   8
ATOM      8  C   UNL A   1      29.956  27.702  22.942  1.00  0.00    -0.032 A 
ATOM      9  C   UNL A   1      30.528  28.943  22.455  1.00  0.00     0.022 A 
ATOM     10  C   UNL A   1      28.635  27.653  23.195  1.00  0.00     0.076 A 
ATOM     11  C   UNL A   1      29.767  30.037  22.330  1.00  0.00     0.095 A 
ATOM     12  C   UNL A   1      27.778  28.865  23.078  1.00  0.00     0.255 A 
ATOM     13  N   UNL A   1      28.421  30.013  22.646  1.00  0.00    -0.258 N 
ATOM     14  O   UNL A   1      26.597  28.778  23.394  1.00  0.00    -0.269 OA
BRANCH  13  15
ATOM     15  C   UNL A   1      27.628  31.213  22.575  1.00  0.00     0.451 C 
ATOM     16  F   UNL A   1      27.357  31.700  23.809  1.00  0.00    -0.185 F 
ATOM     17  F   UNL A   1      28.280  32.175  21.876  1.00  0.00    -0.185 F 
ENDBRANCH  13  15
ENDBRANCH   7   8
ENDBRANCH   5   7
ENDBRANCH   2   3
ENDBRANCH   1   2
BRANCH   1  18
ATOM     18  C   UNL A   1      33.411  29.092  27.208  1.00  0.00     0.118 C 
BRANCH  18  19
ATOM     19  N   UNL A   1      33.544  30.435  27.758  1.00  0.00    -0.352 N 
ATOM     20  C   UNL A   1      34.615  31.026  28.390  1.00  0.00     0.251 C 
ATOM     21  H   UNL A   1      32.748  31.007  27.661  1.00  0.00     0.163 HD
ATOM     22  O   UNL A   1      34.505  32.149  28.873  1.00  0.00    -0.269 OA
BRANCH  20  23
ATOM     23  C   UNL A   1      35.885  30.286  28.533  1.00  0.00     0.039 A 
ATOM     24  C   UNL A   1      36.202  29.631  29.725  1.00  0.00     0.014 A 
ATOM     25  C   UNL A   1      36.792  30.292  27.471  1.00  0.00     0.014 A 
ATOM     26  C   UNL A   1      37.493  29.151  29.922  1.00  0.00     0.010 A 
ATOM     27  C   UNL A   1      38.063  29.739  27.643  1.00  0.00     0.010 A 
ATOM     28  C   UNL A   1      38.444  29.221  28.891  1.00  0.00    -0.014 A 
BRANCH  28  29
ATOM     29  C   UNL A   1      39.842  28.792  29.145  1.00  0.00     0.031 A 
ATOM     30  C   UNL A   1      40.311  27.429  28.710  1.00  0.00     0.074 A 
ATOM     31  C   UNL A   1      40.709  29.647  29.720  1.00  0.00     0.049 A 
ATOM     32  N   UNL A   1      41.491  26.878  28.857  1.00  0.00    -0.248 NA
ATOM     33  C   UNL A   1      39.334  26.571  28.017  1.00  0.00     0.031 C 
ATOM     34  C   UNL A   1      40.389  31.009  30.150  1.00  0.00     0.029 A 
ATOM     35  N   UNL A   1      42.040  29.506  30.018  1.00  0.00    -0.354 N 
ATOM     36  C   UNL A   1      41.390  25.610  28.298  1.00  0.00     0.074 A 
ATOM     37  C   UNL A   1      40.032  25.460  27.825  1.00  0.00     0.031 C 
ATOM     38  C   UNL A   1      41.504  31.594  30.614  1.00  0.00     0.029 A 
ATOM     39  C   UNL A   1      42.599  30.630  30.575  1.00  0.00     0.049 A 
ATOM     40  H   UNL A   1      42.546  28.678  29.851  1.00  0.00     0.167 HD
ATOM     41  C   UNL A   1      42.348  24.660  28.180  1.00  0.00     0.031 A 
ATOM     42  C   UNL A   1      43.849  30.860  31.021  1.00  0.00     0.031 A 
ATOM     43  C   UNL A   1      43.704  24.813  28.632  1.00  0.00     0.049 A 
ATOM     44  C   UNL A   1      44.875  29.767  30.938  1.00  0.00     0.074 A 
ATOM     45  C   UNL A   1      44.746  23.907  28.539  1.00  0.00     0.029 A 
ATOM     46  N   UNL A   1      44.207  25.944  29.255  1.00  0.00    -0.354 N 
ATOM     47  N   UNL A   1      44.759  28.570  30.419  1.00  0.00    -0.248 NA
ATOM     48  C   UNL A   1      46.198  30.052  31.510  1.00  0.00     0.031 C 
ATOM     49  C   UNL A   1      45.869  24.472  29.150  1.00  0.00     0.029 A 
ATOM     50  C   UNL A   1      45.539  25.748  29.575  1.00  0.00     0.049 A 
ATOM     51  H   UNL A   1      43.693  26.762  29.444  1.00  0.00     0.167 HD
ATOM     52  C   UNL A   1      45.995  27.961  30.591  1.00  0.00     0.074 A 
ATOM     53  C   UNL A   1      46.851  28.926  31.250  1.00  0.00     0.031 C 
ATOM     54  C   UNL A   1      46.380  26.714  30.232  1.00  0.00     0.031 A 
BRANCH  41  55
ATOM     55  C   UNL A   1      41.969  23.352  27.546  1.00  0.00    -0.014 A 
ATOM     56  C   UNL A   1      41.395  22.339  28.332  1.00  0.00     0.009 A 
ATOM     57  C   UNL A   1      42.264  23.085  26.200  1.00  0.00     0.009 A 
ATOM     58  C   UNL A   1      41.132  21.082  27.786  1.00  0.00     0.001 A 
ATOM     59  C   UNL A   1      41.978  21.833  25.651  1.00  0.00     0.001 A 
ATOM     60  C   UNL A   1      41.420  20.830  26.445  1.00  0.00     0.000 A 
ENDBRANCH  41  55
BRANCH  42  61
ATOM     61  C   UNL A   1      44.182  32.189  31.592  1.00  0.00    -0.014 A 
ATOM     62  C   UNL A   1      43.970  32.452  32.956  1.00  0.00     0.009 A 
ATOM     63  C   UNL A   1      44.657  33.219  30.769  1.00  0.00     0.009 A 
ATOM     64  C   UNL A   1      44.199  33.726  33.477  1.00  0.00     0.001 A 
ATOM     65  C   UNL A   1      44.911  34.486  31.298  1.00  0.00     0.001 A 
ATOM     66  C   UNL A   1      44.673  34.741  32.648  1.00  0.00     0.000 A 
ENDBRANCH  42  61
BRANCH  54  67
ATOM     67  C   UNL A   1      47.794  26.304  30.526  1.00  0.00    -0.014 A 
ATOM     68  C   UNL A   1      48.122  25.799  31.794  1.00  0.00     0.009 A 
ATOM     69  C   UNL A   1      48.815  26.524  29.591  1.00  0.00     0.009 A 
ATOM     70  C   UNL A   1      49.451  25.536  32.127  1.00  0.00     0.001 A 
ATOM     71  C   UNL A   1      50.142  26.239  29.920  1.00  0.00     0.001 A 
ATOM     72  C   UNL A   1      50.460  25.755  31.190  1.00  0.00     0.000 A 
ENDBRANCH  54  67
ENDBRANCH  28  29
ENDBRANCH  20  23
ENDBRANCH  18  19
ENDBRANCH   1  18
TORSDOF 12
ENDMDL
MODEL 2
REMARK VINA RESULT:     -10.6      0.285      6.163
REMARK SMILES O=C(Cc1ccn(C(F)F)c(=O)c1)NCCCNC(=O)c1ccc(-c2c3nc(c(-c4ccccc4)c4ccc([nH]4)c(-c4ccccc4)c4nc(c(-c5ccccc5)c5ccc2[nH]5)C=C4)C=C3)cc1
REMARK SMILES IDX 16 1 15 2 14 3 1 4 2 5 3 7 4 8 5 9 13 10 6 11 11 12 7 13
REMARK SMILES IDX 12 14 8 15 9 16 10 17 17 18 18 19 19 20 20 22 21 23 22 24
REMARK SMILES IDX 68 25 23 26 67 27 24 28 25 29 26 30 61 31 27 32 66 33 60 34
REMARK SMILES IDX 62 35 28 36 65 37 59 38 58 39 29 41 51 42 36 43 50 44 37 45
REMARK SMILES IDX 40 46 49 47 63 48 38 49 39 50 48 52 64 53 41 54 30 55 31 56
REMARK SMILES IDX 35 57 32 58 34 59 33 60 52 61 53 62 57 63 54 64 56 65 55 66
REMARK SMILES IDX 42 67 43 68 47 69 44 70 46 71 45 72
REMARK H PARENT 14 6 18 21 62 40 40 51
REMARK Flexibility Score: inf
ROOT
ATOM      1  C   UNL A   1      32.016  28.534  27.316  1.00  0.00     0.042 C 
ENDROOT
BRANCH   1   2
ATOM      2  C   UNL A   1      31.912  27.122  26.762  1.00  0.00     0.117 C 
BRANCH   2   3
ATOM      3  N   UNL A   1      31.200  27.073  25.502  1.00  0.00    -0.356 N 
ATOM      4  O   UNL A   1      33.022  26.628  24.174  1.00  0.00    -0.275 OA
ATOM      5  C   UNL A   1      31.810  26.753  24.306  1.00  0.00     0.224 C 
ATOM      6  H   UNL A   1      30.237  27.277  25.498  1.00  0.00     0.163 HD
BRANCH   5   7
ATOM      7  C   UNL A   1      30.841  26.603  23.129  1.00  0.00     0.135 C 
BRANCH   7   8
ATOM      8  C   UNL A   1      29.922  27.792  22.936  1.00  0.00    -0.032 A 
ATOM      9  C   UNL A   1      30.527  29.032  22.491  1.00  0.00     0.022 A 
ATOM     10  C   UNL A   1      28.600  27.770  23.190  1.00  0.00     0.076 A 
ATOM     11  C   UNL A   1      29.797  30.151  22.407  1.00  0.00     0.095 A 
ATOM     12  C   UNL A   1      27.777  29.009  23.118  1.00  0.00     0.255 A 
ATOM     13  N   UNL A   1      28.451  30.153  22.725  1.00  0.00    -0.258 N 
ATOM     14  O   UNL A   1      26.594  28.943  23.434  1.00  0.00    -0.269 OA
BRANCH  13  15
ATOM     15  C   UNL A   1      27.691  31.376  22.698  1.00  0.00     0.451 C 
ATOM     16  F   UNL A   1      27.122  31.631  23.901  1.00  0.00    -0.185 F 
ATOM     17  F   UNL A   1      28.488  32.426  22.379  1.00  0.00    -0.185 F 
ENDBRANCH  13  15
ENDBRANCH   7   8
ENDBRANCH   5   7
ENDBRANCH   2   3
ENDBRANCH   1   2
BRANCH   1  18
ATOM     18  C   UNL A   1      33.385  29.181  27.129  1.00  0.00     0.118 C 
BRANCH  18  19
ATOM     19  N   UNL A   1      33.512  30.487  27.763  1.00  0.00    -0.352 N 
ATOM     20  C   UNL A   1      34.573  31.032  28.449  1.00  0.00     0.251 C 
ATOM     21  H   UNL A   1      32.719  31.066  27.689  1.00  0.00     0.163 HD
ATOM     22  O   UNL A   1      34.458  32.124  28.999  1.00  0.00    -0.269 OA
BRANCH  20  23
ATOM     23  C   UNL A   1      35.839  30.280  28.568  1.00  0.00     0.039 A 
ATOM     24  C   UNL A   1      36.164  29.607  29.747  1.00  0.00     0.014 A 
ATOM     25  C   UNL A   1      36.733  30.293  27.494  1.00  0.00     0.014 A 
ATOM     26  C   UNL A   1      37.453  29.114  29.923  1.00  0.00     0.010 A 
ATOM     27  C   UNL A   1      38.002  29.727  27.645  1.00  0.00     0.010 A 
ATOM     28  C   UNL A   1      38.392  29.190  28.882  1.00  0.00    -0.014 A 
BRANCH  28  29
ATOM     29  C   UNL A   1      39.790  28.746  29.113  1.00  0.00     0.031 A 
ATOM     30  C   UNL A   1      40.755  29.628  29.860  1.00  0.00     0.074 A 
ATOM     31  C   UNL A   1      40.180  27.526  28.699  1.00  0.00     0.049 A 
ATOM     32  N   UNL A   1      42.016  29.413  30.146  1.00  0.00    -0.248 NA
ATOM     33  C   UNL A   1      40.244  30.918  30.353  1.00  0.00     0.031 C 
ATOM     34  C   UNL A   1      39.329  26.561  28.001  1.00  0.00     0.029 A 
ATOM     35  N   UNL A   1      41.383  26.880  28.826  1.00  0.00    -0.354 N 
ATOM     36  C   UNL A   1      42.449  30.542  30.829  1.00  0.00     0.074 A 
ATOM     37  C   UNL A   1      41.328  31.452  30.900  1.00  0.00     0.031 C 
ATOM     38  C   UNL A   1      40.022  25.430  27.803  1.00  0.00     0.029 A 
ATOM     39  C   UNL A   1      41.382  25.611  28.300  1.00  0.00     0.049 A 
ATOM     40  H   UNL A   1      42.172  27.286  29.253  1.00  0.00     0.167 HD
ATOM     41  C   UNL A   1      43.669  30.793  31.358  1.00  0.00     0.031 A 
ATOM     42  C   UNL A   1      42.368  24.698  28.210  1.00  0.00     0.031 A 
ATOM     43  C   UNL A   1      44.781  29.883  31.305  1.00  0.00     0.049 A 
ATOM     44  C   UNL A   1      43.730  25.027  28.748  1.00  0.00     0.074 A 
ATOM     45  C   UNL A   1      46.052  30.049  31.829  1.00  0.00     0.029 A 
ATOM     46  N   UNL A   1      44.755  28.637  30.699  1.00  0.00    -0.354 N 
ATOM     47  N   UNL A   1      44.125  26.104  29.379  1.00  0.00    -0.248 NA
ATOM     48  C   UNL A   1      44.783  24.021  28.552  1.00  0.00     0.031 C 
ATOM     49  C   UNL A   1      46.809  28.923  31.498  1.00  0.00     0.029 A 
ATOM     50  C   UNL A   1      45.995  28.035  30.815  1.00  0.00     0.049 A 
ATOM     51  H   UNL A   1      43.972  28.242  30.252  1.00  0.00     0.167 HD
ATOM     52  C   UNL A   1      45.469  25.904  29.666  1.00  0.00     0.074 A 
ATOM     53  C   UNL A   1      45.818  24.595  29.153  1.00  0.00     0.031 C 
ATOM     54  C   UNL A   1      46.332  26.734  30.299  1.00  0.00     0.031 A 
BRANCH  41  55
ATOM     55  C   UNL A   1      43.886  32.116  32.037  1.00  0.00    -0.014 A 
ATOM     56  C   UNL A   1      43.588  32.253  33.403  1.00  0.00     0.009 A 
ATOM     57  C   UNL A   1      44.292  33.246  31.312  1.00  0.00     0.009 A 
ATOM     58  C   UNL A   1      43.682  33.498  34.027  1.00  0.00     0.001 A 
ATOM     59  C   UNL A   1      44.408  34.486  31.945  1.00  0.00     0.001 A 
ATOM     60  C   UNL A   1      44.096  34.613  33.299  1.00  0.00     0.000 A 
ENDBRANCH  41  55
BRANCH  42  61
ATOM     61  C   UNL A   1      42.085  23.386  27.574  1.00  0.00    -0.014 A 
ATOM     62  C   UNL A   1      41.524  22.338  28.323  1.00  0.00     0.009 A 
ATOM     63  C   UNL A   1      42.427  23.156  26.235  1.00  0.00     0.009 A 
ATOM     64  C   UNL A   1      41.340  21.078  27.752  1.00  0.00     0.001 A 
ATOM     65  C   UNL A   1      42.216  21.902  25.658  1.00  0.00     0.001 A 
ATOM     66  C   UNL A   1      41.683  20.863  26.418  1.00  0.00     0.000 A 
ENDBRANCH  42  61
BRANCH  54  67
ATOM     67  C   UNL A   1      47.743  26.263  30.493  1.00  0.00    -0.014 A 
ATOM     68  C   UNL A   1      48.133  25.723  31.729  1.00  0.00     0.009 A 
ATOM     69  C   UNL A   1      48.710  26.459  29.497  1.00  0.00     0.009 A 
ATOM     70  C   UNL A   1      49.469  25.402  31.971  1.00  0.00     0.001 A 
ATOM     71  C   UNL A   1      50.043  26.117  29.734  1.00  0.00     0.001 A 
ATOM     72  C   UNL A   1      50.422  25.598  30.973  1.00  0.00     0.000 A 
ENDBRANCH  54  67
ENDBRANCH  28  29
ENDBRANCH  20  23
ENDBRANCH  18  19
ENDBRANCH   1  18
TORSDOF 12
ENDMDL
MODEL 3
REMARK VINA RESULT:     -10.6      4.795      8.689
REMARK SMILES O=C(Cc1ccn(C(F)F)c(=O)c1)NCCCNC(=O)c1ccc(-c2c3nc(c(-c4ccccc4)c4ccc([nH]4)c(-c4ccccc4)c4nc(c(-c5ccccc5)c5ccc2[nH]5)C=C4)C=C3)cc1
REMARK SMILES IDX 16 1 15 2 14 3 1 4 2 5 3 7 4 8 5 9 13 10 6 11 11 12 7 13
REMARK SMILES IDX 12 14 8 15 9 16 10 17 17 18 18 19 19 20 20 22 21 23 22 24
REMARK SMILES IDX 68 25 23 26 67 27 24 28 25 29 26 30 61 31 27 32 66 33 60 34
REMARK SMILES IDX 62 35 28 36 65 37 59 38 58 39 29 41 51 42 36 43 50 44 37 45
REMARK SMILES IDX 40 46 49 47 63 48 38 49 39 50 48 52 64 53 41 54 30 55 31 56
REMARK SMILES IDX 35 57 32 58 34 59 33 60 52 61 53 62 57 63 54 64 56 65 55 66
REMARK SMILES IDX 42 67 43 68 47 69 44 70 46 71 45 72
REMARK H PARENT 14 6 18 21 62 40 40 51
REMARK Flexibility Score: inf
ROOT
ATOM      1  C   UNL A   1      37.342  21.153  24.585  1.00  0.00     0.042 C 
ENDROOT
BRANCH   1   2
ATOM      2  C   UNL A   1      36.487  22.405  24.472  1.00  0.00     0.117 C 
BRANCH   2   3
ATOM      3  N   UNL A   1      35.072  22.123  24.586  1.00  0.00    -0.356 N 
ATOM      4  O   UNL A   1      34.408  23.280  22.715  1.00  0.00    -0.275 OA
ATOM      5  C   UNL A   1      34.145  22.527  23.647  1.00  0.00     0.224 C 
ATOM      6  H   UNL A   1      34.755  21.619  25.371  1.00  0.00     0.163 HD
BRANCH   5   7
ATOM      7  C   UNL A   1      32.733  21.984  23.885  1.00  0.00     0.135 C 
BRANCH   7   8
ATOM      8  C   UNL A   1      32.674  20.479  24.046  1.00  0.00    -0.032 A 
ATOM      9  C   UNL A   1      32.777  19.952  25.393  1.00  0.00     0.022 A 
ATOM     10  C   UNL A   1      32.574  19.615  23.018  1.00  0.00     0.076 A 
ATOM     11  C   UNL A   1      32.844  18.631  25.601  1.00  0.00     0.095 A 
ATOM     12  C   UNL A   1      32.665  18.145  23.230  1.00  0.00     0.255 A 
ATOM     13  N   UNL A   1      32.804  17.737  24.546  1.00  0.00    -0.258 N 
ATOM     14  O   UNL A   1      32.645  17.410  22.248  1.00  0.00    -0.269 OA
BRANCH  13  15
ATOM     15  C   UNL A   1      32.948  16.323  24.776  1.00  0.00     0.451 C 
ATOM     16  F   UNL A   1      34.065  16.050  25.493  1.00  0.00    -0.185 F 
ATOM     17  F   UNL A   1      31.882  15.839  25.459  1.00  0.00    -0.185 F 
ENDBRANCH  13  15
ENDBRANCH   7   8
ENDBRANCH   5   7
ENDBRANCH   2   3
ENDBRANCH   1   2
BRANCH   1  18
ATOM     18  C   UNL A   1      38.498  21.271  25.574  1.00  0.00     0.118 C 
BRANCH  18  19
ATOM     19  N   UNL A   1      39.369  20.103  25.604  1.00  0.00    -0.352 N 
ATOM     20  C   UNL A   1      40.676  19.991  26.020  1.00  0.00     0.251 C 
ATOM     21  H   UNL A   1      38.960  19.268  25.280  1.00  0.00     0.163 HD
ATOM     22  O   UNL A   1      41.280  18.930  25.882  1.00  0.00    -0.269 OA
BRANCH  20  23
ATOM     23  C   UNL A   1      41.372  21.163  26.588  1.00  0.00     0.039 A 
ATOM     24  C   UNL A   1      41.378  21.396  27.964  1.00  0.00     0.014 A 
ATOM     25  C   UNL A   1      41.987  22.068  25.718  1.00  0.00     0.014 A 
ATOM     26  C   UNL A   1      41.825  22.620  28.452  1.00  0.00     0.010 A 
ATOM     27  C   UNL A   1      42.508  23.263  26.219  1.00  0.00     0.010 A 
ATOM     28  C   UNL A   1      42.373  23.575  27.581  1.00  0.00    -0.014 A 
BRANCH  28  29
ATOM     29  C   UNL A   1      42.760  24.912  28.099  1.00  0.00     0.031 A 
ATOM     30  C   UNL A   1      41.716  25.972  28.325  1.00  0.00     0.074 A 
ATOM     31  C   UNL A   1      44.045  25.157  28.418  1.00  0.00     0.049 A 
ATOM     32  N   UNL A   1      41.868  27.199  28.761  1.00  0.00    -0.248 NA
ATOM     33  C   UNL A   1      40.318  25.614  28.030  1.00  0.00     0.031 C 
ATOM     34  C   UNL A   1      45.144  24.201  28.284  1.00  0.00     0.029 A 
ATOM     35  N   UNL A   1      44.638  26.278  28.943  1.00  0.00    -0.354 N 
ATOM     36  C   UNL A   1      40.597  27.760  28.769  1.00  0.00     0.074 A 
ATOM     37  C   UNL A   1      39.684  26.752  28.278  1.00  0.00     0.031 C 
ATOM     38  C   UNL A   1      46.269  24.758  28.758  1.00  0.00     0.029 A 
ATOM     39  C   UNL A   1      45.985  26.130  29.168  1.00  0.00     0.049 A 
ATOM     40  H   UNL A   1      44.147  27.108  29.138  1.00  0.00     0.167 HD
ATOM     41  C   UNL A   1      40.224  29.001  29.161  1.00  0.00     0.031 A 
ATOM     42  C   UNL A   1      46.897  27.003  29.637  1.00  0.00     0.031 A 
ATOM     43  C   UNL A   1      41.126  29.999  29.667  1.00  0.00     0.049 A 
ATOM     44  C   UNL A   1      46.468  28.393  30.003  1.00  0.00     0.074 A 
ATOM     45  C   UNL A   1      40.831  31.280  30.102  1.00  0.00     0.029 A 
ATOM     46  N   UNL A   1      42.493  29.829  29.810  1.00  0.00    -0.354 N 
ATOM     47  N   UNL A   1      45.265  28.911  29.992  1.00  0.00    -0.248 NA
ATOM     48  C   UNL A   1      47.521  29.323  30.436  1.00  0.00     0.031 C 
ATOM     49  C   UNL A   1      42.029  31.902  30.464  1.00  0.00     0.029 A 
ATOM     50  C   UNL A   1      43.060  30.991  30.304  1.00  0.00     0.049 A 
ATOM     51  H   UNL A   1      42.987  29.006  29.592  1.00  0.00     0.167 HD
ATOM     52  C   UNL A   1      45.412  30.222  30.426  1.00  0.00     0.074 A 
ATOM     53  C   UNL A   1      46.820  30.417  30.705  1.00  0.00     0.031 C 
ATOM     54  C   UNL A   1      44.461  31.174  30.576  1.00  0.00     0.031 A 
BRANCH  41  55
ATOM     55  C   UNL A   1      38.771  29.368  29.049  1.00  0.00    -0.014 A 
ATOM     56  C   UNL A   1      37.934  29.242  30.170  1.00  0.00     0.009 A 
ATOM     57  C   UNL A   1      38.210  29.748  27.821  1.00  0.00     0.009 A 
ATOM     58  C   UNL A   1      36.563  29.479  30.061  1.00  0.00     0.001 A 
ATOM     59  C   UNL A   1      36.841  30.007  27.720  1.00  0.00     0.001 A 
ATOM     60  C   UNL A   1      36.018  29.864  28.837  1.00  0.00     0.000 A 
ENDBRANCH  41  55
BRANCH  42  61
ATOM     61  C   UNL A   1      48.311  26.570  29.774  1.00  0.00    -0.014 A 
ATOM     62  C   UNL A   1      48.761  25.975  30.965  1.00  0.00     0.009 A 
ATOM     63  C   UNL A   1      49.230  26.802  28.742  1.00  0.00     0.009 A 
ATOM     64  C   UNL A   1      50.108  25.649  31.129  1.00  0.00     0.001 A 
ATOM     65  C   UNL A   1      50.572  26.450  28.899  1.00  0.00     0.001 A 
ATOM     66  C   UNL A   1      51.011  25.883  30.095  1.00  0.00     0.000 A 
ENDBRANCH  42  61
BRANCH  54  67
ATOM     67  C   UNL A   1      44.891  32.522  31.078  1.00  0.00    -0.014 A 
ATOM     68  C   UNL A   1      44.863  32.793  32.456  1.00  0.00     0.009 A 
ATOM     69  C   UNL A   1      45.214  33.552  30.184  1.00  0.00     0.009 A 
ATOM     70  C   UNL A   1      45.133  34.077  32.929  1.00  0.00     0.001 A 
ATOM     71  C   UNL A   1      45.506  34.832  30.662  1.00  0.00     0.001 A 
ATOM     72  C   UNL A   1      45.456  35.095  32.032  1.00  0.00     0.000 A 
ENDBRANCH  54  67
ENDBRANCH  28  29
ENDBRANCH  20  23
ENDBRANCH  18  19
ENDBRANCH   1  18
TORSDOF 12
ENDMDL
