MODEL 1
REMARK VINA RESULT:      -9.5      0.000      0.000
REMARK SMILES O=C(CCC(=O)Nc1nncs1)NCCCNC(=O)c1ccc(-c2c3nc(c(-c4ccccc4)c4ccc([nH]4)c(-c4ccccc4)c4nc(c(-c5ccccc5)c5ccc2[nH]5)C=C4)C=C3)cc1
REMARK SMILES IDX 14 1 13 2 1 3 2 4 3 6 4 7 5 8 6 9 7 10 8 12 9 13 12 14 10 15
REMARK SMILES IDX 11 16 15 17 16 18 17 19 18 20 19 22 20 23 21 24 67 25 22 26
REMARK SMILES IDX 66 27 23 28 24 29 25 30 60 31 26 32 65 33 59 34 61 35 27 36
REMARK SMILES IDX 64 37 58 38 57 39 28 41 50 42 35 43 49 44 36 45 39 46 48 47
REMARK SMILES IDX 62 48 37 49 38 50 47 52 63 53 40 54 29 55 30 56 34 57 31 58
REMARK SMILES IDX 33 59 32 60 51 61 52 62 56 63 53 64 55 65 54 66 41 67 42 68
REMARK SMILES IDX 46 69 43 70 45 71 44 72
REMARK H PARENT 13 5 7 11 17 21 61 40 39 51
REMARK Flexibility Score: inf
ROOT
ATOM      1  C   UNL A   1      33.501  36.322  32.675  1.00  0.00     0.117 C 
ENDROOT
BRANCH   1   2
ATOM      2  N   UNL A   1      34.359  35.153  32.606  1.00  0.00    -0.356 N 
ATOM      3  O   UNL A   1      35.055  35.228  34.797  1.00  0.00    -0.275 OA
ATOM      4  C   UNL A   1      35.017  34.659  33.712  1.00  0.00     0.220 C 
ATOM      5  H   UNL A   1      34.475  34.698  31.741  1.00  0.00     0.163 HD
BRANCH   4   6
ATOM      6  C   UNL A   1      35.619  33.288  33.502  1.00  0.00     0.110 C 
BRANCH   6   7
ATOM      7  C   UNL A   1      36.985  33.158  34.173  1.00  0.00     0.110 C 
BRANCH   7   8
ATOM      8  C   UNL A   1      37.432  31.718  34.271  1.00  0.00     0.226 C 
ATOM      9  O   UNL A   1      37.269  30.990  33.281  1.00  0.00    -0.275 OA
ATOM     10  N   UNL A   1      37.899  31.113  35.389  1.00  0.00    -0.301 N 
ATOM     11  H   UNL A   1      38.175  30.181  35.229  1.00  0.00     0.172 HD
BRANCH  10  12
ATOM     12  C   UNL A   1      38.074  31.502  36.689  1.00  0.00     0.212 A 
ATOM     13  N   UNL A   1      37.460  30.877  37.671  1.00  0.00    -0.120 NA
ATOM     14  S   UNL A   1      39.042  32.798  37.205  1.00  0.00    -0.083 S 
ATOM     15  N   UNL A   1      37.599  31.531  38.878  1.00  0.00    -0.145 NA
ATOM     16  C   UNL A   1      38.386  32.579  38.769  1.00  0.00     0.204 A 
ENDBRANCH  10  12
ENDBRANCH   7   8
ENDBRANCH   6   7
ENDBRANCH   4   6
ENDBRANCH   1   2
BRANCH   1  17
ATOM     17  C   UNL A   1      32.877  36.696  31.343  1.00  0.00     0.042 C 
BRANCH  17  18
ATOM     18  C   UNL A   1      33.645  36.226  30.115  1.00  0.00     0.118 C 
BRANCH  18  19
ATOM     19  N   UNL A   1      32.843  35.538  29.115  1.00  0.00    -0.352 N 
ATOM     20  C   UNL A   1      33.091  34.343  28.472  1.00  0.00     0.251 C 
ATOM     21  H   UNL A   1      32.005  35.988  28.861  1.00  0.00     0.163 HD
ATOM     22  O   UNL A   1      32.307  33.921  27.633  1.00  0.00    -0.269 OA
BRANCH  20  23
ATOM     23  C   UNL A   1      34.340  33.595  28.752  1.00  0.00     0.039 A 
ATOM     24  C   UNL A   1      35.472  33.871  27.978  1.00  0.00     0.014 A 
ATOM     25  C   UNL A   1      34.419  32.661  29.787  1.00  0.00     0.014 A 
ATOM     26  C   UNL A   1      36.695  33.274  28.296  1.00  0.00     0.010 A 
ATOM     27  C   UNL A   1      35.656  32.145  30.164  1.00  0.00     0.010 A 
ATOM     28  C   UNL A   1      36.808  32.441  29.420  1.00  0.00    -0.014 A 
BRANCH  28  29
ATOM     29  C   UNL A   1      38.117  31.863  29.823  1.00  0.00     0.031 A 
ATOM     30  C   UNL A   1      39.030  32.622  30.749  1.00  0.00     0.074 A 
ATOM     31  C   UNL A   1      38.517  30.681  29.312  1.00  0.00     0.049 A 
ATOM     32  N   UNL A   1      40.222  32.298  31.185  1.00  0.00    -0.248 NA
ATOM     33  C   UNL A   1      38.554  33.932  31.224  1.00  0.00     0.031 C 
ATOM     34  C   UNL A   1      37.762  29.866  28.356  1.00  0.00     0.029 A 
ATOM     35  N   UNL A   1      39.664  29.958  29.528  1.00  0.00    -0.354 N 
ATOM     36  C   UNL A   1      40.645  33.373  31.957  1.00  0.00     0.074 A 
ATOM     37  C   UNL A   1      39.610  34.380  31.886  1.00  0.00     0.031 C 
ATOM     38  C   UNL A   1      38.447  28.739  28.102  1.00  0.00     0.029 A 
ATOM     39  C   UNL A   1      39.700  28.763  28.848  1.00  0.00     0.049 A 
ATOM     40  H   UNL A   1      40.392  30.266  30.114  1.00  0.00     0.167 HD
ATOM     41  C   UNL A   1      41.780  33.504  32.686  1.00  0.00     0.031 A 
ATOM     42  C   UNL A   1      40.633  27.793  28.835  1.00  0.00     0.031 A 
ATOM     43  C   UNL A   1      42.799  32.495  32.785  1.00  0.00     0.049 A 
ATOM     44  C   UNL A   1      41.866  27.944  29.681  1.00  0.00     0.074 A 
ATOM     45  C   UNL A   1      43.957  32.510  33.544  1.00  0.00     0.029 A 
ATOM     46  N   UNL A   1      42.777  31.285  32.112  1.00  0.00    -0.354 N 
ATOM     47  N   UNL A   1      42.219  28.937  30.460  1.00  0.00    -0.248 NA
ATOM     48  C   UNL A   1      42.820  26.826  29.661  1.00  0.00     0.031 C 
ATOM     49  C   UNL A   1      44.654  31.321  33.302  1.00  0.00     0.029 A 
ATOM     50  C   UNL A   1      43.904  30.547  32.430  1.00  0.00     0.049 A 
ATOM     51  H   UNL A   1      42.066  30.993  31.496  1.00  0.00     0.167 HD
ATOM     52  C   UNL A   1      43.415  28.550  31.049  1.00  0.00     0.074 A 
ATOM     53  C   UNL A   1      43.720  27.225  30.547  1.00  0.00     0.031 C 
ATOM     54  C   UNL A   1      44.192  29.229  31.928  1.00  0.00     0.031 A 
BRANCH  41  55
ATOM     55  C   UNL A   1      41.967  34.793  33.437  1.00  0.00    -0.014 A 
ATOM     56  C   UNL A   1      42.820  35.799  32.953  1.00  0.00     0.009 A 
ATOM     57  C   UNL A   1      41.271  35.012  34.635  1.00  0.00     0.009 A 
ATOM     58  C   UNL A   1      43.007  36.977  33.677  1.00  0.00     0.001 A 
ATOM     59  C   UNL A   1      41.436  36.206  35.341  1.00  0.00     0.001 A 
ATOM     60  C   UNL A   1      42.312  37.182  34.868  1.00  0.00     0.000 A 
ENDBRANCH  41  55
BRANCH  42  61
ATOM     61  C   UNL A   1      40.419  26.564  28.027  1.00  0.00    -0.014 A 
ATOM     62  C   UNL A   1      41.001  26.443  26.755  1.00  0.00     0.009 A 
ATOM     63  C   UNL A   1      39.623  25.515  28.512  1.00  0.00     0.009 A 
ATOM     64  C   UNL A   1      40.766  25.309  25.973  1.00  0.00     0.001 A 
ATOM     65  C   UNL A   1      39.412  24.372  27.739  1.00  0.00     0.001 A 
ATOM     66  C   UNL A   1      39.974  24.274  26.467  1.00  0.00     0.000 A 
ENDBRANCH  42  61
BRANCH  54  67
ATOM     67  C   UNL A   1      45.420  28.530  32.437  1.00  0.00    -0.014 A 
ATOM     68  C   UNL A   1      45.383  27.728  33.587  1.00  0.00     0.009 A 
ATOM     69  C   UNL A   1      46.630  28.664  31.738  1.00  0.00     0.009 A 
ATOM     70  C   UNL A   1      46.543  27.106  34.051  1.00  0.00     0.001 A 
ATOM     71  C   UNL A   1      47.782  28.018  32.187  1.00  0.00     0.001 A 
ATOM     72  C   UNL A   1      47.741  27.250  33.349  1.00  0.00     0.000 A 
ENDBRANCH  54  67
ENDBRANCH  28  29
ENDBRANCH  20  23
ENDBRANCH  18  19
ENDBRANCH  17  18
ENDBRANCH   1  17
TORSDOF 13
ENDMDL
MODEL 2
REMARK VINA RESULT:      -9.4      1.340      6.520
REMARK SMILES O=C(CCC(=O)Nc1nncs1)NCCCNC(=O)c1ccc(-c2c3nc(c(-c4ccccc4)c4ccc([nH]4)c(-c4ccccc4)c4nc(c(-c5ccccc5)c5ccc2[nH]5)C=C4)C=C3)cc1
REMARK SMILES IDX 14 1 13 2 1 3 2 4 3 6 4 7 5 8 6 9 7 10 8 12 9 13 12 14 10 15
REMARK SMILES IDX 11 16 15 17 16 18 17 19 18 20 19 22 20 23 21 24 67 25 22 26
REMARK SMILES IDX 66 27 23 28 24 29 25 30 60 31 26 32 65 33 59 34 61 35 27 36
REMARK SMILES IDX 64 37 58 38 57 39 28 41 50 42 35 43 49 44 36 45 39 46 48 47
REMARK SMILES IDX 62 48 37 49 38 50 47 52 63 53 40 54 29 55 30 56 34 57 31 58
REMARK SMILES IDX 33 59 32 60 51 61 52 62 56 63 53 64 55 65 54 66 41 67 42 68
REMARK SMILES IDX 46 69 43 70 45 71 44 72
REMARK H PARENT 13 5 7 11 17 21 61 40 39 51
REMARK Flexibility Score: inf
ROOT
ATOM      1  C   UNL A   1      33.236  35.621  32.445  1.00  0.00     0.117 C 
ENDROOT
BRANCH   1   2
ATOM      2  N   UNL A   1      34.596  35.115  32.430  1.00  0.00    -0.356 N 
ATOM      3  O   UNL A   1      34.765  34.794  34.701  1.00  0.00    -0.275 OA
ATOM      4  C   UNL A   1      35.227  34.671  33.572  1.00  0.00     0.220 C 
ATOM      5  H   UNL A   1      35.084  35.087  31.576  1.00  0.00     0.163 HD
BRANCH   4   6
ATOM      6  C   UNL A   1      36.514  33.924  33.307  1.00  0.00     0.110 C 
BRANCH   6   7
ATOM      7  C   UNL A   1      36.367  32.426  33.572  1.00  0.00     0.110 C 
BRANCH   7   8
ATOM      8  C   UNL A   1      37.254  31.963  34.705  1.00  0.00     0.226 C 
ATOM      9  O   UNL A   1      37.392  32.716  35.680  1.00  0.00    -0.275 OA
ATOM     10  N   UNL A   1      38.006  30.838  34.705  1.00  0.00    -0.301 N 
ATOM     11  H   UNL A   1      38.479  30.698  35.557  1.00  0.00     0.172 HD
BRANCH  10  12
ATOM     12  C   UNL A   1      38.259  29.852  33.791  1.00  0.00     0.212 A 
ATOM     13  N   UNL A   1      37.346  28.950  33.497  1.00  0.00    -0.120 NA
ATOM     14  S   UNL A   1      39.722  29.640  32.954  1.00  0.00    -0.083 S 
ATOM     15  N   UNL A   1      37.848  27.931  32.714  1.00  0.00    -0.145 NA
ATOM     16  C   UNL A   1      39.100  28.153  32.379  1.00  0.00     0.204 A 
ENDBRANCH  10  12
ENDBRANCH   7   8
ENDBRANCH   6   7
ENDBRANCH   4   6
ENDBRANCH   1   2
BRANCH   1  17
ATOM     17  C   UNL A   1      32.924  36.560  31.293  1.00  0.00     0.042 C 
BRANCH  17  18
ATOM     18  C   UNL A   1      33.609  36.217  29.977  1.00  0.00     0.118 C 
BRANCH  18  19
ATOM     19  N   UNL A   1      32.799  35.448  29.044  1.00  0.00    -0.352 N 
ATOM     20  C   UNL A   1      33.083  34.244  28.433  1.00  0.00     0.251 C 
ATOM     21  H   UNL A   1      31.926  35.842  28.818  1.00  0.00     0.163 HD
ATOM     22  O   UNL A   1      32.283  33.749  27.650  1.00  0.00    -0.269 OA
BRANCH  20  23
ATOM     23  C   UNL A   1      34.384  33.577  28.675  1.00  0.00     0.039 A 
ATOM     24  C   UNL A   1      35.458  33.882  27.834  1.00  0.00     0.014 A 
ATOM     25  C   UNL A   1      34.566  32.690  29.739  1.00  0.00     0.014 A 
ATOM     26  C   UNL A   1      36.727  33.365  28.110  1.00  0.00     0.010 A 
ATOM     27  C   UNL A   1      35.847  32.257  30.070  1.00  0.00     0.010 A 
ATOM     28  C   UNL A   1      36.942  32.585  29.257  1.00  0.00    -0.014 A 
BRANCH  28  29
ATOM     29  C   UNL A   1      38.300  32.095  29.613  1.00  0.00     0.031 A 
ATOM     30  C   UNL A   1      38.758  30.734  29.161  1.00  0.00     0.074 A 
ATOM     31  C   UNL A   1      39.103  32.845  30.395  1.00  0.00     0.049 A 
ATOM     32  N   UNL A   1      39.890  30.120  29.401  1.00  0.00    -0.248 NA
ATOM     33  C   UNL A   1      37.808  29.945  28.359  1.00  0.00     0.031 C 
ATOM     34  C   UNL A   1      38.765  34.155  30.956  1.00  0.00     0.029 A 
ATOM     35  N   UNL A   1      40.376  32.608  30.852  1.00  0.00    -0.354 N 
ATOM     36  C   UNL A   1      39.774  28.870  28.806  1.00  0.00     0.074 A 
ATOM     37  C   UNL A   1      38.445  28.790  28.243  1.00  0.00     0.031 C 
ATOM     38  C   UNL A   1      39.818  34.623  31.646  1.00  0.00     0.029 A 
ATOM     39  C   UNL A   1      40.892  33.637  31.605  1.00  0.00     0.049 A 
ATOM     40  H   UNL A   1      40.873  31.781  30.660  1.00  0.00     0.167 HD
ATOM     41  C   UNL A   1      40.698  27.883  28.709  1.00  0.00     0.031 A 
ATOM     42  C   UNL A   1      42.098  33.775  32.187  1.00  0.00     0.031 A 
ATOM     43  C   UNL A   1      42.031  27.967  29.240  1.00  0.00     0.049 A 
ATOM     44  C   UNL A   1      43.120  32.683  32.032  1.00  0.00     0.074 A 
ATOM     45  C   UNL A   1      43.060  27.046  29.141  1.00  0.00     0.029 A 
ATOM     46  N   UNL A   1      42.525  29.042  29.961  1.00  0.00    -0.354 N 
ATOM     47  N   UNL A   1      43.017  31.535  31.407  1.00  0.00    -0.248 NA
ATOM     48  C   UNL A   1      44.433  32.919  32.649  1.00  0.00     0.031 C 
ATOM     49  C   UNL A   1      44.166  27.549  29.835  1.00  0.00     0.029 A 
ATOM     50  C   UNL A   1      43.840  28.805  30.321  1.00  0.00     0.049 A 
ATOM     51  H   UNL A   1      42.016  29.855  30.185  1.00  0.00     0.167 HD
ATOM     52  C   UNL A   1      44.260  30.929  31.525  1.00  0.00     0.074 A 
ATOM     53  C   UNL A   1      45.104  31.841  32.269  1.00  0.00     0.031 C 
ATOM     54  C   UNL A   1      44.669  29.724  31.057  1.00  0.00     0.031 A 
BRANCH  41  55
ATOM     55  C   UNL A   1      40.287  26.628  27.991  1.00  0.00    -0.014 A 
ATOM     56  C   UNL A   1      39.505  25.650  28.627  1.00  0.00     0.009 A 
ATOM     57  C   UNL A   1      40.673  26.425  26.658  1.00  0.00     0.009 A 
ATOM     58  C   UNL A   1      39.156  24.476  27.958  1.00  0.00     0.001 A 
ATOM     59  C   UNL A   1      40.296  25.263  25.980  1.00  0.00     0.001 A 
ATOM     60  C   UNL A   1      39.549  24.285  26.634  1.00  0.00     0.000 A 
ENDBRANCH  41  55
BRANCH  42  61
ATOM     61  C   UNL A   1      42.428  35.017  32.933  1.00  0.00    -0.014 A 
ATOM     62  C   UNL A   1      41.975  35.192  34.250  1.00  0.00     0.009 A 
ATOM     63  C   UNL A   1      43.181  36.037  32.332  1.00  0.00     0.009 A 
ATOM     64  C   UNL A   1      42.245  36.377  34.940  1.00  0.00     0.001 A 
ATOM     65  C   UNL A   1      43.471  37.209  33.034  1.00  0.00     0.001 A 
ATOM     66  C   UNL A   1      42.995  37.382  34.332  1.00  0.00     0.000 A 
ENDBRANCH  42  61
BRANCH  54  67
ATOM     67  C   UNL A   1      46.102  29.347  31.296  1.00  0.00    -0.014 A 
ATOM     68  C   UNL A   1      46.516  28.771  32.507  1.00  0.00     0.009 A 
ATOM     69  C   UNL A   1      47.050  29.556  30.282  1.00  0.00     0.009 A 
ATOM     70  C   UNL A   1      47.859  28.449  32.713  1.00  0.00     0.001 A 
ATOM     71  C   UNL A   1      48.387  29.207  30.479  1.00  0.00     0.001 A 
ATOM     72  C   UNL A   1      48.792  28.665  31.697  1.00  0.00     0.000 A 
ENDBRANCH  54  67
ENDBRANCH  28  29
ENDBRANCH  20  23
ENDBRANCH  18  19
ENDBRANCH  17  18
ENDBRANCH   1  17
TORSDOF 13
ENDMDL
MODEL 3
REMARK VINA RESULT:      -9.2      6.470     11.954
REMARK SMILES O=C(CCC(=O)Nc1nncs1)NCCCNC(=O)c1ccc(-c2c3nc(c(-c4ccccc4)c4ccc([nH]4)c(-c4ccccc4)c4nc(c(-c5ccccc5)c5ccc2[nH]5)C=C4)C=C3)cc1
REMARK SMILES IDX 14 1 13 2 1 3 2 4 3 6 4 7 5 8 6 9 7 10 8 12 9 13 12 14 10 15
REMARK SMILES IDX 11 16 15 17 16 18 17 19 18 20 19 22 20 23 21 24 67 25 22 26
REMARK SMILES IDX 66 27 23 28 24 29 25 30 60 31 26 32 65 33 59 34 61 35 27 36
REMARK SMILES IDX 64 37 58 38 57 39 28 41 50 42 35 43 49 44 36 45 39 46 48 47
REMARK SMILES IDX 62 48 37 49 38 50 47 52 63 53 40 54 29 55 30 56 34 57 31 58
REMARK SMILES IDX 33 59 32 60 51 61 52 62 56 63 53 64 55 65 54 66 41 67 42 68
REMARK SMILES IDX 46 69 43 70 45 71 44 72
REMARK H PARENT 13 5 7 11 17 21 61 40 39 51
REMARK Flexibility Score: inf
ROOT
ATOM      1  C   UNL A   1      37.116  22.047  24.489  1.00  0.00     0.117 C 
ENDROOT
BRANCH   1   2
ATOM      2  N   UNL A   1      35.666  22.053  24.536  1.00  0.00    -0.356 N 
ATOM      3  O   UNL A   1      35.367  23.530  22.799  1.00  0.00    -0.275 OA
ATOM      4  C   UNL A   1      34.904  22.751  23.625  1.00  0.00     0.220 C 
ATOM      5  H   UNL A   1      35.211  21.541  25.243  1.00  0.00     0.163 HD
BRANCH   4   6
ATOM      6  C   UNL A   1      33.433  22.403  23.664  1.00  0.00     0.110 C 
BRANCH   6   7
ATOM      7  C   UNL A   1      33.204  20.949  24.074  1.00  0.00     0.110 C 
BRANCH   7   8
ATOM      8  C   UNL A   1      32.418  20.186  23.032  1.00  0.00     0.226 C 
ATOM      9  O   UNL A   1      31.684  20.832  22.269  1.00  0.00    -0.275 OA
ATOM     10  N   UNL A   1      32.358  18.838  22.923  1.00  0.00    -0.301 N 
ATOM     11  H   UNL A   1      31.824  18.543  22.150  1.00  0.00     0.172 HD
BRANCH  10  12
ATOM     12  C   UNL A   1      32.870  17.794  23.643  1.00  0.00     0.212 A 
ATOM     13  N   UNL A   1      33.668  16.911  23.080  1.00  0.00    -0.120 NA
ATOM     14  S   UNL A   1      32.553  17.481  25.282  1.00  0.00    -0.083 S 
ATOM     15  N   UNL A   1      33.918  15.830  23.902  1.00  0.00    -0.145 NA
ATOM     16  C   UNL A   1      33.364  15.987  25.085  1.00  0.00     0.204 A 
ENDBRANCH  10  12
ENDBRANCH   7   8
ENDBRANCH   6   7
ENDBRANCH   4   6
ENDBRANCH   1   2
BRANCH   1  17
ATOM     17  C   UNL A   1      37.724  20.667  24.663  1.00  0.00     0.042 C 
BRANCH  17  18
ATOM     18  C   UNL A   1      38.640  20.511  25.869  1.00  0.00     0.118 C 
BRANCH  18  19
ATOM     19  N   UNL A   1      39.717  19.548  25.703  1.00  0.00    -0.352 N 
ATOM     20  C   UNL A   1      41.053  19.671  26.026  1.00  0.00     0.251 C 
ATOM     21  H   UNL A   1      39.456  18.686  25.304  1.00  0.00     0.163 HD
ATOM     22  O   UNL A   1      41.829  18.755  25.793  1.00  0.00    -0.269 OA
BRANCH  20  23
ATOM     23  C   UNL A   1      41.563  20.938  26.602  1.00  0.00     0.039 A 
ATOM     24  C   UNL A   1      42.006  21.938  25.731  1.00  0.00     0.014 A 
ATOM     25  C   UNL A   1      41.573  21.165  27.980  1.00  0.00     0.014 A 
ATOM     26  C   UNL A   1      42.377  23.187  26.235  1.00  0.00     0.010 A 
ATOM     27  C   UNL A   1      41.847  22.439  28.472  1.00  0.00     0.010 A 
ATOM     28  C   UNL A   1      42.257  23.463  27.607  1.00  0.00    -0.014 A 
BRANCH  28  29
ATOM     29  C   UNL A   1      42.567  24.811  28.152  1.00  0.00     0.031 A 
ATOM     30  C   UNL A   1      43.976  25.164  28.549  1.00  0.00     0.074 A 
ATOM     31  C   UNL A   1      41.575  25.703  28.349  1.00  0.00     0.049 A 
ATOM     32  N   UNL A   1      44.435  26.272  29.075  1.00  0.00    -0.248 NA
ATOM     33  C   UNL A   1      45.000  24.121  28.361  1.00  0.00     0.031 C 
ATOM     34  C   UNL A   1      40.156  25.475  28.068  1.00  0.00     0.029 A 
ATOM     35  N   UNL A   1      41.613  26.987  28.834  1.00  0.00    -0.354 N 
ATOM     36  C   UNL A   1      45.787  26.049  29.302  1.00  0.00     0.074 A 
ATOM     37  C   UNL A   1      46.064  24.685  28.913  1.00  0.00     0.031 C 
ATOM     38  C   UNL A   1      39.466  26.594  28.345  1.00  0.00     0.029 A 
ATOM     39  C   UNL A   1      40.386  27.606  28.853  1.00  0.00     0.049 A 
ATOM     40  H   UNL A   1      42.441  27.423  29.139  1.00  0.00     0.167 HD
ATOM     41  C   UNL A   1      46.727  26.908  29.768  1.00  0.00     0.031 A 
ATOM     42  C   UNL A   1      40.041  28.852  29.228  1.00  0.00     0.031 A 
ATOM     43  C   UNL A   1      46.465  28.275  30.129  1.00  0.00     0.049 A 
ATOM     44  C   UNL A   1      41.106  29.800  29.705  1.00  0.00     0.074 A 
ATOM     45  C   UNL A   1      47.360  29.242  30.555  1.00  0.00     0.029 A 
ATOM     46  N   UNL A   1      45.216  28.873  30.097  1.00  0.00    -0.354 N 
ATOM     47  N   UNL A   1      42.393  29.594  29.849  1.00  0.00    -0.248 NA
ATOM     48  C   UNL A   1      40.671  31.161  30.050  1.00  0.00     0.031 C 
ATOM     49  C   UNL A   1      46.645  30.416  30.814  1.00  0.00     0.029 A 
ATOM     50  C   UNL A   1      45.313  30.193  30.502  1.00  0.00     0.049 A 
ATOM     51  H   UNL A   1      44.381  28.424  29.826  1.00  0.00     0.167 HD
ATOM     52  C   UNL A   1      42.925  30.806  30.268  1.00  0.00     0.074 A 
ATOM     53  C   UNL A   1      41.824  31.745  30.340  1.00  0.00     0.031 C 
ATOM     54  C   UNL A   1      44.211  31.116  30.564  1.00  0.00     0.031 A 
BRANCH  41  55
ATOM     55  C   UNL A   1      48.129  26.383  29.905  1.00  0.00    -0.014 A 
ATOM     56  C   UNL A   1      49.022  26.405  28.821  1.00  0.00     0.009 A 
ATOM     57  C   UNL A   1      48.569  25.875  31.136  1.00  0.00     0.009 A 
ATOM     58  C   UNL A   1      50.311  25.886  28.955  1.00  0.00     0.001 A 
ATOM     59  C   UNL A   1      49.869  25.385  31.276  1.00  0.00     0.001 A 
ATOM     60  C   UNL A   1      50.734  25.381  30.183  1.00  0.00     0.000 A 
ENDBRANCH  41  55
BRANCH  42  61
ATOM     61  C   UNL A   1      38.627  29.298  29.124  1.00  0.00    -0.014 A 
ATOM     62  C   UNL A   1      37.767  29.187  30.228  1.00  0.00     0.009 A 
ATOM     63  C   UNL A   1      38.125  29.821  27.923  1.00  0.00     0.009 A 
ATOM     64  C   UNL A   1      36.426  29.562  30.123  1.00  0.00     0.001 A 
ATOM     65  C   UNL A   1      36.791  30.220  27.828  1.00  0.00     0.001 A 
ATOM     66  C   UNL A   1      35.940  30.081  28.923  1.00  0.00     0.000 A 
ENDBRANCH  42  61
BRANCH  54  67
ATOM     67  C   UNL A   1      44.500  32.539  30.947  1.00  0.00    -0.014 A 
ATOM     68  C   UNL A   1      44.494  32.952  32.288  1.00  0.00     0.009 A 
ATOM     69  C   UNL A   1      44.805  33.475  29.947  1.00  0.00     0.009 A 
ATOM     70  C   UNL A   1      44.746  34.285  32.616  1.00  0.00     0.001 A 
ATOM     71  C   UNL A   1      45.085  34.801  30.279  1.00  0.00     0.001 A 
ATOM     72  C   UNL A   1      45.044  35.207  31.612  1.00  0.00     0.000 A 
ENDBRANCH  54  67
ENDBRANCH  28  29
ENDBRANCH  20  23
ENDBRANCH  18  19
ENDBRANCH  17  18
ENDBRANCH   1  17
TORSDOF 13
ENDMDL
