MODEL 1
REMARK VINA RESULT:     -11.1      0.000      0.000
REMARK SMILES C[C@H](C1CC1)n1c(SCC(=O)NCCCNC(=O)c2ccc(-c3c4nc(c(-c5ccccc5)c5ccc([nH]5)c(-c5ccccc5)c5nc(c(-c6ccccc6)c6ccc3[nH]6)C=C5)C=C4)cc2)nc2cc(Cl)c(Cl)cc21
REMARK SMILES IDX 13 1 12 2 10 3 11 4 9 6 8 7 7 8 6 9 75 10 67 11 68 12 74 13
REMARK SMILES IDX 69 14 72 15 70 16 73 17 71 18 2 19 1 20 3 21 4 22 5 23 14 24
REMARK SMILES IDX 15 25 16 26 17 27 18 29 19 30 20 31 66 32 21 33 65 34 22 35
REMARK SMILES IDX 23 36 24 37 59 38 25 39 64 40 58 41 60 42 26 43 63 44 57 45
REMARK SMILES IDX 56 46 27 48 49 49 34 50 48 51 35 52 38 53 47 54 61 55 36 56
REMARK SMILES IDX 37 57 46 59 62 60 39 61 28 62 29 63 33 64 30 65 32 66 31 67
REMARK SMILES IDX 50 68 51 69 55 70 52 71 54 72 53 73 40 74 41 75 45 76 42 77
REMARK SMILES IDX 44 78 43 79
REMARK H PARENT 12 5 16 28 60 47 38 58
REMARK Flexibility Score: inf
ROOT
ATOM      1  C   UNL A   1      33.670  27.833  25.605  1.00  0.00     0.117 C 
ENDROOT
BRANCH   1   2
ATOM      2  N   UNL A   1      33.420  27.339  24.264  1.00  0.00    -0.355 N 
ATOM      3  C   UNL A   1      32.226  26.896  23.750  1.00  0.00     0.230 C 
ATOM      4  O   UNL A   1      31.988  27.170  22.568  1.00  0.00    -0.274 OA
ATOM      5  H   UNL A   1      34.193  27.319  23.655  1.00  0.00     0.163 HD
BRANCH   3   6
ATOM      6  C   UNL A   1      31.220  26.082  24.573  1.00  0.00     0.178 C 
BRANCH   6   7
ATOM      7  S   UNL A   1      31.487  24.327  24.454  1.00  0.00    -0.078 SA
BRANCH   7   8
ATOM      8  C   UNL A   1      32.905  23.449  24.898  1.00  0.00     0.169 A 
ATOM      9  N   UNL A   1      33.531  22.251  24.533  1.00  0.00    -0.316 N 
ATOM     10  C   UNL A   1      34.854  22.342  25.013  1.00  0.00     0.071 A 
ATOM     11  N   UNL A   1      33.759  24.231  25.535  1.00  0.00    -0.222 NA
ATOM     12  C   UNL A   1      34.960  23.614  25.551  1.00  0.00     0.091 A 
ATOM     13  C   UNL A   1      35.968  21.484  24.999  1.00  0.00     0.050 A 
ATOM     14  C   UNL A   1      36.189  24.105  26.011  1.00  0.00     0.052 A 
ATOM     15  C   UNL A   1      37.210  21.995  25.410  1.00  0.00     0.061 A 
ATOM     16  C   UNL A   1      37.321  23.295  25.908  1.00  0.00     0.061 A 
ATOM     17  Cl  UNL A   1      38.581  20.953  25.237  1.00  0.00    -0.083 Cl
ATOM     18  Cl  UNL A   1      38.831  23.962  26.420  1.00  0.00    -0.083 Cl
BRANCH   9  19
ATOM     19  C   UNL A   1      33.076  21.038  23.804  1.00  0.00     0.090 C 
ATOM     20  C   UNL A   1      32.096  21.356  22.650  1.00  0.00     0.032 C 
BRANCH  19  21
ATOM     21  C   UNL A   1      32.509  20.010  24.720  1.00  0.00     0.012 C 
ATOM     22  C   UNL A   1      32.290  18.627  24.146  1.00  0.00     0.006 C 
ATOM     23  C   UNL A   1      33.138  18.793  25.364  1.00  0.00     0.006 C 
ENDBRANCH  19  21
ENDBRANCH   9  19
ENDBRANCH   7   8
ENDBRANCH   6   7
ENDBRANCH   3   6
ENDBRANCH   1   2
BRANCH   1  24
ATOM     24  C   UNL A   1      33.256  29.273  25.904  1.00  0.00     0.042 C 
BRANCH  24  25
ATOM     25  C   UNL A   1      33.368  29.770  27.342  1.00  0.00     0.118 C 
BRANCH  25  26
ATOM     26  N   UNL A   1      33.832  31.127  27.541  1.00  0.00    -0.352 N 
ATOM     27  C   UNL A   1      35.035  31.726  27.771  1.00  0.00     0.251 C 
ATOM     28  H   UNL A   1      33.096  31.779  27.498  1.00  0.00     0.163 HD
ATOM     29  O   UNL A   1      35.043  32.962  27.676  1.00  0.00    -0.269 OA
BRANCH  27  30
ATOM     30  C   UNL A   1      36.286  31.046  28.194  1.00  0.00     0.039 A 
ATOM     31  C   UNL A   1      37.335  31.629  28.900  1.00  0.00     0.014 A 
ATOM     32  C   UNL A   1      36.414  29.696  27.805  1.00  0.00     0.014 A 
ATOM     33  C   UNL A   1      38.524  30.925  29.096  1.00  0.00     0.010 A 
ATOM     34  C   UNL A   1      37.583  28.975  28.033  1.00  0.00     0.010 A 
ATOM     35  C   UNL A   1      38.662  29.605  28.641  1.00  0.00    -0.014 A 
BRANCH  35  36
ATOM     36  C   UNL A   1      39.881  28.873  28.993  1.00  0.00     0.031 A 
ATOM     37  C   UNL A   1      40.136  28.792  30.458  1.00  0.00     0.074 A 
ATOM     38  C   UNL A   1      40.693  28.208  28.143  1.00  0.00     0.049 A 
ATOM     39  N   UNL A   1      41.122  29.314  31.108  1.00  0.00    -0.248 NA
ATOM     40  C   UNL A   1      39.118  28.160  31.311  1.00  0.00     0.031 C 
ATOM     41  C   UNL A   1      40.490  27.928  26.721  1.00  0.00     0.029 A 
ATOM     42  N   UNL A   1      41.862  27.553  28.418  1.00  0.00    -0.354 N 
ATOM     43  C   UNL A   1      40.949  28.944  32.437  1.00  0.00     0.074 A 
ATOM     44  C   UNL A   1      39.638  28.351  32.525  1.00  0.00     0.031 C 
ATOM     45  C   UNL A   1      41.367  26.974  26.324  1.00  0.00     0.029 A 
ATOM     46  C   UNL A   1      42.283  26.686  27.415  1.00  0.00     0.049 A 
ATOM     47  H   UNL A   1      42.363  27.684  29.254  1.00  0.00     0.167 HD
ATOM     48  C   UNL A   1      41.982  28.974  33.324  1.00  0.00     0.031 A 
ATOM     49  C   UNL A   1      43.279  25.766  27.497  1.00  0.00     0.031 A 
ATOM     50  C   UNL A   1      43.067  29.795  32.855  1.00  0.00     0.049 A 
ATOM     51  C   UNL A   1      44.185  26.176  28.592  1.00  0.00     0.074 A 
ATOM     52  C   UNL A   1      43.179  31.118  32.471  1.00  0.00     0.029 A 
ATOM     53  N   UNL A   1      44.183  29.167  32.356  1.00  0.00    -0.354 N 
ATOM     54  N   UNL A   1      44.958  27.221  28.536  1.00  0.00    -0.248 NA
ATOM     55  C   UNL A   1      43.930  25.651  29.924  1.00  0.00     0.031 C 
ATOM     56  C   UNL A   1      44.057  31.099  31.350  1.00  0.00     0.029 A 
ATOM     57  C   UNL A   1      44.495  29.785  31.173  1.00  0.00     0.049 A 
ATOM     58  H   UNL A   1      44.666  28.415  32.768  1.00  0.00     0.167 HD
ATOM     59  C   UNL A   1      44.900  27.758  29.811  1.00  0.00     0.074 A 
ATOM     60  C   UNL A   1      44.341  26.696  30.646  1.00  0.00     0.031 C 
ATOM     61  C   UNL A   1      45.038  29.100  30.021  1.00  0.00     0.031 A 
BRANCH  48  62
ATOM     62  C   UNL A   1      42.155  27.960  34.427  1.00  0.00    -0.014 A 
ATOM     63  C   UNL A   1      41.642  28.139  35.726  1.00  0.00     0.009 A 
ATOM     64  C   UNL A   1      42.598  26.666  34.098  1.00  0.00     0.009 A 
ATOM     65  C   UNL A   1      41.547  27.086  36.638  1.00  0.00     0.001 A 
ATOM     66  C   UNL A   1      42.466  25.598  34.995  1.00  0.00     0.001 A 
ATOM     67  C   UNL A   1      41.934  25.809  36.262  1.00  0.00     0.000 A 
ENDBRANCH  48  62
BRANCH  49  68
ATOM     68  C   UNL A   1      43.324  24.390  26.944  1.00  0.00    -0.014 A 
ATOM     69  C   UNL A   1      43.683  24.175  25.601  1.00  0.00     0.009 A 
ATOM     70  C   UNL A   1      42.707  23.327  27.630  1.00  0.00     0.009 A 
ATOM     71  C   UNL A   1      43.379  22.973  24.951  1.00  0.00     0.001 A 
ATOM     72  C   UNL A   1      42.396  22.127  26.976  1.00  0.00     0.001 A 
ATOM     73  C   UNL A   1      42.714  21.959  25.631  1.00  0.00     0.000 A 
ENDBRANCH  49  68
BRANCH  61  74
ATOM     74  C   UNL A   1      45.509  29.981  28.883  1.00  0.00    -0.014 A 
ATOM     75  C   UNL A   1      44.547  30.451  27.975  1.00  0.00     0.009 A 
ATOM     76  C   UNL A   1      46.865  30.196  28.578  1.00  0.00     0.009 A 
ATOM     77  C   UNL A   1      44.921  31.092  26.792  1.00  0.00     0.001 A 
ATOM     78  C   UNL A   1      47.240  30.868  27.409  1.00  0.00     0.001 A 
ATOM     79  C   UNL A   1      46.269  31.302  26.510  1.00  0.00     0.000 A 
ENDBRANCH  61  74
ENDBRANCH  35  36
ENDBRANCH  27  30
ENDBRANCH  25  26
ENDBRANCH  24  25
ENDBRANCH   1  24
TORSDOF 14
ENDMDL
MODEL 2
REMARK VINA RESULT:     -10.9      3.702      6.722
REMARK SMILES C[C@H](C1CC1)n1c(SCC(=O)NCCCNC(=O)c2ccc(-c3c4nc(c(-c5ccccc5)c5ccc([nH]5)c(-c5ccccc5)c5nc(c(-c6ccccc6)c6ccc3[nH]6)C=C5)C=C4)cc2)nc2cc(Cl)c(Cl)cc21
REMARK SMILES IDX 13 1 12 2 10 3 11 4 9 6 8 7 7 8 6 9 75 10 67 11 68 12 74 13
REMARK SMILES IDX 69 14 72 15 70 16 73 17 71 18 2 19 1 20 3 21 4 22 5 23 14 24
REMARK SMILES IDX 15 25 16 26 17 27 18 29 19 30 20 31 66 32 21 33 65 34 22 35
REMARK SMILES IDX 23 36 24 37 59 38 25 39 64 40 58 41 60 42 26 43 63 44 57 45
REMARK SMILES IDX 56 46 27 48 49 49 34 50 48 51 35 52 38 53 47 54 61 55 36 56
REMARK SMILES IDX 37 57 46 59 62 60 39 61 28 62 29 63 33 64 30 65 32 66 31 67
REMARK SMILES IDX 50 68 51 69 55 70 52 71 54 72 53 73 40 74 41 75 45 76 42 77
REMARK SMILES IDX 44 78 43 79
REMARK H PARENT 12 5 16 28 60 47 38 58
REMARK Flexibility Score: inf
ROOT
ATOM      1  C   UNL A   1      37.923  34.108  32.593  1.00  0.00     0.117 C 
ENDROOT
BRANCH   1   2
ATOM      2  N   UNL A   1      37.852  33.627  31.227  1.00  0.00    -0.355 N 
ATOM      3  C   UNL A   1      36.841  33.843  30.322  1.00  0.00     0.230 C 
ATOM      4  O   UNL A   1      37.171  34.009  29.142  1.00  0.00    -0.274 OA
ATOM      5  H   UNL A   1      38.612  33.087  30.913  1.00  0.00     0.163 HD
BRANCH   3   6
ATOM      6  C   UNL A   1      35.361  33.864  30.721  1.00  0.00     0.178 C 
BRANCH   6   7
ATOM      7  S   UNL A   1      34.275  33.438  29.378  1.00  0.00    -0.078 SA
BRANCH   7   8
ATOM      8  C   UNL A   1      34.376  32.059  28.344  1.00  0.00     0.169 A 
ATOM      9  N   UNL A   1      35.166  30.908  28.236  1.00  0.00    -0.316 N 
ATOM     10  C   UNL A   1      34.451  30.022  27.403  1.00  0.00     0.071 A 
ATOM     11  N   UNL A   1      33.258  31.907  27.656  1.00  0.00    -0.222 NA
ATOM     12  C   UNL A   1      33.249  30.659  27.142  1.00  0.00     0.091 A 
ATOM     13  C   UNL A   1      34.697  28.735  26.892  1.00  0.00     0.050 A 
ATOM     14  C   UNL A   1      32.224  30.010  26.441  1.00  0.00     0.052 A 
ATOM     15  C   UNL A   1      33.650  28.066  26.237  1.00  0.00     0.061 A 
ATOM     16  C   UNL A   1      32.423  28.694  26.017  1.00  0.00     0.061 A 
ATOM     17  Cl  UNL A   1      33.948  26.430  25.756  1.00  0.00    -0.083 Cl
ATOM     18  Cl  UNL A   1      31.110  27.904  25.220  1.00  0.00    -0.083 Cl
BRANCH   9  19
ATOM     19  C   UNL A   1      36.486  30.516  28.795  1.00  0.00     0.090 C 
ATOM     20  C   UNL A   1      37.425  29.874  27.746  1.00  0.00     0.032 C 
BRANCH  19  21
ATOM     21  C   UNL A   1      36.354  29.646  29.996  1.00  0.00     0.012 C 
ATOM     22  C   UNL A   1      37.556  28.806  30.370  1.00  0.00     0.006 C 
ATOM     23  C   UNL A   1      36.974  29.748  31.374  1.00  0.00     0.006 C 
ENDBRANCH  19  21
ENDBRANCH   9  19
ENDBRANCH   7   8
ENDBRANCH   6   7
ENDBRANCH   3   6
ENDBRANCH   1   2
BRANCH   1  24
ATOM     24  C   UNL A   1      39.067  33.581  33.457  1.00  0.00     0.042 C 
BRANCH  24  25
ATOM     25  C   UNL A   1      40.434  34.246  33.326  1.00  0.00     0.118 C 
BRANCH  25  26
ATOM     26  N   UNL A   1      40.826  34.700  32.008  1.00  0.00    -0.352 N 
ATOM     27  C   UNL A   1      41.169  34.107  30.829  1.00  0.00     0.251 C 
ATOM     28  H   UNL A   1      40.851  35.682  31.948  1.00  0.00     0.163 HD
ATOM     29  O   UNL A   1      41.241  34.864  29.851  1.00  0.00    -0.269 OA
BRANCH  27  30
ATOM     30  C   UNL A   1      41.531  32.679  30.640  1.00  0.00     0.039 A 
ATOM     31  C   UNL A   1      42.821  32.175  30.499  1.00  0.00     0.014 A 
ATOM     32  C   UNL A   1      40.451  31.775  30.566  1.00  0.00     0.014 A 
ATOM     33  C   UNL A   1      43.016  30.833  30.168  1.00  0.00     0.010 A 
ATOM     34  C   UNL A   1      40.642  30.427  30.274  1.00  0.00     0.010 A 
ATOM     35  C   UNL A   1      41.927  29.960  30.028  1.00  0.00    -0.014 A 
BRANCH  35  36
ATOM     36  C   UNL A   1      42.201  28.538  29.812  1.00  0.00     0.031 A 
ATOM     37  C   UNL A   1      42.917  27.881  30.939  1.00  0.00     0.074 A 
ATOM     38  C   UNL A   1      41.781  27.789  28.769  1.00  0.00     0.049 A 
ATOM     39  N   UNL A   1      44.105  27.375  30.920  1.00  0.00    -0.248 NA
ATOM     40  C   UNL A   1      42.288  27.894  32.269  1.00  0.00     0.031 C 
ATOM     41  C   UNL A   1      40.849  28.154  27.702  1.00  0.00     0.029 A 
ATOM     42  N   UNL A   1      42.050  26.474  28.501  1.00  0.00    -0.354 N 
ATOM     43  C   UNL A   1      44.325  26.853  32.190  1.00  0.00     0.074 A 
ATOM     44  C   UNL A   1      43.234  27.314  33.012  1.00  0.00     0.031 C 
ATOM     45  C   UNL A   1      40.453  27.032  27.051  1.00  0.00     0.029 A 
ATOM     46  C   UNL A   1      41.209  25.898  27.555  1.00  0.00     0.049 A 
ATOM     47  H   UNL A   1      42.778  25.978  28.940  1.00  0.00     0.167 HD
ATOM     48  C   UNL A   1      45.285  25.914  32.417  1.00  0.00     0.031 A 
ATOM     49  C   UNL A   1      41.109  24.579  27.248  1.00  0.00     0.031 A 
ATOM     50  C   UNL A   1      46.254  25.871  31.353  1.00  0.00     0.049 A 
ATOM     51  C   UNL A   1      42.368  23.920  27.663  1.00  0.00     0.074 A 
ATOM     52  C   UNL A   1      47.105  26.801  30.786  1.00  0.00     0.029 A 
ATOM     53  N   UNL A   1      46.176  24.837  30.450  1.00  0.00    -0.354 N 
ATOM     54  N   UNL A   1      43.513  24.119  27.079  1.00  0.00    -0.248 NA
ATOM     55  C   UNL A   1      42.433  23.349  28.998  1.00  0.00     0.031 C 
ATOM     56  C   UNL A   1      47.070  26.522  29.389  1.00  0.00     0.029 A 
ATOM     57  C   UNL A   1      46.274  25.390  29.200  1.00  0.00     0.049 A 
ATOM     58  H   UNL A   1      46.069  23.882  30.660  1.00  0.00     0.167 HD
ATOM     59  C   UNL A   1      44.427  24.147  28.118  1.00  0.00     0.074 A 
ATOM     60  C   UNL A   1      43.724  23.564  29.259  1.00  0.00     0.031 C 
ATOM     61  C   UNL A   1      45.565  24.899  28.040  1.00  0.00     0.031 A 
BRANCH  48  62
ATOM     62  C   UNL A   1      45.124  24.789  33.408  1.00  0.00    -0.014 A 
ATOM     63  C   UNL A   1      45.688  24.811  34.698  1.00  0.00     0.009 A 
ATOM     64  C   UNL A   1      44.155  23.799  33.163  1.00  0.00     0.009 A 
ATOM     65  C   UNL A   1      45.292  23.920  35.697  1.00  0.00     0.001 A 
ATOM     66  C   UNL A   1      43.724  22.931  34.174  1.00  0.00     0.001 A 
ATOM     67  C   UNL A   1      44.290  22.997  35.443  1.00  0.00     0.000 A 
ENDBRANCH  48  62
BRANCH  49  68
ATOM     68  C   UNL A   1      39.895  23.782  26.946  1.00  0.00    -0.014 A 
ATOM     69  C   UNL A   1      40.006  22.428  26.583  1.00  0.00     0.009 A 
ATOM     70  C   UNL A   1      38.667  24.423  26.700  1.00  0.00     0.009 A 
ATOM     71  C   UNL A   1      38.957  21.760  25.938  1.00  0.00     0.001 A 
ATOM     72  C   UNL A   1      37.619  23.756  26.048  1.00  0.00     0.001 A 
ATOM     73  C   UNL A   1      37.774  22.431  25.649  1.00  0.00     0.000 A 
ENDBRANCH  49  68
BRANCH  61  74
ATOM     74  C   UNL A   1      45.958  25.508  26.711  1.00  0.00    -0.014 A 
ATOM     75  C   UNL A   1      47.037  24.935  26.019  1.00  0.00     0.009 A 
ATOM     76  C   UNL A   1      45.432  26.719  26.227  1.00  0.00     0.009 A 
ATOM     77  C   UNL A   1      47.590  25.557  24.898  1.00  0.00     0.001 A 
ATOM     78  C   UNL A   1      45.965  27.327  25.083  1.00  0.00     0.001 A 
ATOM     79  C   UNL A   1      47.053  26.753  24.429  1.00  0.00     0.000 A 
ENDBRANCH  61  74
ENDBRANCH  35  36
ENDBRANCH  27  30
ENDBRANCH  25  26
ENDBRANCH  24  25
ENDBRANCH   1  24
TORSDOF 14
ENDMDL
MODEL 3
REMARK VINA RESULT:     -10.9      3.099      8.014
REMARK SMILES C[C@H](C1CC1)n1c(SCC(=O)NCCCNC(=O)c2ccc(-c3c4nc(c(-c5ccccc5)c5ccc([nH]5)c(-c5ccccc5)c5nc(c(-c6ccccc6)c6ccc3[nH]6)C=C5)C=C4)cc2)nc2cc(Cl)c(Cl)cc21
REMARK SMILES IDX 13 1 12 2 10 3 11 4 9 6 8 7 7 8 6 9 75 10 67 11 68 12 74 13
REMARK SMILES IDX 69 14 72 15 70 16 73 17 71 18 2 19 1 20 3 21 4 22 5 23 14 24
REMARK SMILES IDX 15 25 16 26 17 27 18 29 19 30 20 31 66 32 21 33 65 34 22 35
REMARK SMILES IDX 23 36 24 37 59 38 25 39 64 40 58 41 60 42 26 43 63 44 57 45
REMARK SMILES IDX 56 46 27 48 49 49 34 50 48 51 35 52 38 53 47 54 61 55 36 56
REMARK SMILES IDX 37 57 46 59 62 60 39 61 28 62 29 63 33 64 30 65 32 66 31 67
REMARK SMILES IDX 50 68 51 69 55 70 52 71 54 72 53 73 40 74 41 75 45 76 42 77
REMARK SMILES IDX 44 78 43 79
REMARK H PARENT 12 5 16 28 60 47 38 58
REMARK Flexibility Score: inf
ROOT
ATOM      1  C   UNL A   1      36.935  22.795  26.237  1.00  0.00     0.117 C 
ENDROOT
BRANCH   1   2
ATOM      2  N   UNL A   1      35.780  21.917  26.271  1.00  0.00    -0.355 N 
ATOM      3  C   UNL A   1      34.740  21.878  25.374  1.00  0.00     0.230 C 
ATOM      4  O   UNL A   1      34.271  20.765  25.108  1.00  0.00    -0.274 OA
ATOM      5  H   UNL A   1      35.737  21.279  27.019  1.00  0.00     0.163 HD
BRANCH   3   6
ATOM      6  C   UNL A   1      34.153  23.139  24.729  1.00  0.00     0.178 C 
BRANCH   6   7
ATOM      7  S   UNL A   1      33.238  24.143  25.878  1.00  0.00    -0.078 SA
BRANCH   7   8
ATOM      8  C   UNL A   1      32.908  25.833  25.763  1.00  0.00     0.169 A 
ATOM      9  N   UNL A   1      31.781  26.665  25.760  1.00  0.00    -0.316 N 
ATOM     10  C   UNL A   1      32.257  27.965  26.030  1.00  0.00     0.071 A 
ATOM     11  N   UNL A   1      33.992  26.540  26.028  1.00  0.00    -0.222 NA
ATOM     12  C   UNL A   1      33.614  27.814  26.265  1.00  0.00     0.091 A 
ATOM     13  C   UNL A   1      31.655  29.232  26.138  1.00  0.00     0.050 A 
ATOM     14  C   UNL A   1      34.398  28.893  26.696  1.00  0.00     0.052 A 
ATOM     15  C   UNL A   1      32.430  30.299  26.622  1.00  0.00     0.061 A 
ATOM     16  C   UNL A   1      33.787  30.132  26.902  1.00  0.00     0.061 A 
ATOM     17  Cl  UNL A   1      31.613  31.803  26.880  1.00  0.00    -0.083 Cl
ATOM     18  Cl  UNL A   1      34.772  31.419  27.501  1.00  0.00    -0.083 Cl
BRANCH   9  19
ATOM     19  C   UNL A   1      30.331  26.424  25.542  1.00  0.00     0.090 C 
ATOM     20  C   UNL A   1      29.842  25.082  26.138  1.00  0.00     0.032 C 
BRANCH  19  21
ATOM     21  C   UNL A   1      29.949  26.543  24.108  1.00  0.00     0.012 C 
ATOM     22  C   UNL A   1      28.469  26.544  23.791  1.00  0.00     0.006 C 
ATOM     23  C   UNL A   1      29.321  27.683  23.335  1.00  0.00     0.006 C 
ENDBRANCH  19  21
ENDBRANCH   9  19
ENDBRANCH   7   8
ENDBRANCH   6   7
ENDBRANCH   3   6
ENDBRANCH   1   2
BRANCH   1  24
ATOM     24  C   UNL A   1      38.184  22.274  25.530  1.00  0.00     0.042 C 
BRANCH  24  25
ATOM     25  C   UNL A   1      39.341  21.771  26.388  1.00  0.00     0.118 C 
BRANCH  25  26
ATOM     26  N   UNL A   1      40.682  22.016  25.903  1.00  0.00    -0.352 N 
ATOM     27  C   UNL A   1      41.634  22.975  26.094  1.00  0.00     0.251 C 
ATOM     28  H   UNL A   1      40.983  21.316  25.280  1.00  0.00     0.163 HD
ATOM     29  O   UNL A   1      42.758  22.709  25.645  1.00  0.00    -0.269 OA
BRANCH  27  30
ATOM     30  C   UNL A   1      41.420  24.309  26.710  1.00  0.00     0.039 A 
ATOM     31  C   UNL A   1      40.513  25.273  26.277  1.00  0.00     0.014 A 
ATOM     32  C   UNL A   1      42.246  24.619  27.811  1.00  0.00     0.014 A 
ATOM     33  C   UNL A   1      40.523  26.548  26.844  1.00  0.00     0.010 A 
ATOM     34  C   UNL A   1      42.233  25.877  28.407  1.00  0.00     0.010 A 
ATOM     35  C   UNL A   1      41.400  26.863  27.893  1.00  0.00    -0.014 A 
BRANCH  35  36
ATOM     36  C   UNL A   1      41.272  28.173  28.536  1.00  0.00     0.031 A 
ATOM     37  C   UNL A   1      42.327  29.147  28.142  1.00  0.00     0.074 A 
ATOM     38  C   UNL A   1      40.261  28.580  29.334  1.00  0.00     0.049 A 
ATOM     39  N   UNL A   1      43.234  29.664  28.903  1.00  0.00    -0.248 NA
ATOM     40  C   UNL A   1      42.463  29.493  26.719  1.00  0.00     0.031 C 
ATOM     41  C   UNL A   1      39.002  27.896  29.630  1.00  0.00     0.029 A 
ATOM     42  N   UNL A   1      40.121  29.771  29.992  1.00  0.00    -0.354 N 
ATOM     43  C   UNL A   1      43.963  30.533  28.099  1.00  0.00     0.074 A 
ATOM     44  C   UNL A   1      43.533  30.290  26.744  1.00  0.00     0.031 C 
ATOM     45  C   UNL A   1      38.141  28.772  30.204  1.00  0.00     0.029 A 
ATOM     46  C   UNL A   1      38.833  30.026  30.449  1.00  0.00     0.049 A 
ATOM     47  H   UNL A   1      40.870  30.395  30.131  1.00  0.00     0.167 HD
ATOM     48  C   UNL A   1      44.723  31.528  28.634  1.00  0.00     0.031 A 
ATOM     49  C   UNL A   1      38.360  31.200  30.944  1.00  0.00     0.031 A 
ATOM     50  C   UNL A   1      45.004  31.298  30.027  1.00  0.00     0.049 A 
ATOM     51  C   UNL A   1      39.518  31.989  31.421  1.00  0.00     0.074 A 
ATOM     52  C   UNL A   1      45.605  30.272  30.733  1.00  0.00     0.029 A 
ATOM     53  N   UNL A   1      44.302  32.027  30.957  1.00  0.00    -0.354 N 
ATOM     54  N   UNL A   1      40.230  31.669  32.461  1.00  0.00    -0.248 NA
ATOM     55  C   UNL A   1      40.140  32.919  30.493  1.00  0.00     0.031 C 
ATOM     56  C   UNL A   1      44.827  30.140  31.918  1.00  0.00     0.029 A 
ATOM     57  C   UNL A   1      43.857  31.145  31.906  1.00  0.00     0.049 A 
ATOM     58  H   UNL A   1      44.147  32.999  30.943  1.00  0.00     0.167 HD
ATOM     59  C   UNL A   1      41.530  31.968  32.091  1.00  0.00     0.074 A 
ATOM     60  C   UNL A   1      41.402  32.829  30.916  1.00  0.00     0.031 C 
ATOM     61  C   UNL A   1      42.588  31.262  32.588  1.00  0.00     0.031 A 
BRANCH  48  62
ATOM     62  C   UNL A   1      44.884  32.883  27.992  1.00  0.00    -0.014 A 
ATOM     63  C   UNL A   1      45.953  33.209  27.136  1.00  0.00     0.009 A 
ATOM     64  C   UNL A   1      43.799  33.779  28.012  1.00  0.00     0.009 A 
ATOM     65  C   UNL A   1      45.934  34.344  26.323  1.00  0.00     0.001 A 
ATOM     66  C   UNL A   1      43.757  34.895  27.168  1.00  0.00     0.001 A 
ATOM     67  C   UNL A   1      44.823  35.173  26.319  1.00  0.00     0.000 A 
ENDBRANCH  48  62
BRANCH  49  68
ATOM     68  C   UNL A   1      37.039  31.838  30.726  1.00  0.00    -0.014 A 
ATOM     69  C   UNL A   1      36.926  32.975  29.907  1.00  0.00     0.009 A 
ATOM     70  C   UNL A   1      35.954  31.533  31.569  1.00  0.00     0.009 A 
ATOM     71  C   UNL A   1      35.805  33.811  29.976  1.00  0.00     0.001 A 
ATOM     72  C   UNL A   1      34.835  32.375  31.643  1.00  0.00     0.001 A 
ATOM     73  C   UNL A   1      34.771  33.524  30.861  1.00  0.00     0.000 A 
ENDBRANCH  49  68
BRANCH  61  74
ATOM     74  C   UNL A   1      42.363  30.313  33.746  1.00  0.00    -0.014 A 
ATOM     75  C   UNL A   1      41.859  29.034  33.458  1.00  0.00     0.009 A 
ATOM     76  C   UNL A   1      42.449  30.699  35.095  1.00  0.00     0.009 A 
ATOM     77  C   UNL A   1      41.433  28.179  34.476  1.00  0.00     0.001 A 
ATOM     78  C   UNL A   1      42.054  29.829  36.118  1.00  0.00     0.001 A 
ATOM     79  C   UNL A   1      41.532  28.576  35.807  1.00  0.00     0.000 A 
ENDBRANCH  61  74
ENDBRANCH  35  36
ENDBRANCH  27  30
ENDBRANCH  25  26
ENDBRANCH  24  25
ENDBRANCH   1  24
TORSDOF 14
ENDMDL
