MODEL 1
REMARK VINA RESULT:     -11.0      0.000      0.000
REMARK SMILES CCn1cnc(S(=O)(=O)NC[C@H]2CC[C@@H](C(=O)NCCCNC(=O)c3ccc(-c4c5nc(c(-c6ccccc6)c6ccc([nH]6)c(-c6ccccc6)c6nc(c(-c7ccccc7)c7ccc4[nH]7)C=C6)C=C5)cc3)O2)c1
REMARK SMILES IDX 16 1 17 2 18 3 15 5 12 6 13 7 73 8 14 9 11 10 10 11 7 13
REMARK SMILES IDX 8 14 9 15 6 16 3 17 4 18 74 19 5 20 2 21 1 22 19 23 20 24
REMARK SMILES IDX 21 25 22 26 23 27 24 29 25 30 26 31 72 32 27 33 71 34 28 35
REMARK SMILES IDX 29 36 30 37 65 38 31 39 70 40 64 41 66 42 32 43 69 44 63 45
REMARK SMILES IDX 62 46 33 48 55 49 40 50 54 51 41 52 44 53 53 54 67 55 42 56
REMARK SMILES IDX 43 57 52 59 68 60 45 61 34 62 35 63 39 64 36 65 38 66 37 67
REMARK SMILES IDX 56 68 57 69 61 70 58 71 60 72 59 73 46 74 47 75 51 76 48 77
REMARK SMILES IDX 50 78 49 79
REMARK H PARENT 18 4 10 12 22 28 66 47 44 58
REMARK Flexibility Score: inf
ROOT
ATOM      1  C   UNL A   1      31.772  28.902  26.241  1.00  0.00     0.249 C 
ATOM      2  O   UNL A   1      31.437  27.751  26.538  1.00  0.00    -0.272 OA
ATOM      3  N   UNL A   1      32.167  29.721  27.264  1.00  0.00    -0.354 N 
ATOM      4  H   UNL A   1      32.062  29.333  28.164  1.00  0.00     0.163 HD
ENDROOT
BRANCH   1   5
ATOM      5  C   UNL A   1      31.750  29.382  24.780  1.00  0.00     0.207 C 
ATOM      6  C   UNL A   1      31.295  28.426  22.688  1.00  0.00     0.134 C 
ATOM      7  C   UNL A   1      30.172  29.424  22.966  1.00  0.00     0.037 C 
ATOM      8  O   UNL A   1      32.053  28.300  23.899  1.00  0.00    -0.364 OA
ATOM      9  C   UNL A   1      30.436  29.997  24.341  1.00  0.00     0.045 C 
BRANCH   6  10
ATOM     10  C   UNL A   1      30.809  27.015  22.324  1.00  0.00     0.131 C 
BRANCH  10  11
ATOM     11  N   UNL A   1      31.459  26.365  21.172  1.00  0.00    -0.207 NA
ATOM     12  H   UNL A   1      30.773  25.713  20.793  1.00  0.00     0.141 HD
BRANCH  11  13
ATOM     13  S   UNL A   1      32.903  25.499  21.309  1.00  0.00     0.259 S 
ATOM     14  O   UNL A   1      33.909  26.403  21.823  1.00  0.00    -0.205 OA
ATOM     15  O   UNL A   1      33.065  24.849  20.027  1.00  0.00    -0.205 OA
BRANCH  13  16
ATOM     16  C   UNL A   1      32.814  24.189  22.452  1.00  0.00     0.188 A 
ATOM     17  N   UNL A   1      33.225  22.460  23.705  1.00  0.00    -0.336 N 
ATOM     18  C   UNL A   1      31.933  22.858  23.889  1.00  0.00     0.201 A 
ATOM     19  C   UNL A   1      33.833  23.353  22.868  1.00  0.00     0.129 A 
ATOM     20  N   UNL A   1      31.642  23.884  23.129  1.00  0.00    -0.224 NA
BRANCH  17  21
ATOM     21  C   UNL A   1      33.807  21.280  24.306  1.00  0.00     0.120 C 
ATOM     22  C   UNL A   1      35.284  21.472  24.627  1.00  0.00     0.027 C 
ENDBRANCH  17  21
ENDBRANCH  13  16
ENDBRANCH  11  13
ENDBRANCH  10  11
ENDBRANCH   6  10
ENDBRANCH   1   5
BRANCH   3  23
ATOM     23  C   UNL A   1      32.714  31.071  27.248  1.00  0.00     0.117 C 
BRANCH  23  24
ATOM     24  C   UNL A   1      34.211  31.131  27.542  1.00  0.00     0.042 C 
BRANCH  24  25
ATOM     25  C   UNL A   1      34.671  32.481  28.044  1.00  0.00     0.118 C 
BRANCH  25  26
ATOM     26  N   UNL A   1      34.586  32.690  29.494  1.00  0.00    -0.352 N 
ATOM     27  C   UNL A   1      35.354  32.067  30.482  1.00  0.00     0.251 C 
ATOM     28  H   UNL A   1      33.915  33.340  29.805  1.00  0.00     0.163 HD
ATOM     29  O   UNL A   1      35.050  32.133  31.664  1.00  0.00    -0.269 OA
BRANCH  27  30
ATOM     30  C   UNL A   1      36.550  31.310  30.046  1.00  0.00     0.039 A 
ATOM     31  C   UNL A   1      37.800  31.886  29.803  1.00  0.00     0.014 A 
ATOM     32  C   UNL A   1      36.416  29.938  30.063  1.00  0.00     0.014 A 
ATOM     33  C   UNL A   1      38.928  31.049  29.730  1.00  0.00     0.010 A 
ATOM     34  C   UNL A   1      37.531  29.189  30.312  1.00  0.00     0.010 A 
ATOM     35  C   UNL A   1      38.798  29.685  30.041  1.00  0.00    -0.014 A 
BRANCH  35  36
ATOM     36  C   UNL A   1      39.925  28.747  30.138  1.00  0.00     0.031 A 
ATOM     37  C   UNL A   1      40.531  28.525  31.485  1.00  0.00     0.074 A 
ATOM     38  C   UNL A   1      40.282  27.903  29.136  1.00  0.00     0.049 A 
ATOM     39  N   UNL A   1      41.717  28.835  31.897  1.00  0.00    -0.248 NA
ATOM     40  C   UNL A   1      39.708  27.895  32.521  1.00  0.00     0.031 C 
ATOM     41  C   UNL A   1      39.663  27.683  27.815  1.00  0.00     0.029 A 
ATOM     42  N   UNL A   1      41.259  26.954  29.147  1.00  0.00    -0.354 N 
ATOM     43  C   UNL A   1      41.849  28.307  33.184  1.00  0.00     0.074 A 
ATOM     44  C   UNL A   1      40.544  27.827  33.558  1.00  0.00     0.031 C 
ATOM     45  C   UNL A   1      40.109  26.529  27.275  1.00  0.00     0.029 A 
ATOM     46  C   UNL A   1      41.213  26.063  28.083  1.00  0.00     0.049 A 
ATOM     47  H   UNL A   1      41.943  26.904  29.853  1.00  0.00     0.167 HD
ATOM     48  C   UNL A   1      43.062  28.151  33.787  1.00  0.00     0.031 A 
ATOM     49  C   UNL A   1      42.058  25.037  27.836  1.00  0.00     0.031 A 
ATOM     50  C   UNL A   1      44.102  28.835  33.067  1.00  0.00     0.049 A 
ATOM     51  C   UNL A   1      43.302  25.318  28.579  1.00  0.00     0.074 A 
ATOM     52  C   UNL A   1      44.341  30.151  32.724  1.00  0.00     0.029 A 
ATOM     53  N   UNL A   1      44.882  28.081  32.223  1.00  0.00    -0.354 N 
ATOM     54  N   UNL A   1      44.088  26.319  28.304  1.00  0.00    -0.248 NA
ATOM     55  C   UNL A   1      43.460  24.742  29.901  1.00  0.00     0.031 C 
ATOM     56  C   UNL A   1      44.812  30.086  31.379  1.00  0.00     0.029 A 
ATOM     57  C   UNL A   1      44.905  28.739  31.019  1.00  0.00     0.049 A 
ATOM     58  H   UNL A   1      45.335  27.235  32.439  1.00  0.00     0.167 HD
ATOM     59  C   UNL A   1      44.530  26.772  29.537  1.00  0.00     0.074 A 
ATOM     60  C   UNL A   1      44.202  25.696  30.470  1.00  0.00     0.031 C 
ATOM     61  C   UNL A   1      44.870  28.081  29.731  1.00  0.00     0.031 A 
BRANCH  48  62
ATOM     62  C   UNL A   1      43.389  27.129  34.845  1.00  0.00    -0.014 A 
ATOM     63  C   UNL A   1      43.250  25.763  34.533  1.00  0.00     0.009 A 
ATOM     64  C   UNL A   1      43.577  27.451  36.201  1.00  0.00     0.009 A 
ATOM     65  C   UNL A   1      43.235  24.780  35.531  1.00  0.00     0.001 A 
ATOM     66  C   UNL A   1      43.604  26.467  37.197  1.00  0.00     0.001 A 
ATOM     67  C   UNL A   1      43.406  25.134  36.864  1.00  0.00     0.000 A 
ENDBRANCH  48  62
BRANCH  49  68
ATOM     68  C   UNL A   1      41.808  23.756  27.152  1.00  0.00    -0.014 A 
ATOM     69  C   UNL A   1      42.682  23.290  26.160  1.00  0.00     0.009 A 
ATOM     70  C   UNL A   1      40.865  22.855  27.680  1.00  0.00     0.009 A 
ATOM     71  C   UNL A   1      42.651  21.951  25.749  1.00  0.00     0.001 A 
ATOM     72  C   UNL A   1      40.837  21.518  27.272  1.00  0.00     0.001 A 
ATOM     73  C   UNL A   1      41.743  21.063  26.319  1.00  0.00     0.000 A 
ENDBRANCH  49  68
BRANCH  61  74
ATOM     74  C   UNL A   1      44.946  28.987  28.522  1.00  0.00    -0.014 A 
ATOM     75  C   UNL A   1      43.822  29.639  27.982  1.00  0.00     0.009 A 
ATOM     76  C   UNL A   1      46.212  29.336  28.030  1.00  0.00     0.009 A 
ATOM     77  C   UNL A   1      43.962  30.595  26.968  1.00  0.00     0.001 A 
ATOM     78  C   UNL A   1      46.354  30.306  27.035  1.00  0.00     0.001 A 
ATOM     79  C   UNL A   1      45.229  30.933  26.502  1.00  0.00     0.000 A 
ENDBRANCH  61  74
ENDBRANCH  35  36
ENDBRANCH  27  30
ENDBRANCH  25  26
ENDBRANCH  24  25
ENDBRANCH  23  24
ENDBRANCH   3  23
TORSDOF 15
ENDMDL
MODEL 2
REMARK VINA RESULT:     -11.0      2.179      6.270
REMARK SMILES CCn1cnc(S(=O)(=O)NC[C@H]2CC[C@@H](C(=O)NCCCNC(=O)c3ccc(-c4c5nc(c(-c6ccccc6)c6ccc([nH]6)c(-c6ccccc6)c6nc(c(-c7ccccc7)c7ccc4[nH]7)C=C6)C=C5)cc3)O2)c1
REMARK SMILES IDX 16 1 17 2 18 3 15 5 12 6 13 7 73 8 14 9 11 10 10 11 7 13
REMARK SMILES IDX 8 14 9 15 6 16 3 17 4 18 74 19 5 20 2 21 1 22 19 23 20 24
REMARK SMILES IDX 21 25 22 26 23 27 24 29 25 30 26 31 72 32 27 33 71 34 28 35
REMARK SMILES IDX 29 36 30 37 65 38 31 39 70 40 64 41 66 42 32 43 69 44 63 45
REMARK SMILES IDX 62 46 33 48 55 49 40 50 54 51 41 52 44 53 53 54 67 55 42 56
REMARK SMILES IDX 43 57 52 59 68 60 45 61 34 62 35 63 39 64 36 65 38 66 37 67
REMARK SMILES IDX 56 68 57 69 61 70 58 71 60 72 59 73 46 74 47 75 51 76 48 77
REMARK SMILES IDX 50 78 49 79
REMARK H PARENT 18 4 10 12 22 28 66 47 44 58
REMARK Flexibility Score: inf
ROOT
ATOM      1  C   UNL A   1      31.647  27.596  26.722  1.00  0.00     0.249 C 
ATOM      2  O   UNL A   1      31.434  26.490  27.229  1.00  0.00    -0.272 OA
ATOM      3  N   UNL A   1      32.117  28.581  27.547  1.00  0.00    -0.354 N 
ATOM      4  H   UNL A   1      32.160  28.333  28.500  1.00  0.00     0.163 HD
ENDROOT
BRANCH   1   5
ATOM      5  C   UNL A   1      31.396  27.842  25.225  1.00  0.00     0.207 C 
ATOM      6  C   UNL A   1      32.287  27.055  23.204  1.00  0.00     0.134 C 
ATOM      7  C   UNL A   1      30.858  26.521  23.289  1.00  0.00     0.037 C 
ATOM      8  O   UNL A   1      32.596  27.630  24.480  1.00  0.00    -0.364 OA
ATOM      9  C   UNL A   1      30.305  26.982  24.620  1.00  0.00     0.045 C 
BRANCH   6  10
ATOM     10  C   UNL A   1      33.348  25.977  22.939  1.00  0.00     0.131 C 
BRANCH  10  11
ATOM     11  N   UNL A   1      32.983  24.588  23.273  1.00  0.00    -0.207 NA
ATOM     12  H   UNL A   1      31.997  24.491  23.034  1.00  0.00     0.141 HD
BRANCH  11  13
ATOM     13  S   UNL A   1      33.153  23.951  24.828  1.00  0.00     0.259 S 
ATOM     14  O   UNL A   1      31.829  23.833  25.400  1.00  0.00    -0.205 OA
ATOM     15  O   UNL A   1      34.169  24.769  25.453  1.00  0.00    -0.205 OA
BRANCH  13  16
ATOM     16  C   UNL A   1      33.821  22.343  24.843  1.00  0.00     0.188 A 
ATOM     17  N   UNL A   1      34.143  20.198  24.686  1.00  0.00    -0.336 N 
ATOM     18  C   UNL A   1      35.266  20.791  25.184  1.00  0.00     0.201 A 
ATOM     19  C   UNL A   1      33.245  21.178  24.370  1.00  0.00     0.129 A 
ATOM     20  N   UNL A   1      35.099  22.083  25.316  1.00  0.00    -0.224 NA
BRANCH  17  21
ATOM     21  C   UNL A   1      33.970  18.768  24.546  1.00  0.00     0.120 C 
ATOM     22  C   UNL A   1      32.516  18.390  24.292  1.00  0.00     0.027 C 
ENDBRANCH  17  21
ENDBRANCH  13  16
ENDBRANCH  11  13
ENDBRANCH  10  11
ENDBRANCH   6  10
ENDBRANCH   1   5
BRANCH   3  23
ATOM     23  C   UNL A   1      32.562  29.937  27.256  1.00  0.00     0.117 C 
BRANCH  23  24
ATOM     24  C   UNL A   1      33.999  30.017  26.750  1.00  0.00     0.042 C 
BRANCH  24  25
ATOM     25  C   UNL A   1      34.995  29.324  27.653  1.00  0.00     0.118 C 
BRANCH  25  26
ATOM     26  N   UNL A   1      35.369  30.051  28.872  1.00  0.00    -0.352 N 
ATOM     27  C   UNL A   1      36.566  29.941  29.585  1.00  0.00     0.251 C 
ATOM     28  H   UNL A   1      34.705  30.686  29.226  1.00  0.00     0.163 HD
ATOM     29  O   UNL A   1      36.687  30.409  30.707  1.00  0.00    -0.269 OA
BRANCH  27  30
ATOM     30  C   UNL A   1      37.688  29.222  28.936  1.00  0.00     0.039 A 
ATOM     31  C   UNL A   1      38.303  29.631  27.750  1.00  0.00     0.014 A 
ATOM     32  C   UNL A   1      38.234  28.195  29.676  1.00  0.00     0.014 A 
ATOM     33  C   UNL A   1      39.553  29.084  27.413  1.00  0.00     0.010 A 
ATOM     34  C   UNL A   1      39.562  27.923  29.511  1.00  0.00     0.010 A 
ATOM     35  C   UNL A   1      40.216  28.256  28.334  1.00  0.00    -0.014 A 
BRANCH  35  36
ATOM     36  C   UNL A   1      41.583  27.744  28.153  1.00  0.00     0.031 A 
ATOM     37  C   UNL A   1      41.749  26.442  27.440  1.00  0.00     0.074 A 
ATOM     38  C   UNL A   1      42.695  28.490  28.376  1.00  0.00     0.049 A 
ATOM     39  N   UNL A   1      42.184  25.318  27.906  1.00  0.00    -0.248 NA
ATOM     40  C   UNL A   1      41.361  26.369  26.029  1.00  0.00     0.031 C 
ATOM     41  C   UNL A   1      42.824  29.904  28.778  1.00  0.00     0.029 A 
ATOM     42  N   UNL A   1      43.996  28.138  28.175  1.00  0.00    -0.354 N 
ATOM     43  C   UNL A   1      42.274  24.439  26.824  1.00  0.00     0.074 A 
ATOM     44  C   UNL A   1      41.657  25.109  25.709  1.00  0.00     0.031 C 
ATOM     45  C   UNL A   1      44.081  30.342  28.552  1.00  0.00     0.029 A 
ATOM     46  C   UNL A   1      44.896  29.193  28.230  1.00  0.00     0.049 A 
ATOM     47  H   UNL A   1      44.274  27.209  28.005  1.00  0.00     0.167 HD
ATOM     48  C   UNL A   1      43.000  23.286  26.879  1.00  0.00     0.031 A 
ATOM     49  C   UNL A   1      46.238  29.134  28.081  1.00  0.00     0.031 A 
ATOM     50  C   UNL A   1      43.400  22.977  28.225  1.00  0.00     0.049 A 
ATOM     51  C   UNL A   1      46.638  27.738  28.350  1.00  0.00     0.074 A 
ATOM     52  C   UNL A   1      42.728  22.716  29.402  1.00  0.00     0.029 A 
ATOM     53  N   UNL A   1      44.680  23.320  28.595  1.00  0.00    -0.354 N 
ATOM     54  N   UNL A   1      46.522  27.173  29.517  1.00  0.00    -0.248 NA
ATOM     55  C   UNL A   1      46.768  26.831  27.224  1.00  0.00     0.031 C 
ATOM     56  C   UNL A   1      43.464  23.426  30.397  1.00  0.00     0.029 A 
ATOM     57  C   UNL A   1      44.576  24.005  29.779  1.00  0.00     0.049 A 
ATOM     58  H   UNL A   1      45.508  23.115  28.105  1.00  0.00     0.167 HD
ATOM     59  C   UNL A   1      46.139  25.870  29.244  1.00  0.00     0.074 A 
ATOM     60  C   UNL A   1      46.417  25.688  27.821  1.00  0.00     0.031 C 
ATOM     61  C   UNL A   1      45.383  25.153  30.129  1.00  0.00     0.031 A 
BRANCH  48  62
ATOM     62  C   UNL A   1      43.631  22.590  25.700  1.00  0.00    -0.014 A 
ATOM     63  C   UNL A   1      43.641  21.183  25.671  1.00  0.00     0.009 A 
ATOM     64  C   UNL A   1      44.438  23.247  24.754  1.00  0.00     0.009 A 
ATOM     65  C   UNL A   1      44.462  20.472  24.787  1.00  0.00     0.001 A 
ATOM     66  C   UNL A   1      45.229  22.540  23.840  1.00  0.00     0.001 A 
ATOM     67  C   UNL A   1      45.261  21.152  23.875  1.00  0.00     0.000 A 
ENDBRANCH  48  62
BRANCH  49  68
ATOM     68  C   UNL A   1      47.173  30.144  27.557  1.00  0.00    -0.014 A 
ATOM     69  C   UNL A   1      46.699  31.295  26.913  1.00  0.00     0.009 A 
ATOM     70  C   UNL A   1      48.525  30.114  27.948  1.00  0.00     0.009 A 
ATOM     71  C   UNL A   1      47.534  32.402  26.716  1.00  0.00     0.001 A 
ATOM     72  C   UNL A   1      49.357  31.221  27.754  1.00  0.00     0.001 A 
ATOM     73  C   UNL A   1      48.856  32.372  27.154  1.00  0.00     0.000 A 
ENDBRANCH  49  68
BRANCH  61  74
ATOM     74  C   UNL A   1      45.140  25.741  31.502  1.00  0.00    -0.014 A 
ATOM     75  C   UNL A   1      44.105  26.655  31.771  1.00  0.00     0.009 A 
ATOM     76  C   UNL A   1      45.858  25.217  32.587  1.00  0.00     0.009 A 
ATOM     77  C   UNL A   1      43.812  27.046  33.083  1.00  0.00     0.001 A 
ATOM     78  C   UNL A   1      45.550  25.590  33.898  1.00  0.00     0.001 A 
ATOM     79  C   UNL A   1      44.530  26.506  34.146  1.00  0.00     0.000 A 
ENDBRANCH  61  74
ENDBRANCH  35  36
ENDBRANCH  27  30
ENDBRANCH  25  26
ENDBRANCH  24  25
ENDBRANCH  23  24
ENDBRANCH   3  23
TORSDOF 15
ENDMDL
MODEL 3
REMARK VINA RESULT:     -10.9      2.723      7.973
REMARK SMILES CCn1cnc(S(=O)(=O)NC[C@H]2CC[C@@H](C(=O)NCCCNC(=O)c3ccc(-c4c5nc(c(-c6ccccc6)c6ccc([nH]6)c(-c6ccccc6)c6nc(c(-c7ccccc7)c7ccc4[nH]7)C=C6)C=C5)cc3)O2)c1
REMARK SMILES IDX 16 1 17 2 18 3 15 5 12 6 13 7 73 8 14 9 11 10 10 11 7 13
REMARK SMILES IDX 8 14 9 15 6 16 3 17 4 18 74 19 5 20 2 21 1 22 19 23 20 24
REMARK SMILES IDX 21 25 22 26 23 27 24 29 25 30 26 31 72 32 27 33 71 34 28 35
REMARK SMILES IDX 29 36 30 37 65 38 31 39 70 40 64 41 66 42 32 43 69 44 63 45
REMARK SMILES IDX 62 46 33 48 55 49 40 50 54 51 41 52 44 53 53 54 67 55 42 56
REMARK SMILES IDX 43 57 52 59 68 60 45 61 34 62 35 63 39 64 36 65 38 66 37 67
REMARK SMILES IDX 56 68 57 69 61 70 58 71 60 72 59 73 46 74 47 75 51 76 48 77
REMARK SMILES IDX 50 78 49 79
REMARK H PARENT 18 4 10 12 22 28 66 47 44 58
REMARK Flexibility Score: inf
ROOT
ATOM      1  C   UNL A   1      36.204  22.293  24.137  1.00  0.00     0.249 C 
ATOM      2  O   UNL A   1      35.874  22.872  23.097  1.00  0.00    -0.272 OA
ATOM      3  N   UNL A   1      37.544  22.188  24.396  1.00  0.00    -0.354 N 
ATOM      4  H   UNL A   1      38.128  22.514  23.672  1.00  0.00     0.163 HD
ENDROOT
BRANCH   1   5
ATOM      5  C   UNL A   1      35.145  21.725  25.096  1.00  0.00     0.207 C 
ATOM      6  C   UNL A   1      32.821  21.899  25.353  1.00  0.00     0.134 C 
ATOM      7  C   UNL A   1      33.106  20.462  24.919  1.00  0.00     0.037 C 
ATOM      8  O   UNL A   1      34.047  22.630  25.215  1.00  0.00    -0.364 OA
ATOM      9  C   UNL A   1      34.599  20.367  24.698  1.00  0.00     0.045 C 
BRANCH   6  10
ATOM     10  C   UNL A   1      31.777  22.623  24.490  1.00  0.00     0.131 C 
BRANCH  10  11
ATOM     11  N   UNL A   1      30.665  23.279  25.202  1.00  0.00    -0.207 NA
ATOM     12  H   UNL A   1      30.041  23.638  24.480  1.00  0.00     0.141 HD
BRANCH  11  13
ATOM     13  S   UNL A   1      30.902  24.548  26.291  1.00  0.00     0.259 S 
ATOM     14  O   UNL A   1      31.585  24.010  27.448  1.00  0.00    -0.205 OA
ATOM     15  O   UNL A   1      29.604  25.176  26.413  1.00  0.00    -0.205 OA
BRANCH  13  16
ATOM     16  C   UNL A   1      31.936  25.803  25.671  1.00  0.00     0.188 A 
ATOM     17  N   UNL A   1      32.761  27.525  24.629  1.00  0.00    -0.336 N 
ATOM     18  C   UNL A   1      33.751  26.898  25.326  1.00  0.00     0.201 A 
ATOM     19  C   UNL A   1      31.577  26.903  24.912  1.00  0.00     0.129 A 
ATOM     20  N   UNL A   1      33.295  25.839  25.947  1.00  0.00    -0.224 NA
BRANCH  17  21
ATOM     21  C   UNL A   1      32.973  28.648  23.743  1.00  0.00     0.120 C 
ATOM     22  C   UNL A   1      34.037  28.354  22.693  1.00  0.00     0.027 C 
ENDBRANCH  17  21
ENDBRANCH  13  16
ENDBRANCH  11  13
ENDBRANCH  10  11
ENDBRANCH   6  10
ENDBRANCH   1   5
BRANCH   3  23
ATOM     23  C   UNL A   1      38.252  21.672  25.559  1.00  0.00     0.117 C 
BRANCH  23  24
ATOM     24  C   UNL A   1      38.791  20.256  25.373  1.00  0.00     0.042 C 
BRANCH  24  25
ATOM     25  C   UNL A   1      39.899  19.902  26.339  1.00  0.00     0.118 C 
BRANCH  25  26
ATOM     26  N   UNL A   1      41.004  19.110  25.785  1.00  0.00    -0.352 N 
ATOM     27  C   UNL A   1      42.321  19.529  25.580  1.00  0.00     0.251 C 
ATOM     28  H   UNL A   1      40.794  18.183  25.531  1.00  0.00     0.163 HD
ATOM     29  O   UNL A   1      43.101  18.876  24.902  1.00  0.00    -0.269 OA
BRANCH  27  30
ATOM     30  C   UNL A   1      42.741  20.805  26.205  1.00  0.00     0.039 A 
ATOM     31  C   UNL A   1      43.019  21.976  25.495  1.00  0.00     0.014 A 
ATOM     32  C   UNL A   1      42.672  20.836  27.582  1.00  0.00     0.014 A 
ATOM     33  C   UNL A   1      43.073  23.194  26.193  1.00  0.00     0.010 A 
ATOM     34  C   UNL A   1      42.407  22.033  28.183  1.00  0.00     0.010 A 
ATOM     35  C   UNL A   1      42.710  23.230  27.550  1.00  0.00    -0.014 A 
BRANCH  35  36
ATOM     36  C   UNL A   1      42.590  24.462  28.344  1.00  0.00     0.031 A 
ATOM     37  C   UNL A   1      41.381  25.313  28.128  1.00  0.00     0.074 A 
ATOM     38  C   UNL A   1      43.378  24.741  29.413  1.00  0.00     0.049 A 
ATOM     39  N   UNL A   1      41.311  26.505  27.634  1.00  0.00    -0.248 NA
ATOM     40  C   UNL A   1      40.072  24.761  28.488  1.00  0.00     0.031 C 
ATOM     41  C   UNL A   1      44.442  23.935  30.043  1.00  0.00     0.029 A 
ATOM     42  N   UNL A   1      43.307  25.812  30.251  1.00  0.00    -0.354 N 
ATOM     43  C   UNL A   1      39.983  26.919  27.761  1.00  0.00     0.074 A 
ATOM     44  C   UNL A   1      39.243  25.765  28.200  1.00  0.00     0.031 C 
ATOM     45  C   UNL A   1      44.728  24.417  31.271  1.00  0.00     0.029 A 
ATOM     46  C   UNL A   1      44.061  25.691  31.411  1.00  0.00     0.049 A 
ATOM     47  H   UNL A   1      42.764  26.608  30.050  1.00  0.00     0.167 HD
ATOM     48  C   UNL A   1      39.613  28.226  27.655  1.00  0.00     0.031 A 
ATOM     49  C   UNL A   1      44.186  26.599  32.405  1.00  0.00     0.031 A 
ATOM     50  C   UNL A   1      40.682  29.038  27.138  1.00  0.00     0.049 A 
ATOM     51  C   UNL A   1      43.809  27.909  31.840  1.00  0.00     0.074 A 
ATOM     52  C   UNL A   1      41.406  29.054  25.963  1.00  0.00     0.029 A 
ATOM     53  N   UNL A   1      41.430  29.746  28.048  1.00  0.00    -0.354 N 
ATOM     54  N   UNL A   1      44.492  28.510  30.909  1.00  0.00    -0.248 NA
ATOM     55  C   UNL A   1      42.438  28.359  32.001  1.00  0.00     0.031 C 
ATOM     56  C   UNL A   1      42.751  29.292  26.379  1.00  0.00     0.029 A 
ATOM     57  C   UNL A   1      42.746  29.484  27.763  1.00  0.00     0.049 A 
ATOM     58  H   UNL A   1      41.088  30.328  28.764  1.00  0.00     0.167 HD
ATOM     59  C   UNL A   1      43.539  29.099  30.093  1.00  0.00     0.074 A 
ATOM     60  C   UNL A   1      42.306  29.068  30.876  1.00  0.00     0.031 C 
ATOM     61  C   UNL A   1      43.776  29.307  28.763  1.00  0.00     0.031 A 
BRANCH  48  62
ATOM     62  C   UNL A   1      38.406  28.851  28.306  1.00  0.00    -0.014 A 
ATOM     63  C   UNL A   1      37.654  29.791  27.576  1.00  0.00     0.009 A 
ATOM     64  C   UNL A   1      38.130  28.754  29.682  1.00  0.00     0.009 A 
ATOM     65  C   UNL A   1      36.723  30.631  28.200  1.00  0.00     0.001 A 
ATOM     66  C   UNL A   1      37.171  29.563  30.302  1.00  0.00     0.001 A 
ATOM     67  C   UNL A   1      36.486  30.520  29.565  1.00  0.00     0.000 A 
ENDBRANCH  48  62
BRANCH  49  68
ATOM     68  C   UNL A   1      44.437  26.392  33.842  1.00  0.00    -0.014 A 
ATOM     69  C   UNL A   1      45.247  27.278  34.564  1.00  0.00     0.009 A 
ATOM     70  C   UNL A   1      43.644  25.481  34.565  1.00  0.00     0.009 A 
ATOM     71  C   UNL A   1      45.223  27.292  35.965  1.00  0.00     0.001 A 
ATOM     72  C   UNL A   1      43.618  25.498  35.963  1.00  0.00     0.001 A 
ATOM     73  C   UNL A   1      44.394  26.417  36.662  1.00  0.00     0.000 A 
ENDBRANCH  49  68
BRANCH  61  74
ATOM     74  C   UNL A   1      45.174  29.065  28.239  1.00  0.00    -0.014 A 
ATOM     75  C   UNL A   1      45.651  27.788  27.890  1.00  0.00     0.009 A 
ATOM     76  C   UNL A   1      45.966  30.176  27.916  1.00  0.00     0.009 A 
ATOM     77  C   UNL A   1      46.889  27.630  27.256  1.00  0.00     0.001 A 
ATOM     78  C   UNL A   1      47.191  30.020  27.262  1.00  0.00     0.001 A 
ATOM     79  C   UNL A   1      47.654  28.748  26.935  1.00  0.00     0.000 A 
ENDBRANCH  61  74
ENDBRANCH  35  36
ENDBRANCH  27  30
ENDBRANCH  25  26
ENDBRANCH  24  25
ENDBRANCH  23  24
ENDBRANCH   3  23
TORSDOF 15
ENDMDL
