MODEL 1
REMARK VINA RESULT:     -11.5      0.000      0.000
REMARK SMILES CC(C)[NH2+][C@]1(C(=O)NCCCNC(=O)c2ccc(-c3c4nc(c(-c5ccccc5)c5ccc([nH]5)c(-c5ccccc5)c5nc(c(-c6ccccc6)c6ccc3[nH]6)C=C5)C=C4)cc2)CC[C@@H](Oc2cc(F)ccc2F)C1
REMARK SMILES IDX 10 1 9 2 8 3 6 4 7 5 5 7 63 8 75 9 64 10 65 11 4 12 2 15
REMARK SMILES IDX 1 16 3 17 66 18 67 19 68 20 73 21 69 22 72 23 74 24 70 25
REMARK SMILES IDX 71 26 11 27 12 28 13 29 14 31 15 32 16 33 62 34 17 35 61 36
REMARK SMILES IDX 18 37 19 38 20 39 55 40 21 41 60 42 54 43 56 44 22 45 59 46
REMARK SMILES IDX 53 47 52 48 23 50 45 51 30 52 44 53 31 54 34 55 43 56 57 57
REMARK SMILES IDX 32 58 33 59 42 61 58 62 35 63 24 64 25 65 29 66 26 67 28 68
REMARK SMILES IDX 27 69 46 70 47 71 51 72 48 73 50 74 49 75 36 76 37 77 41 78
REMARK SMILES IDX 38 79 40 80 39 81
REMARK H PARENT 8 6 4 13 4 14 12 30 56 49 34 60
REMARK Flexibility Score: inf
ROOT
ATOM      1  C   UNL A   1      34.042  28.540  26.065  1.00  0.00     0.042 C 
ENDROOT
BRANCH   1   2
ATOM      2  C   UNL A   1      33.219  29.180  24.967  1.00  0.00     0.118 C 
BRANCH   2   3
ATOM      3  N   UNL A   1      33.826  29.114  23.648  1.00  0.00    -0.351 N 
ATOM      4  C   UNL A   1      33.672  28.144  22.686  1.00  0.00     0.281 C 
ATOM      5  O   UNL A   1      34.242  28.317  21.607  1.00  0.00    -0.268 OA
ATOM      6  H   UNL A   1      34.425  29.860  23.412  1.00  0.00     0.163 HD
BRANCH   4   7
ATOM      7  C   UNL A   1      32.846  26.861  23.012  1.00  0.00     0.179 C 
ATOM      8  C   UNL A   1      32.478  26.192  21.659  1.00  0.00     0.083 C 
ATOM      9  C   UNL A   1      33.663  25.731  23.695  1.00  0.00     0.124 C 
ATOM     10  C   UNL A   1      32.251  24.728  21.954  1.00  0.00     0.052 C 
ATOM     11  C   UNL A   1      33.309  24.406  22.996  1.00  0.00     0.180 C 
BRANCH   7  12
ATOM     12  N   UNL A   1      31.646  27.208  23.837  1.00  0.00    -0.332 N 
ATOM     13  H   UNL A   1      31.462  26.425  24.465  1.00  0.00     0.347 HD
ATOM     14  H   UNL A   1      31.881  28.079  24.314  1.00  0.00     0.347 HD
BRANCH  12  15
ATOM     15  C   UNL A   1      30.398  27.490  23.085  1.00  0.00     0.176 C 
ATOM     16  C   UNL A   1      29.247  26.734  23.759  1.00  0.00     0.075 C 
ATOM     17  C   UNL A   1      30.024  28.969  22.972  1.00  0.00     0.075 C 
ENDBRANCH  12  15
ENDBRANCH   7  12
BRANCH  11  18
ATOM     18  O   UNL A   1      34.427  23.625  22.547  1.00  0.00    -0.487 OA
BRANCH  18  19
ATOM     19  C   UNL A   1      34.969  22.727  23.422  1.00  0.00     0.158 A 
ATOM     20  C   UNL A   1      34.133  22.067  24.322  1.00  0.00     0.088 A 
ATOM     21  C   UNL A   1      36.353  22.598  23.560  1.00  0.00     0.165 A 
ATOM     22  C   UNL A   1      34.688  21.230  25.287  1.00  0.00     0.127 A 
ATOM     23  C   UNL A   1      36.904  21.747  24.515  1.00  0.00     0.046 A 
ATOM     24  F   UNL A   1      37.185  23.330  22.806  1.00  0.00    -0.203 F 
ATOM     25  F   UNL A   1      33.884  20.599  26.152  1.00  0.00    -0.207 F 
ATOM     26  C   UNL A   1      36.065  21.053  25.383  1.00  0.00     0.042 A 
ENDBRANCH  18  19
ENDBRANCH  11  18
ENDBRANCH   4   7
ENDBRANCH   2   3
ENDBRANCH   1   2
BRANCH   1  27
ATOM     27  C   UNL A   1      33.500  28.798  27.457  1.00  0.00     0.118 C 
BRANCH  27  28
ATOM     28  N   UNL A   1      33.630  30.191  27.868  1.00  0.00    -0.352 N 
ATOM     29  C   UNL A   1      34.662  30.880  28.464  1.00  0.00     0.251 C 
ATOM     30  H   UNL A   1      32.833  30.741  27.685  1.00  0.00     0.163 HD
ATOM     31  O   UNL A   1      34.461  31.999  28.917  1.00  0.00    -0.269 OA
BRANCH  29  32
ATOM     32  C   UNL A   1      36.002  30.265  28.595  1.00  0.00     0.039 A 
ATOM     33  C   UNL A   1      36.904  30.339  27.529  1.00  0.00     0.014 A 
ATOM     34  C   UNL A   1      36.368  29.602  29.761  1.00  0.00     0.014 A 
ATOM     35  C   UNL A   1      38.196  29.826  27.679  1.00  0.00     0.010 A 
ATOM     36  C   UNL A   1      37.689  29.236  29.965  1.00  0.00     0.010 A 
ATOM     37  C   UNL A   1      38.616  29.317  28.918  1.00  0.00    -0.014 A 
BRANCH  37  38
ATOM     38  C   UNL A   1      39.996  28.823  29.150  1.00  0.00     0.031 A 
ATOM     39  C   UNL A   1      41.026  29.739  29.760  1.00  0.00     0.074 A 
ATOM     40  C   UNL A   1      40.352  27.596  28.721  1.00  0.00     0.049 A 
ATOM     41  N   UNL A   1      42.310  29.547  29.928  1.00  0.00    -0.248 NA
ATOM     42  C   UNL A   1      40.562  31.068  30.195  1.00  0.00     0.031 C 
ATOM     43  C   UNL A   1      39.466  26.633  28.061  1.00  0.00     0.029 A 
ATOM     44  N   UNL A   1      41.562  26.950  28.772  1.00  0.00    -0.354 N 
ATOM     45  C   UNL A   1      42.805  30.741  30.440  1.00  0.00     0.074 A 
ATOM     46  C   UNL A   1      41.702  31.672  30.491  1.00  0.00     0.031 C 
ATOM     47  C   UNL A   1      40.150  25.504  27.814  1.00  0.00     0.029 A 
ATOM     48  C   UNL A   1      41.530  25.680  28.249  1.00  0.00     0.049 A 
ATOM     49  H   UNL A   1      42.374  27.358  29.150  1.00  0.00     0.167 HD
ATOM     50  C   UNL A   1      44.058  31.032  30.861  1.00  0.00     0.031 A 
ATOM     51  C   UNL A   1      42.507  24.762  28.132  1.00  0.00     0.031 A 
ATOM     52  C   UNL A   1      45.142  30.089  30.853  1.00  0.00     0.049 A 
ATOM     53  C   UNL A   1      43.886  25.097  28.626  1.00  0.00     0.074 A 
ATOM     54  C   UNL A   1      46.429  30.249  31.334  1.00  0.00     0.029 A 
ATOM     55  N   UNL A   1      45.060  28.804  30.339  1.00  0.00    -0.354 N 
ATOM     56  N   UNL A   1      44.320  26.204  29.176  1.00  0.00    -0.248 NA
ATOM     57  C   UNL A   1      44.906  24.049  28.492  1.00  0.00     0.031 C 
ATOM     58  C   UNL A   1      47.142  29.076  31.067  1.00  0.00     0.029 A 
ATOM     59  C   UNL A   1      46.282  28.166  30.471  1.00  0.00     0.049 A 
ATOM     60  H   UNL A   1      44.254  28.405  29.941  1.00  0.00     0.167 HD
ATOM     61  C   UNL A   1      45.656  25.978  29.481  1.00  0.00     0.074 A 
ATOM     62  C   UNL A   1      45.955  24.622  29.068  1.00  0.00     0.031 C 
ATOM     63  C   UNL A   1      46.555  26.816  30.052  1.00  0.00     0.031 A 
BRANCH  50  64
ATOM     64  C   UNL A   1      44.312  32.427  31.365  1.00  0.00    -0.014 A 
ATOM     65  C   UNL A   1      44.121  32.766  32.714  1.00  0.00     0.009 A 
ATOM     66  C   UNL A   1      44.757  33.419  30.476  1.00  0.00     0.009 A 
ATOM     67  C   UNL A   1      44.317  34.078  33.152  1.00  0.00     0.001 A 
ATOM     68  C   UNL A   1      44.986  34.722  30.922  1.00  0.00     0.001 A 
ATOM     69  C   UNL A   1      44.753  35.053  32.257  1.00  0.00     0.000 A 
ENDBRANCH  50  64
BRANCH  51  70
ATOM     70  C   UNL A   1      42.205  23.423  27.560  1.00  0.00    -0.014 A 
ATOM     71  C   UNL A   1      42.491  23.150  26.213  1.00  0.00     0.009 A 
ATOM     72  C   UNL A   1      41.642  22.410  28.353  1.00  0.00     0.009 A 
ATOM     73  C   UNL A   1      42.197  21.899  25.666  1.00  0.00     0.001 A 
ATOM     74  C   UNL A   1      41.376  21.151  27.809  1.00  0.00     0.001 A 
ATOM     75  C   UNL A   1      41.645  20.900  26.464  1.00  0.00     0.000 A 
ENDBRANCH  51  70
BRANCH  63  76
ATOM     76  C   UNL A   1      47.935  26.277  30.298  1.00  0.00    -0.014 A 
ATOM     77  C   UNL A   1      48.305  25.760  31.550  1.00  0.00     0.009 A 
ATOM     78  C   UNL A   1      48.864  26.244  29.245  1.00  0.00     0.009 A 
ATOM     79  C   UNL A   1      49.590  25.251  31.749  1.00  0.00     0.001 A 
ATOM     80  C   UNL A   1      50.136  25.706  29.440  1.00  0.00     0.001 A 
ATOM     81  C   UNL A   1      50.500  25.219  30.693  1.00  0.00     0.000 A 
ENDBRANCH  63  76
ENDBRANCH  37  38
ENDBRANCH  29  32
ENDBRANCH  27  28
ENDBRANCH   1  27
TORSDOF 14
ENDMDL
MODEL 2
REMARK VINA RESULT:     -11.1      2.647      7.712
REMARK SMILES CC(C)[NH2+][C@]1(C(=O)NCCCNC(=O)c2ccc(-c3c4nc(c(-c5ccccc5)c5ccc([nH]5)c(-c5ccccc5)c5nc(c(-c6ccccc6)c6ccc3[nH]6)C=C5)C=C4)cc2)CC[C@@H](Oc2cc(F)ccc2F)C1
REMARK SMILES IDX 10 1 9 2 8 3 6 4 7 5 5 7 63 8 75 9 64 10 65 11 4 12 2 15
REMARK SMILES IDX 1 16 3 17 66 18 67 19 68 20 73 21 69 22 72 23 74 24 70 25
REMARK SMILES IDX 71 26 11 27 12 28 13 29 14 31 15 32 16 33 62 34 17 35 61 36
REMARK SMILES IDX 18 37 19 38 20 39 55 40 21 41 60 42 54 43 56 44 22 45 59 46
REMARK SMILES IDX 53 47 52 48 23 50 45 51 30 52 44 53 31 54 34 55 43 56 57 57
REMARK SMILES IDX 32 58 33 59 42 61 58 62 35 63 24 64 25 65 29 66 26 67 28 68
REMARK SMILES IDX 27 69 46 70 47 71 51 72 48 73 50 74 49 75 36 76 37 77 41 78
REMARK SMILES IDX 38 79 40 80 39 81
REMARK H PARENT 8 6 4 13 4 14 12 30 56 49 34 60
REMARK Flexibility Score: inf
ROOT
ATOM      1  C   UNL A   1      37.451  20.219  24.776  1.00  0.00     0.042 C 
ENDROOT
BRANCH   1   2
ATOM      2  C   UNL A   1      36.230  21.109  24.887  1.00  0.00     0.118 C 
BRANCH   2   3
ATOM      3  N   UNL A   1      35.598  21.098  26.196  1.00  0.00    -0.351 N 
ATOM      4  C   UNL A   1      34.376  21.615  26.556  1.00  0.00     0.281 C 
ATOM      5  O   UNL A   1      34.007  21.445  27.719  1.00  0.00    -0.268 OA
ATOM      6  H   UNL A   1      36.109  20.666  26.917  1.00  0.00     0.163 HD
BRANCH   4   7
ATOM      7  C   UNL A   1      33.548  22.430  25.514  1.00  0.00     0.179 C 
ATOM      8  C   UNL A   1      32.095  22.530  26.057  1.00  0.00     0.083 C 
ATOM      9  C   UNL A   1      33.938  23.930  25.420  1.00  0.00     0.124 C 
ATOM     10  C   UNL A   1      31.488  23.762  25.427  1.00  0.00     0.052 C 
ATOM     11  C   UNL A   1      32.639  24.755  25.405  1.00  0.00     0.180 C 
BRANCH   7  12
ATOM     12  N   UNL A   1      33.624  21.785  24.165  1.00  0.00    -0.332 N 
ATOM     13  H   UNL A   1      33.606  22.526  23.464  1.00  0.00     0.347 HD
ATOM     14  H   UNL A   1      34.485  21.237  24.171  1.00  0.00     0.347 HD
BRANCH  12  15
ATOM     15  C   UNL A   1      32.541  20.825  23.841  1.00  0.00     0.176 C 
ATOM     16  C   UNL A   1      32.136  21.032  22.377  1.00  0.00     0.075 C 
ATOM     17  C   UNL A   1      32.888  19.351  24.058  1.00  0.00     0.075 C 
ENDBRANCH  12  15
ENDBRANCH   7  12
BRANCH  11  18
ATOM     18  O   UNL A   1      32.574  25.825  26.359  1.00  0.00    -0.487 OA
BRANCH  18  19
ATOM     19  C   UNL A   1      32.350  27.087  25.887  1.00  0.00     0.158 A 
ATOM     20  C   UNL A   1      31.211  27.332  25.120  1.00  0.00     0.088 A 
ATOM     21  C   UNL A   1      33.324  28.083  25.996  1.00  0.00     0.165 A 
ATOM     22  C   UNL A   1      31.028  28.588  24.546  1.00  0.00     0.127 A 
ATOM     23  C   UNL A   1      33.129  29.343  25.435  1.00  0.00     0.046 A 
ATOM     24  F   UNL A   1      34.491  27.831  26.603  1.00  0.00    -0.203 F 
ATOM     25  F   UNL A   1      29.936  28.821  23.808  1.00  0.00    -0.207 F 
ATOM     26  C   UNL A   1      31.969  29.600  24.708  1.00  0.00     0.042 A 
ENDBRANCH  18  19
ENDBRANCH  11  18
ENDBRANCH   4   7
ENDBRANCH   2   3
ENDBRANCH   1   2
BRANCH   1  27
ATOM     27  C   UNL A   1      38.557  20.586  25.745  1.00  0.00     0.118 C 
BRANCH  27  28
ATOM     28  N   UNL A   1      39.640  19.608  25.767  1.00  0.00    -0.352 N 
ATOM     29  C   UNL A   1      40.989  19.738  26.007  1.00  0.00     0.251 C 
ATOM     30  H   UNL A   1      39.353  18.686  25.575  1.00  0.00     0.163 HD
ATOM     31  O   UNL A   1      41.741  18.806  25.754  1.00  0.00    -0.269 OA
BRANCH  29  32
ATOM     32  C   UNL A   1      41.542  21.005  26.534  1.00  0.00     0.039 A 
ATOM     33  C   UNL A   1      42.026  21.971  25.646  1.00  0.00     0.014 A 
ATOM     34  C   UNL A   1      41.599  21.241  27.903  1.00  0.00     0.014 A 
ATOM     35  C   UNL A   1      42.479  23.199  26.137  1.00  0.00     0.010 A 
ATOM     36  C   UNL A   1      41.897  22.509  28.376  1.00  0.00     0.010 A 
ATOM     37  C   UNL A   1      42.367  23.498  27.503  1.00  0.00    -0.014 A 
BRANCH  37  38
ATOM     38  C   UNL A   1      42.769  24.812  28.067  1.00  0.00     0.031 A 
ATOM     39  C   UNL A   1      41.722  25.867  28.323  1.00  0.00     0.074 A 
ATOM     40  C   UNL A   1      44.073  25.094  28.251  1.00  0.00     0.049 A 
ATOM     41  N   UNL A   1      41.876  27.114  28.689  1.00  0.00    -0.248 NA
ATOM     42  C   UNL A   1      40.318  25.484  28.089  1.00  0.00     0.031 C 
ATOM     43  C   UNL A   1      45.189  24.182  27.986  1.00  0.00     0.029 A 
ATOM     44  N   UNL A   1      44.682  26.239  28.700  1.00  0.00    -0.354 N 
ATOM     45  C   UNL A   1      40.601  27.668  28.681  1.00  0.00     0.074 A 
ATOM     46  C   UNL A   1      39.696  26.646  28.210  1.00  0.00     0.031 C 
ATOM     47  C   UNL A   1      46.340  24.786  28.323  1.00  0.00     0.029 A 
ATOM     48  C   UNL A   1      46.050  26.140  28.778  1.00  0.00     0.049 A 
ATOM     49  H   UNL A   1      44.185  27.053  28.945  1.00  0.00     0.167 HD
ATOM     50  C   UNL A   1      40.209  28.907  29.061  1.00  0.00     0.031 A 
ATOM     51  C   UNL A   1      46.968  27.043  29.171  1.00  0.00     0.031 A 
ATOM     52  C   UNL A   1      41.105  29.906  29.573  1.00  0.00     0.049 A 
ATOM     53  C   UNL A   1      46.510  28.405  29.610  1.00  0.00     0.074 A 
ATOM     54  C   UNL A   1      40.806  31.163  30.067  1.00  0.00     0.029 A 
ATOM     55  N   UNL A   1      42.480  29.755  29.660  1.00  0.00    -0.354 N 
ATOM     56  N   UNL A   1      45.293  28.889  29.668  1.00  0.00    -0.248 NA
ATOM     57  C   UNL A   1      47.553  29.342  30.048  1.00  0.00     0.031 C 
ATOM     58  C   UNL A   1      42.006  31.793  30.408  1.00  0.00     0.029 A 
ATOM     59  C   UNL A   1      43.048  30.906  30.180  1.00  0.00     0.049 A 
ATOM     60  H   UNL A   1      42.979  28.950  29.394  1.00  0.00     0.167 HD
ATOM     61  C   UNL A   1      45.419  30.175  30.176  1.00  0.00     0.074 A 
ATOM     62  C   UNL A   1      46.831  30.389  30.423  1.00  0.00     0.031 C 
ATOM     63  C   UNL A   1      44.455  31.096  30.417  1.00  0.00     0.031 A 
BRANCH  50  64
ATOM     64  C   UNL A   1      38.747  29.239  28.934  1.00  0.00    -0.014 A 
ATOM     65  C   UNL A   1      38.203  29.706  27.726  1.00  0.00     0.009 A 
ATOM     66  C   UNL A   1      37.896  29.075  30.039  1.00  0.00     0.009 A 
ATOM     67  C   UNL A   1      36.852  30.053  27.643  1.00  0.00     0.001 A 
ATOM     68  C   UNL A   1      36.539  29.389  29.943  1.00  0.00     0.001 A 
ATOM     69  C   UNL A   1      36.022  29.890  28.749  1.00  0.00     0.000 A 
ENDBRANCH  50  64
BRANCH  51  70
ATOM     70  C   UNL A   1      48.408  26.674  29.207  1.00  0.00    -0.014 A 
ATOM     71  C   UNL A   1      48.947  26.045  30.340  1.00  0.00     0.009 A 
ATOM     72  C   UNL A   1      49.247  26.935  28.113  1.00  0.00     0.009 A 
ATOM     73  C   UNL A   1      50.302  25.708  30.386  1.00  0.00     0.001 A 
ATOM     74  C   UNL A   1      50.595  26.571  28.151  1.00  0.00     0.001 A 
ATOM     75  C   UNL A   1      51.123  25.967  29.291  1.00  0.00     0.000 A 
ENDBRANCH  51  70
BRANCH  63  76
ATOM     76  C   UNL A   1      44.891  32.405  31.012  1.00  0.00    -0.014 A 
ATOM     77  C   UNL A   1      45.222  33.501  30.200  1.00  0.00     0.009 A 
ATOM     78  C   UNL A   1      44.924  32.555  32.408  1.00  0.00     0.009 A 
ATOM     79  C   UNL A   1      45.609  34.712  30.776  1.00  0.00     0.001 A 
ATOM     80  C   UNL A   1      45.282  33.775  32.979  1.00  0.00     0.001 A 
ATOM     81  C   UNL A   1      45.633  34.849  32.164  1.00  0.00     0.000 A 
ENDBRANCH  63  76
ENDBRANCH  37  38
ENDBRANCH  29  32
ENDBRANCH  27  28
ENDBRANCH   1  27
TORSDOF 14
ENDMDL
MODEL 3
REMARK VINA RESULT:     -11.0      2.972      8.157
REMARK SMILES CC(C)[NH2+][C@]1(C(=O)NCCCNC(=O)c2ccc(-c3c4nc(c(-c5ccccc5)c5ccc([nH]5)c(-c5ccccc5)c5nc(c(-c6ccccc6)c6ccc3[nH]6)C=C5)C=C4)cc2)CC[C@@H](Oc2cc(F)ccc2F)C1
REMARK SMILES IDX 10 1 9 2 8 3 6 4 7 5 5 7 63 8 75 9 64 10 65 11 4 12 2 15
REMARK SMILES IDX 1 16 3 17 66 18 67 19 68 20 73 21 69 22 72 23 74 24 70 25
REMARK SMILES IDX 71 26 11 27 12 28 13 29 14 31 15 32 16 33 62 34 17 35 61 36
REMARK SMILES IDX 18 37 19 38 20 39 55 40 21 41 60 42 54 43 56 44 22 45 59 46
REMARK SMILES IDX 53 47 52 48 23 50 45 51 30 52 44 53 31 54 34 55 43 56 57 57
REMARK SMILES IDX 32 58 33 59 42 61 58 62 35 63 24 64 25 65 29 66 26 67 28 68
REMARK SMILES IDX 27 69 46 70 47 71 51 72 48 73 50 74 49 75 36 76 37 77 41 78
REMARK SMILES IDX 38 79 40 80 39 81
REMARK H PARENT 8 6 4 13 4 14 12 30 56 49 34 60
REMARK Flexibility Score: inf
ROOT
ATOM      1  C   UNL A   1      35.885  23.537  25.727  1.00  0.00     0.042 C 
ENDROOT
BRANCH   1   2
ATOM      2  C   UNL A   1      34.972  24.642  25.237  1.00  0.00     0.118 C 
BRANCH   2   3
ATOM      3  N   UNL A   1      33.567  24.442  25.553  1.00  0.00    -0.351 N 
ATOM      4  C   UNL A   1      32.518  25.309  25.358  1.00  0.00     0.281 C 
ATOM      5  O   UNL A   1      31.389  24.911  25.649  1.00  0.00    -0.268 OA
ATOM      6  H   UNL A   1      33.336  23.574  25.957  1.00  0.00     0.163 HD
BRANCH   4   7
ATOM      7  C   UNL A   1      32.800  26.754  24.842  1.00  0.00     0.179 C 
ATOM      8  C   UNL A   1      33.417  26.624  23.421  1.00  0.00     0.083 C 
ATOM      9  C   UNL A   1      31.523  27.586  24.541  1.00  0.00     0.124 C 
ATOM     10  C   UNL A   1      33.122  27.923  22.708  1.00  0.00     0.052 C 
ATOM     11  C   UNL A   1      31.724  28.282  23.183  1.00  0.00     0.180 C 
BRANCH   7  12
ATOM     12  N   UNL A   1      33.687  27.487  25.799  1.00  0.00    -0.332 N 
ATOM     13  H   UNL A   1      33.953  26.837  26.539  1.00  0.00     0.347 HD
ATOM     14  H   UNL A   1      34.471  27.828  25.242  1.00  0.00     0.347 HD
BRANCH  12  15
ATOM     15  C   UNL A   1      33.100  28.689  26.440  1.00  0.00     0.176 C 
ATOM     16  C   UNL A   1      32.210  28.231  27.601  1.00  0.00     0.075 C 
ATOM     17  C   UNL A   1      34.112  29.712  26.962  1.00  0.00     0.075 C 
ENDBRANCH  12  15
ENDBRANCH   7  12
BRANCH  11  18
ATOM     18  O   UNL A   1      30.663  28.102  22.233  1.00  0.00    -0.487 OA
BRANCH  18  19
ATOM     19  C   UNL A   1      29.610  28.971  22.282  1.00  0.00     0.158 A 
ATOM     20  C   UNL A   1      29.795  30.286  21.858  1.00  0.00     0.088 A 
ATOM     21  C   UNL A   1      28.417  28.623  22.920  1.00  0.00     0.165 A 
ATOM     22  C   UNL A   1      28.758  31.205  22.003  1.00  0.00     0.127 A 
ATOM     23  C   UNL A   1      27.376  29.540  23.047  1.00  0.00     0.046 A 
ATOM     24  F   UNL A   1      28.264  27.409  23.467  1.00  0.00    -0.203 F 
ATOM     25  F   UNL A   1      28.938  32.468  21.597  1.00  0.00    -0.207 F 
ATOM     26  C   UNL A   1      27.545  30.841  22.580  1.00  0.00     0.042 A 
ENDBRANCH  18  19
ENDBRANCH  11  18
ENDBRANCH   4   7
ENDBRANCH   2   3
ENDBRANCH   1   2
BRANCH   1  27
ATOM     27  C   UNL A   1      37.085  23.302  24.832  1.00  0.00     0.118 C 
BRANCH  27  28
ATOM     28  N   UNL A   1      38.071  22.406  25.428  1.00  0.00    -0.352 N 
ATOM     29  C   UNL A   1      39.177  22.648  26.210  1.00  0.00     0.251 C 
ATOM     30  H   UNL A   1      37.916  21.452  25.235  1.00  0.00     0.163 HD
ATOM     31  O   UNL A   1      39.983  21.749  26.412  1.00  0.00    -0.269 OA
BRANCH  29  32
ATOM     32  C   UNL A   1      39.418  23.992  26.779  1.00  0.00     0.039 A 
ATOM     33  C   UNL A   1      38.975  24.287  28.072  1.00  0.00     0.014 A 
ATOM     34  C   UNL A   1      40.068  24.972  26.035  1.00  0.00     0.014 A 
ATOM     35  C   UNL A   1      39.269  25.531  28.639  1.00  0.00     0.010 A 
ATOM     36  C   UNL A   1      40.494  26.139  26.649  1.00  0.00     0.010 A 
ATOM     37  C   UNL A   1      40.078  26.448  27.950  1.00  0.00    -0.014 A 
BRANCH  37  38
ATOM     38  C   UNL A   1      40.476  27.754  28.533  1.00  0.00     0.031 A 
ATOM     39  C   UNL A   1      41.881  27.946  29.046  1.00  0.00     0.074 A 
ATOM     40  C   UNL A   1      39.557  28.725  28.696  1.00  0.00     0.049 A 
ATOM     41  N   UNL A   1      42.392  28.958  29.702  1.00  0.00    -0.248 NA
ATOM     42  C   UNL A   1      42.825  26.834  28.838  1.00  0.00     0.031 C 
ATOM     43  C   UNL A   1      38.149  28.644  28.297  1.00  0.00     0.029 A 
ATOM     44  N   UNL A   1      39.672  29.976  29.251  1.00  0.00    -0.354 N 
ATOM     45  C   UNL A   1      43.691  28.581  30.021  1.00  0.00     0.074 A 
ATOM     46  C   UNL A   1      43.869  27.227  29.550  1.00  0.00     0.031 C 
ATOM     47  C   UNL A   1      37.545  29.810  28.575  1.00  0.00     0.029 A 
ATOM     48  C   UNL A   1      38.505  30.701  29.217  1.00  0.00     0.049 A 
ATOM     49  H   UNL A   1      40.510  30.320  29.634  1.00  0.00     0.167 HD
ATOM     50  C   UNL A   1      44.664  29.304  30.624  1.00  0.00     0.031 A 
ATOM     51  C   UNL A   1      38.240  31.945  29.656  1.00  0.00     0.031 A 
ATOM     52  C   UNL A   1      44.498  30.666  31.049  1.00  0.00     0.049 A 
ATOM     53  C   UNL A   1      39.339  32.740  30.303  1.00  0.00     0.074 A 
ATOM     54  C   UNL A   1      45.439  31.521  31.593  1.00  0.00     0.029 A 
ATOM     55  N   UNL A   1      43.307  31.373  30.972  1.00  0.00    -0.354 N 
ATOM     56  N   UNL A   1      40.584  32.396  30.530  1.00  0.00    -0.248 NA
ATOM     57  C   UNL A   1      38.998  34.099  30.744  1.00  0.00     0.031 C 
ATOM     58  C   UNL A   1      44.805  32.732  31.891  1.00  0.00     0.029 A 
ATOM     59  C   UNL A   1      43.483  32.648  31.479  1.00  0.00     0.049 A 
ATOM     60  H   UNL A   1      42.463  31.020  30.610  1.00  0.00     0.167 HD
ATOM     61  C   UNL A   1      41.183  33.505  31.114  1.00  0.00     0.074 A 
ATOM     62  C   UNL A   1      40.168  34.536  31.191  1.00  0.00     0.031 C 
ATOM     63  C   UNL A   1      42.458  33.657  31.546  1.00  0.00     0.031 A 
BRANCH  50  64
ATOM     64  C   UNL A   1      45.988  28.627  30.853  1.00  0.00    -0.014 A 
ATOM     65  C   UNL A   1      47.012  28.677  29.894  1.00  0.00     0.009 A 
ATOM     66  C   UNL A   1      46.218  27.934  32.052  1.00  0.00     0.009 A 
ATOM     67  C   UNL A   1      48.217  28.002  30.105  1.00  0.00     0.001 A 
ATOM     68  C   UNL A   1      47.436  27.290  32.277  1.00  0.00     0.001 A 
ATOM     69  C   UNL A   1      48.429  27.313  31.298  1.00  0.00     0.000 A 
ENDBRANCH  50  64
BRANCH  51  70
ATOM     70  C   UNL A   1      36.888  32.531  29.461  1.00  0.00    -0.014 A 
ATOM     71  C   UNL A   1      35.934  32.464  30.489  1.00  0.00     0.009 A 
ATOM     72  C   UNL A   1      36.544  33.168  28.258  1.00  0.00     0.009 A 
ATOM     73  C   UNL A   1      34.657  33.000  30.308  1.00  0.00     0.001 A 
ATOM     74  C   UNL A   1      35.275  33.728  28.091  1.00  0.00     0.001 A 
ATOM     75  C   UNL A   1      34.330  33.635  29.112  1.00  0.00     0.000 A 
ENDBRANCH  51  70
BRANCH  63  76
ATOM     76  C   UNL A   1      42.837  34.999  32.106  1.00  0.00    -0.014 A 
ATOM     77  C   UNL A   1      43.435  35.982  31.303  1.00  0.00     0.009 A 
ATOM     78  C   UNL A   1      42.546  35.296  33.447  1.00  0.00     0.009 A 
ATOM     79  C   UNL A   1      43.764  37.227  31.843  1.00  0.00     0.001 A 
ATOM     80  C   UNL A   1      42.849  36.551  33.975  1.00  0.00     0.001 A 
ATOM     81  C   UNL A   1      43.466  37.511  33.176  1.00  0.00     0.000 A 
ENDBRANCH  63  76
ENDBRANCH  37  38
ENDBRANCH  29  32
ENDBRANCH  27  28
ENDBRANCH   1  27
TORSDOF 14
ENDMDL
