MODEL 1
REMARK VINA RESULT:     -12.2      0.000      0.000
REMARK SMILES COC(=O)c1ccc([C@H]2Nc3c(C(=O)NCCCNC(=O)c4ccc(-c5c6nc(c(-c7ccccc7)c7ccc([nH]7)c(-c7ccccc7)c7nc(c(-c8ccccc8)c8ccc5[nH]8)C=C7)C=C6)cc4)cccc3[C@H]3[C@H]4CC[C@H](C4)[C@H]32)cc1
REMARK SMILES IDX 16 1 15 2 13 3 14 4 12 6 9 7 10 8 80 9 11 10 74 12 78 13
REMARK SMILES IDX 73 14 75 15 77 16 79 17 70 18 72 19 76 20 71 21 8 22 5 23
REMARK SMILES IDX 6 24 82 25 7 26 81 27 3 28 4 29 2 30 1 31 17 32 18 33 19 34
REMARK SMILES IDX 20 35 21 37 22 38 23 39 69 40 24 41 68 42 25 43 26 44 27 45
REMARK SMILES IDX 62 46 28 47 67 48 61 49 63 50 29 51 66 52 60 53 59 54 30 56
REMARK SMILES IDX 52 57 37 58 51 59 38 60 41 61 50 62 64 63 39 64 40 65 49 67
REMARK SMILES IDX 65 68 42 69 31 70 32 71 36 72 33 73 35 74 34 75 53 76 54 77
REMARK SMILES IDX 58 78 55 79 57 80 56 81 43 82 44 83 48 84 45 85 47 86 46 87
REMARK H PARENT 15 5 10 11 19 36 63 55 41 66
REMARK Flexibility Score: inf
ROOT
ATOM      1  C   UNL A   1      38.667  22.181  25.924  1.00  0.00     0.118 C 
ENDROOT
BRANCH   1   2
ATOM      2  N   UNL A   1      37.943  20.968  25.568  1.00  0.00    -0.352 N 
ATOM      3  C   UNL A   1      36.683  20.835  25.024  1.00  0.00     0.253 C 
ATOM      4  O   UNL A   1      36.164  19.724  24.959  1.00  0.00    -0.269 OA
ATOM      5  H   UNL A   1      38.420  20.123  25.740  1.00  0.00     0.163 HD
BRANCH   3   6
ATOM      6  C   UNL A   1      35.960  22.055  24.592  1.00  0.00     0.063 A 
ATOM      7  C   UNL A   1      33.004  22.115  26.554  1.00  0.00     0.113 C 
ATOM      8  N   UNL A   1      34.484  22.059  26.573  1.00  0.00    -0.377 N 
ATOM      9  C   UNL A   1      32.618  23.616  26.663  1.00  0.00     0.027 C 
ATOM     10  C   UNL A   1      35.055  22.696  25.448  1.00  0.00     0.051 A 
ATOM     11  H   UNL A   1      35.009  21.629  27.286  1.00  0.00     0.161 HD
ATOM     12  C   UNL A   1      33.645  24.630  26.081  1.00  0.00     0.030 C 
ATOM     13  C   UNL A   1      31.253  24.275  26.354  1.00  0.00    -0.005 C 
ATOM     14  C   UNL A   1      34.591  23.983  25.110  1.00  0.00    -0.020 A 
ATOM     15  C   UNL A   1      32.739  25.805  25.636  1.00  0.00    -0.003 C 
ATOM     16  C   UNL A   1      30.915  24.444  24.867  1.00  0.00     0.004 C 
ATOM     17  C   UNL A   1      31.617  25.743  26.687  1.00  0.00     0.008 C 
ATOM     18  C   UNL A   1      36.210  22.591  23.323  1.00  0.00     0.016 A 
ATOM     19  C   UNL A   1      35.042  24.601  23.941  1.00  0.00     0.006 A 
ATOM     20  C   UNL A   1      31.939  25.471  24.369  1.00  0.00     0.004 C 
ATOM     21  C   UNL A   1      35.790  23.880  23.014  1.00  0.00     0.001 A 
BRANCH   7  22
ATOM     22  C   UNL A   1      32.576  21.051  25.535  1.00  0.00    -0.025 A 
ATOM     23  C   UNL A   1      32.503  18.924  23.642  1.00  0.00     0.060 A 
ATOM     24  C   UNL A   1      32.780  18.661  24.982  1.00  0.00     0.016 A 
ATOM     25  C   UNL A   1      32.213  20.237  23.255  1.00  0.00     0.016 A 
ATOM     26  C   UNL A   1      32.804  19.705  25.910  1.00  0.00     0.007 A 
ATOM     27  C   UNL A   1      32.270  21.292  24.190  1.00  0.00     0.007 A 
BRANCH  23  28
ATOM     28  C   UNL A   1      32.595  17.787  22.686  1.00  0.00     0.337 C 
ATOM     29  O   UNL A   1      32.187  17.842  21.534  1.00  0.00    -0.246 OA
BRANCH  28  30
ATOM     30  O   UNL A   1      33.122  16.687  23.283  1.00  0.00    -0.465 OA
ATOM     31  C   UNL A   1      34.533  16.556  23.094  1.00  0.00     0.282 C 
ENDBRANCH  28  30
ENDBRANCH  23  28
ENDBRANCH   7  22
ENDBRANCH   3   6
ENDBRANCH   1   2
BRANCH   1  32
ATOM     32  C   UNL A   1      40.101  21.919  26.346  1.00  0.00     0.042 C 
BRANCH  32  33
ATOM     33  C   UNL A   1      40.383  20.464  26.676  1.00  0.00     0.118 C 
BRANCH  33  34
ATOM     34  N   UNL A   1      41.605  19.974  26.050  1.00  0.00    -0.352 N 
ATOM     35  C   UNL A   1      42.796  20.603  25.792  1.00  0.00     0.251 C 
ATOM     36  H   UNL A   1      41.569  19.032  25.764  1.00  0.00     0.163 HD
ATOM     37  O   UNL A   1      43.631  20.052  25.079  1.00  0.00    -0.269 OA
BRANCH  35  38
ATOM     38  C   UNL A   1      43.072  21.948  26.342  1.00  0.00     0.039 A 
ATOM     39  C   UNL A   1      43.179  23.026  25.458  1.00  0.00     0.014 A 
ATOM     40  C   UNL A   1      43.236  22.153  27.712  1.00  0.00     0.014 A 
ATOM     41  C   UNL A   1      43.363  24.317  25.958  1.00  0.00     0.010 A 
ATOM     42  C   UNL A   1      43.319  23.448  28.216  1.00  0.00     0.010 A 
ATOM     43  C   UNL A   1      43.381  24.544  27.345  1.00  0.00    -0.014 A 
BRANCH  43  44
ATOM     44  C   UNL A   1      43.435  25.921  27.898  1.00  0.00     0.031 A 
ATOM     45  C   UNL A   1      44.746  26.520  28.329  1.00  0.00     0.074 A 
ATOM     46  C   UNL A   1      42.289  26.606  28.078  1.00  0.00     0.049 A 
ATOM     47  N   UNL A   1      44.976  27.685  28.881  1.00  0.00    -0.248 NA
ATOM     48  C   UNL A   1      45.950  25.698  28.136  1.00  0.00     0.031 C 
ATOM     49  C   UNL A   1      40.948  26.120  27.744  1.00  0.00     0.029 A 
ATOM     50  N   UNL A   1      42.067  27.859  28.592  1.00  0.00    -0.354 N 
ATOM     51  C   UNL A   1      46.345  27.729  29.113  1.00  0.00     0.074 A 
ATOM     52  C   UNL A   1      46.886  26.456  28.691  1.00  0.00     0.031 C 
ATOM     53  C   UNL A   1      40.050  27.074  28.029  1.00  0.00     0.029 A 
ATOM     54  C   UNL A   1      40.741  28.218  28.614  1.00  0.00     0.049 A 
ATOM     55  H   UNL A   1      42.790  28.445  28.916  1.00  0.00     0.167 HD
ATOM     56  C   UNL A   1      47.088  28.744  29.614  1.00  0.00     0.031 A 
ATOM     57  C   UNL A   1      40.145  29.337  29.065  1.00  0.00     0.031 A 
ATOM     58  C   UNL A   1      46.551  30.011  30.034  1.00  0.00     0.049 A 
ATOM     59  C   UNL A   1      40.990  30.435  29.648  1.00  0.00     0.074 A 
ATOM     60  C   UNL A   1      47.230  31.122  30.502  1.00  0.00     0.029 A 
ATOM     61  N   UNL A   1      45.202  30.332  30.048  1.00  0.00    -0.354 N 
ATOM     62  N   UNL A   1      42.292  30.490  29.788  1.00  0.00    -0.248 NA
ATOM     63  C   UNL A   1      40.281  31.629  30.129  1.00  0.00     0.031 C 
ATOM     64  C   UNL A   1      46.288  32.092  30.859  1.00  0.00     0.029 A 
ATOM     65  C   UNL A   1      45.026  31.611  30.549  1.00  0.00     0.049 A 
ATOM     66  H   UNL A   1      44.477  29.738  29.745  1.00  0.00     0.167 HD
ATOM     67  C   UNL A   1      42.560  31.733  30.348  1.00  0.00     0.074 A 
ATOM     68  C   UNL A   1      41.287  32.407  30.501  1.00  0.00     0.031 C 
ATOM     69  C   UNL A   1      43.753  32.267  30.705  1.00  0.00     0.031 A 
BRANCH  56  70
ATOM     70  C   UNL A   1      48.571  28.519  29.748  1.00  0.00    -0.014 A 
ATOM     71  C   UNL A   1      49.456  28.852  28.709  1.00  0.00     0.009 A 
ATOM     72  C   UNL A   1      49.094  28.007  30.945  1.00  0.00     0.009 A 
ATOM     73  C   UNL A   1      50.829  28.642  28.854  1.00  0.00     0.001 A 
ATOM     74  C   UNL A   1      50.469  27.829  31.100  1.00  0.00     0.001 A 
ATOM     75  C   UNL A   1      51.335  28.135  30.051  1.00  0.00     0.000 A 
ENDBRANCH  56  70
BRANCH  57  76
ATOM     76  C   UNL A   1      38.667  29.479  28.983  1.00  0.00    -0.014 A 
ATOM     77  C   UNL A   1      38.054  29.877  27.784  1.00  0.00     0.009 A 
ATOM     78  C   UNL A   1      37.861  29.226  30.104  1.00  0.00     0.009 A 
ATOM     79  C   UNL A   1      36.669  30.048  27.719  1.00  0.00     0.001 A 
ATOM     80  C   UNL A   1      36.473  29.366  30.027  1.00  0.00     0.001 A 
ATOM     81  C   UNL A   1      35.880  29.787  28.839  1.00  0.00     0.000 A 
ENDBRANCH  57  76
BRANCH  69  82
ATOM     82  C   UNL A   1      43.740  33.660  31.271  1.00  0.00    -0.014 A 
ATOM     83  C   UNL A   1      43.654  33.886  32.654  1.00  0.00     0.009 A 
ATOM     84  C   UNL A   1      43.852  34.762  30.408  1.00  0.00     0.009 A 
ATOM     85  C   UNL A   1      43.641  35.188  33.157  1.00  0.00     0.001 A 
ATOM     86  C   UNL A   1      43.874  36.061  30.917  1.00  0.00     0.001 A 
ATOM     87  C   UNL A   1      43.758  36.274  32.289  1.00  0.00     0.000 A 
ENDBRANCH  69  82
ENDBRANCH  43  44
ENDBRANCH  35  38
ENDBRANCH  33  34
ENDBRANCH  32  33
ENDBRANCH   1  32
TORSDOF 13
ENDMDL
MODEL 2
REMARK VINA RESULT:     -12.1      3.536      4.585
REMARK SMILES COC(=O)c1ccc([C@H]2Nc3c(C(=O)NCCCNC(=O)c4ccc(-c5c6nc(c(-c7ccccc7)c7ccc([nH]7)c(-c7ccccc7)c7nc(c(-c8ccccc8)c8ccc5[nH]8)C=C7)C=C6)cc4)cccc3[C@H]3[C@H]4CC[C@H](C4)[C@H]32)cc1
REMARK SMILES IDX 16 1 15 2 13 3 14 4 12 6 9 7 10 8 80 9 11 10 74 12 78 13
REMARK SMILES IDX 73 14 75 15 77 16 79 17 70 18 72 19 76 20 71 21 8 22 5 23
REMARK SMILES IDX 6 24 82 25 7 26 81 27 3 28 4 29 2 30 1 31 17 32 18 33 19 34
REMARK SMILES IDX 20 35 21 37 22 38 23 39 69 40 24 41 68 42 25 43 26 44 27 45
REMARK SMILES IDX 62 46 28 47 67 48 61 49 63 50 29 51 66 52 60 53 59 54 30 56
REMARK SMILES IDX 52 57 37 58 51 59 38 60 41 61 50 62 64 63 39 64 40 65 49 67
REMARK SMILES IDX 65 68 42 69 31 70 32 71 36 72 33 73 35 74 34 75 53 76 54 77
REMARK SMILES IDX 58 78 55 79 57 80 56 81 43 82 44 83 48 84 45 85 47 86 46 87
REMARK H PARENT 15 5 10 11 19 36 63 55 41 66
REMARK Flexibility Score: inf
ROOT
ATOM      1  C   UNL A   1      38.804  22.014  25.917  1.00  0.00     0.118 C 
ENDROOT
BRANCH   1   2
ATOM      2  N   UNL A   1      38.028  20.824  25.593  1.00  0.00    -0.352 N 
ATOM      3  C   UNL A   1      36.757  20.731  25.067  1.00  0.00     0.253 C 
ATOM      4  O   UNL A   1      36.194  19.640  25.030  1.00  0.00    -0.269 OA
ATOM      5  H   UNL A   1      38.474  19.964  25.775  1.00  0.00     0.163 HD
BRANCH   3   6
ATOM      6  C   UNL A   1      36.077  21.970  24.619  1.00  0.00     0.063 A 
ATOM      7  C   UNL A   1      33.089  22.120  26.528  1.00  0.00     0.113 C 
ATOM      8  N   UNL A   1      34.567  22.021  26.574  1.00  0.00    -0.377 N 
ATOM      9  C   UNL A   1      32.746  23.632  26.628  1.00  0.00     0.027 C 
ATOM     10  C   UNL A   1      35.176  22.639  25.458  1.00  0.00     0.051 A 
ATOM     11  H   UNL A   1      35.066  21.578  27.297  1.00  0.00     0.161 HD
ATOM     12  C   UNL A   1      33.812  24.614  26.063  1.00  0.00     0.030 C 
ATOM     13  C   UNL A   1      31.405  24.329  26.294  1.00  0.00    -0.005 C 
ATOM     14  C   UNL A   1      34.756  23.938  25.110  1.00  0.00    -0.020 A 
ATOM     15  C   UNL A   1      32.948  25.813  25.599  1.00  0.00    -0.003 C 
ATOM     16  C   UNL A   1      31.100  24.504  24.801  1.00  0.00     0.004 C 
ATOM     17  C   UNL A   1      31.806  25.787  26.630  1.00  0.00     0.008 C 
ATOM     18  C   UNL A   1      36.365  22.496  23.354  1.00  0.00     0.016 A 
ATOM     19  C   UNL A   1      35.245  24.540  23.948  1.00  0.00     0.006 A 
ATOM     20  C   UNL A   1      32.161  25.500  24.319  1.00  0.00     0.004 C 
ATOM     21  C   UNL A   1      35.988  23.796  23.036  1.00  0.00     0.001 A 
BRANCH   7  22
ATOM     22  C   UNL A   1      32.650  21.067  25.504  1.00  0.00    -0.025 A 
ATOM     23  C   UNL A   1      32.545  18.923  23.630  1.00  0.00     0.060 A 
ATOM     24  C   UNL A   1      32.757  18.663  24.983  1.00  0.00     0.016 A 
ATOM     25  C   UNL A   1      32.335  20.245  23.219  1.00  0.00     0.016 A 
ATOM     26  C   UNL A   1      32.796  19.715  25.901  1.00  0.00     0.007 A 
ATOM     27  C   UNL A   1      32.408  21.306  24.146  1.00  0.00     0.007 A 
BRANCH  23  28
ATOM     28  C   UNL A   1      32.618  17.772  22.690  1.00  0.00     0.337 C 
ATOM     29  O   UNL A   1      32.188  17.811  21.545  1.00  0.00    -0.246 OA
BRANCH  28  30
ATOM     30  O   UNL A   1      33.154  16.681  23.293  1.00  0.00    -0.465 OA
ATOM     31  C   UNL A   1      34.579  16.733  23.405  1.00  0.00     0.282 C 
ENDBRANCH  28  30
ENDBRANCH  23  28
ENDBRANCH   7  22
ENDBRANCH   3   6
ENDBRANCH   1   2
BRANCH   1  32
ATOM     32  C   UNL A   1      40.250  21.709  26.260  1.00  0.00     0.042 C 
BRANCH  32  33
ATOM     33  C   UNL A   1      40.994  22.885  26.868  1.00  0.00     0.118 C 
BRANCH  33  34
ATOM     34  N   UNL A   1      41.668  23.701  25.867  1.00  0.00    -0.352 N 
ATOM     35  C   UNL A   1      41.997  25.033  25.869  1.00  0.00     0.251 C 
ATOM     36  H   UNL A   1      41.931  23.215  25.052  1.00  0.00     0.163 HD
ATOM     37  O   UNL A   1      42.396  25.560  24.834  1.00  0.00    -0.269 OA
BRANCH  35  38
ATOM     38  C   UNL A   1      41.851  25.844  27.097  1.00  0.00     0.039 A 
ATOM     39  C   UNL A   1      42.807  26.826  27.371  1.00  0.00     0.014 A 
ATOM     40  C   UNL A   1      40.791  25.640  27.981  1.00  0.00     0.014 A 
ATOM     41  C   UNL A   1      42.650  27.655  28.484  1.00  0.00     0.010 A 
ATOM     42  C   UNL A   1      40.581  26.528  29.031  1.00  0.00     0.010 A 
ATOM     43  C   UNL A   1      41.507  27.547  29.292  1.00  0.00    -0.014 A 
BRANCH  43  44
ATOM     44  C   UNL A   1      41.251  28.508  30.395  1.00  0.00     0.031 A 
ATOM     45  C   UNL A   1      42.063  28.454  31.659  1.00  0.00     0.074 A 
ATOM     46  C   UNL A   1      40.234  29.385  30.284  1.00  0.00     0.049 A 
ATOM     47  N   UNL A   1      41.946  29.178  32.745  1.00  0.00    -0.248 NA
ATOM     48  C   UNL A   1      43.131  27.444  31.724  1.00  0.00     0.031 C 
ATOM     49  C   UNL A   1      39.342  29.510  29.128  1.00  0.00     0.029 A 
ATOM     50  N   UNL A   1      39.776  30.340  31.158  1.00  0.00    -0.354 N 
ATOM     51  C   UNL A   1      42.912  28.702  33.622  1.00  0.00     0.074 A 
ATOM     52  C   UNL A   1      43.572  27.595  32.965  1.00  0.00     0.031 C 
ATOM     53  C   UNL A   1      38.469  30.503  29.351  1.00  0.00     0.029 A 
ATOM     54  C   UNL A   1      38.702  31.053  30.681  1.00  0.00     0.049 A 
ATOM     55  H   UNL A   1      40.179  30.498  32.043  1.00  0.00     0.167 HD
ATOM     56  C   UNL A   1      43.234  29.156  34.856  1.00  0.00     0.031 A 
ATOM     57  C   UNL A   1      37.978  32.031  31.256  1.00  0.00     0.031 A 
ATOM     58  C   UNL A   1      42.578  30.257  35.512  1.00  0.00     0.049 A 
ATOM     59  C   UNL A   1      38.335  32.494  32.639  1.00  0.00     0.074 A 
ATOM     60  C   UNL A   1      42.870  30.827  36.738  1.00  0.00     0.029 A 
ATOM     61  N   UNL A   1      41.490  30.946  34.999  1.00  0.00    -0.354 N 
ATOM     62  N   UNL A   1      39.303  32.085  33.424  1.00  0.00    -0.248 NA
ATOM     63  C   UNL A   1      37.504  33.560  33.214  1.00  0.00     0.031 C 
ATOM     64  C   UNL A   1      41.919  31.820  36.996  1.00  0.00     0.029 A 
ATOM     65  C   UNL A   1      41.077  31.914  35.901  1.00  0.00     0.049 A 
ATOM     66  H   UNL A   1      41.073  30.774  34.123  1.00  0.00     0.167 HD
ATOM     67  C   UNL A   1      39.212  32.860  34.572  1.00  0.00     0.074 A 
ATOM     68  C   UNL A   1      38.109  33.778  34.373  1.00  0.00     0.031 C 
ATOM     69  C   UNL A   1      39.972  32.815  35.693  1.00  0.00     0.031 A 
BRANCH  56  70
ATOM     70  C   UNL A   1      44.345  28.451  35.588  1.00  0.00    -0.014 A 
ATOM     71  C   UNL A   1      44.086  27.349  36.420  1.00  0.00     0.009 A 
ATOM     72  C   UNL A   1      45.673  28.868  35.410  1.00  0.00     0.009 A 
ATOM     73  C   UNL A   1      45.130  26.705  37.087  1.00  0.00     0.001 A 
ATOM     74  C   UNL A   1      46.718  28.201  36.051  1.00  0.00     0.001 A 
ATOM     75  C   UNL A   1      46.446  27.127  36.898  1.00  0.00     0.000 A 
ENDBRANCH  56  70
BRANCH  57  76
ATOM     76  C   UNL A   1      36.838  32.643  30.521  1.00  0.00    -0.014 A 
ATOM     77  C   UNL A   1      35.528  32.179  30.722  1.00  0.00     0.009 A 
ATOM     78  C   UNL A   1      37.055  33.686  29.608  1.00  0.00     0.009 A 
ATOM     79  C   UNL A   1      34.465  32.728  30.002  1.00  0.00     0.001 A 
ATOM     80  C   UNL A   1      35.984  34.256  28.913  1.00  0.00     0.001 A 
ATOM     81  C   UNL A   1      34.693  33.768  29.103  1.00  0.00     0.000 A 
ENDBRANCH  57  76
BRANCH  69  82
ATOM     82  C   UNL A   1      39.655  33.805  36.779  1.00  0.00    -0.014 A 
ATOM     83  C   UNL A   1      38.872  33.448  37.888  1.00  0.00     0.009 A 
ATOM     84  C   UNL A   1      40.178  35.107  36.708  1.00  0.00     0.009 A 
ATOM     85  C   UNL A   1      38.588  34.385  38.884  1.00  0.00     0.001 A 
ATOM     86  C   UNL A   1      39.921  36.031  37.721  1.00  0.00     0.001 A 
ATOM     87  C   UNL A   1      39.118  35.672  38.803  1.00  0.00     0.000 A 
ENDBRANCH  69  82
ENDBRANCH  43  44
ENDBRANCH  35  38
ENDBRANCH  33  34
ENDBRANCH  32  33
ENDBRANCH   1  32
TORSDOF 13
ENDMDL
MODEL 3
REMARK VINA RESULT:     -12.0      0.404      5.702
REMARK SMILES COC(=O)c1ccc([C@H]2Nc3c(C(=O)NCCCNC(=O)c4ccc(-c5c6nc(c(-c7ccccc7)c7ccc([nH]7)c(-c7ccccc7)c7nc(c(-c8ccccc8)c8ccc5[nH]8)C=C7)C=C6)cc4)cccc3[C@H]3[C@H]4CC[C@H](C4)[C@H]32)cc1
REMARK SMILES IDX 16 1 15 2 13 3 14 4 12 6 9 7 10 8 80 9 11 10 74 12 78 13
REMARK SMILES IDX 73 14 75 15 77 16 79 17 70 18 72 19 76 20 71 21 8 22 5 23
REMARK SMILES IDX 6 24 82 25 7 26 81 27 3 28 4 29 2 30 1 31 17 32 18 33 19 34
REMARK SMILES IDX 20 35 21 37 22 38 23 39 69 40 24 41 68 42 25 43 26 44 27 45
REMARK SMILES IDX 62 46 28 47 67 48 61 49 63 50 29 51 66 52 60 53 59 54 30 56
REMARK SMILES IDX 52 57 37 58 51 59 38 60 41 61 50 62 64 63 39 64 40 65 49 67
REMARK SMILES IDX 65 68 42 69 31 70 32 71 36 72 33 73 35 74 34 75 53 76 54 77
REMARK SMILES IDX 58 78 55 79 57 80 56 81 43 82 44 83 48 84 45 85 47 86 46 87
REMARK H PARENT 15 5 10 11 19 36 63 55 41 66
REMARK Flexibility Score: inf
ROOT
ATOM      1  C   UNL A   1      38.539  22.403  25.994  1.00  0.00     0.118 C 
ENDROOT
BRANCH   1   2
ATOM      2  N   UNL A   1      37.870  21.166  25.613  1.00  0.00    -0.352 N 
ATOM      3  C   UNL A   1      36.630  20.991  25.036  1.00  0.00     0.253 C 
ATOM      4  O   UNL A   1      36.153  19.863  24.952  1.00  0.00    -0.269 OA
ATOM      5  H   UNL A   1      38.372  20.339  25.795  1.00  0.00     0.163 HD
BRANCH   3   6
ATOM      6  C   UNL A   1      35.875  22.187  24.589  1.00  0.00     0.063 A 
ATOM      7  C   UNL A   1      32.914  22.188  26.546  1.00  0.00     0.113 C 
ATOM      8  N   UNL A   1      34.396  22.172  26.568  1.00  0.00    -0.377 N 
ATOM      9  C   UNL A   1      32.489  23.680  26.638  1.00  0.00     0.027 C 
ATOM     10  C   UNL A   1      34.952  22.812  25.437  1.00  0.00     0.051 A 
ATOM     11  H   UNL A   1      34.931  21.764  27.286  1.00  0.00     0.161 HD
ATOM     12  C   UNL A   1      33.489  24.714  26.047  1.00  0.00     0.030 C 
ATOM     13  C   UNL A   1      31.106  24.298  26.320  1.00  0.00    -0.005 C 
ATOM     14  C   UNL A   1      34.454  24.083  25.085  1.00  0.00    -0.020 A 
ATOM     15  C   UNL A   1      32.552  25.859  25.588  1.00  0.00    -0.003 C 
ATOM     16  C   UNL A   1      30.767  24.442  24.831  1.00  0.00     0.004 C 
ATOM     17  C   UNL A   1      31.431  25.779  26.638  1.00  0.00     0.008 C 
ATOM     18  C   UNL A   1      36.113  22.716  23.315  1.00  0.00     0.016 A 
ATOM     19  C   UNL A   1      34.890  24.700  23.909  1.00  0.00     0.006 A 
ATOM     20  C   UNL A   1      31.764  25.490  24.323  1.00  0.00     0.004 C 
ATOM     21  C   UNL A   1      35.659  23.990  22.992  1.00  0.00     0.001 A 
BRANCH   7  22
ATOM     22  C   UNL A   1      32.518  21.103  25.538  1.00  0.00    -0.025 A 
ATOM     23  C   UNL A   1      32.504  18.949  23.673  1.00  0.00     0.060 A 
ATOM     24  C   UNL A   1      32.776  18.710  25.018  1.00  0.00     0.016 A 
ATOM     25  C   UNL A   1      32.190  20.251  23.266  1.00  0.00     0.016 A 
ATOM     26  C   UNL A   1      32.770  19.766  25.933  1.00  0.00     0.007 A 
ATOM     27  C   UNL A   1      32.218  21.319  24.187  1.00  0.00     0.007 A 
BRANCH  23  28
ATOM     28  C   UNL A   1      32.628  17.802  22.733  1.00  0.00     0.337 C 
ATOM     29  O   UNL A   1      32.241  17.839  21.572  1.00  0.00    -0.246 OA
BRANCH  28  30
ATOM     30  O   UNL A   1      33.156  16.716  23.353  1.00  0.00    -0.465 OA
ATOM     31  C   UNL A   1      34.555  16.545  23.112  1.00  0.00     0.282 C 
ENDBRANCH  28  30
ENDBRANCH  23  28
ENDBRANCH   7  22
ENDBRANCH   3   6
ENDBRANCH   1   2
BRANCH   1  32
ATOM     32  C   UNL A   1      40.028  22.228  26.232  1.00  0.00     0.042 C 
BRANCH  32  33
ATOM     33  C   UNL A   1      40.404  20.851  26.749  1.00  0.00     0.118 C 
BRANCH  33  34
ATOM     34  N   UNL A   1      41.635  20.345  26.153  1.00  0.00    -0.352 N 
ATOM     35  C   UNL A   1      42.848  20.952  25.949  1.00  0.00     0.251 C 
ATOM     36  H   UNL A   1      41.588  19.410  25.847  1.00  0.00     0.163 HD
ATOM     37  O   UNL A   1      43.693  20.397  25.252  1.00  0.00    -0.269 OA
BRANCH  35  38
ATOM     38  C   UNL A   1      43.135  22.279  26.535  1.00  0.00     0.039 A 
ATOM     39  C   UNL A   1      43.310  23.369  25.678  1.00  0.00     0.014 A 
ATOM     40  C   UNL A   1      43.243  22.456  27.915  1.00  0.00     0.014 A 
ATOM     41  C   UNL A   1      43.507  24.645  26.209  1.00  0.00     0.010 A 
ATOM     42  C   UNL A   1      43.338  23.739  28.446  1.00  0.00     0.010 A 
ATOM     43  C   UNL A   1      43.469  24.848  27.599  1.00  0.00    -0.014 A 
BRANCH  43  44
ATOM     44  C   UNL A   1      43.536  26.212  28.180  1.00  0.00     0.031 A 
ATOM     45  C   UNL A   1      42.281  27.014  28.395  1.00  0.00     0.074 A 
ATOM     46  C   UNL A   1      44.738  26.757  28.449  1.00  0.00     0.049 A 
ATOM     47  N   UNL A   1      42.153  28.238  28.841  1.00  0.00    -0.248 NA
ATOM     48  C   UNL A   1      41.008  26.367  28.042  1.00  0.00     0.031 C 
ATOM     49  C   UNL A   1      46.032  26.102  28.244  1.00  0.00     0.029 A 
ATOM     50  N   UNL A   1      45.069  27.992  28.950  1.00  0.00    -0.354 N 
ATOM     51  C   UNL A   1      40.791  28.511  28.810  1.00  0.00     0.074 A 
ATOM     52  C   UNL A   1      40.140  27.346  28.253  1.00  0.00     0.031 C 
ATOM     53  C   UNL A   1      47.011  26.926  28.646  1.00  0.00     0.029 A 
ATOM     54  C   UNL A   1      46.423  28.185  29.089  1.00  0.00     0.049 A 
ATOM     55  H   UNL A   1      44.400  28.674  29.187  1.00  0.00     0.167 HD
ATOM     56  C   UNL A   1      40.139  29.623  29.224  1.00  0.00     0.031 A 
ATOM     57  C   UNL A   1      47.114  29.259  29.512  1.00  0.00     0.031 A 
ATOM     58  C   UNL A   1      40.787  30.783  29.778  1.00  0.00     0.049 A 
ATOM     59  C   UNL A   1      46.368  30.492  29.935  1.00  0.00     0.074 A 
ATOM     60  C   UNL A   1      40.208  31.935  30.279  1.00  0.00     0.029 A 
ATOM     61  N   UNL A   1      42.160  30.942  29.894  1.00  0.00    -0.354 N 
ATOM     62  N   UNL A   1      45.075  30.704  29.972  1.00  0.00    -0.248 NA
ATOM     63  C   UNL A   1      47.179  31.634  30.382  1.00  0.00     0.031 C 
ATOM     64  C   UNL A   1      41.232  32.818  30.639  1.00  0.00     0.029 A 
ATOM     65  C   UNL A   1      42.447  32.188  30.426  1.00  0.00     0.049 A 
ATOM     66  H   UNL A   1      42.830  30.268  29.637  1.00  0.00     0.167 HD
ATOM     67  C   UNL A   1      44.916  31.991  30.470  1.00  0.00     0.074 A 
ATOM     68  C   UNL A   1      46.245  32.502  30.741  1.00  0.00     0.031 C 
ATOM     69  C   UNL A   1      43.774  32.688  30.682  1.00  0.00     0.031 A 
BRANCH  56  70
ATOM     70  C   UNL A   1      38.641  29.643  29.082  1.00  0.00    -0.014 A 
ATOM     71  C   UNL A   1      37.801  29.343  30.167  1.00  0.00     0.009 A 
ATOM     72  C   UNL A   1      38.061  30.011  27.858  1.00  0.00     0.009 A 
ATOM     73  C   UNL A   1      36.413  29.372  30.017  1.00  0.00     0.001 A 
ATOM     74  C   UNL A   1      36.673  30.072  27.720  1.00  0.00     0.001 A 
ATOM     75  C   UNL A   1      35.850  29.742  28.796  1.00  0.00     0.000 A 
ENDBRANCH  56  70
BRANCH  57  76
ATOM     76  C   UNL A   1      48.600  29.216  29.560  1.00  0.00    -0.014 A 
ATOM     77  C   UNL A   1      49.265  28.787  30.720  1.00  0.00     0.009 A 
ATOM     78  C   UNL A   1      49.362  29.613  28.450  1.00  0.00     0.009 A 
ATOM     79  C   UNL A   1      50.660  28.786  30.777  1.00  0.00     0.001 A 
ATOM     80  C   UNL A   1      50.758  29.578  28.499  1.00  0.00     0.001 A 
ATOM     81  C   UNL A   1      51.405  29.176  29.665  1.00  0.00     0.000 A 
ENDBRANCH  57  76
BRANCH  69  82
ATOM     82  C   UNL A   1      43.909  34.069  31.260  1.00  0.00    -0.014 A 
ATOM     83  C   UNL A   1      43.997  35.202  30.436  1.00  0.00     0.009 A 
ATOM     84  C   UNL A   1      43.912  34.242  32.654  1.00  0.00     0.009 A 
ATOM     85  C   UNL A   1      44.124  36.475  30.995  1.00  0.00     0.001 A 
ATOM     86  C   UNL A   1      44.004  35.519  33.210  1.00  0.00     0.001 A 
ATOM     87  C   UNL A   1      44.121  36.633  32.380  1.00  0.00     0.000 A 
ENDBRANCH  69  82
ENDBRANCH  43  44
ENDBRANCH  35  38
ENDBRANCH  33  34
ENDBRANCH  32  33
ENDBRANCH   1  32
TORSDOF 13
ENDMDL
