MODEL 1
REMARK VINA RESULT:     -10.2      0.000      0.000
REMARK SMILES CC(C)(C[NH2+]CCc1cccnc1)C(=O)NCCCNC(=O)c1ccc(-c2c3nc(c(-c4ccccc4)c4ccc([nH]4)c(-c4ccccc4)c4nc(c(-c5ccccc5)c5ccc2[nH]5)C=C4)C=C3)cc1
REMARK SMILES IDX 14 1 15 2 16 3 2 5 1 6 3 7 4 8 5 9 6 12 7 13 8 14 9 15 13 16
REMARK SMILES IDX 10 17 12 18 11 19 17 20 18 21 19 22 20 23 21 24 22 26 23 27
REMARK SMILES IDX 24 28 70 29 25 30 69 31 26 32 27 33 28 34 63 35 29 36 68 37
REMARK SMILES IDX 62 38 64 39 30 40 67 41 61 42 60 43 31 45 53 46 38 47 52 48
REMARK SMILES IDX 39 49 42 50 51 51 65 52 40 53 41 54 50 56 66 57 43 58 32 59
REMARK SMILES IDX 33 60 37 61 34 62 36 63 35 64 54 65 55 66 59 67 56 68 58 69
REMARK SMILES IDX 57 70 44 71 45 72 49 73 46 74 48 75 47 76
REMARK H PARENT 16 4 5 10 5 11 20 25 64 44 42 55
REMARK Flexibility Score: inf
ROOT
ATOM      1  C   UNL A   1      36.216  23.053  25.649  1.00  0.00     0.231 C 
ATOM      2  O   UNL A   1      36.902  24.066  25.825  1.00  0.00    -0.274 OA
ATOM      3  N   UNL A   1      36.909  21.937  25.301  1.00  0.00    -0.355 N 
ATOM      4  H   UNL A   1      37.882  22.082  25.240  1.00  0.00     0.163 HD
ENDROOT
BRANCH   1   5
ATOM      5  C   UNL A   1      34.693  23.066  25.884  1.00  0.00     0.092 C 
ATOM      6  C   UNL A   1      34.178  24.515  25.681  1.00  0.00     0.027 C 
ATOM      7  C   UNL A   1      34.391  22.720  27.357  1.00  0.00     0.027 C 
BRANCH   5   8
ATOM      8  C   UNL A   1      33.926  22.106  24.935  1.00  0.00     0.276 C 
BRANCH   8   9
ATOM      9  N   UNL A   1      32.755  21.467  25.545  1.00  0.00    -0.345 N 
ATOM     10  H   UNL A   1      32.051  22.184  25.715  1.00  0.00     0.346 HD
ATOM     11  H   UNL A   1      33.078  21.018  26.402  1.00  0.00     0.346 HD
BRANCH   9  12
ATOM     12  C   UNL A   1      32.151  20.415  24.719  1.00  0.00     0.265 C 
BRANCH  12  13
ATOM     13  C   UNL A   1      33.114  19.562  23.870  1.00  0.00     0.098 C 
BRANCH  13  14
ATOM     14  C   UNL A   1      33.203  18.123  24.303  1.00  0.00    -0.024 A 
ATOM     15  C   UNL A   1      32.522  17.654  25.431  1.00  0.00     0.007 A 
ATOM     16  C   UNL A   1      33.945  17.195  23.578  1.00  0.00     0.114 A 
ATOM     17  C   UNL A   1      32.590  16.309  25.774  1.00  0.00     0.020 A 
ATOM     18  N   UNL A   1      34.039  15.885  23.896  1.00  0.00    -0.264 NA
ATOM     19  C   UNL A   1      33.355  15.471  24.985  1.00  0.00     0.111 A 
ENDBRANCH  13  14
ENDBRANCH  12  13
ENDBRANCH   9  12
ENDBRANCH   8   9
ENDBRANCH   5   8
ENDBRANCH   1   5
BRANCH   3  20
ATOM     20  C   UNL A   1      36.510  20.575  25.000  1.00  0.00     0.117 C 
BRANCH  20  21
ATOM     21  C   UNL A   1      37.691  19.611  25.003  1.00  0.00     0.042 C 
BRANCH  21  22
ATOM     22  C   UNL A   1      38.931  20.151  25.706  1.00  0.00     0.118 C 
BRANCH  22  23
ATOM     23  N   UNL A   1      39.987  19.153  25.825  1.00  0.00    -0.352 N 
ATOM     24  C   UNL A   1      41.334  19.299  26.026  1.00  0.00     0.251 C 
ATOM     25  H   UNL A   1      39.682  18.221  25.749  1.00  0.00     0.163 HD
ATOM     26  O   UNL A   1      42.076  18.324  25.887  1.00  0.00    -0.269 OA
BRANCH  24  27
ATOM     27  C   UNL A   1      41.913  20.608  26.392  1.00  0.00     0.039 A 
ATOM     28  C   UNL A   1      42.254  21.504  25.374  1.00  0.00     0.014 A 
ATOM     29  C   UNL A   1      42.163  20.942  27.725  1.00  0.00     0.014 A 
ATOM     30  C   UNL A   1      42.784  22.757  25.696  1.00  0.00     0.010 A 
ATOM     31  C   UNL A   1      42.615  22.219  28.050  1.00  0.00     0.010 A 
ATOM     32  C   UNL A   1      42.935  23.137  27.040  1.00  0.00    -0.014 A 
BRANCH  32  33
ATOM     33  C   UNL A   1      43.432  24.485  27.410  1.00  0.00     0.031 A 
ATOM     34  C   UNL A   1      42.468  25.552  27.851  1.00  0.00     0.074 A 
ATOM     35  C   UNL A   1      44.742  24.772  27.279  1.00  0.00     0.049 A 
ATOM     36  N   UNL A   1      42.701  26.809  28.136  1.00  0.00    -0.248 NA
ATOM     37  C   UNL A   1      41.053  25.163  27.961  1.00  0.00     0.031 C 
ATOM     38  C   UNL A   1      45.775  23.839  26.824  1.00  0.00     0.029 A 
ATOM     39  N   UNL A   1      45.426  25.939  27.509  1.00  0.00    -0.354 N 
ATOM     40  C   UNL A   1      41.463  27.363  28.432  1.00  0.00     0.074 A 
ATOM     41  C   UNL A   1      40.476  26.320  28.252  1.00  0.00     0.031 C 
ATOM     42  C   UNL A   1      46.964  24.463  26.832  1.00  0.00     0.029 A 
ATOM     43  C   UNL A   1      46.772  25.847  27.253  1.00  0.00     0.049 A 
ATOM     44  H   UNL A   1      44.994  26.764  27.828  1.00  0.00     0.167 HD
ATOM     45  C   UNL A   1      41.171  28.623  28.837  1.00  0.00     0.031 A 
ATOM     46  C   UNL A   1      47.744  26.775  27.339  1.00  0.00     0.031 A 
ATOM     47  C   UNL A   1      42.151  29.657  29.035  1.00  0.00     0.049 A 
ATOM     48  C   UNL A   1      47.396  28.165  27.788  1.00  0.00     0.074 A 
ATOM     49  C   UNL A   1      41.962  30.946  29.501  1.00  0.00     0.029 A 
ATOM     50  N   UNL A   1      43.506  29.517  28.779  1.00  0.00    -0.354 N 
ATOM     51  N   UNL A   1      46.228  28.656  28.125  1.00  0.00    -0.248 NA
ATOM     52  C   UNL A   1      48.504  29.126  27.880  1.00  0.00     0.031 C 
ATOM     53  C   UNL A   1      43.198  31.601  29.485  1.00  0.00     0.029 A 
ATOM     54  C   UNL A   1      44.164  30.702  29.058  1.00  0.00     0.049 A 
ATOM     55  H   UNL A   1      43.937  28.696  28.448  1.00  0.00     0.167 HD
ATOM     56  C   UNL A   1      46.464  29.975  28.492  1.00  0.00     0.074 A 
ATOM     57  C   UNL A   1      47.887  30.202  28.350  1.00  0.00     0.031 C 
ATOM     58  C   UNL A   1      45.580  30.912  28.910  1.00  0.00     0.031 A 
BRANCH  45  59
ATOM     59  C   UNL A   1      39.725  28.952  29.085  1.00  0.00    -0.014 A 
ATOM     60  C   UNL A   1      39.149  28.783  30.354  1.00  0.00     0.009 A 
ATOM     61  C   UNL A   1      38.937  29.464  28.044  1.00  0.00     0.009 A 
ATOM     62  C   UNL A   1      37.802  29.084  30.565  1.00  0.00     0.001 A 
ATOM     63  C   UNL A   1      37.597  29.791  28.265  1.00  0.00     0.001 A 
ATOM     64  C   UNL A   1      37.028  29.591  29.521  1.00  0.00     0.000 A 
ENDBRANCH  45  59
BRANCH  46  65
ATOM     65  C   UNL A   1      49.147  26.413  27.010  1.00  0.00    -0.014 A 
ATOM     66  C   UNL A   1      49.624  26.548  25.698  1.00  0.00     0.009 A 
ATOM     67  C   UNL A   1      50.014  25.932  28.003  1.00  0.00     0.009 A 
ATOM     68  C   UNL A   1      50.935  26.185  25.382  1.00  0.00     0.001 A 
ATOM     69  C   UNL A   1      51.332  25.595  27.689  1.00  0.00     0.001 A 
ATOM     70  C   UNL A   1      51.789  25.714  26.378  1.00  0.00     0.000 A 
ENDBRANCH  46  65
BRANCH  58  71
ATOM     71  C   UNL A   1      46.133  32.259  29.275  1.00  0.00    -0.014 A 
ATOM     72  C   UNL A   1      46.212  33.294  28.331  1.00  0.00     0.009 A 
ATOM     73  C   UNL A   1      46.544  32.507  30.595  1.00  0.00     0.009 A 
ATOM     74  C   UNL A   1      46.722  34.542  28.695  1.00  0.00     0.001 A 
ATOM     75  C   UNL A   1      47.027  33.762  30.961  1.00  0.00     0.001 A 
ATOM     76  C   UNL A   1      47.125  34.776  30.010  1.00  0.00     0.000 A 
ENDBRANCH  58  71
ENDBRANCH  32  33
ENDBRANCH  24  27
ENDBRANCH  22  23
ENDBRANCH  21  22
ENDBRANCH  20  21
ENDBRANCH   3  20
TORSDOF 15
ENDMDL
MODEL 2
REMARK VINA RESULT:     -10.1      6.349     10.573
REMARK SMILES CC(C)(C[NH2+]CCc1cccnc1)C(=O)NCCCNC(=O)c1ccc(-c2c3nc(c(-c4ccccc4)c4ccc([nH]4)c(-c4ccccc4)c4nc(c(-c5ccccc5)c5ccc2[nH]5)C=C4)C=C3)cc1
REMARK SMILES IDX 14 1 15 2 16 3 2 5 1 6 3 7 4 8 5 9 6 12 7 13 8 14 9 15 13 16
REMARK SMILES IDX 10 17 12 18 11 19 17 20 18 21 19 22 20 23 21 24 22 26 23 27
REMARK SMILES IDX 24 28 70 29 25 30 69 31 26 32 27 33 28 34 63 35 29 36 68 37
REMARK SMILES IDX 62 38 64 39 30 40 67 41 61 42 60 43 31 45 53 46 38 47 52 48
REMARK SMILES IDX 39 49 42 50 51 51 65 52 40 53 41 54 50 56 66 57 43 58 32 59
REMARK SMILES IDX 33 60 37 61 34 62 36 63 35 64 54 65 55 66 59 67 56 68 58 69
REMARK SMILES IDX 57 70 44 71 45 72 49 73 46 74 48 75 47 76
REMARK H PARENT 16 4 5 10 5 11 20 25 64 44 42 55
REMARK Flexibility Score: inf
ROOT
ATOM      1  C   UNL A   1      29.145  32.532  23.456  1.00  0.00     0.231 C 
ATOM      2  O   UNL A   1      28.851  33.684  23.119  1.00  0.00    -0.274 OA
ATOM      3  N   UNL A   1      29.970  32.435  24.531  1.00  0.00    -0.355 N 
ATOM      4  H   UNL A   1      30.224  33.308  24.911  1.00  0.00     0.163 HD
ENDROOT
BRANCH   1   5
ATOM      5  C   UNL A   1      28.546  31.308  22.734  1.00  0.00     0.092 C 
ATOM      6  C   UNL A   1      28.038  31.762  21.341  1.00  0.00     0.027 C 
ATOM      7  C   UNL A   1      27.297  30.817  23.493  1.00  0.00     0.027 C 
BRANCH   5   8
ATOM      8  C   UNL A   1      29.564  30.149  22.561  1.00  0.00     0.276 C 
BRANCH   8   9
ATOM      9  N   UNL A   1      29.076  28.846  23.022  1.00  0.00    -0.345 N 
ATOM     10  H   UNL A   1      28.295  28.567  22.427  1.00  0.00     0.346 HD
ATOM     11  H   UNL A   1      28.806  28.961  23.999  1.00  0.00     0.346 HD
BRANCH   9  12
ATOM     12  C   UNL A   1      30.086  27.781  22.986  1.00  0.00     0.265 C 
BRANCH  12  13
ATOM     13  C   UNL A   1      30.352  27.035  24.307  1.00  0.00     0.098 C 
BRANCH  13  14
ATOM     14  C   UNL A   1      31.421  27.663  25.162  1.00  0.00    -0.024 A 
ATOM     15  C   UNL A   1      31.350  27.635  26.559  1.00  0.00     0.007 A 
ATOM     16  C   UNL A   1      32.535  28.272  24.595  1.00  0.00     0.114 A 
ATOM     17  C   UNL A   1      32.377  28.185  27.317  1.00  0.00     0.020 A 
ATOM     18  N   UNL A   1      33.542  28.826  25.307  1.00  0.00    -0.264 NA
ATOM     19  C   UNL A   1      33.442  28.765  26.653  1.00  0.00     0.111 A 
ENDBRANCH  13  14
ENDBRANCH  12  13
ENDBRANCH   9  12
ENDBRANCH   8   9
ENDBRANCH   5   8
ENDBRANCH   1   5
BRANCH   3  20
ATOM     20  C   UNL A   1      30.554  31.309  25.235  1.00  0.00     0.117 C 
BRANCH  20  21
ATOM     21  C   UNL A   1      30.985  31.671  26.652  1.00  0.00     0.042 C 
BRANCH  21  22
ATOM     22  C   UNL A   1      32.335  32.373  26.729  1.00  0.00     0.118 C 
BRANCH  22  23
ATOM     23  N   UNL A   1      32.244  33.698  27.332  1.00  0.00    -0.352 N 
ATOM     24  C   UNL A   1      33.016  34.295  28.294  1.00  0.00     0.251 C 
ATOM     25  H   UNL A   1      31.507  34.254  26.993  1.00  0.00     0.163 HD
ATOM     26  O   UNL A   1      32.633  35.349  28.808  1.00  0.00    -0.269 OA
BRANCH  24  27
ATOM     27  C   UNL A   1      34.290  33.690  28.734  1.00  0.00     0.039 A 
ATOM     28  C   UNL A   1      35.461  34.001  28.037  1.00  0.00     0.014 A 
ATOM     29  C   UNL A   1      34.333  32.788  29.800  1.00  0.00     0.014 A 
ATOM     30  C   UNL A   1      36.682  33.458  28.448  1.00  0.00     0.010 A 
ATOM     31  C   UNL A   1      35.559  32.312  30.259  1.00  0.00     0.010 A 
ATOM     32  C   UNL A   1      36.744  32.636  29.585  1.00  0.00    -0.014 A 
BRANCH  32  33
ATOM     33  C   UNL A   1      38.036  32.101  30.082  1.00  0.00     0.031 A 
ATOM     34  C   UNL A   1      38.566  30.795  29.556  1.00  0.00     0.074 A 
ATOM     35  C   UNL A   1      38.696  32.753  31.058  1.00  0.00     0.049 A 
ATOM     36  N   UNL A   1      39.631  30.128  29.926  1.00  0.00    -0.248 NA
ATOM     37  C   UNL A   1      37.784  30.139  28.497  1.00  0.00     0.031 C 
ATOM     38  C   UNL A   1      38.269  34.009  31.681  1.00  0.00     0.029 A 
ATOM     39  N   UNL A   1      39.865  32.442  31.705  1.00  0.00    -0.354 N 
ATOM     40  C   UNL A   1      39.631  28.967  29.165  1.00  0.00     0.074 A 
ATOM     41  C   UNL A   1      38.440  28.998  28.343  1.00  0.00     0.031 C 
ATOM     42  C   UNL A   1      39.176  34.372  32.602  1.00  0.00     0.029 A 
ATOM     43  C   UNL A   1      40.224  33.359  32.664  1.00  0.00     0.049 A 
ATOM     44  H   UNL A   1      40.397  31.639  31.503  1.00  0.00     0.167 HD
ATOM     45  C   UNL A   1      40.548  27.971  29.135  1.00  0.00     0.031 A 
ATOM     46  C   UNL A   1      41.276  33.379  33.503  1.00  0.00     0.031 A 
ATOM     47  C   UNL A   1      41.743  27.946  29.936  1.00  0.00     0.049 A 
ATOM     48  C   UNL A   1      42.278  32.262  33.453  1.00  0.00     0.074 A 
ATOM     49  C   UNL A   1      42.764  27.011  29.934  1.00  0.00     0.029 A 
ATOM     50  N   UNL A   1      42.076  28.903  30.882  1.00  0.00    -0.354 N 
ATOM     51  N   UNL A   1      42.296  31.202  32.682  1.00  0.00    -0.248 NA
ATOM     52  C   UNL A   1      43.413  32.352  34.383  1.00  0.00     0.031 C 
ATOM     53  C   UNL A   1      43.694  27.380  30.911  1.00  0.00     0.029 A 
ATOM     54  C   UNL A   1      43.277  28.571  31.485  1.00  0.00     0.049 A 
ATOM     55  H   UNL A   1      41.538  29.700  31.094  1.00  0.00     0.167 HD
ATOM     56  C   UNL A   1      43.454  30.511  33.016  1.00  0.00     0.074 A 
ATOM     57  C   UNL A   1      44.119  31.280  34.048  1.00  0.00     0.031 C 
ATOM     58  C   UNL A   1      43.925  29.346  32.510  1.00  0.00     0.031 A 
BRANCH  45  59
ATOM     59  C   UNL A   1      40.287  26.818  28.206  1.00  0.00    -0.014 A 
ATOM     60  C   UNL A   1      39.519  25.715  28.614  1.00  0.00     0.009 A 
ATOM     61  C   UNL A   1      40.790  26.849  26.897  1.00  0.00     0.009 A 
ATOM     62  C   UNL A   1      39.294  24.649  27.741  1.00  0.00     0.001 A 
ATOM     63  C   UNL A   1      40.539  25.794  26.017  1.00  0.00     0.001 A 
ATOM     64  C   UNL A   1      39.801  24.691  26.442  1.00  0.00     0.000 A 
ENDBRANCH  45  59
BRANCH  46  65
ATOM     65  C   UNL A   1      41.445  34.508  34.454  1.00  0.00    -0.014 A 
ATOM     66  C   UNL A   1      40.991  34.394  35.777  1.00  0.00     0.009 A 
ATOM     67  C   UNL A   1      42.060  35.702  34.046  1.00  0.00     0.009 A 
ATOM     68  C   UNL A   1      41.127  35.464  36.665  1.00  0.00     0.001 A 
ATOM     69  C   UNL A   1      42.217  36.759  34.944  1.00  0.00     0.001 A 
ATOM     70  C   UNL A   1      41.744  36.643  36.249  1.00  0.00     0.000 A 
ENDBRANCH  46  65
BRANCH  58  71
ATOM     71  C   UNL A   1      45.237  28.849  33.045  1.00  0.00    -0.014 A 
ATOM     72  C   UNL A   1      46.454  29.248  32.472  1.00  0.00     0.009 A 
ATOM     73  C   UNL A   1      45.254  28.000  34.163  1.00  0.00     0.009 A 
ATOM     74  C   UNL A   1      47.663  28.780  32.990  1.00  0.00     0.001 A 
ATOM     75  C   UNL A   1      46.465  27.556  34.694  1.00  0.00     0.001 A 
ATOM     76  C   UNL A   1      47.667  27.938  34.102  1.00  0.00     0.000 A 
ENDBRANCH  58  71
ENDBRANCH  32  33
ENDBRANCH  24  27
ENDBRANCH  22  23
ENDBRANCH  21  22
ENDBRANCH  20  21
ENDBRANCH   3  20
TORSDOF 15
ENDMDL
MODEL 3
REMARK VINA RESULT:     -10.1      1.596      6.270
REMARK SMILES CC(C)(C[NH2+]CCc1cccnc1)C(=O)NCCCNC(=O)c1ccc(-c2c3nc(c(-c4ccccc4)c4ccc([nH]4)c(-c4ccccc4)c4nc(c(-c5ccccc5)c5ccc2[nH]5)C=C4)C=C3)cc1
REMARK SMILES IDX 14 1 15 2 16 3 2 5 1 6 3 7 4 8 5 9 6 12 7 13 8 14 9 15 13 16
REMARK SMILES IDX 10 17 12 18 11 19 17 20 18 21 19 22 20 23 21 24 22 26 23 27
REMARK SMILES IDX 24 28 70 29 25 30 69 31 26 32 27 33 28 34 63 35 29 36 68 37
REMARK SMILES IDX 62 38 64 39 30 40 67 41 61 42 60 43 31 45 53 46 38 47 52 48
REMARK SMILES IDX 39 49 42 50 51 51 65 52 40 53 41 54 50 56 66 57 43 58 32 59
REMARK SMILES IDX 33 60 37 61 34 62 36 63 35 64 54 65 55 66 59 67 56 68 58 69
REMARK SMILES IDX 57 70 44 71 45 72 49 73 46 74 48 75 47 76
REMARK H PARENT 16 4 5 10 5 11 20 25 64 44 42 55
REMARK Flexibility Score: inf
ROOT
ATOM      1  C   UNL A   1      36.287  22.805  23.753  1.00  0.00     0.231 C 
ATOM      2  O   UNL A   1      36.685  23.518  22.826  1.00  0.00    -0.274 OA
ATOM      3  N   UNL A   1      37.012  21.676  23.969  1.00  0.00    -0.355 N 
ATOM      4  H   UNL A   1      37.775  21.576  23.353  1.00  0.00     0.163 HD
ENDROOT
BRANCH   1   5
ATOM      5  C   UNL A   1      35.093  23.225  24.633  1.00  0.00     0.092 C 
ATOM      6  C   UNL A   1      34.916  24.762  24.516  1.00  0.00     0.027 C 
ATOM      7  C   UNL A   1      35.420  22.956  26.117  1.00  0.00     0.027 C 
BRANCH   5   8
ATOM      8  C   UNL A   1      33.769  22.520  24.235  1.00  0.00     0.276 C 
BRANCH   8   9
ATOM      9  N   UNL A   1      32.870  22.247  25.361  1.00  0.00    -0.345 N 
ATOM     10  H   UNL A   1      32.073  22.879  25.295  1.00  0.00     0.346 HD
ATOM     11  H   UNL A   1      33.415  22.386  26.212  1.00  0.00     0.346 HD
BRANCH   9  12
ATOM     12  C   UNL A   1      32.366  20.869  25.403  1.00  0.00     0.265 C 
BRANCH  12  13
ATOM     13  C   UNL A   1      32.146  20.171  24.048  1.00  0.00     0.098 C 
BRANCH  13  14
ATOM     14  C   UNL A   1      32.963  18.921  23.861  1.00  0.00    -0.024 A 
ATOM     15  C   UNL A   1      34.060  18.635  24.680  1.00  0.00     0.007 A 
ATOM     16  C   UNL A   1      32.642  17.987  22.881  1.00  0.00     0.114 A 
ATOM     17  C   UNL A   1      34.765  17.449  24.509  1.00  0.00     0.020 A 
ATOM     18  N   UNL A   1      33.317  16.832  22.683  1.00  0.00    -0.264 NA
ATOM     19  C   UNL A   1      34.361  16.587  23.506  1.00  0.00     0.111 A 
ENDBRANCH  13  14
ENDBRANCH  12  13
ENDBRANCH   9  12
ENDBRANCH   8   9
ENDBRANCH   5   8
ENDBRANCH   1   5
BRANCH   3  20
ATOM     20  C   UNL A   1      36.894  20.587  24.920  1.00  0.00     0.117 C 
BRANCH  20  21
ATOM     21  C   UNL A   1      38.121  19.682  24.922  1.00  0.00     0.042 C 
BRANCH  21  22
ATOM     22  C   UNL A   1      39.127  20.004  26.021  1.00  0.00     0.118 C 
BRANCH  22  23
ATOM     23  N   UNL A   1      40.357  19.232  25.899  1.00  0.00    -0.352 N 
ATOM     24  C   UNL A   1      41.667  19.616  26.016  1.00  0.00     0.251 C 
ATOM     25  H   UNL A   1      40.225  18.277  25.698  1.00  0.00     0.163 HD
ATOM     26  O   UNL A   1      42.559  18.839  25.667  1.00  0.00    -0.269 OA
BRANCH  24  27
ATOM     27  C   UNL A   1      42.027  20.949  26.540  1.00  0.00     0.039 A 
ATOM     28  C   UNL A   1      42.423  21.944  25.641  1.00  0.00     0.014 A 
ATOM     29  C   UNL A   1      42.019  21.214  27.912  1.00  0.00     0.014 A 
ATOM     30  C   UNL A   1      42.748  23.219  26.111  1.00  0.00     0.010 A 
ATOM     31  C   UNL A   1      42.264  22.506  28.372  1.00  0.00     0.010 A 
ATOM     32  C   UNL A   1      42.637  23.519  27.478  1.00  0.00    -0.014 A 
BRANCH  32  33
ATOM     33  C   UNL A   1      42.912  24.883  27.995  1.00  0.00     0.031 A 
ATOM     34  C   UNL A   1      44.308  25.273  28.396  1.00  0.00     0.074 A 
ATOM     35  C   UNL A   1      41.893  25.746  28.172  1.00  0.00     0.049 A 
ATOM     36  N   UNL A   1      44.729  26.387  28.943  1.00  0.00    -0.248 NA
ATOM     37  C   UNL A   1      45.365  24.273  28.179  1.00  0.00     0.031 C 
ATOM     38  C   UNL A   1      40.487  25.477  27.860  1.00  0.00     0.029 A 
ATOM     39  N   UNL A   1      41.884  27.025  28.669  1.00  0.00    -0.354 N 
ATOM     40  C   UNL A   1      46.089  26.209  29.157  1.00  0.00     0.074 A 
ATOM     41  C   UNL A   1      46.417  24.868  28.722  1.00  0.00     0.031 C 
ATOM     42  C   UNL A   1      39.758  26.566  28.150  1.00  0.00     0.029 A 
ATOM     43  C   UNL A   1      40.634  27.593  28.704  1.00  0.00     0.049 A 
ATOM     44  H   UNL A   1      42.697  27.492  28.972  1.00  0.00     0.167 HD
ATOM     45  C   UNL A   1      46.992  27.089  29.654  1.00  0.00     0.031 A 
ATOM     46  C   UNL A   1      40.236  28.802  29.140  1.00  0.00     0.031 A 
ATOM     47  C   UNL A   1      46.674  28.428  30.069  1.00  0.00     0.049 A 
ATOM     48  C   UNL A   1      41.255  29.759  29.689  1.00  0.00     0.074 A 
ATOM     49  C   UNL A   1      47.529  29.415  30.529  1.00  0.00     0.029 A 
ATOM     50  N   UNL A   1      45.398  28.969  30.073  1.00  0.00    -0.354 N 
ATOM     51  N   UNL A   1      42.548  29.598  29.826  1.00  0.00    -0.248 NA
ATOM     52  C   UNL A   1      40.759  31.070  30.131  1.00  0.00     0.031 C 
ATOM     53  C   UNL A   1      46.763  30.539  30.852  1.00  0.00     0.029 A 
ATOM     54  C   UNL A   1      45.438  30.269  30.546  1.00  0.00     0.049 A 
ATOM     55  H   UNL A   1      44.583  28.498  29.782  1.00  0.00     0.167 HD
ATOM     56  C   UNL A   1      43.025  30.794  30.348  1.00  0.00     0.074 A 
ATOM     57  C   UNL A   1      41.884  31.676  30.488  1.00  0.00     0.031 C 
ATOM     58  C   UNL A   1      44.294  31.132  30.679  1.00  0.00     0.031 A 
BRANCH  45  59
ATOM     59  C   UNL A   1      48.415  26.620  29.782  1.00  0.00    -0.014 A 
ATOM     60  C   UNL A   1      49.343  26.823  28.747  1.00  0.00     0.009 A 
ATOM     61  C   UNL A   1      48.841  25.993  30.962  1.00  0.00     0.009 A 
ATOM     62  C   UNL A   1      50.658  26.373  28.878  1.00  0.00     0.001 A 
ATOM     63  C   UNL A   1      50.164  25.569  31.102  1.00  0.00     0.001 A 
ATOM     64  C   UNL A   1      51.069  25.749  30.056  1.00  0.00     0.000 A 
ENDBRANCH  45  59
BRANCH  46  65
ATOM     65  C   UNL A   1      38.802  29.186  29.059  1.00  0.00    -0.014 A 
ATOM     66  C   UNL A   1      38.286  29.753  27.884  1.00  0.00     0.009 A 
ATOM     67  C   UNL A   1      37.945  28.987  30.152  1.00  0.00     0.009 A 
ATOM     68  C   UNL A   1      36.945  30.137  27.814  1.00  0.00     0.001 A 
ATOM     69  C   UNL A   1      36.599  29.348  30.069  1.00  0.00     0.001 A 
ATOM     70  C   UNL A   1      36.102  29.930  28.905  1.00  0.00     0.000 A 
ENDBRANCH  46  65
BRANCH  58  71
ATOM     71  C   UNL A   1      44.519  32.524  31.195  1.00  0.00    -0.014 A 
ATOM     72  C   UNL A   1      44.775  33.591  30.320  1.00  0.00     0.009 A 
ATOM     73  C   UNL A   1      44.435  32.776  32.574  1.00  0.00     0.009 A 
ATOM     74  C   UNL A   1      44.973  34.880  30.821  1.00  0.00     0.001 A 
ATOM     75  C   UNL A   1      44.606  34.069  33.067  1.00  0.00     0.001 A 
ATOM     76  C   UNL A   1      44.885  35.118  32.193  1.00  0.00     0.000 A 
ENDBRANCH  58  71
ENDBRANCH  32  33
ENDBRANCH  24  27
ENDBRANCH  22  23
ENDBRANCH  21  22
ENDBRANCH  20  21
ENDBRANCH   3  20
TORSDOF 15
ENDMDL
