MODEL 1
REMARK VINA RESULT:      -9.4      0.000      0.000
REMARK SMILES O=C(COc1ccc(N2C[C@@H](C(=O)NCCCNC(=O)c3ccc(-c4c5nc(c(-c6ccccc6)c6ccc([nH]6)c(-c6ccccc6)c6nc(c(-c7ccccc7)c7ccc4[nH]7)C=C6)C=C5)cc3)CC2=O)cc1)Nc1ccc(Cl)cc1Cl
REMARK SMILES IDX 12 1 13 2 14 3 11 5 9 6 10 7 70 8 69 9 71 10 8 11 5 12 6 13
REMARK SMILES IDX 73 14 7 15 72 16 4 17 3 18 2 19 1 20 74 21 75 23 76 24 81 25
REMARK SMILES IDX 77 26 80 27 82 28 78 29 79 30 15 31 16 32 17 33 18 34 19 35
REMARK SMILES IDX 20 37 21 38 22 39 68 40 23 41 67 42 24 43 25 44 26 45 61 46
REMARK SMILES IDX 27 47 66 48 60 49 62 50 28 51 65 52 59 53 58 54 29 56 51 57
REMARK SMILES IDX 36 58 50 59 37 60 40 61 49 62 63 63 38 64 39 65 48 67 64 68
REMARK SMILES IDX 41 69 30 70 31 71 35 72 32 73 34 74 33 75 52 76 53 77 57 78
REMARK SMILES IDX 54 79 56 80 55 81 42 82 43 83 47 84 44 85 46 86 45 87
REMARK H PARENT 14 4 74 22 18 36 62 55 40 66
REMARK Flexibility Score: inf
ROOT
ATOM      1  C   UNL A   1      44.276  22.298  24.461  1.00  0.00     0.225 C 
ATOM      2  O   UNL A   1      44.376  22.310  23.231  1.00  0.00    -0.275 OA
ATOM      3  N   UNL A   1      43.365  21.449  24.997  1.00  0.00    -0.356 N 
ATOM      4  H   UNL A   1      42.865  20.927  24.329  1.00  0.00     0.163 HD
ENDROOT
BRANCH   1   5
ATOM      5  C   UNL A   1      45.166  23.197  25.292  1.00  0.00     0.107 C 
ATOM      6  N   UNL A   1      45.310  25.525  25.637  1.00  0.00    -0.312 N 
ATOM      7  C   UNL A   1      44.436  24.399  25.862  1.00  0.00     0.139 C 
ATOM      8  C   UNL A   1      46.422  25.192  24.864  1.00  0.00     0.227 C 
ATOM      9  C   UNL A   1      46.387  23.722  24.561  1.00  0.00     0.116 C 
ATOM     10  O   UNL A   1      47.332  25.917  24.482  1.00  0.00    -0.274 OA
BRANCH   6  11
ATOM     11  C   UNL A   1      45.012  26.829  26.103  1.00  0.00     0.044 A 
ATOM     12  C   UNL A   1      44.419  29.386  27.127  1.00  0.00     0.120 A 
ATOM     13  C   UNL A   1      43.486  28.719  26.339  1.00  0.00     0.048 A 
ATOM     14  C   UNL A   1      45.638  28.781  27.411  1.00  0.00     0.048 A 
ATOM     15  C   UNL A   1      43.794  27.456  25.804  1.00  0.00     0.030 A 
ATOM     16  C   UNL A   1      45.929  27.515  26.902  1.00  0.00     0.030 A 
BRANCH  12  17
ATOM     17  O   UNL A   1      44.063  30.573  27.711  1.00  0.00    -0.484 OA
BRANCH  17  18
ATOM     18  C   UNL A   1      45.139  31.165  28.444  1.00  0.00     0.329 C 
BRANCH  18  19
ATOM     19  C   UNL A   1      45.012  32.678  28.643  1.00  0.00     0.262 C 
ATOM     20  O   UNL A   1      45.619  33.253  29.540  1.00  0.00    -0.271 OA
ATOM     21  N   UNL A   1      44.079  33.246  27.784  1.00  0.00    -0.322 N 
ATOM     22  H   UNL A   1      43.676  32.659  27.104  1.00  0.00     0.170 HD
BRANCH  21  23
ATOM     23  C   UNL A   1      43.658  34.596  27.803  1.00  0.00     0.060 A 
ATOM     24  C   UNL A   1      42.471  34.848  28.513  1.00  0.00     0.029 A 
ATOM     25  C   UNL A   1      44.319  35.681  27.196  1.00  0.00     0.066 A 
ATOM     26  C   UNL A   1      42.002  36.152  28.692  1.00  0.00     0.023 A 
ATOM     27  C   UNL A   1      43.852  36.988  27.386  1.00  0.00     0.043 A 
ATOM     28  Cl  UNL A   1      45.588  35.495  26.033  1.00  0.00    -0.082 Cl
ATOM     29  C   UNL A   1      42.707  37.218  28.142  1.00  0.00     0.042 A 
ATOM     30  Cl  UNL A   1      42.138  38.825  28.370  1.00  0.00    -0.084 Cl
ENDBRANCH  21  23
ENDBRANCH  18  19
ENDBRANCH  17  18
ENDBRANCH  12  17
ENDBRANCH   6  11
ENDBRANCH   1   5
BRANCH   3  31
ATOM     31  C   UNL A   1      42.987  21.162  26.372  1.00  0.00     0.117 C 
BRANCH  31  32
ATOM     32  C   UNL A   1      41.593  20.549  26.475  1.00  0.00     0.042 C 
BRANCH  32  33
ATOM     33  C   UNL A   1      40.562  21.434  27.168  1.00  0.00     0.118 C 
BRANCH  33  34
ATOM     34  N   UNL A   1      39.475  21.837  26.287  1.00  0.00    -0.352 N 
ATOM     35  C   UNL A   1      38.820  23.038  26.180  1.00  0.00     0.251 C 
ATOM     36  H   UNL A   1      39.162  21.138  25.670  1.00  0.00     0.163 HD
ATOM     37  O   UNL A   1      37.810  23.117  25.485  1.00  0.00    -0.269 OA
BRANCH  35  38
ATOM     38  C   UNL A   1      39.304  24.232  26.908  1.00  0.00     0.039 A 
ATOM     39  C   UNL A   1      40.110  25.152  26.231  1.00  0.00     0.014 A 
ATOM     40  C   UNL A   1      38.991  24.439  28.252  1.00  0.00     0.014 A 
ATOM     41  C   UNL A   1      40.539  26.312  26.882  1.00  0.00     0.010 A 
ATOM     42  C   UNL A   1      39.344  25.635  28.873  1.00  0.00     0.010 A 
ATOM     43  C   UNL A   1      40.125  26.584  28.196  1.00  0.00    -0.014 A 
BRANCH  43  44
ATOM     44  C   UNL A   1      40.489  27.857  28.873  1.00  0.00     0.031 A 
ATOM     45  C   UNL A   1      41.824  28.003  29.552  1.00  0.00     0.074 A 
ATOM     46  C   UNL A   1      39.591  28.861  28.930  1.00  0.00     0.049 A 
ATOM     47  N   UNL A   1      42.290  29.011  30.246  1.00  0.00    -0.248 NA
ATOM     48  C   UNL A   1      42.746  26.859  29.465  1.00  0.00     0.031 C 
ATOM     49  C   UNL A   1      38.248  28.834  28.347  1.00  0.00     0.029 A 
ATOM     50  N   UNL A   1      39.671  30.100  29.517  1.00  0.00    -0.354 N 
ATOM     51  C   UNL A   1      43.546  28.617  30.689  1.00  0.00     0.074 A 
ATOM     52  C   UNL A   1      43.751  27.262  30.229  1.00  0.00     0.031 C 
ATOM     53  C   UNL A   1      37.641  30.009  28.581  1.00  0.00     0.029 A 
ATOM     54  C   UNL A   1      38.530  30.854  29.371  1.00  0.00     0.049 A 
ATOM     55  H   UNL A   1      40.469  30.418  29.997  1.00  0.00     0.167 HD
ATOM     56  C   UNL A   1      44.457  29.326  31.398  1.00  0.00     0.031 A 
ATOM     57  C   UNL A   1      38.227  32.083  29.831  1.00  0.00     0.031 A 
ATOM     58  C   UNL A   1      44.260  30.679  31.846  1.00  0.00     0.049 A 
ATOM     59  C   UNL A   1      39.250  32.838  30.634  1.00  0.00     0.074 A 
ATOM     60  C   UNL A   1      45.148  31.499  32.520  1.00  0.00     0.029 A 
ATOM     61  N   UNL A   1      43.094  31.408  31.671  1.00  0.00    -0.354 N 
ATOM     62  N   UNL A   1      40.462  32.477  30.980  1.00  0.00    -0.248 NA
ATOM     63  C   UNL A   1      38.865  34.178  31.103  1.00  0.00     0.031 C 
ATOM     64  C   UNL A   1      44.497  32.704  32.807  1.00  0.00     0.029 A 
ATOM     65  C   UNL A   1      43.229  32.658  32.250  1.00  0.00     0.049 A 
ATOM     66  H   UNL A   1      42.290  31.084  31.204  1.00  0.00     0.167 HD
ATOM     67  C   UNL A   1      40.995  33.556  31.674  1.00  0.00     0.074 A 
ATOM     68  C   UNL A   1      39.982  34.590  31.686  1.00  0.00     0.031 C 
ATOM     69  C   UNL A   1      42.216  33.680  32.250  1.00  0.00     0.031 A 
BRANCH  56  70
ATOM     70  C   UNL A   1      45.754  28.648  31.745  1.00  0.00    -0.014 A 
ATOM     71  C   UNL A   1      45.868  27.825  32.877  1.00  0.00     0.009 A 
ATOM     72  C   UNL A   1      46.864  28.789  30.896  1.00  0.00     0.009 A 
ATOM     73  C   UNL A   1      47.073  27.180  33.166  1.00  0.00     0.001 A 
ATOM     74  C   UNL A   1      48.057  28.120  31.171  1.00  0.00     0.001 A 
ATOM     75  C   UNL A   1      48.164  27.323  32.309  1.00  0.00     0.000 A 
ENDBRANCH  56  70
BRANCH  57  76
ATOM     76  C   UNL A   1      36.896  32.684  29.548  1.00  0.00    -0.014 A 
ATOM     77  C   UNL A   1      35.847  32.565  30.472  1.00  0.00     0.009 A 
ATOM     78  C   UNL A   1      36.658  33.356  28.339  1.00  0.00     0.009 A 
ATOM     79  C   UNL A   1      34.579  33.073  30.175  1.00  0.00     0.001 A 
ATOM     80  C   UNL A   1      35.400  33.893  28.060  1.00  0.00     0.001 A 
ATOM     81  C   UNL A   1      34.358  33.740  28.971  1.00  0.00     0.000 A 
ENDBRANCH  57  76
BRANCH  69  82
ATOM     82  C   UNL A   1      42.542  34.995  32.902  1.00  0.00    -0.014 A 
ATOM     83  C   UNL A   1      43.248  35.997  32.221  1.00  0.00     0.009 A 
ATOM     84  C   UNL A   1      42.093  35.248  34.209  1.00  0.00     0.009 A 
ATOM     85  C   UNL A   1      43.531  37.212  32.849  1.00  0.00     0.001 A 
ATOM     86  C   UNL A   1      42.347  36.476  34.822  1.00  0.00     0.001 A 
ATOM     87  C   UNL A   1      43.075  37.452  34.145  1.00  0.00     0.000 A 
ENDBRANCH  69  82
ENDBRANCH  43  44
ENDBRANCH  35  38
ENDBRANCH  33  34
ENDBRANCH  32  33
ENDBRANCH  31  32
ENDBRANCH   3  31
TORSDOF 15
ENDMDL
MODEL 2
REMARK VINA RESULT:      -9.3      4.596      7.815
REMARK SMILES O=C(COc1ccc(N2C[C@@H](C(=O)NCCCNC(=O)c3ccc(-c4c5nc(c(-c6ccccc6)c6ccc([nH]6)c(-c6ccccc6)c6nc(c(-c7ccccc7)c7ccc4[nH]7)C=C6)C=C5)cc3)CC2=O)cc1)Nc1ccc(Cl)cc1Cl
REMARK SMILES IDX 12 1 13 2 14 3 11 5 9 6 10 7 70 8 69 9 71 10 8 11 5 12 6 13
REMARK SMILES IDX 73 14 7 15 72 16 4 17 3 18 2 19 1 20 74 21 75 23 76 24 81 25
REMARK SMILES IDX 77 26 80 27 82 28 78 29 79 30 15 31 16 32 17 33 18 34 19 35
REMARK SMILES IDX 20 37 21 38 22 39 68 40 23 41 67 42 24 43 25 44 26 45 61 46
REMARK SMILES IDX 27 47 66 48 60 49 62 50 28 51 65 52 59 53 58 54 29 56 51 57
REMARK SMILES IDX 36 58 50 59 37 60 40 61 49 62 63 63 38 64 39 65 48 67 64 68
REMARK SMILES IDX 41 69 30 70 31 71 35 72 32 73 34 74 33 75 52 76 53 77 57 78
REMARK SMILES IDX 54 79 56 80 55 81 42 82 43 83 47 84 44 85 46 86 45 87
REMARK H PARENT 14 4 74 22 18 36 62 55 40 66
REMARK Flexibility Score: inf
ROOT
ATOM      1  C   UNL A   1      41.038  20.595  27.222  1.00  0.00     0.225 C 
ATOM      2  O   UNL A   1      40.581  21.125  28.238  1.00  0.00    -0.275 OA
ATOM      3  N   UNL A   1      42.228  19.956  27.340  1.00  0.00    -0.356 N 
ATOM      4  H   UNL A   1      42.611  19.992  28.246  1.00  0.00     0.163 HD
ENDROOT
BRANCH   1   5
ATOM      5  C   UNL A   1      40.259  20.669  25.926  1.00  0.00     0.107 C 
ATOM      6  N   UNL A   1      38.119  21.453  25.322  1.00  0.00    -0.312 N 
ATOM      7  C   UNL A   1      39.394  21.911  25.816  1.00  0.00     0.139 C 
ATOM      8  C   UNL A   1      38.040  20.062  25.254  1.00  0.00     0.227 C 
ATOM      9  C   UNL A   1      39.359  19.475  25.666  1.00  0.00     0.116 C 
ATOM     10  O   UNL A   1      37.097  19.367  24.899  1.00  0.00    -0.274 OA
BRANCH   6  11
ATOM     11  C   UNL A   1      37.057  22.338  25.010  1.00  0.00     0.044 A 
ATOM     12  C   UNL A   1      34.879  24.030  24.436  1.00  0.00     0.120 A 
ATOM     13  C   UNL A   1      35.581  23.423  23.399  1.00  0.00     0.048 A 
ATOM     14  C   UNL A   1      35.255  23.791  25.753  1.00  0.00     0.048 A 
ATOM     15  C   UNL A   1      36.685  22.602  23.685  1.00  0.00     0.030 A 
ATOM     16  C   UNL A   1      36.333  22.953  26.035  1.00  0.00     0.030 A 
BRANCH  12  17
ATOM     17  O   UNL A   1      33.753  24.752  24.139  1.00  0.00    -0.484 OA
BRANCH  17  18
ATOM     18  C   UNL A   1      33.679  25.104  22.755  1.00  0.00     0.329 C 
BRANCH  18  19
ATOM     19  C   UNL A   1      33.015  26.457  22.481  1.00  0.00     0.262 C 
ATOM     20  O   UNL A   1      33.481  27.236  21.656  1.00  0.00    -0.271 OA
ATOM     21  N   UNL A   1      31.945  26.701  23.333  1.00  0.00    -0.322 N 
ATOM     22  H   UNL A   1      31.677  25.974  23.940  1.00  0.00     0.170 HD
BRANCH  21  23
ATOM     23  C   UNL A   1      31.207  27.906  23.402  1.00  0.00     0.060 A 
ATOM     24  C   UNL A   1      30.107  27.990  22.531  1.00  0.00     0.029 A 
ATOM     25  C   UNL A   1      31.471  28.993  24.257  1.00  0.00     0.066 A 
ATOM     26  C   UNL A   1      29.239  29.084  22.572  1.00  0.00     0.023 A 
ATOM     27  C   UNL A   1      30.593  30.085  24.302  1.00  0.00     0.043 A 
ATOM     28  Cl  UNL A   1      32.950  29.179  25.136  1.00  0.00    -0.082 Cl
ATOM     29  C   UNL A   1      29.477  30.118  23.471  1.00  0.00     0.042 A 
ATOM     30  Cl  UNL A   1      28.404  31.461  23.531  1.00  0.00    -0.084 Cl
ENDBRANCH  21  23
ENDBRANCH  18  19
ENDBRANCH  17  18
ENDBRANCH  12  17
ENDBRANCH   6  11
ENDBRANCH   1   5
BRANCH   3  31
ATOM     31  C   UNL A   1      43.045  19.228  26.384  1.00  0.00     0.117 C 
BRANCH  31  32
ATOM     32  C   UNL A   1      43.831  20.159  25.464  1.00  0.00     0.042 C 
BRANCH  32  33
ATOM     33  C   UNL A   1      43.785  21.631  25.863  1.00  0.00     0.118 C 
BRANCH  33  34
ATOM     34  N   UNL A   1      44.714  22.454  25.102  1.00  0.00    -0.352 N 
ATOM     35  C   UNL A   1      44.904  23.814  25.109  1.00  0.00     0.251 C 
ATOM     36  H   UNL A   1      45.300  21.957  24.487  1.00  0.00     0.163 HD
ATOM     37  O   UNL A   1      45.627  24.328  24.259  1.00  0.00    -0.269 OA
BRANCH  35  38
ATOM     38  C   UNL A   1      44.230  24.667  26.113  1.00  0.00     0.039 A 
ATOM     39  C   UNL A   1      43.266  24.092  26.947  1.00  0.00     0.014 A 
ATOM     40  C   UNL A   1      44.522  26.027  26.223  1.00  0.00     0.014 A 
ATOM     41  C   UNL A   1      42.652  24.866  27.936  1.00  0.00     0.010 A 
ATOM     42  C   UNL A   1      43.975  26.775  27.264  1.00  0.00     0.010 A 
ATOM     43  C   UNL A   1      43.032  26.203  28.130  1.00  0.00    -0.014 A 
BRANCH  43  44
ATOM     44  C   UNL A   1      42.462  27.015  29.238  1.00  0.00     0.031 A 
ATOM     45  C   UNL A   1      43.117  27.019  30.593  1.00  0.00     0.074 A 
ATOM     46  C   UNL A   1      41.317  27.700  29.041  1.00  0.00     0.049 A 
ATOM     47  N   UNL A   1      42.730  27.613  31.694  1.00  0.00    -0.248 NA
ATOM     48  C   UNL A   1      44.353  26.233  30.739  1.00  0.00     0.031 C 
ATOM     49  C   UNL A   1      40.561  27.748  27.788  1.00  0.00     0.029 A 
ATOM     50  N   UNL A   1      40.584  28.481  29.900  1.00  0.00    -0.354 N 
ATOM     51  C   UNL A   1      43.662  27.260  32.662  1.00  0.00     0.074 A 
ATOM     52  C   UNL A   1      44.605  26.362  32.034  1.00  0.00     0.031 C 
ATOM     53  C   UNL A   1      39.488  28.538  27.951  1.00  0.00     0.029 A 
ATOM     54  C   UNL A   1      39.452  29.014  29.330  1.00  0.00     0.049 A 
ATOM     55  H   UNL A   1      40.844  28.645  30.835  1.00  0.00     0.167 HD
ATOM     56  C   UNL A   1      43.737  27.661  33.953  1.00  0.00     0.031 A 
ATOM     57  C   UNL A   1      38.485  29.788  29.860  1.00  0.00     0.031 A 
ATOM     58  C   UNL A   1      42.807  28.565  34.577  1.00  0.00     0.049 A 
ATOM     59  C   UNL A   1      38.584  30.201  31.303  1.00  0.00     0.074 A 
ATOM     60  C   UNL A   1      42.835  29.076  35.862  1.00  0.00     0.029 A 
ATOM     61  N   UNL A   1      41.679  29.086  33.963  1.00  0.00    -0.354 N 
ATOM     62  N   UNL A   1      39.514  29.917  32.183  1.00  0.00    -0.248 NA
ATOM     63  C   UNL A   1      37.504  31.052  31.822  1.00  0.00     0.031 C 
ATOM     64  C   UNL A   1      41.691  29.858  36.046  1.00  0.00     0.029 A 
ATOM     65  C   UNL A   1      40.988  29.890  34.853  1.00  0.00     0.049 A 
ATOM     66  H   UNL A   1      41.410  28.911  33.032  1.00  0.00     0.167 HD
ATOM     67  C   UNL A   1      39.149  30.582  33.347  1.00  0.00     0.074 A 
ATOM     68  C   UNL A   1      37.923  31.296  33.056  1.00  0.00     0.031 C 
ATOM     69  C   UNL A   1      39.773  30.599  34.550  1.00  0.00     0.031 A 
BRANCH  56  70
ATOM     70  C   UNL A   1      44.865  27.120  34.789  1.00  0.00    -0.014 A 
ATOM     71  C   UNL A   1      44.733  25.918  35.503  1.00  0.00     0.009 A 
ATOM     72  C   UNL A   1      46.098  27.792  34.818  1.00  0.00     0.009 A 
ATOM     73  C   UNL A   1      45.802  25.416  36.249  1.00  0.00     0.001 A 
ATOM     74  C   UNL A   1      47.173  27.273  35.540  1.00  0.00     0.001 A 
ATOM     75  C   UNL A   1      47.022  26.090  36.261  1.00  0.00     0.000 A 
ENDBRANCH  56  70
BRANCH  57  76
ATOM     76  C   UNL A   1      37.333  30.226  29.026  1.00  0.00    -0.014 A 
ATOM     77  C   UNL A   1      37.208  31.566  28.627  1.00  0.00     0.009 A 
ATOM     78  C   UNL A   1      36.337  29.313  28.648  1.00  0.00     0.009 A 
ATOM     79  C   UNL A   1      36.092  31.988  27.899  1.00  0.00     0.001 A 
ATOM     80  C   UNL A   1      35.241  29.731  27.891  1.00  0.00     0.001 A 
ATOM     81  C   UNL A   1      35.112  31.069  27.529  1.00  0.00     0.000 A 
ENDBRANCH  57  76
BRANCH  69  82
ATOM     82  C   UNL A   1      39.168  31.454  35.629  1.00  0.00    -0.014 A 
ATOM     83  C   UNL A   1      38.242  30.934  36.545  1.00  0.00     0.009 A 
ATOM     84  C   UNL A   1      39.569  32.794  35.755  1.00  0.00     0.009 A 
ATOM     85  C   UNL A   1      37.702  31.749  37.542  1.00  0.00     0.001 A 
ATOM     86  C   UNL A   1      39.054  33.597  36.773  1.00  0.00     0.001 A 
ATOM     87  C   UNL A   1      38.112  33.077  37.659  1.00  0.00     0.000 A 
ENDBRANCH  69  82
ENDBRANCH  43  44
ENDBRANCH  35  38
ENDBRANCH  33  34
ENDBRANCH  32  33
ENDBRANCH  31  32
ENDBRANCH   3  31
TORSDOF 15
ENDMDL
MODEL 3
REMARK VINA RESULT:      -9.3      5.847     12.170
REMARK SMILES O=C(COc1ccc(N2C[C@@H](C(=O)NCCCNC(=O)c3ccc(-c4c5nc(c(-c6ccccc6)c6ccc([nH]6)c(-c6ccccc6)c6nc(c(-c7ccccc7)c7ccc4[nH]7)C=C6)C=C5)cc3)CC2=O)cc1)Nc1ccc(Cl)cc1Cl
REMARK SMILES IDX 12 1 13 2 14 3 11 5 9 6 10 7 70 8 69 9 71 10 8 11 5 12 6 13
REMARK SMILES IDX 73 14 7 15 72 16 4 17 3 18 2 19 1 20 74 21 75 23 76 24 81 25
REMARK SMILES IDX 77 26 80 27 82 28 78 29 79 30 15 31 16 32 17 33 18 34 19 35
REMARK SMILES IDX 20 37 21 38 22 39 68 40 23 41 67 42 24 43 25 44 26 45 61 46
REMARK SMILES IDX 27 47 66 48 60 49 62 50 28 51 65 52 59 53 58 54 29 56 51 57
REMARK SMILES IDX 36 58 50 59 37 60 40 61 49 62 63 63 38 64 39 65 48 67 64 68
REMARK SMILES IDX 41 69 30 70 31 71 35 72 32 73 34 74 33 75 52 76 53 77 57 78
REMARK SMILES IDX 54 79 56 80 55 81 42 82 43 83 47 84 44 85 46 86 45 87
REMARK H PARENT 14 4 74 22 18 36 62 55 40 66
REMARK Flexibility Score: inf
ROOT
ATOM      1  C   UNL A   1      35.366  32.885  28.006  1.00  0.00     0.225 C 
ATOM      2  O   UNL A   1      36.465  32.323  27.991  1.00  0.00    -0.275 OA
ATOM      3  N   UNL A   1      35.358  34.227  27.812  1.00  0.00    -0.356 N 
ATOM      4  H   UNL A   1      36.252  34.617  27.685  1.00  0.00     0.163 HD
ENDROOT
BRANCH   1   5
ATOM      5  C   UNL A   1      34.111  32.067  28.217  1.00  0.00     0.107 C 
ATOM      6  N   UNL A   1      33.204  30.134  27.216  1.00  0.00    -0.312 N 
ATOM      7  C   UNL A   1      34.323  30.579  28.011  1.00  0.00     0.139 C 
ATOM      8  C   UNL A   1      32.405  31.190  26.780  1.00  0.00     0.227 C 
ATOM      9  C   UNL A   1      32.941  32.475  27.342  1.00  0.00     0.116 C 
ATOM     10  O   UNL A   1      31.402  31.150  26.079  1.00  0.00    -0.274 OA
BRANCH   6  11
ATOM     11  C   UNL A   1      33.001  28.774  26.875  1.00  0.00     0.044 A 
ATOM     12  C   UNL A   1      32.593  26.097  26.097  1.00  0.00     0.120 A 
ATOM     13  C   UNL A   1      31.626  26.759  26.846  1.00  0.00     0.048 A 
ATOM     14  C   UNL A   1      33.756  26.766  25.730  1.00  0.00     0.048 A 
ATOM     15  C   UNL A   1      31.842  28.084  27.259  1.00  0.00     0.030 A 
ATOM     16  C   UNL A   1      33.955  28.091  26.117  1.00  0.00     0.030 A 
BRANCH  12  17
ATOM     17  O   UNL A   1      32.321  24.838  25.629  1.00  0.00    -0.484 OA
BRANCH  17  18
ATOM     18  C   UNL A   1      32.678  24.678  24.253  1.00  0.00     0.329 C 
BRANCH  18  19
ATOM     19  C   UNL A   1      33.363  23.348  23.928  1.00  0.00     0.262 C 
ATOM     20  O   UNL A   1      34.131  23.245  22.977  1.00  0.00    -0.271 OA
ATOM     21  N   UNL A   1      32.925  22.315  24.748  1.00  0.00    -0.322 N 
ATOM     22  H   UNL A   1      32.311  22.550  25.481  1.00  0.00     0.170 HD
BRANCH  21  23
ATOM     23  C   UNL A   1      33.285  20.953  24.619  1.00  0.00     0.060 A 
ATOM     24  C   UNL A   1      32.269  20.103  24.150  1.00  0.00     0.029 A 
ATOM     25  C   UNL A   1      34.547  20.398  24.904  1.00  0.00     0.066 A 
ATOM     26  C   UNL A   1      32.525  18.755  23.884  1.00  0.00     0.023 A 
ATOM     27  C   UNL A   1      34.802  19.048  24.627  1.00  0.00     0.043 A 
ATOM     28  Cl  UNL A   1      35.780  21.234  25.784  1.00  0.00    -0.082 Cl
ATOM     29  C   UNL A   1      33.797  18.239  24.107  1.00  0.00     0.042 A 
ATOM     30  Cl  UNL A   1      34.117  16.582  23.771  1.00  0.00    -0.084 Cl
ENDBRANCH  21  23
ENDBRANCH  18  19
ENDBRANCH  17  18
ENDBRANCH  12  17
ENDBRANCH   6  11
ENDBRANCH   1   5
BRANCH   3  31
ATOM     31  C   UNL A   1      34.278  35.199  27.756  1.00  0.00     0.117 C 
BRANCH  31  32
ATOM     32  C   UNL A   1      33.986  35.822  29.119  1.00  0.00     0.042 C 
BRANCH  32  33
ATOM     33  C   UNL A   1      32.845  35.161  29.886  1.00  0.00     0.118 C 
BRANCH  33  34
ATOM     34  N   UNL A   1      32.399  35.947  31.028  1.00  0.00    -0.352 N 
ATOM     35  C   UNL A   1      32.830  35.940  32.331  1.00  0.00     0.251 C 
ATOM     36  H   UNL A   1      31.674  36.584  30.834  1.00  0.00     0.163 HD
ATOM     37  O   UNL A   1      32.198  36.563  33.181  1.00  0.00    -0.269 OA
BRANCH  35  38
ATOM     38  C   UNL A   1      34.032  35.174  32.727  1.00  0.00     0.039 A 
ATOM     39  C   UNL A   1      33.869  33.886  33.246  1.00  0.00     0.014 A 
ATOM     40  C   UNL A   1      35.311  35.720  32.614  1.00  0.00     0.014 A 
ATOM     41  C   UNL A   1      34.991  33.124  33.581  1.00  0.00     0.010 A 
ATOM     42  C   UNL A   1      36.431  34.930  32.865  1.00  0.00     0.010 A 
ATOM     43  C   UNL A   1      36.283  33.623  33.354  1.00  0.00    -0.014 A 
BRANCH  43  44
ATOM     44  C   UNL A   1      37.489  32.793  33.612  1.00  0.00     0.031 A 
ATOM     45  C   UNL A   1      38.306  33.003  34.859  1.00  0.00     0.074 A 
ATOM     46  C   UNL A   1      37.886  31.891  32.691  1.00  0.00     0.049 A 
ATOM     47  N   UNL A   1      39.421  32.419  35.222  1.00  0.00    -0.248 NA
ATOM     48  C   UNL A   1      37.823  34.017  35.810  1.00  0.00     0.031 C 
ATOM     49  C   UNL A   1      37.207  31.617  31.423  1.00  0.00     0.029 A 
ATOM     50  N   UNL A   1      38.965  31.042  32.678  1.00  0.00    -0.354 N 
ATOM     51  C   UNL A   1      39.779  33.007  36.429  1.00  0.00     0.074 A 
ATOM     52  C   UNL A   1      38.792  34.024  36.713  1.00  0.00     0.031 C 
ATOM     53  C   UNL A   1      37.868  30.649  30.768  1.00  0.00     0.029 A 
ATOM     54  C   UNL A   1      39.043  30.267  31.545  1.00  0.00     0.049 A 
ATOM     55  H   UNL A   1      39.621  30.993  33.410  1.00  0.00     0.167 HD
ATOM     56  C   UNL A   1      40.824  32.713  37.238  1.00  0.00     0.031 A 
ATOM     57  C   UNL A   1      39.963  29.359  31.165  1.00  0.00     0.031 A 
ATOM     58  C   UNL A   1      41.800  31.691  36.963  1.00  0.00     0.049 A 
ATOM     59  C   UNL A   1      41.125  29.069  32.075  1.00  0.00     0.074 A 
ATOM     60  C   UNL A   1      42.860  31.281  37.751  1.00  0.00     0.029 A 
ATOM     61  N   UNL A   1      41.838  30.926  35.808  1.00  0.00    -0.354 N 
ATOM     62  N   UNL A   1      41.406  29.582  33.248  1.00  0.00    -0.248 NA
ATOM     63  C   UNL A   1      42.092  28.064  31.610  1.00  0.00     0.031 C 
ATOM     64  C   UNL A   1      43.577  30.309  37.046  1.00  0.00     0.029 A 
ATOM     65  C   UNL A   1      42.922  30.065  35.850  1.00  0.00     0.049 A 
ATOM     66  H   UNL A   1      41.191  30.985  35.069  1.00  0.00     0.167 HD
ATOM     67  C   UNL A   1      42.560  28.937  33.676  1.00  0.00     0.074 A 
ATOM     68  C   UNL A   1      42.917  27.986  32.645  1.00  0.00     0.031 C 
ATOM     69  C   UNL A   1      43.263  29.119  34.821  1.00  0.00     0.031 A 
BRANCH  56  70
ATOM     70  C   UNL A   1      40.976  33.513  38.503  1.00  0.00    -0.014 A 
ATOM     71  C   UNL A   1      41.695  34.719  38.522  1.00  0.00     0.009 A 
ATOM     72  C   UNL A   1      40.342  33.084  39.680  1.00  0.00     0.009 A 
ATOM     73  C   UNL A   1      41.800  35.462  39.700  1.00  0.00     0.001 A 
ATOM     74  C   UNL A   1      40.423  33.844  40.848  1.00  0.00     0.001 A 
ATOM     75  C   UNL A   1      41.157  35.028  40.859  1.00  0.00     0.000 A 
ENDBRANCH  56  70
BRANCH  57  76
ATOM     76  C   UNL A   1      39.830  28.656  29.861  1.00  0.00    -0.014 A 
ATOM     77  C   UNL A   1      39.342  27.341  29.804  1.00  0.00     0.009 A 
ATOM     78  C   UNL A   1      40.217  29.285  28.668  1.00  0.00     0.009 A 
ATOM     79  C   UNL A   1      39.280  26.660  28.585  1.00  0.00     0.001 A 
ATOM     80  C   UNL A   1      40.120  28.614  27.447  1.00  0.00     0.001 A 
ATOM     81  C   UNL A   1      39.665  27.298  27.408  1.00  0.00     0.000 A 
ENDBRANCH  57  76
BRANCH  69  82
ATOM     82  C   UNL A   1      44.461  28.238  35.043  1.00  0.00    -0.014 A 
ATOM     83  C   UNL A   1      45.746  28.632  34.645  1.00  0.00     0.009 A 
ATOM     84  C   UNL A   1      44.301  27.009  35.703  1.00  0.00     0.009 A 
ATOM     85  C   UNL A   1      46.843  27.796  34.870  1.00  0.00     0.001 A 
ATOM     86  C   UNL A   1      45.403  26.190  35.958  1.00  0.00     0.001 A 
ATOM     87  C   UNL A   1      46.670  26.580  35.531  1.00  0.00     0.000 A 
ENDBRANCH  69  82
ENDBRANCH  43  44
ENDBRANCH  35  38
ENDBRANCH  33  34
ENDBRANCH  32  33
ENDBRANCH  31  32
ENDBRANCH   3  31
TORSDOF 15
ENDMDL
