MODEL 1
REMARK VINA RESULT:      -9.5      0.000      0.000
REMARK SMILES O=C(C[NH+]1CC[NH+](Cc2cc(Cl)ccc2[N+](=O)[O-])CC1)NCCCNC(=O)c1ccc(-c2c3nc(c(-c4ccccc4)c4ccc([nH]4)c(-c4ccccc4)c4nc(c(-c5ccccc5)c5ccc2[nH]5)C=C4)C=C3)cc1
REMARK SMILES IDX 22 1 21 2 1 3 2 4 3 6 4 7 5 8 20 9 6 11 19 12 7 13 8 15 9 16
REMARK SMILES IDX 10 17 15 18 11 19 14 20 12 21 13 22 16 23 17 24 18 25 23 26
REMARK SMILES IDX 24 27 25 28 26 29 27 31 28 32 29 33 75 34 30 35 74 36 31 37
REMARK SMILES IDX 32 38 33 39 68 40 34 41 73 42 67 43 69 44 35 45 72 46 66 47
REMARK SMILES IDX 65 48 36 50 58 51 43 52 57 53 44 54 47 55 56 56 70 57 45 58
REMARK SMILES IDX 46 59 55 61 71 62 48 63 37 64 38 65 42 66 39 67 41 68 40 69
REMARK SMILES IDX 59 70 60 71 64 72 61 73 63 74 62 75 49 76 50 77 54 78 51 79
REMARK SMILES IDX 53 80 52 81
REMARK H PARENT 21 5 4 10 7 14 25 30 69 49 47 60
REMARK Flexibility Score: inf
ROOT
ATOM      1  C   UNL A   1      34.313  34.711  29.870  1.00  0.00     0.118 C 
ENDROOT
BRANCH   1   2
ATOM      2  N   UNL A   1      34.727  35.095  31.203  1.00  0.00    -0.351 N 
ATOM      3  O   UNL A   1      32.657  34.984  32.192  1.00  0.00    -0.269 OA
ATOM      4  C   UNL A   1      33.867  35.177  32.281  1.00  0.00     0.275 C 
ATOM      5  H   UNL A   1      35.675  35.310  31.351  1.00  0.00     0.163 HD
BRANCH   4   6
ATOM      6  C   UNL A   1      34.544  35.493  33.636  1.00  0.00     0.363 C 
BRANCH   6   7
ATOM      7  N   UNL A   1      34.702  34.265  34.450  1.00  0.00    -0.318 N 
ATOM      8  C   UNL A   1      34.874  33.076  33.590  1.00  0.00     0.325 C 
ATOM      9  C   UNL A   1      35.803  34.374  35.429  1.00  0.00     0.325 C 
ATOM     10  H   UNL A   1      33.840  34.152  34.984  1.00  0.00     0.348 HD
ATOM     11  C   UNL A   1      36.313  32.760  33.111  1.00  0.00     0.324 C 
ATOM     12  C   UNL A   1      37.228  34.093  34.900  1.00  0.00     0.324 C 
ATOM     13  N   UNL A   1      37.367  32.862  34.121  1.00  0.00    -0.322 N 
ATOM     14  H   UNL A   1      38.241  32.957  33.602  1.00  0.00     0.348 HD
BRANCH  13  15
ATOM     15  C   UNL A   1      37.742  31.636  34.844  1.00  0.00     0.306 C 
BRANCH  15  16
ATOM     16  C   UNL A   1      38.804  30.754  34.215  1.00  0.00     0.085 A 
ATOM     17  C   UNL A   1      38.347  29.701  33.389  1.00  0.00     0.037 A 
ATOM     18  C   UNL A   1      40.200  30.855  34.403  1.00  0.00     0.278 A 
ATOM     19  C   UNL A   1      39.204  28.696  32.936  1.00  0.00     0.042 A 
ATOM     20  C   UNL A   1      41.064  29.845  33.924  1.00  0.00     0.088 A 
ATOM     21  Cl  UNL A   1      38.557  27.354  32.076  1.00  0.00    -0.084 Cl
ATOM     22  C   UNL A   1      40.559  28.750  33.223  1.00  0.00     0.027 A 
BRANCH  18  23
ATOM     23  N   UNL A   1      40.852  32.011  35.041  1.00  0.00     0.063 N 
ATOM     24  O   UNL A   1      41.645  31.769  35.965  1.00  0.00    -0.258 OA
ATOM     25  O   UNL A   1      40.577  33.147  34.648  1.00  0.00    -0.258 OA
ENDBRANCH  18  23
ENDBRANCH  15  16
ENDBRANCH  13  15
ENDBRANCH   6   7
ENDBRANCH   4   6
ENDBRANCH   1   2
BRANCH   1  26
ATOM     26  C   UNL A   1      34.701  33.281  29.498  1.00  0.00     0.042 C 
BRANCH  26  27
ATOM     27  C   UNL A   1      34.553  32.940  28.015  1.00  0.00     0.118 C 
BRANCH  27  28
ATOM     28  N   UNL A   1      33.845  31.685  27.782  1.00  0.00    -0.352 N 
ATOM     29  C   UNL A   1      34.289  30.390  27.710  1.00  0.00     0.251 C 
ATOM     30  H   UNL A   1      32.874  31.788  27.654  1.00  0.00     0.163 HD
ATOM     31  O   UNL A   1      33.504  29.510  27.342  1.00  0.00    -0.269 OA
BRANCH  29  32
ATOM     32  C   UNL A   1      35.682  30.015  28.045  1.00  0.00     0.039 A 
ATOM     33  C   UNL A   1      35.976  29.628  29.359  1.00  0.00     0.014 A 
ATOM     34  C   UNL A   1      36.713  30.100  27.109  1.00  0.00     0.014 A 
ATOM     35  C   UNL A   1      37.279  29.260  29.711  1.00  0.00     0.010 A 
ATOM     36  C   UNL A   1      37.997  29.666  27.441  1.00  0.00     0.010 A 
ATOM     37  C   UNL A   1      38.296  29.238  28.744  1.00  0.00    -0.014 A 
BRANCH  37  38
ATOM     38  C   UNL A   1      39.670  28.768  29.069  1.00  0.00     0.031 A 
ATOM     39  C   UNL A   1      40.662  29.696  29.718  1.00  0.00     0.074 A 
ATOM     40  C   UNL A   1      40.056  27.526  28.714  1.00  0.00     0.049 A 
ATOM     41  N   UNL A   1      41.931  29.501  29.981  1.00  0.00    -0.248 NA
ATOM     42  C   UNL A   1      40.169  31.028  30.104  1.00  0.00     0.031 C 
ATOM     43  C   UNL A   1      39.208  26.528  28.060  1.00  0.00     0.029 A 
ATOM     44  N   UNL A   1      41.271  26.896  28.841  1.00  0.00    -0.354 N 
ATOM     45  C   UNL A   1      42.390  30.688  30.539  1.00  0.00     0.074 A 
ATOM     46  C   UNL A   1      41.276  31.611  30.539  1.00  0.00     0.031 C 
ATOM     47  C   UNL A   1      39.921  25.408  27.860  1.00  0.00     0.029 A 
ATOM     48  C   UNL A   1      41.288  25.622  28.325  1.00  0.00     0.049 A 
ATOM     49  H   UNL A   1      42.055  27.317  29.262  1.00  0.00     0.167 HD
ATOM     50  C   UNL A   1      43.622  30.981  31.022  1.00  0.00     0.031 A 
ATOM     51  C   UNL A   1      42.291  24.731  28.220  1.00  0.00     0.031 A 
ATOM     52  C   UNL A   1      44.731  30.064  31.032  1.00  0.00     0.049 A 
ATOM     53  C   UNL A   1      43.658  25.092  28.732  1.00  0.00     0.074 A 
ATOM     54  C   UNL A   1      46.003  30.254  31.545  1.00  0.00     0.029 A 
ATOM     55  N   UNL A   1      44.704  28.783  30.501  1.00  0.00    -0.354 N 
ATOM     56  N   UNL A   1      44.061  26.200  29.305  1.00  0.00    -0.248 NA
ATOM     57  C   UNL A   1      44.709  24.073  28.589  1.00  0.00     0.031 C 
ATOM     58  C   UNL A   1      46.762  29.111  31.274  1.00  0.00     0.029 A 
ATOM     59  C   UNL A   1      45.944  28.184  30.650  1.00  0.00     0.049 A 
ATOM     60  H   UNL A   1      43.919  28.363  30.080  1.00  0.00     0.167 HD
ATOM     61  C   UNL A   1      45.400  25.999  29.620  1.00  0.00     0.074 A 
ATOM     62  C   UNL A   1      45.737  24.659  29.186  1.00  0.00     0.031 C 
ATOM     63  C   UNL A   1      46.270  26.849  30.218  1.00  0.00     0.031 A 
BRANCH  50  64
ATOM     64  C   UNL A   1      43.841  32.365  31.571  1.00  0.00    -0.014 A 
ATOM     65  C   UNL A   1      44.221  33.429  30.735  1.00  0.00     0.009 A 
ATOM     66  C   UNL A   1      43.628  32.618  32.935  1.00  0.00     0.009 A 
ATOM     67  C   UNL A   1      44.422  34.706  31.263  1.00  0.00     0.001 A 
ATOM     68  C   UNL A   1      43.798  33.903  33.453  1.00  0.00     0.001 A 
ATOM     69  C   UNL A   1      44.206  34.943  32.620  1.00  0.00     0.000 A 
ENDBRANCH  50  64
BRANCH  51  70
ATOM     70  C   UNL A   1      42.046  23.400  27.604  1.00  0.00    -0.014 A 
ATOM     71  C   UNL A   1      41.578  22.331  28.384  1.00  0.00     0.009 A 
ATOM     72  C   UNL A   1      42.292  23.186  26.239  1.00  0.00     0.009 A 
ATOM     73  C   UNL A   1      41.389  21.069  27.815  1.00  0.00     0.001 A 
ATOM     74  C   UNL A   1      42.072  21.931  25.666  1.00  0.00     0.001 A 
ATOM     75  C   UNL A   1      41.631  20.872  26.457  1.00  0.00     0.000 A 
ENDBRANCH  51  70
BRANCH  63  76
ATOM     76  C   UNL A   1      47.661  26.342  30.481  1.00  0.00    -0.014 A 
ATOM     77  C   UNL A   1      48.613  26.246  29.454  1.00  0.00     0.009 A 
ATOM     78  C   UNL A   1      48.035  25.993  31.789  1.00  0.00     0.009 A 
ATOM     79  C   UNL A   1      49.900  25.777  29.728  1.00  0.00     0.001 A 
ATOM     80  C   UNL A   1      49.330  25.555  32.065  1.00  0.00     0.001 A 
ATOM     81  C   UNL A   1      50.259  25.439  31.032  1.00  0.00     0.000 A 
ENDBRANCH  63  76
ENDBRANCH  37  38
ENDBRANCH  29  32
ENDBRANCH  27  28
ENDBRANCH  26  27
ENDBRANCH   1  26
TORSDOF 14
ENDMDL
MODEL 2
REMARK VINA RESULT:      -9.4      5.604     11.314
REMARK SMILES O=C(C[NH+]1CC[NH+](Cc2cc(Cl)ccc2[N+](=O)[O-])CC1)NCCCNC(=O)c1ccc(-c2c3nc(c(-c4ccccc4)c4ccc([nH]4)c(-c4ccccc4)c4nc(c(-c5ccccc5)c5ccc2[nH]5)C=C4)C=C3)cc1
REMARK SMILES IDX 22 1 21 2 1 3 2 4 3 6 4 7 5 8 20 9 6 11 19 12 7 13 8 15 9 16
REMARK SMILES IDX 10 17 15 18 11 19 14 20 12 21 13 22 16 23 17 24 18 25 23 26
REMARK SMILES IDX 24 27 25 28 26 29 27 31 28 32 29 33 75 34 30 35 74 36 31 37
REMARK SMILES IDX 32 38 33 39 68 40 34 41 73 42 67 43 69 44 35 45 72 46 66 47
REMARK SMILES IDX 65 48 36 50 58 51 43 52 57 53 44 54 47 55 56 56 70 57 45 58
REMARK SMILES IDX 46 59 55 61 71 62 48 63 37 64 38 65 42 66 39 67 41 68 40 69
REMARK SMILES IDX 59 70 60 71 64 72 61 73 63 74 62 75 49 76 50 77 54 78 51 79
REMARK SMILES IDX 53 80 52 81
REMARK H PARENT 21 5 4 10 7 14 25 30 69 49 47 60
REMARK Flexibility Score: inf
ROOT
ATOM      1  C   UNL A   1      41.420  20.501  26.745  1.00  0.00     0.118 C 
ENDROOT
BRANCH   1   2
ATOM      2  N   UNL A   1      40.323  21.310  26.258  1.00  0.00    -0.351 N 
ATOM      3  O   UNL A   1      40.334  22.862  27.952  1.00  0.00    -0.269 OA
ATOM      4  C   UNL A   1      39.874  22.456  26.887  1.00  0.00     0.275 C 
ATOM      5  H   UNL A   1      39.870  21.029  25.431  1.00  0.00     0.163 HD
BRANCH   4   6
ATOM      6  C   UNL A   1      38.767  23.227  26.130  1.00  0.00     0.363 C 
BRANCH   6   7
ATOM      7  N   UNL A   1      37.512  22.441  26.080  1.00  0.00    -0.318 N 
ATOM      8  C   UNL A   1      36.334  23.307  26.292  1.00  0.00     0.325 C 
ATOM      9  C   UNL A   1      37.381  21.667  24.828  1.00  0.00     0.325 C 
ATOM     10  H   UNL A   1      37.556  21.765  26.843  1.00  0.00     0.348 HD
ATOM     11  C   UNL A   1      35.756  24.023  25.047  1.00  0.00     0.324 C 
ATOM     12  C   UNL A   1      36.841  22.430  23.596  1.00  0.00     0.324 C 
ATOM     13  N   UNL A   1      35.626  23.210  23.836  1.00  0.00    -0.322 N 
ATOM     14  H   UNL A   1      35.562  23.872  23.062  1.00  0.00     0.348 HD
BRANCH  13  15
ATOM     15  C   UNL A   1      34.333  22.551  23.591  1.00  0.00     0.306 C 
BRANCH  15  16
ATOM     16  C   UNL A   1      33.079  23.376  23.808  1.00  0.00     0.085 A 
ATOM     17  C   UNL A   1      32.390  23.176  25.026  1.00  0.00     0.037 A 
ATOM     18  C   UNL A   1      32.509  24.294  22.898  1.00  0.00     0.278 A 
ATOM     19  C   UNL A   1      31.118  23.705  25.249  1.00  0.00     0.042 A 
ATOM     20  C   UNL A   1      31.230  24.842  23.139  1.00  0.00     0.088 A 
ATOM     21  Cl  UNL A   1      30.265  23.287  26.682  1.00  0.00    -0.084 Cl
ATOM     22  C   UNL A   1      30.522  24.517  24.297  1.00  0.00     0.027 A 
BRANCH  18  23
ATOM     23  N   UNL A   1      33.203  24.783  21.695  1.00  0.00     0.063 N 
ATOM     24  O   UNL A   1      33.302  23.993  20.744  1.00  0.00    -0.258 OA
ATOM     25  O   UNL A   1      33.660  25.929  21.692  1.00  0.00    -0.258 OA
ENDBRANCH  18  23
ENDBRANCH  15  16
ENDBRANCH  13  15
ENDBRANCH   6   7
ENDBRANCH   4   6
ENDBRANCH   1   2
BRANCH   1  26
ATOM     26  C   UNL A   1      41.803  19.360  25.804  1.00  0.00     0.042 C 
BRANCH  26  27
ATOM     27  C   UNL A   1      43.144  18.694  26.113  1.00  0.00     0.118 C 
BRANCH  27  28
ATOM     28  N   UNL A   1      43.976  18.504  24.929  1.00  0.00    -0.352 N 
ATOM     29  C   UNL A   1      44.711  19.388  24.183  1.00  0.00     0.251 C 
ATOM     30  H   UNL A   1      44.018  17.573  24.611  1.00  0.00     0.163 HD
ATOM     31  O   UNL A   1      45.210  19.002  23.121  1.00  0.00    -0.269 OA
BRANCH  29  32
ATOM     32  C   UNL A   1      44.913  20.794  24.601  1.00  0.00     0.039 A 
ATOM     33  C   UNL A   1      44.516  21.817  23.730  1.00  0.00     0.014 A 
ATOM     34  C   UNL A   1      45.542  21.123  25.802  1.00  0.00     0.014 A 
ATOM     35  C   UNL A   1      44.683  23.158  24.093  1.00  0.00     0.010 A 
ATOM     36  C   UNL A   1      45.645  22.458  26.196  1.00  0.00     0.010 A 
ATOM     37  C   UNL A   1      45.215  23.492  25.349  1.00  0.00    -0.014 A 
BRANCH  37  38
ATOM     38  C   UNL A   1      45.323  24.907  25.797  1.00  0.00     0.031 A 
ATOM     39  C   UNL A   1      46.652  25.615  25.778  1.00  0.00     0.074 A 
ATOM     40  C   UNL A   1      44.241  25.538  26.295  1.00  0.00     0.049 A 
ATOM     41  N   UNL A   1      46.962  26.806  26.226  1.00  0.00    -0.248 NA
ATOM     42  C   UNL A   1      47.787  24.878  25.198  1.00  0.00     0.031 C 
ATOM     43  C   UNL A   1      42.897  24.968  26.393  1.00  0.00     0.029 A 
ATOM     44  N   UNL A   1      44.106  26.798  26.826  1.00  0.00    -0.354 N 
ATOM     45  C   UNL A   1      48.326  26.952  26.004  1.00  0.00     0.074 A 
ATOM     46  C   UNL A   1      48.792  25.712  25.420  1.00  0.00     0.031 C 
ATOM     47  C   UNL A   1      42.071  25.879  26.933  1.00  0.00     0.029 A 
ATOM     48  C   UNL A   1      42.834  27.078  27.264  1.00  0.00     0.049 A 
ATOM     49  H   UNL A   1      44.850  27.440  26.887  1.00  0.00     0.167 HD
ATOM     50  C   UNL A   1      49.120  28.023  26.249  1.00  0.00     0.031 A 
ATOM     51  C   UNL A   1      42.337  28.168  27.879  1.00  0.00     0.031 A 
ATOM     52  C   UNL A   1      48.660  29.261  26.822  1.00  0.00     0.049 A 
ATOM     53  C   UNL A   1      43.244  29.331  28.171  1.00  0.00     0.074 A 
ATOM     54  C   UNL A   1      49.379  30.420  27.062  1.00  0.00     0.029 A 
ATOM     55  N   UNL A   1      47.363  29.503  27.249  1.00  0.00    -0.354 N 
ATOM     56  N   UNL A   1      44.520  29.472  27.906  1.00  0.00    -0.248 NA
ATOM     57  C   UNL A   1      42.638  30.491  28.842  1.00  0.00     0.031 C 
ATOM     58  C   UNL A   1      48.532  31.341  27.685  1.00  0.00     0.029 A 
ATOM     59  C   UNL A   1      47.269  30.781  27.775  1.00  0.00     0.049 A 
ATOM     60  H   UNL A   1      46.620  28.860  27.187  1.00  0.00     0.167 HD
ATOM     61  C   UNL A   1      44.860  30.745  28.345  1.00  0.00     0.074 A 
ATOM     62  C   UNL A   1      43.655  31.340  28.883  1.00  0.00     0.031 C 
ATOM     63  C   UNL A   1      46.065  31.366  28.305  1.00  0.00     0.031 A 
BRANCH  50  64
ATOM     64  C   UNL A   1      50.580  27.898  25.909  1.00  0.00    -0.014 A 
ATOM     65  C   UNL A   1      51.515  27.454  26.859  1.00  0.00     0.009 A 
ATOM     66  C   UNL A   1      51.022  28.190  24.609  1.00  0.00     0.009 A 
ATOM     67  C   UNL A   1      52.866  27.347  26.527  1.00  0.00     0.001 A 
ATOM     68  C   UNL A   1      52.370  28.051  24.270  1.00  0.00     0.001 A 
ATOM     69  C   UNL A   1      53.292  27.640  25.231  1.00  0.00     0.000 A 
ENDBRANCH  50  64
BRANCH  51  70
ATOM     70  C   UNL A   1      40.901  28.219  28.262  1.00  0.00    -0.014 A 
ATOM     71  C   UNL A   1      39.968  28.869  27.440  1.00  0.00     0.009 A 
ATOM     72  C   UNL A   1      40.457  27.633  29.457  1.00  0.00     0.009 A 
ATOM     73  C   UNL A   1      38.626  28.955  27.821  1.00  0.00     0.001 A 
ATOM     74  C   UNL A   1      39.110  27.693  29.821  1.00  0.00     0.001 A 
ATOM     75  C   UNL A   1      38.198  28.363  29.008  1.00  0.00     0.000 A 
ENDBRANCH  51  70
BRANCH  63  76
ATOM     76  C   UNL A   1      46.132  32.779  28.816  1.00  0.00    -0.014 A 
ATOM     77  C   UNL A   1      45.907  33.876  27.970  1.00  0.00     0.009 A 
ATOM     78  C   UNL A   1      46.386  33.011  30.177  1.00  0.00     0.009 A 
ATOM     79  C   UNL A   1      45.969  35.178  28.472  1.00  0.00     0.001 A 
ATOM     80  C   UNL A   1      46.416  34.311  30.682  1.00  0.00     0.001 A 
ATOM     81  C   UNL A   1      46.217  35.394  29.827  1.00  0.00     0.000 A 
ENDBRANCH  63  76
ENDBRANCH  37  38
ENDBRANCH  29  32
ENDBRANCH  27  28
ENDBRANCH  26  27
ENDBRANCH   1  26
TORSDOF 14
ENDMDL
MODEL 3
REMARK VINA RESULT:      -9.3      3.768      6.938
REMARK SMILES O=C(C[NH+]1CC[NH+](Cc2cc(Cl)ccc2[N+](=O)[O-])CC1)NCCCNC(=O)c1ccc(-c2c3nc(c(-c4ccccc4)c4ccc([nH]4)c(-c4ccccc4)c4nc(c(-c5ccccc5)c5ccc2[nH]5)C=C4)C=C3)cc1
REMARK SMILES IDX 22 1 21 2 1 3 2 4 3 6 4 7 5 8 20 9 6 11 19 12 7 13 8 15 9 16
REMARK SMILES IDX 10 17 15 18 11 19 14 20 12 21 13 22 16 23 17 24 18 25 23 26
REMARK SMILES IDX 24 27 25 28 26 29 27 31 28 32 29 33 75 34 30 35 74 36 31 37
REMARK SMILES IDX 32 38 33 39 68 40 34 41 73 42 67 43 69 44 35 45 72 46 66 47
REMARK SMILES IDX 65 48 36 50 58 51 43 52 57 53 44 54 47 55 56 56 70 57 45 58
REMARK SMILES IDX 46 59 55 61 71 62 48 63 37 64 38 65 42 66 39 67 41 68 40 69
REMARK SMILES IDX 59 70 60 71 64 72 61 73 63 74 62 75 49 76 50 77 54 78 51 79
REMARK SMILES IDX 53 80 52 81
REMARK H PARENT 21 5 4 10 7 14 25 30 69 49 47 60
REMARK Flexibility Score: inf
ROOT
ATOM      1  C   UNL A   1      34.588  33.835  28.794  1.00  0.00     0.118 C 
ENDROOT
BRANCH   1   2
ATOM      2  N   UNL A   1      33.800  32.765  28.220  1.00  0.00    -0.351 N 
ATOM      3  O   UNL A   1      35.545  31.357  27.720  1.00  0.00    -0.269 OA
ATOM      4  C   UNL A   1      34.337  31.583  27.747  1.00  0.00     0.275 C 
ATOM      5  H   UNL A   1      32.826  32.885  28.164  1.00  0.00     0.163 HD
BRANCH   4   6
ATOM      6  C   UNL A   1      33.301  30.533  27.284  1.00  0.00     0.363 C 
BRANCH   6   7
ATOM      7  N   UNL A   1      33.754  29.848  26.049  1.00  0.00    -0.318 N 
ATOM      8  C   UNL A   1      34.406  28.560  26.364  1.00  0.00     0.325 C 
ATOM      9  C   UNL A   1      32.661  29.663  25.072  1.00  0.00     0.325 C 
ATOM     10  H   UNL A   1      34.445  30.458  25.610  1.00  0.00     0.348 HD
ATOM     11  C   UNL A   1      33.482  27.328  26.526  1.00  0.00     0.324 C 
ATOM     12  C   UNL A   1      31.735  28.446  25.294  1.00  0.00     0.324 C 
ATOM     13  N   UNL A   1      32.426  27.176  25.522  1.00  0.00    -0.322 N 
ATOM     14  H   UNL A   1      31.734  26.553  25.940  1.00  0.00     0.348 HD
BRANCH  13  15
ATOM     15  C   UNL A   1      32.714  26.335  24.350  1.00  0.00     0.306 C 
BRANCH  15  16
ATOM     16  C   UNL A   1      33.277  24.950  24.607  1.00  0.00     0.085 A 
ATOM     17  C   UNL A   1      34.557  24.676  24.075  1.00  0.00     0.037 A 
ATOM     18  C   UNL A   1      32.632  23.895  25.290  1.00  0.00     0.278 A 
ATOM     19  C   UNL A   1      35.084  23.384  24.052  1.00  0.00     0.042 A 
ATOM     20  C   UNL A   1      33.181  22.594  25.282  1.00  0.00     0.088 A 
ATOM     21  Cl  UNL A   1      36.572  23.088  23.241  1.00  0.00    -0.084 Cl
ATOM     22  C   UNL A   1      34.387  22.334  24.631  1.00  0.00     0.027 A 
BRANCH  18  23
ATOM     23  N   UNL A   1      31.408  24.073  26.090  1.00  0.00     0.063 N 
ATOM     24  O   UNL A   1      30.327  23.888  25.510  1.00  0.00    -0.258 OA
ATOM     25  O   UNL A   1      31.509  24.404  27.274  1.00  0.00    -0.258 OA
ENDBRANCH  18  23
ENDBRANCH  15  16
ENDBRANCH  13  15
ENDBRANCH   6   7
ENDBRANCH   4   6
ENDBRANCH   1   2
BRANCH   1  26
ATOM     26  C   UNL A   1      34.380  34.010  30.297  1.00  0.00     0.042 C 
BRANCH  26  27
ATOM     27  C   UNL A   1      34.469  32.721  31.114  1.00  0.00     0.118 C 
BRANCH  27  28
ATOM     28  N   UNL A   1      34.968  32.933  32.469  1.00  0.00    -0.352 N 
ATOM     29  C   UNL A   1      36.135  32.548  33.079  1.00  0.00     0.251 C 
ATOM     30  H   UNL A   1      34.359  33.445  33.048  1.00  0.00     0.163 HD
ATOM     31  O   UNL A   1      36.255  32.717  34.297  1.00  0.00    -0.269 OA
BRANCH  29  32
ATOM     32  C   UNL A   1      37.247  31.922  32.328  1.00  0.00     0.039 A 
ATOM     33  C   UNL A   1      37.392  32.224  30.967  1.00  0.00     0.014 A 
ATOM     34  C   UNL A   1      38.107  30.997  32.920  1.00  0.00     0.014 A 
ATOM     35  C   UNL A   1      38.436  31.658  30.226  1.00  0.00     0.010 A 
ATOM     36  C   UNL A   1      39.189  30.487  32.200  1.00  0.00     0.010 A 
ATOM     37  C   UNL A   1      39.369  30.813  30.847  1.00  0.00    -0.014 A 
BRANCH  37  38
ATOM     38  C   UNL A   1      40.538  30.267  30.105  1.00  0.00     0.031 A 
ATOM     39  C   UNL A   1      41.767  31.108  29.889  1.00  0.00     0.074 A 
ATOM     40  C   UNL A   1      40.469  29.037  29.557  1.00  0.00     0.049 A 
ATOM     41  N   UNL A   1      42.838  30.845  29.181  1.00  0.00    -0.248 NA
ATOM     42  C   UNL A   1      41.787  32.430  30.536  1.00  0.00     0.031 C 
ATOM     43  C   UNL A   1      39.334  28.120  29.667  1.00  0.00     0.029 A 
ATOM     44  N   UNL A   1      41.375  28.352  28.782  1.00  0.00    -0.354 N 
ATOM     45  C   UNL A   1      43.645  31.972  29.279  1.00  0.00     0.074 A 
ATOM     46  C   UNL A   1      42.922  32.937  30.079  1.00  0.00     0.031 C 
ATOM     47  C   UNL A   1      39.616  26.988  29.002  1.00  0.00     0.029 A 
ATOM     48  C   UNL A   1      40.929  27.115  28.378  1.00  0.00     0.049 A 
ATOM     49  H   UNL A   1      42.258  28.711  28.540  1.00  0.00     0.167 HD
ATOM     50  C   UNL A   1      44.881  32.182  28.764  1.00  0.00     0.031 A 
ATOM     51  C   UNL A   1      41.502  26.194  27.581  1.00  0.00     0.031 A 
ATOM     52  C   UNL A   1      45.606  31.223  27.974  1.00  0.00     0.049 A 
ATOM     53  C   UNL A   1      42.859  26.464  26.993  1.00  0.00     0.074 A 
ATOM     54  C   UNL A   1      46.884  31.327  27.450  1.00  0.00     0.029 A 
ATOM     55  N   UNL A   1      45.119  29.983  27.591  1.00  0.00    -0.354 N 
ATOM     56  N   UNL A   1      43.630  27.514  27.140  1.00  0.00    -0.248 NA
ATOM     57  C   UNL A   1      43.429  25.415  26.134  1.00  0.00     0.031 C 
ATOM     58  C   UNL A   1      47.147  30.175  26.703  1.00  0.00     0.029 A 
ATOM     59  C   UNL A   1      46.060  29.325  26.815  1.00  0.00     0.049 A 
ATOM     60  H   UNL A   1      44.235  29.623  27.834  1.00  0.00     0.167 HD
ATOM     61  C   UNL A   1      44.787  27.238  26.421  1.00  0.00     0.074 A 
ATOM     62  C   UNL A   1      44.622  25.918  25.849  1.00  0.00     0.031 C 
ATOM     63  C   UNL A   1      45.888  28.010  26.252  1.00  0.00     0.031 A 
BRANCH  50  64
ATOM     64  C   UNL A   1      45.525  33.517  29.028  1.00  0.00    -0.014 A 
ATOM     65  C   UNL A   1      46.531  33.662  29.997  1.00  0.00     0.009 A 
ATOM     66  C   UNL A   1      45.148  34.636  28.269  1.00  0.00     0.009 A 
ATOM     67  C   UNL A   1      47.115  34.909  30.229  1.00  0.00     0.001 A 
ATOM     68  C   UNL A   1      45.757  35.874  28.481  1.00  0.00     0.001 A 
ATOM     69  C   UNL A   1      46.731  36.013  29.468  1.00  0.00     0.000 A 
ENDBRANCH  50  64
BRANCH  51  70
ATOM     70  C   UNL A   1      40.796  24.917  27.289  1.00  0.00    -0.014 A 
ATOM     71  C   UNL A   1      39.668  24.903  26.455  1.00  0.00     0.009 A 
ATOM     72  C   UNL A   1      41.237  23.710  27.853  1.00  0.00     0.009 A 
ATOM     73  C   UNL A   1      38.979  23.711  26.216  1.00  0.00     0.001 A 
ATOM     74  C   UNL A   1      40.565  22.515  27.586  1.00  0.00     0.001 A 
ATOM     75  C   UNL A   1      39.431  22.519  26.777  1.00  0.00     0.000 A 
ENDBRANCH  51  70
BRANCH  63  76
ATOM     76  C   UNL A   1      47.023  27.431  25.453  1.00  0.00    -0.014 A 
ATOM     77  C   UNL A   1      47.183  27.723  24.090  1.00  0.00     0.009 A 
ATOM     78  C   UNL A   1      47.969  26.611  26.089  1.00  0.00     0.009 A 
ATOM     79  C   UNL A   1      48.250  27.176  23.372  1.00  0.00     0.001 A 
ATOM     80  C   UNL A   1      49.051  26.092  25.377  1.00  0.00     0.001 A 
ATOM     81  C   UNL A   1      49.185  26.367  24.017  1.00  0.00     0.000 A 
ENDBRANCH  63  76
ENDBRANCH  37  38
ENDBRANCH  29  32
ENDBRANCH  27  28
ENDBRANCH  26  27
ENDBRANCH   1  26
TORSDOF 14
ENDMDL
