MODEL 1
REMARK VINA RESULT:     -11.6      0.000      0.000
REMARK SMILES O=C(NCc1ccsc1)NC[C@H]1CC[C@@H](C(=O)NCCCNC(=O)c2ccc(-c3c4nc(c(-c5ccccc5)c5ccc([nH]5)c(-c5ccccc5)c5nc(c(-c6ccccc6)c6ccc3[nH]6)C=C5)C=C4)cc2)CC1
REMARK SMILES IDX 19 1 18 2 16 3 17 4 15 6 12 7 13 8 74 9 14 10 73 11 11 12
REMARK SMILES IDX 10 13 1 14 2 15 3 16 4 19 5 20 6 21 9 22 7 23 8 24 20 25
REMARK SMILES IDX 21 26 22 27 23 28 24 30 25 31 26 32 72 33 27 34 71 35 28 36
REMARK SMILES IDX 29 37 30 38 65 39 31 40 70 41 64 42 66 43 32 44 69 45 63 46
REMARK SMILES IDX 62 47 33 49 55 50 40 51 54 52 41 53 44 54 53 55 67 56 42 57
REMARK SMILES IDX 43 58 52 60 68 61 45 62 34 63 35 64 39 65 36 66 38 67 37 68
REMARK SMILES IDX 56 69 57 70 61 71 58 72 60 73 59 74 46 75 47 76 51 77 48 78
REMARK SMILES IDX 50 79 49 80
REMARK H PARENT 18 5 3 17 10 18 22 29 66 48 44 59
REMARK Flexibility Score: inf
ROOT
ATOM      1  C   UNL A   1      31.910  26.717  26.117  1.00  0.00     0.117 C 
ENDROOT
BRANCH   1   2
ATOM      2  N   UNL A   1      31.338  25.566  26.777  1.00  0.00    -0.356 N 
ATOM      3  C   UNL A   1      31.400  24.238  26.525  1.00  0.00     0.223 C 
ATOM      4  O   UNL A   1      30.784  23.517  27.321  1.00  0.00    -0.275 OA
ATOM      5  H   UNL A   1      30.795  25.793  27.567  1.00  0.00     0.163 HD
BRANCH   3   6
ATOM      6  C   UNL A   1      32.128  23.585  25.337  1.00  0.00     0.078 C 
ATOM      7  C   UNL A   1      33.087  25.092  22.882  1.00  0.00     0.008 C 
ATOM      8  C   UNL A   1      34.019  24.907  24.099  1.00  0.00     0.006 C 
ATOM      9  C   UNL A   1      31.609  24.755  23.124  1.00  0.00     0.006 C 
ATOM     10  C   UNL A   1      33.615  23.876  25.153  1.00  0.00     0.014 C 
ATOM     11  C   UNL A   1      31.348  23.570  24.032  1.00  0.00     0.014 C 
BRANCH   7  12
ATOM     12  C   UNL A   1      33.267  26.532  22.324  1.00  0.00     0.121 C 
BRANCH  12  13
ATOM     13  N   UNL A   1      32.295  27.487  22.827  1.00  0.00    -0.338 N 
ATOM     14  O   UNL A   1      33.764  29.225  22.986  1.00  0.00    -0.249 OA
ATOM     15  C   UNL A   1      32.646  28.764  23.154  1.00  0.00     0.315 C 
ATOM     16  N   UNL A   1      31.709  29.541  23.743  1.00  0.00    -0.334 N 
ATOM     17  H   UNL A   1      32.049  30.399  24.083  1.00  0.00     0.165 HD
ATOM     18  H   UNL A   1      31.358  27.206  22.935  1.00  0.00     0.165 HD
BRANCH  16  19
ATOM     19  C   UNL A   1      30.300  29.329  23.962  1.00  0.00     0.154 C 
BRANCH  19  20
ATOM     20  C   UNL A   1      29.504  30.305  23.154  1.00  0.00    -0.018 A 
ATOM     21  C   UNL A   1      28.833  31.468  23.668  1.00  0.00     0.017 A 
ATOM     22  C   UNL A   1      29.276  30.181  21.794  1.00  0.00     0.070 A 
ATOM     23  C   UNL A   1      28.127  32.148  22.700  1.00  0.00     0.065 A 
ATOM     24  S   UNL A   1      28.274  31.413  21.165  1.00  0.00    -0.152 S 
ENDBRANCH  19  20
ENDBRANCH  16  19
ENDBRANCH  12  13
ENDBRANCH   7  12
ENDBRANCH   3   6
ENDBRANCH   1   2
BRANCH   1  25
ATOM     25  C   UNL A   1      32.027  27.918  27.041  1.00  0.00     0.042 C 
BRANCH  25  26
ATOM     26  C   UNL A   1      33.433  28.471  27.185  1.00  0.00     0.118 C 
BRANCH  26  27
ATOM     27  N   UNL A   1      33.470  29.884  27.543  1.00  0.00    -0.352 N 
ATOM     28  C   UNL A   1      34.444  30.665  28.119  1.00  0.00     0.251 C 
ATOM     29  H   UNL A   1      32.641  30.370  27.333  1.00  0.00     0.163 HD
ATOM     30  O   UNL A   1      34.170  31.827  28.418  1.00  0.00    -0.269 OA
BRANCH  28  31
ATOM     31  C   UNL A   1      35.814  30.156  28.373  1.00  0.00     0.039 A 
ATOM     32  C   UNL A   1      36.753  30.187  27.336  1.00  0.00     0.014 A 
ATOM     33  C   UNL A   1      36.171  29.586  29.594  1.00  0.00     0.014 A 
ATOM     34  C   UNL A   1      38.052  29.708  27.545  1.00  0.00     0.010 A 
ATOM     35  C   UNL A   1      37.493  29.230  29.842  1.00  0.00     0.010 A 
ATOM     36  C   UNL A   1      38.444  29.260  28.814  1.00  0.00    -0.014 A 
BRANCH  36  37
ATOM     37  C   UNL A   1      39.822  28.777  29.099  1.00  0.00     0.031 A 
ATOM     38  C   UNL A   1      40.830  29.705  29.730  1.00  0.00     0.074 A 
ATOM     39  C   UNL A   1      40.198  27.542  28.711  1.00  0.00     0.049 A 
ATOM     40  N   UNL A   1      42.112  29.524  29.930  1.00  0.00    -0.248 NA
ATOM     41  C   UNL A   1      40.340  31.027  30.156  1.00  0.00     0.031 C 
ATOM     42  C   UNL A   1      39.338  26.553  28.057  1.00  0.00     0.029 A 
ATOM     43  N   UNL A   1      41.415  26.912  28.799  1.00  0.00    -0.354 N 
ATOM     44  C   UNL A   1      42.583  30.719  30.463  1.00  0.00     0.074 A 
ATOM     45  C   UNL A   1      41.463  31.634  30.507  1.00  0.00     0.031 C 
ATOM     46  C   UNL A   1      40.046  25.437  27.826  1.00  0.00     0.029 A 
ATOM     47  C   UNL A   1      41.420  25.645  28.272  1.00  0.00     0.049 A 
ATOM     48  H   UNL A   1      42.210  27.331  29.203  1.00  0.00     0.167 HD
ATOM     49  C   UNL A   1      43.827  31.025  30.901  1.00  0.00     0.031 A 
ATOM     50  C   UNL A   1      42.418  24.751  28.154  1.00  0.00     0.031 A 
ATOM     51  C   UNL A   1      44.931  30.104  30.897  1.00  0.00     0.049 A 
ATOM     52  C   UNL A   1      43.789  25.106  28.660  1.00  0.00     0.074 A 
ATOM     53  C   UNL A   1      46.212  30.292  31.386  1.00  0.00     0.029 A 
ATOM     54  N   UNL A   1      44.881  28.819  30.382  1.00  0.00    -0.354 N 
ATOM     55  N   UNL A   1      44.200  26.218  29.216  1.00  0.00    -0.248 NA
ATOM     56  C   UNL A   1      44.827  24.074  28.531  1.00  0.00     0.031 C 
ATOM     57  C   UNL A   1      46.951  29.134  31.127  1.00  0.00     0.029 A 
ATOM     58  C   UNL A   1      46.114  28.207  30.526  1.00  0.00     0.049 A 
ATOM     59  H   UNL A   1      44.087  28.402  29.976  1.00  0.00     0.167 HD
ATOM     60  C   UNL A   1      45.538  26.012  29.530  1.00  0.00     0.074 A 
ATOM     61  C   UNL A   1      45.862  24.662  29.115  1.00  0.00     0.031 C 
ATOM     62  C   UNL A   1      46.419  26.863  30.110  1.00  0.00     0.031 A 
BRANCH  49  63
ATOM     63  C   UNL A   1      44.057  32.417  31.425  1.00  0.00    -0.014 A 
ATOM     64  C   UNL A   1      43.882  32.724  32.784  1.00  0.00     0.009 A 
ATOM     65  C   UNL A   1      44.486  33.429  30.552  1.00  0.00     0.009 A 
ATOM     66  C   UNL A   1      44.089  34.025  33.249  1.00  0.00     0.001 A 
ATOM     67  C   UNL A   1      44.723  34.721  31.025  1.00  0.00     0.001 A 
ATOM     68  C   UNL A   1      44.514  35.020  32.371  1.00  0.00     0.000 A 
ENDBRANCH  49  63
BRANCH  50  69
ATOM     69  C   UNL A   1      42.156  23.420  27.546  1.00  0.00    -0.014 A 
ATOM     70  C   UNL A   1      41.560  22.401  28.304  1.00  0.00     0.009 A 
ATOM     71  C   UNL A   1      42.504  23.161  26.212  1.00  0.00     0.009 A 
ATOM     72  C   UNL A   1      41.340  21.140  27.744  1.00  0.00     0.001 A 
ATOM     73  C   UNL A   1      42.256  21.909  25.646  1.00  0.00     0.001 A 
ATOM     74  C   UNL A   1      41.683  20.896  26.414  1.00  0.00     0.000 A 
ENDBRANCH  50  69
BRANCH  62  75
ATOM     75  C   UNL A   1      47.806  26.348  30.364  1.00  0.00    -0.014 A 
ATOM     76  C   UNL A   1      48.812  26.450  29.391  1.00  0.00     0.009 A 
ATOM     77  C   UNL A   1      48.120  25.792  31.614  1.00  0.00     0.009 A 
ATOM     78  C   UNL A   1      50.098  25.977  29.656  1.00  0.00     0.001 A 
ATOM     79  C   UNL A   1      49.415  25.347  31.886  1.00  0.00     0.001 A 
ATOM     80  C   UNL A   1      50.400  25.431  30.903  1.00  0.00     0.000 A 
ENDBRANCH  62  75
ENDBRANCH  36  37
ENDBRANCH  28  31
ENDBRANCH  26  27
ENDBRANCH  25  26
ENDBRANCH   1  25
TORSDOF 14
ENDMDL
MODEL 2
REMARK VINA RESULT:     -11.3      1.924      4.092
REMARK SMILES O=C(NCc1ccsc1)NC[C@H]1CC[C@@H](C(=O)NCCCNC(=O)c2ccc(-c3c4nc(c(-c5ccccc5)c5ccc([nH]5)c(-c5ccccc5)c5nc(c(-c6ccccc6)c6ccc3[nH]6)C=C5)C=C4)cc2)CC1
REMARK SMILES IDX 19 1 18 2 16 3 17 4 15 6 12 7 13 8 74 9 14 10 73 11 11 12
REMARK SMILES IDX 10 13 1 14 2 15 3 16 4 19 5 20 6 21 9 22 7 23 8 24 20 25
REMARK SMILES IDX 21 26 22 27 23 28 24 30 25 31 26 32 72 33 27 34 71 35 28 36
REMARK SMILES IDX 29 37 30 38 65 39 31 40 70 41 64 42 66 43 32 44 69 45 63 46
REMARK SMILES IDX 62 47 33 49 55 50 40 51 54 52 41 53 44 54 53 55 67 56 42 57
REMARK SMILES IDX 43 58 52 60 68 61 45 62 34 63 35 64 39 65 36 66 38 67 37 68
REMARK SMILES IDX 56 69 57 70 61 71 58 72 60 73 59 74 46 75 47 76 51 77 48 78
REMARK SMILES IDX 50 79 49 80
REMARK H PARENT 18 5 3 17 10 18 22 29 66 48 44 59
REMARK Flexibility Score: inf
ROOT
ATOM      1  C   UNL A   1      33.209  28.918  24.949  1.00  0.00     0.117 C 
ENDROOT
BRANCH   1   2
ATOM      2  N   UNL A   1      33.874  28.777  23.675  1.00  0.00    -0.356 N 
ATOM      3  C   UNL A   1      33.554  28.113  22.541  1.00  0.00     0.223 C 
ATOM      4  O   UNL A   1      34.368  28.221  21.614  1.00  0.00    -0.275 OA
ATOM      5  H   UNL A   1      34.730  29.261  23.620  1.00  0.00     0.163 HD
BRANCH   3   6
ATOM      6  C   UNL A   1      32.308  27.232  22.341  1.00  0.00     0.078 C 
ATOM      7  C   UNL A   1      30.874  25.765  24.578  1.00  0.00     0.008 C 
ATOM      8  C   UNL A   1      30.446  27.195  24.180  1.00  0.00     0.006 C 
ATOM      9  C   UNL A   1      32.217  25.294  24.005  1.00  0.00     0.006 C 
ATOM     10  C   UNL A   1      30.967  27.749  22.854  1.00  0.00     0.014 C 
ATOM     11  C   UNL A   1      32.521  25.747  22.591  1.00  0.00     0.014 C 
BRANCH   7  12
ATOM     12  C   UNL A   1      30.831  25.639  26.127  1.00  0.00     0.121 C 
BRANCH  12  13
ATOM     13  N   UNL A   1      31.710  24.614  26.662  1.00  0.00    -0.338 N 
ATOM     14  O   UNL A   1      30.220  22.904  26.422  1.00  0.00    -0.249 OA
ATOM     15  C   UNL A   1      31.305  23.319  26.798  1.00  0.00     0.315 C 
ATOM     16  N   UNL A   1      32.138  22.464  27.432  1.00  0.00    -0.334 N 
ATOM     17  H   UNL A   1      31.745  21.583  27.626  1.00  0.00     0.165 HD
ATOM     18  H   UNL A   1      32.623  24.861  26.935  1.00  0.00     0.165 HD
BRANCH  16  19
ATOM     19  C   UNL A   1      33.501  22.618  27.875  1.00  0.00     0.154 C 
BRANCH  19  20
ATOM     20  C   UNL A   1      34.428  22.583  26.701  1.00  0.00    -0.018 A 
ATOM     21  C   UNL A   1      35.005  23.730  26.054  1.00  0.00     0.017 A 
ATOM     22  C   UNL A   1      34.816  21.421  26.055  1.00  0.00     0.070 A 
ATOM     23  C   UNL A   1      35.773  23.394  24.960  1.00  0.00     0.065 A 
ATOM     24  S   UNL A   1      35.825  21.706  24.707  1.00  0.00    -0.152 S 
ENDBRANCH  19  20
ENDBRANCH  16  19
ENDBRANCH  12  13
ENDBRANCH   7  12
ENDBRANCH   3   6
ENDBRANCH   1   2
BRANCH   1  25
ATOM     25  C   UNL A   1      33.745  27.954  25.995  1.00  0.00     0.042 C 
BRANCH  25  26
ATOM     26  C   UNL A   1      33.474  28.365  27.431  1.00  0.00     0.118 C 
BRANCH  26  27
ATOM     27  N   UNL A   1      33.494  29.808  27.638  1.00  0.00    -0.352 N 
ATOM     28  C   UNL A   1      34.468  30.660  28.104  1.00  0.00     0.251 C 
ATOM     29  H   UNL A   1      32.652  30.257  27.400  1.00  0.00     0.163 HD
ATOM     30  O   UNL A   1      34.181  31.843  28.287  1.00  0.00    -0.269 OA
BRANCH  28  31
ATOM     31  C   UNL A   1      35.852  30.202  28.374  1.00  0.00     0.039 A 
ATOM     32  C   UNL A   1      36.173  29.727  29.651  1.00  0.00     0.014 A 
ATOM     33  C   UNL A   1      36.857  30.292  27.413  1.00  0.00     0.014 A 
ATOM     34  C   UNL A   1      37.473  29.294  29.937  1.00  0.00     0.010 A 
ATOM     35  C   UNL A   1      38.112  29.743  27.655  1.00  0.00     0.010 A 
ATOM     36  C   UNL A   1      38.446  29.261  28.927  1.00  0.00    -0.014 A 
BRANCH  36  37
ATOM     37  C   UNL A   1      39.830  28.773  29.169  1.00  0.00     0.031 A 
ATOM     38  C   UNL A   1      40.862  29.701  29.761  1.00  0.00     0.074 A 
ATOM     39  C   UNL A   1      40.189  27.535  28.775  1.00  0.00     0.049 A 
ATOM     40  N   UNL A   1      42.149  29.516  29.919  1.00  0.00    -0.248 NA
ATOM     41  C   UNL A   1      40.392  31.027  30.196  1.00  0.00     0.031 C 
ATOM     42  C   UNL A   1      39.303  26.546  28.156  1.00  0.00     0.029 A 
ATOM     43  N   UNL A   1      41.405  26.901  28.826  1.00  0.00    -0.354 N 
ATOM     44  C   UNL A   1      42.642  30.712  30.430  1.00  0.00     0.074 A 
ATOM     45  C   UNL A   1      41.528  31.632  30.506  1.00  0.00     0.031 C 
ATOM     46  C   UNL A   1      39.999  25.426  27.907  1.00  0.00     0.029 A 
ATOM     47  C   UNL A   1      41.388  25.631  28.306  1.00  0.00     0.049 A 
ATOM     48  H   UNL A   1      42.215  27.319  29.201  1.00  0.00     0.167 HD
ATOM     49  C   UNL A   1      43.901  31.015  30.825  1.00  0.00     0.031 A 
ATOM     50  C   UNL A   1      42.378  24.732  28.159  1.00  0.00     0.031 A 
ATOM     51  C   UNL A   1      45.001  30.090  30.789  1.00  0.00     0.049 A 
ATOM     52  C   UNL A   1      43.766  25.084  28.618  1.00  0.00     0.074 A 
ATOM     53  C   UNL A   1      46.298  30.276  31.235  1.00  0.00     0.029 A 
ATOM     54  N   UNL A   1      44.929  28.802  30.283  1.00  0.00    -0.354 N 
ATOM     55  N   UNL A   1      44.200  26.198  29.155  1.00  0.00    -0.248 NA
ATOM     56  C   UNL A   1      44.796  24.048  28.460  1.00  0.00     0.031 C 
ATOM     57  C   UNL A   1      47.024  29.113  30.957  1.00  0.00     0.029 A 
ATOM     58  C   UNL A   1      46.164  28.186  30.389  1.00  0.00     0.049 A 
ATOM     59  H   UNL A   1      44.120  28.387  29.906  1.00  0.00     0.167 HD
ATOM     60  C   UNL A   1      45.547  25.988  29.425  1.00  0.00     0.074 A 
ATOM     61  C   UNL A   1      45.852  24.635  29.007  1.00  0.00     0.031 C 
ATOM     62  C   UNL A   1      46.449  26.839  29.970  1.00  0.00     0.031 A 
BRANCH  49  63
ATOM     63  C   UNL A   1      44.154  32.409  31.333  1.00  0.00    -0.014 A 
ATOM     64  C   UNL A   1      44.527  33.447  30.464  1.00  0.00     0.009 A 
ATOM     65  C   UNL A   1      43.987  32.695  32.697  1.00  0.00     0.009 A 
ATOM     66  C   UNL A   1      44.768  34.732  30.956  1.00  0.00     0.001 A 
ATOM     67  C   UNL A   1      44.198  33.987  33.182  1.00  0.00     0.001 A 
ATOM     68  C   UNL A   1      44.599  35.002  32.314  1.00  0.00     0.000 A 
ENDBRANCH  49  63
BRANCH  50  69
ATOM     69  C   UNL A   1      42.091  23.399  27.568  1.00  0.00    -0.014 A 
ATOM     70  C   UNL A   1      42.379  23.147  26.218  1.00  0.00     0.009 A 
ATOM     71  C   UNL A   1      41.526  22.378  28.345  1.00  0.00     0.009 A 
ATOM     72  C   UNL A   1      42.083  21.905  25.652  1.00  0.00     0.001 A 
ATOM     73  C   UNL A   1      41.258  21.127  27.784  1.00  0.00     0.001 A 
ATOM     74  C   UNL A   1      41.527  20.894  26.437  1.00  0.00     0.000 A 
ENDBRANCH  50  69
BRANCH  62  75
ATOM     75  C   UNL A   1      47.843  26.320  30.181  1.00  0.00    -0.014 A 
ATOM     76  C   UNL A   1      48.253  25.815  31.424  1.00  0.00     0.009 A 
ATOM     77  C   UNL A   1      48.743  26.295  29.104  1.00  0.00     0.009 A 
ATOM     78  C   UNL A   1      49.549  25.325  31.592  1.00  0.00     0.001 A 
ATOM     79  C   UNL A   1      50.028  25.776  29.267  1.00  0.00     0.001 A 
ATOM     80  C   UNL A   1      50.433  25.300  30.513  1.00  0.00     0.000 A 
ENDBRANCH  62  75
ENDBRANCH  36  37
ENDBRANCH  28  31
ENDBRANCH  26  27
ENDBRANCH  25  26
ENDBRANCH   1  25
TORSDOF 14
ENDMDL
MODEL 3
REMARK VINA RESULT:     -11.1      3.589      8.540
REMARK SMILES O=C(NCc1ccsc1)NC[C@H]1CC[C@@H](C(=O)NCCCNC(=O)c2ccc(-c3c4nc(c(-c5ccccc5)c5ccc([nH]5)c(-c5ccccc5)c5nc(c(-c6ccccc6)c6ccc3[nH]6)C=C5)C=C4)cc2)CC1
REMARK SMILES IDX 19 1 18 2 16 3 17 4 15 6 12 7 13 8 74 9 14 10 73 11 11 12
REMARK SMILES IDX 10 13 1 14 2 15 3 16 4 19 5 20 6 21 9 22 7 23 8 24 20 25
REMARK SMILES IDX 21 26 22 27 23 28 24 30 25 31 26 32 72 33 27 34 71 35 28 36
REMARK SMILES IDX 29 37 30 38 65 39 31 40 70 41 64 42 66 43 32 44 69 45 63 46
REMARK SMILES IDX 62 47 33 49 55 50 40 51 54 52 41 53 44 54 53 55 67 56 42 57
REMARK SMILES IDX 43 58 52 60 68 61 45 62 34 63 35 64 39 65 36 66 38 67 37 68
REMARK SMILES IDX 56 69 57 70 61 71 58 72 60 73 59 74 46 75 47 76 51 77 48 78
REMARK SMILES IDX 50 79 49 80
REMARK H PARENT 18 5 3 17 10 18 22 29 66 48 44 59
REMARK Flexibility Score: inf
ROOT
ATOM      1  C   UNL A   1      34.594  23.858  24.808  1.00  0.00     0.117 C 
ENDROOT
BRANCH   1   2
ATOM      2  N   UNL A   1      34.570  24.644  23.596  1.00  0.00    -0.356 N 
ATOM      3  C   UNL A   1      33.642  25.466  23.054  1.00  0.00     0.223 C 
ATOM      4  O   UNL A   1      33.966  25.999  21.984  1.00  0.00    -0.275 OA
ATOM      5  H   UNL A   1      35.391  24.566  23.059  1.00  0.00     0.163 HD
BRANCH   3   6
ATOM      6  C   UNL A   1      32.246  25.748  23.636  1.00  0.00     0.078 C 
ATOM      7  C   UNL A   1      30.851  23.977  25.668  1.00  0.00     0.008 C 
ATOM      8  C   UNL A   1      31.744  25.147  26.134  1.00  0.00     0.006 C 
ATOM      9  C   UNL A   1      30.977  23.599  24.186  1.00  0.00     0.006 C 
ATOM     10  C   UNL A   1      32.146  26.192  25.093  1.00  0.00     0.014 C 
ATOM     11  C   UNL A   1      31.166  24.757  23.229  1.00  0.00     0.014 C 
BRANCH   7  12
ATOM     12  C   UNL A   1      31.096  22.756  26.599  1.00  0.00     0.121 C 
BRANCH  12  13
ATOM     13  N   UNL A   1      31.869  21.689  25.985  1.00  0.00    -0.338 N 
ATOM     14  O   UNL A   1      33.465  21.615  27.613  1.00  0.00    -0.249 OA
ATOM     15  C   UNL A   1      33.028  21.231  26.540  1.00  0.00     0.315 C 
ATOM     16  N   UNL A   1      33.752  20.336  25.831  1.00  0.00    -0.334 N 
ATOM     17  H   UNL A   1      34.640  20.142  26.208  1.00  0.00     0.165 HD
ATOM     18  H   UNL A   1      31.549  21.288  25.146  1.00  0.00     0.165 HD
BRANCH  16  19
ATOM     19  C   UNL A   1      33.450  19.617  24.618  1.00  0.00     0.154 C 
BRANCH  19  20
ATOM     20  C   UNL A   1      33.585  18.145  24.848  1.00  0.00    -0.018 A 
ATOM     21  C   UNL A   1      34.733  17.347  24.518  1.00  0.00     0.017 A 
ATOM     22  C   UNL A   1      32.582  17.349  25.376  1.00  0.00     0.070 A 
ATOM     23  C   UNL A   1      34.549  16.009  24.788  1.00  0.00     0.065 A 
ATOM     24  S   UNL A   1      33.007  15.697  25.454  1.00  0.00    -0.152 S 
ENDBRANCH  19  20
ENDBRANCH  16  19
ENDBRANCH  12  13
ENDBRANCH   7  12
ENDBRANCH   3   6
ENDBRANCH   1   2
BRANCH   1  25
ATOM     25  C   UNL A   1      35.930  23.941  25.529  1.00  0.00     0.042 C 
BRANCH  25  26
ATOM     26  C   UNL A   1      37.132  23.579  24.675  1.00  0.00     0.118 C 
BRANCH  26  27
ATOM     27  N   UNL A   1      38.025  22.614  25.307  1.00  0.00    -0.352 N 
ATOM     28  C   UNL A   1      39.082  22.765  26.174  1.00  0.00     0.251 C 
ATOM     29  H   UNL A   1      37.836  21.679  25.066  1.00  0.00     0.163 HD
ATOM     30  O   UNL A   1      39.748  21.774  26.472  1.00  0.00    -0.269 OA
BRANCH  28  31
ATOM     31  C   UNL A   1      39.430  24.077  26.770  1.00  0.00     0.039 A 
ATOM     32  C   UNL A   1      39.022  24.358  28.079  1.00  0.00     0.014 A 
ATOM     33  C   UNL A   1      40.094  25.063  26.042  1.00  0.00     0.014 A 
ATOM     34  C   UNL A   1      39.330  25.591  28.666  1.00  0.00     0.010 A 
ATOM     35  C   UNL A   1      40.513  26.234  26.664  1.00  0.00     0.010 A 
ATOM     36  C   UNL A   1      40.115  26.526  27.976  1.00  0.00    -0.014 A 
BRANCH  36  37
ATOM     37  C   UNL A   1      40.503  27.834  28.568  1.00  0.00     0.031 A 
ATOM     38  C   UNL A   1      41.897  28.030  29.110  1.00  0.00     0.074 A 
ATOM     39  C   UNL A   1      39.586  28.812  28.705  1.00  0.00     0.049 A 
ATOM     40  N   UNL A   1      42.389  29.037  29.787  1.00  0.00    -0.248 NA
ATOM     41  C   UNL A   1      42.854  26.931  28.897  1.00  0.00     0.031 C 
ATOM     42  C   UNL A   1      38.193  28.745  28.260  1.00  0.00     0.029 A 
ATOM     43  N   UNL A   1      39.690  30.056  29.275  1.00  0.00    -0.354 N 
ATOM     44  C   UNL A   1      43.691  28.673  30.112  1.00  0.00     0.074 A 
ATOM     45  C   UNL A   1      43.897  27.334  29.606  1.00  0.00     0.031 C 
ATOM     46  C   UNL A   1      37.580  29.903  28.551  1.00  0.00     0.029 A 
ATOM     47  C   UNL A   1      38.522  30.776  29.245  1.00  0.00     0.049 A 
ATOM     48  H   UNL A   1      40.525  30.400  29.670  1.00  0.00     0.167 HD
ATOM     49  C   UNL A   1      44.642  29.394  30.753  1.00  0.00     0.031 A 
ATOM     50  C   UNL A   1      38.235  32.000  29.726  1.00  0.00     0.031 A 
ATOM     51  C   UNL A   1      44.455  30.740  31.221  1.00  0.00     0.049 A 
ATOM     52  C   UNL A   1      39.310  32.788  30.421  1.00  0.00     0.074 A 
ATOM     53  C   UNL A   1      45.378  31.583  31.815  1.00  0.00     0.029 A 
ATOM     54  N   UNL A   1      43.263  31.441  31.139  1.00  0.00    -0.354 N 
ATOM     55  N   UNL A   1      40.553  32.451  30.666  1.00  0.00    -0.248 NA
ATOM     56  C   UNL A   1      38.943  34.130  30.894  1.00  0.00     0.031 C 
ATOM     57  C   UNL A   1      44.730  32.781  32.134  1.00  0.00     0.029 A 
ATOM     58  C   UNL A   1      43.421  32.702  31.689  1.00  0.00     0.049 A 
ATOM     59  H   UNL A   1      42.428  31.096  30.747  1.00  0.00     0.167 HD
ATOM     60  C   UNL A   1      41.125  33.549  31.297  1.00  0.00     0.074 A 
ATOM     61  C   UNL A   1      40.097  34.567  31.381  1.00  0.00     0.031 C 
ATOM     62  C   UNL A   1      42.388  33.702  31.763  1.00  0.00     0.031 A 
BRANCH  49  63
ATOM     63  C   UNL A   1      45.976  28.735  30.983  1.00  0.00    -0.014 A 
ATOM     64  C   UNL A   1      46.228  27.978  32.139  1.00  0.00     0.009 A 
ATOM     65  C   UNL A   1      46.986  28.849  30.014  1.00  0.00     0.009 A 
ATOM     66  C   UNL A   1      47.476  27.384  32.339  1.00  0.00     0.001 A 
ATOM     67  C   UNL A   1      48.222  28.228  30.203  1.00  0.00     0.001 A 
ATOM     68  C   UNL A   1      48.470  27.505  31.370  1.00  0.00     0.000 A 
ENDBRANCH  49  63
BRANCH  50  69
ATOM     69  C   UNL A   1      36.874  32.568  29.549  1.00  0.00    -0.014 A 
ATOM     70  C   UNL A   1      36.545  33.269  28.378  1.00  0.00     0.009 A 
ATOM     71  C   UNL A   1      35.900  32.418  30.548  1.00  0.00     0.009 A 
ATOM     72  C   UNL A   1      35.275  33.829  28.224  1.00  0.00     0.001 A 
ATOM     73  C   UNL A   1      34.622  32.954  30.377  1.00  0.00     0.001 A 
ATOM     74  C   UNL A   1      34.313  33.667  29.220  1.00  0.00     0.000 A 
ENDBRANCH  50  69
BRANCH  62  75
ATOM     75  C   UNL A   1      42.739  35.029  32.373  1.00  0.00    -0.014 A 
ATOM     76  C   UNL A   1      42.427  35.324  33.708  1.00  0.00     0.009 A 
ATOM     77  C   UNL A   1      43.434  35.980  31.609  1.00  0.00     0.009 A 
ATOM     78  C   UNL A   1      42.776  36.558  34.257  1.00  0.00     0.001 A 
ATOM     79  C   UNL A   1      43.809  37.202  32.169  1.00  0.00     0.001 A 
ATOM     80  C   UNL A   1      43.471  37.493  33.490  1.00  0.00     0.000 A 
ENDBRANCH  62  75
ENDBRANCH  36  37
ENDBRANCH  28  31
ENDBRANCH  26  27
ENDBRANCH  25  26
ENDBRANCH   1  25
TORSDOF 14
ENDMDL
