MODEL 1
REMARK VINA RESULT:     -11.9      0.000      0.000
REMARK SMILES O=C(NCc1ccc(C(=O)NCCCNC(=O)c2ccc(-c3c4nc(c(-c5ccccc5)c5ccc([nH]5)c(-c5ccccc5)c5nc(c(-c6ccccc6)c6ccc3[nH]6)C=C5)C=C4)cc2)cc1)Nc1ccccc1Br
REMARK SMILES IDX 12 1 11 2 9 3 10 4 8 6 5 7 6 8 67 9 7 10 66 11 4 12 3 13
REMARK SMILES IDX 1 14 2 15 68 16 69 19 70 20 74 21 71 22 73 23 75 24 72 25
REMARK SMILES IDX 13 26 14 27 15 28 16 29 17 31 18 32 19 33 65 34 20 35 64 36
REMARK SMILES IDX 21 37 22 38 23 39 58 40 24 41 63 42 57 43 59 44 25 45 62 46
REMARK SMILES IDX 56 47 55 48 26 50 48 51 33 52 47 53 34 54 37 55 46 56 60 57
REMARK SMILES IDX 35 58 36 59 45 61 61 62 38 63 27 64 28 65 32 66 29 67 31 68
REMARK SMILES IDX 30 69 49 70 50 71 54 72 51 73 53 74 52 75 39 76 40 77 44 78
REMARK SMILES IDX 41 79 43 80 42 81
REMARK H PARENT 11 5 3 17 68 18 15 30 59 49 37 60
REMARK Flexibility Score: inf
ROOT
ATOM      1  C   UNL A   1      36.246  20.240  24.990  1.00  0.00     0.118 C 
ENDROOT
BRANCH   1   2
ATOM      2  N   UNL A   1      35.286  19.150  24.997  1.00  0.00    -0.352 N 
ATOM      3  C   UNL A   1      33.938  19.128  24.735  1.00  0.00     0.251 C 
ATOM      4  O   UNL A   1      33.370  18.037  24.688  1.00  0.00    -0.269 OA
ATOM      5  H   UNL A   1      35.667  18.274  25.231  1.00  0.00     0.163 HD
BRANCH   3   6
ATOM      6  C   UNL A   1      33.156  20.361  24.466  1.00  0.00     0.039 A 
ATOM      7  C   UNL A   1      31.643  22.659  23.817  1.00  0.00    -0.029 A 
ATOM      8  C   UNL A   1      32.016  21.743  22.822  1.00  0.00     0.006 A 
ATOM      9  C   UNL A   1      31.991  22.377  25.146  1.00  0.00     0.006 A 
ATOM     10  C   UNL A   1      32.764  20.605  23.144  1.00  0.00     0.014 A 
ATOM     11  C   UNL A   1      32.732  21.234  25.467  1.00  0.00     0.014 A 
BRANCH   7  12
ATOM     12  C   UNL A   1      30.818  23.871  23.456  1.00  0.00     0.153 C 
BRANCH  12  13
ATOM     13  N   UNL A   1      30.178  24.470  24.610  1.00  0.00    -0.334 N 
ATOM     14  O   UNL A   1      29.808  25.841  26.310  1.00  0.00    -0.248 OA
ATOM     15  C   UNL A   1      30.451  25.614  25.289  1.00  0.00     0.319 C 
ATOM     16  N   UNL A   1      31.371  26.453  24.728  1.00  0.00    -0.307 N 
ATOM     17  H   UNL A   1      29.415  23.960  24.963  1.00  0.00     0.165 HD
ATOM     18  H   UNL A   1      31.689  26.241  23.822  1.00  0.00     0.171 HD
BRANCH  16  19
ATOM     19  C   UNL A   1      31.898  27.605  25.358  1.00  0.00     0.057 A 
ATOM     20  C   UNL A   1      32.759  27.369  26.442  1.00  0.00     0.027 A 
ATOM     21  C   UNL A   1      31.619  28.935  24.997  1.00  0.00     0.041 A 
ATOM     22  C   UNL A   1      33.396  28.426  27.097  1.00  0.00     0.002 A 
ATOM     23  C   UNL A   1      32.264  29.991  25.657  1.00  0.00     0.018 A 
ATOM     24  Br  UNL A   1      30.232  29.436  23.791  1.00  0.00    -0.049 Br
ATOM     25  C   UNL A   1      33.161  29.736  26.695  1.00  0.00     0.001 A 
ENDBRANCH  16  19
ENDBRANCH  12  13
ENDBRANCH   7  12
ENDBRANCH   3   6
ENDBRANCH   1   2
BRANCH   1  26
ATOM     26  C   UNL A   1      37.663  19.742  24.704  1.00  0.00     0.042 C 
BRANCH  26  27
ATOM     27  C   UNL A   1      38.702  20.202  25.726  1.00  0.00     0.118 C 
BRANCH  27  28
ATOM     28  N   UNL A   1      39.840  19.300  25.798  1.00  0.00    -0.352 N 
ATOM     29  C   UNL A   1      41.161  19.557  26.069  1.00  0.00     0.251 C 
ATOM     30  H   UNL A   1      39.631  18.354  25.624  1.00  0.00     0.163 HD
ATOM     31  O   UNL A   1      41.992  18.671  25.888  1.00  0.00    -0.269 OA
BRANCH  29  32
ATOM     32  C   UNL A   1      41.607  20.880  26.567  1.00  0.00     0.039 A 
ATOM     33  C   UNL A   1      41.540  21.127  27.943  1.00  0.00     0.014 A 
ATOM     34  C   UNL A   1      42.007  21.902  25.700  1.00  0.00     0.014 A 
ATOM     35  C   UNL A   1      41.903  22.378  28.451  1.00  0.00     0.010 A 
ATOM     36  C   UNL A   1      42.422  23.134  26.214  1.00  0.00     0.010 A 
ATOM     37  C   UNL A   1      42.361  23.388  27.592  1.00  0.00    -0.014 A 
BRANCH  37  38
ATOM     38  C   UNL A   1      42.760  24.716  28.124  1.00  0.00     0.031 A 
ATOM     39  C   UNL A   1      41.724  25.774  28.388  1.00  0.00     0.074 A 
ATOM     40  C   UNL A   1      44.063  24.990  28.327  1.00  0.00     0.049 A 
ATOM     41  N   UNL A   1      41.889  26.999  28.823  1.00  0.00    -0.248 NA
ATOM     42  C   UNL A   1      40.323  25.421  28.109  1.00  0.00     0.031 C 
ATOM     43  C   UNL A   1      45.173  24.069  28.069  1.00  0.00     0.029 A 
ATOM     44  N   UNL A   1      44.674  26.129  28.789  1.00  0.00    -0.354 N 
ATOM     45  C   UNL A   1      40.621  27.568  28.843  1.00  0.00     0.074 A 
ATOM     46  C   UNL A   1      39.700  26.566  28.352  1.00  0.00     0.031 C 
ATOM     47  C   UNL A   1      46.328  24.676  28.389  1.00  0.00     0.029 A 
ATOM     48  C   UNL A   1      46.044  26.032  28.848  1.00  0.00     0.049 A 
ATOM     49  H   UNL A   1      44.179  26.937  29.053  1.00  0.00     0.167 HD
ATOM     50  C   UNL A   1      40.253  28.808  29.245  1.00  0.00     0.031 A 
ATOM     51  C   UNL A   1      46.968  26.933  29.227  1.00  0.00     0.031 A 
ATOM     52  C   UNL A   1      41.157  29.797  29.767  1.00  0.00     0.049 A 
ATOM     53  C   UNL A   1      46.530  28.291  29.700  1.00  0.00     0.074 A 
ATOM     54  C   UNL A   1      40.863  31.050  30.279  1.00  0.00     0.029 A 
ATOM     55  N   UNL A   1      42.532  29.646  29.843  1.00  0.00    -0.354 N 
ATOM     56  N   UNL A   1      45.318  28.780  29.792  1.00  0.00    -0.248 NA
ATOM     57  C   UNL A   1      47.589  29.213  30.137  1.00  0.00     0.031 C 
ATOM     58  C   UNL A   1      42.065  31.672  30.630  1.00  0.00     0.029 A 
ATOM     59  C   UNL A   1      43.102  30.791  30.372  1.00  0.00     0.049 A 
ATOM     60  H   UNL A   1      43.029  28.844  29.563  1.00  0.00     0.167 HD
ATOM     61  C   UNL A   1      45.466  30.058  30.316  1.00  0.00     0.074 A 
ATOM     62  C   UNL A   1      46.883  30.262  30.536  1.00  0.00     0.031 C 
ATOM     63  C   UNL A   1      44.512  30.980  30.588  1.00  0.00     0.031 A 
BRANCH  50  64
ATOM     64  C   UNL A   1      38.800  29.173  29.132  1.00  0.00    -0.014 A 
ATOM     65  C   UNL A   1      37.924  29.014  30.217  1.00  0.00     0.009 A 
ATOM     66  C   UNL A   1      38.315  29.735  27.941  1.00  0.00     0.009 A 
ATOM     67  C   UNL A   1      36.583  29.385  30.101  1.00  0.00     0.001 A 
ATOM     68  C   UNL A   1      36.979  30.125  27.836  1.00  0.00     0.001 A 
ATOM     69  C   UNL A   1      36.113  29.944  28.913  1.00  0.00     0.000 A 
ENDBRANCH  50  64
BRANCH  51  70
ATOM     70  C   UNL A   1      48.410  26.580  29.185  1.00  0.00    -0.014 A 
ATOM     71  C   UNL A   1      49.180  26.861  28.046  1.00  0.00     0.009 A 
ATOM     72  C   UNL A   1      49.020  25.953  30.283  1.00  0.00     0.009 A 
ATOM     73  C   UNL A   1      50.527  26.497  27.997  1.00  0.00     0.001 A 
ATOM     74  C   UNL A   1      50.373  25.613  30.240  1.00  0.00     0.001 A 
ATOM     75  C   UNL A   1      51.123  25.876  29.094  1.00  0.00     0.000 A 
ENDBRANCH  51  70
BRANCH  63  76
ATOM     76  C   UNL A   1      44.966  32.282  31.179  1.00  0.00    -0.014 A 
ATOM     77  C   UNL A   1      45.084  32.445  32.567  1.00  0.00     0.009 A 
ATOM     78  C   UNL A   1      45.318  33.346  30.332  1.00  0.00     0.009 A 
ATOM     79  C   UNL A   1      45.520  33.661  33.099  1.00  0.00     0.001 A 
ATOM     80  C   UNL A   1      45.774  34.551  30.867  1.00  0.00     0.001 A 
ATOM     81  C   UNL A   1      45.867  34.710  32.249  1.00  0.00     0.000 A 
ENDBRANCH  63  76
ENDBRANCH  37  38
ENDBRANCH  29  32
ENDBRANCH  27  28
ENDBRANCH  26  27
ENDBRANCH   1  26
TORSDOF 13
ENDMDL
MODEL 2
REMARK VINA RESULT:     -11.8      0.496      5.896
REMARK SMILES O=C(NCc1ccc(C(=O)NCCCNC(=O)c2ccc(-c3c4nc(c(-c5ccccc5)c5ccc([nH]5)c(-c5ccccc5)c5nc(c(-c6ccccc6)c6ccc3[nH]6)C=C5)C=C4)cc2)cc1)Nc1ccccc1Br
REMARK SMILES IDX 12 1 11 2 9 3 10 4 8 6 5 7 6 8 67 9 7 10 66 11 4 12 3 13
REMARK SMILES IDX 1 14 2 15 68 16 69 19 70 20 74 21 71 22 73 23 75 24 72 25
REMARK SMILES IDX 13 26 14 27 15 28 16 29 17 31 18 32 19 33 65 34 20 35 64 36
REMARK SMILES IDX 21 37 22 38 23 39 58 40 24 41 63 42 57 43 59 44 25 45 62 46
REMARK SMILES IDX 56 47 55 48 26 50 48 51 33 52 47 53 34 54 37 55 46 56 60 57
REMARK SMILES IDX 35 58 36 59 45 61 61 62 38 63 27 64 28 65 32 66 29 67 31 68
REMARK SMILES IDX 30 69 49 70 50 71 54 72 51 73 53 74 52 75 39 76 40 77 44 78
REMARK SMILES IDX 41 79 43 80 42 81
REMARK H PARENT 11 5 3 17 68 18 15 30 59 49 37 60
REMARK Flexibility Score: inf
ROOT
ATOM      1  C   UNL A   1      36.065  20.093  25.020  1.00  0.00     0.118 C 
ENDROOT
BRANCH   1   2
ATOM      2  N   UNL A   1      35.085  19.020  25.016  1.00  0.00    -0.352 N 
ATOM      3  C   UNL A   1      33.753  19.011  24.682  1.00  0.00     0.251 C 
ATOM      4  O   UNL A   1      33.168  17.929  24.645  1.00  0.00    -0.269 OA
ATOM      5  H   UNL A   1      35.437  18.148  25.303  1.00  0.00     0.163 HD
BRANCH   3   6
ATOM      6  C   UNL A   1      33.011  20.247  24.325  1.00  0.00     0.039 A 
ATOM      7  C   UNL A   1      31.608  22.641  23.789  1.00  0.00    -0.029 A 
ATOM      8  C   UNL A   1      31.896  22.261  25.108  1.00  0.00     0.006 A 
ATOM      9  C   UNL A   1      32.081  21.834  22.744  1.00  0.00     0.006 A 
ATOM     10  C   UNL A   1      32.591  21.076  25.373  1.00  0.00     0.014 A 
ATOM     11  C   UNL A   1      32.784  20.653  23.011  1.00  0.00     0.014 A 
BRANCH   7  12
ATOM     12  C   UNL A   1      30.875  23.934  23.519  1.00  0.00     0.153 C 
BRANCH  12  13
ATOM     13  N   UNL A   1      30.213  24.453  24.699  1.00  0.00    -0.334 N 
ATOM     14  O   UNL A   1      29.767  25.751  26.437  1.00  0.00    -0.248 OA
ATOM     15  C   UNL A   1      30.403  25.601  25.398  1.00  0.00     0.319 C 
ATOM     16  N   UNL A   1      31.237  26.525  24.839  1.00  0.00    -0.307 N 
ATOM     17  H   UNL A   1      29.502  23.873  25.056  1.00  0.00     0.165 HD
ATOM     18  H   UNL A   1      31.552  26.361  23.921  1.00  0.00     0.171 HD
BRANCH  16  19
ATOM     19  C   UNL A   1      31.680  27.705  25.483  1.00  0.00     0.057 A 
ATOM     20  C   UNL A   1      32.408  27.516  26.669  1.00  0.00     0.027 A 
ATOM     21  C   UNL A   1      31.438  29.018  25.044  1.00  0.00     0.041 A 
ATOM     22  C   UNL A   1      32.958  28.602  27.355  1.00  0.00     0.002 A 
ATOM     23  C   UNL A   1      31.994  30.104  25.736  1.00  0.00     0.018 A 
ATOM     24  Br  UNL A   1      30.200  29.462  23.666  1.00  0.00    -0.049 Br
ATOM     25  C   UNL A   1      32.764  29.894  26.881  1.00  0.00     0.001 A 
ENDBRANCH  16  19
ENDBRANCH  12  13
ENDBRANCH   7  12
ENDBRANCH   3   6
ENDBRANCH   1   2
BRANCH   1  26
ATOM     26  C   UNL A   1      37.466  19.579  24.686  1.00  0.00     0.042 C 
BRANCH  26  27
ATOM     27  C   UNL A   1      38.579  20.225  25.510  1.00  0.00     0.118 C 
BRANCH  27  28
ATOM     28  N   UNL A   1      39.714  19.336  25.696  1.00  0.00    -0.352 N 
ATOM     29  C   UNL A   1      41.005  19.610  26.071  1.00  0.00     0.251 C 
ATOM     30  H   UNL A   1      39.526  18.384  25.525  1.00  0.00     0.163 HD
ATOM     31  O   UNL A   1      41.854  18.728  25.979  1.00  0.00    -0.269 OA
BRANCH  29  32
ATOM     32  C   UNL A   1      41.398  20.947  26.576  1.00  0.00     0.039 A 
ATOM     33  C   UNL A   1      41.184  21.233  27.929  1.00  0.00     0.014 A 
ATOM     34  C   UNL A   1      41.891  21.944  25.728  1.00  0.00     0.014 A 
ATOM     35  C   UNL A   1      41.494  22.498  28.438  1.00  0.00     0.010 A 
ATOM     36  C   UNL A   1      42.251  23.190  26.248  1.00  0.00     0.010 A 
ATOM     37  C   UNL A   1      42.043  23.484  27.604  1.00  0.00    -0.014 A 
BRANCH  37  38
ATOM     38  C   UNL A   1      42.386  24.826  28.138  1.00  0.00     0.031 A 
ATOM     39  C   UNL A   1      43.795  25.140  28.565  1.00  0.00     0.074 A 
ATOM     40  C   UNL A   1      41.421  25.754  28.283  1.00  0.00     0.049 A 
ATOM     41  N   UNL A   1      44.273  26.246  29.081  1.00  0.00    -0.248 NA
ATOM     42  C   UNL A   1      44.792  24.069  28.414  1.00  0.00     0.031 C 
ATOM     43  C   UNL A   1      40.007  25.565  27.950  1.00  0.00     0.029 A 
ATOM     44  N   UNL A   1      41.482  27.040  28.760  1.00  0.00    -0.354 N 
ATOM     45  C   UNL A   1      45.615  25.993  29.340  1.00  0.00     0.074 A 
ATOM     46  C   UNL A   1      45.870  24.624  28.950  1.00  0.00     0.031 C 
ATOM     47  C   UNL A   1      39.338  26.699  28.221  1.00  0.00     0.029 A 
ATOM     48  C   UNL A   1      40.267  27.682  28.768  1.00  0.00     0.049 A 
ATOM     49  H   UNL A   1      42.317  27.462  29.066  1.00  0.00     0.167 HD
ATOM     50  C   UNL A   1      46.553  26.829  29.845  1.00  0.00     0.031 A 
ATOM     51  C   UNL A   1      39.937  28.922  29.173  1.00  0.00     0.031 A 
ATOM     52  C   UNL A   1      46.315  28.202  30.201  1.00  0.00     0.049 A 
ATOM     53  C   UNL A   1      41.004  29.840  29.698  1.00  0.00     0.074 A 
ATOM     54  C   UNL A   1      47.225  29.149  30.640  1.00  0.00     0.029 A 
ATOM     55  N   UNL A   1      45.078  28.823  30.161  1.00  0.00    -0.354 N 
ATOM     56  N   UNL A   1      42.285  29.610  29.856  1.00  0.00    -0.248 NA
ATOM     57  C   UNL A   1      40.581  31.193  30.087  1.00  0.00     0.031 C 
ATOM     58  C   UNL A   1      46.531  30.334  30.902  1.00  0.00     0.029 A 
ATOM     59  C   UNL A   1      45.197  30.134  30.589  1.00  0.00     0.049 A 
ATOM     60  H   UNL A   1      44.239  28.396  29.872  1.00  0.00     0.167 HD
ATOM     61  C   UNL A   1      42.824  30.795  30.340  1.00  0.00     0.074 A 
ATOM     62  C   UNL A   1      41.735  31.745  30.436  1.00  0.00     0.031 C 
ATOM     63  C   UNL A   1      44.106  31.069  30.677  1.00  0.00     0.031 A 
BRANCH  50  64
ATOM     64  C   UNL A   1      47.936  26.279  30.049  1.00  0.00    -0.014 A 
ATOM     65  C   UNL A   1      48.348  25.792  31.299  1.00  0.00     0.009 A 
ATOM     66  C   UNL A   1      48.819  26.197  28.961  1.00  0.00     0.009 A 
ATOM     67  C   UNL A   1      49.629  25.260  31.462  1.00  0.00     0.001 A 
ATOM     68  C   UNL A   1      50.091  25.644  29.122  1.00  0.00     0.001 A 
ATOM     69  C   UNL A   1      50.497  25.182  30.373  1.00  0.00     0.000 A 
ENDBRANCH  50  64
BRANCH  51  70
ATOM     70  C   UNL A   1      38.526  29.378  29.090  1.00  0.00    -0.014 A 
ATOM     71  C   UNL A   1      38.023  29.923  27.899  1.00  0.00     0.009 A 
ATOM     72  C   UNL A   1      37.679  29.277  30.204  1.00  0.00     0.009 A 
ATOM     73  C   UNL A   1      36.706  30.382  27.833  1.00  0.00     0.001 A 
ATOM     74  C   UNL A   1      36.355  29.715  30.128  1.00  0.00     0.001 A 
ATOM     75  C   UNL A   1      35.873  30.275  28.946  1.00  0.00     0.000 A 
ENDBRANCH  51  70
BRANCH  63  76
ATOM     76  C   UNL A   1      44.407  32.459  31.156  1.00  0.00    -0.014 A 
ATOM     77  C   UNL A   1      44.357  32.782  32.520  1.00  0.00     0.009 A 
ATOM     78  C   UNL A   1      44.783  33.447  30.232  1.00  0.00     0.009 A 
ATOM     79  C   UNL A   1      44.652  34.078  32.948  1.00  0.00     0.001 A 
ATOM     80  C   UNL A   1      45.098  34.735  30.666  1.00  0.00     0.001 A 
ATOM     81  C   UNL A   1      45.025  35.051  32.022  1.00  0.00     0.000 A 
ENDBRANCH  63  76
ENDBRANCH  37  38
ENDBRANCH  29  32
ENDBRANCH  27  28
ENDBRANCH  26  27
ENDBRANCH   1  26
TORSDOF 13
ENDMDL
MODEL 3
REMARK VINA RESULT:     -11.7      3.498      8.973
REMARK SMILES O=C(NCc1ccc(C(=O)NCCCNC(=O)c2ccc(-c3c4nc(c(-c5ccccc5)c5ccc([nH]5)c(-c5ccccc5)c5nc(c(-c6ccccc6)c6ccc3[nH]6)C=C5)C=C4)cc2)cc1)Nc1ccccc1Br
REMARK SMILES IDX 12 1 11 2 9 3 10 4 8 6 5 7 6 8 67 9 7 10 66 11 4 12 3 13
REMARK SMILES IDX 1 14 2 15 68 16 69 19 70 20 74 21 71 22 73 23 75 24 72 25
REMARK SMILES IDX 13 26 14 27 15 28 16 29 17 31 18 32 19 33 65 34 20 35 64 36
REMARK SMILES IDX 21 37 22 38 23 39 58 40 24 41 63 42 57 43 59 44 25 45 62 46
REMARK SMILES IDX 56 47 55 48 26 50 48 51 33 52 47 53 34 54 37 55 46 56 60 57
REMARK SMILES IDX 35 58 36 59 45 61 61 62 38 63 27 64 28 65 32 66 29 67 31 68
REMARK SMILES IDX 30 69 49 70 50 71 54 72 51 73 53 74 52 75 39 76 40 77 44 78
REMARK SMILES IDX 41 79 43 80 42 81
REMARK H PARENT 11 5 3 17 68 18 15 30 59 49 37 60
REMARK Flexibility Score: inf
ROOT
ATOM      1  C   UNL A   1      31.121  30.542  25.388  1.00  0.00     0.118 C 
ENDROOT
BRANCH   1   2
ATOM      2  N   UNL A   1      30.298  30.805  24.220  1.00  0.00    -0.352 N 
ATOM      3  C   UNL A   1      29.693  29.954  23.328  1.00  0.00     0.251 C 
ATOM      4  O   UNL A   1      28.936  30.435  22.485  1.00  0.00    -0.269 OA
ATOM      5  H   UNL A   1      30.147  31.759  24.036  1.00  0.00     0.163 HD
BRANCH   3   6
ATOM      6  C   UNL A   1      29.885  28.482  23.371  1.00  0.00     0.039 A 
ATOM      7  C   UNL A   1      30.396  25.704  23.427  1.00  0.00    -0.029 A 
ATOM      8  C   UNL A   1      31.388  26.605  23.013  1.00  0.00     0.006 A 
ATOM      9  C   UNL A   1      29.167  26.219  23.864  1.00  0.00     0.006 A 
ATOM     10  C   UNL A   1      31.135  27.981  22.986  1.00  0.00     0.014 A 
ATOM     11  C   UNL A   1      28.919  27.596  23.844  1.00  0.00     0.014 A 
BRANCH   7  12
ATOM     12  C   UNL A   1      30.692  24.223  23.469  1.00  0.00     0.153 C 
BRANCH  12  13
ATOM     13  N   UNL A   1      31.757  23.844  22.562  1.00  0.00    -0.334 N 
ATOM     14  O   UNL A   1      33.762  23.244  21.836  1.00  0.00    -0.248 OA
ATOM     15  C   UNL A   1      33.017  23.397  22.800  1.00  0.00     0.319 C 
ATOM     16  N   UNL A   1      33.319  23.084  24.093  1.00  0.00    -0.307 N 
ATOM     17  H   UNL A   1      31.527  23.925  21.609  1.00  0.00     0.165 HD
ATOM     18  H   UNL A   1      32.585  23.086  24.748  1.00  0.00     0.171 HD
BRANCH  16  19
ATOM     19  C   UNL A   1      34.614  22.755  24.561  1.00  0.00     0.057 A 
ATOM     20  C   UNL A   1      35.538  23.812  24.593  1.00  0.00     0.027 A 
ATOM     21  C   UNL A   1      35.037  21.478  24.969  1.00  0.00     0.041 A 
ATOM     22  C   UNL A   1      36.826  23.625  25.101  1.00  0.00     0.002 A 
ATOM     23  C   UNL A   1      36.331  21.298  25.480  1.00  0.00     0.018 A 
ATOM     24  Br  UNL A   1      34.034  19.886  24.674  1.00  0.00    -0.049 Br
ATOM     25  C   UNL A   1      37.218  22.372  25.559  1.00  0.00     0.001 A 
ENDBRANCH  16  19
ENDBRANCH  12  13
ENDBRANCH   7  12
ENDBRANCH   3   6
ENDBRANCH   1   2
BRANCH   1  26
ATOM     26  C   UNL A   1      31.026  31.672  26.413  1.00  0.00     0.042 C 
BRANCH  26  27
ATOM     27  C   UNL A   1      32.380  32.210  26.874  1.00  0.00     0.118 C 
BRANCH  27  28
ATOM     28  N   UNL A   1      32.287  33.566  27.389  1.00  0.00    -0.352 N 
ATOM     29  C   UNL A   1      33.069  34.223  28.306  1.00  0.00     0.251 C 
ATOM     30  H   UNL A   1      31.545  34.099  27.021  1.00  0.00     0.163 HD
ATOM     31  O   UNL A   1      32.695  35.309  28.742  1.00  0.00    -0.269 OA
BRANCH  29  32
ATOM     32  C   UNL A   1      34.347  33.649  28.789  1.00  0.00     0.039 A 
ATOM     33  C   UNL A   1      35.498  33.854  28.019  1.00  0.00     0.014 A 
ATOM     34  C   UNL A   1      34.414  32.846  29.932  1.00  0.00     0.014 A 
ATOM     35  C   UNL A   1      36.715  33.289  28.410  1.00  0.00     0.010 A 
ATOM     36  C   UNL A   1      35.642  32.327  30.352  1.00  0.00     0.010 A 
ATOM     37  C   UNL A   1      36.801  32.531  29.588  1.00  0.00    -0.014 A 
BRANCH  37  38
ATOM     38  C   UNL A   1      38.092  31.936  30.017  1.00  0.00     0.031 A 
ATOM     39  C   UNL A   1      38.994  32.676  30.967  1.00  0.00     0.074 A 
ATOM     40  C   UNL A   1      38.479  30.747  29.517  1.00  0.00     0.049 A 
ATOM     41  N   UNL A   1      40.170  32.328  31.428  1.00  0.00    -0.248 NA
ATOM     42  C   UNL A   1      38.527  33.987  31.446  1.00  0.00     0.031 C 
ATOM     43  C   UNL A   1      37.719  29.946  28.554  1.00  0.00     0.029 A 
ATOM     44  N   UNL A   1      39.614  30.010  29.743  1.00  0.00    -0.354 N 
ATOM     45  C   UNL A   1      40.592  33.385  32.226  1.00  0.00     0.074 A 
ATOM     46  C   UNL A   1      39.562  34.398  32.166  1.00  0.00     0.031 C 
ATOM     47  C   UNL A   1      38.406  28.823  28.283  1.00  0.00     0.029 A 
ATOM     48  C   UNL A   1      39.659  28.836  29.030  1.00  0.00     0.049 A 
ATOM     49  H   UNL A   1      40.328  30.295  30.358  1.00  0.00     0.167 HD
ATOM     50  C   UNL A   1      41.730  33.497  32.953  1.00  0.00     0.031 A 
ATOM     51  C   UNL A   1      40.604  27.880  28.979  1.00  0.00     0.031 A 
ATOM     52  C   UNL A   1      42.742  32.479  33.045  1.00  0.00     0.049 A 
ATOM     53  C   UNL A   1      41.841  28.014  29.822  1.00  0.00     0.074 A 
ATOM     54  C   UNL A   1      43.886  32.471  33.825  1.00  0.00     0.029 A 
ATOM     55  N   UNL A   1      42.731  31.291  32.334  1.00  0.00    -0.354 N 
ATOM     56  N   UNL A   1      42.183  28.982  30.636  1.00  0.00    -0.248 NA
ATOM     57  C   UNL A   1      42.814  26.914  29.749  1.00  0.00     0.031 C 
ATOM     58  C   UNL A   1      44.589  31.291  33.556  1.00  0.00     0.029 A 
ATOM     59  C   UNL A   1      43.861  30.551  32.639  1.00  0.00     0.049 A 
ATOM     60  H   UNL A   1      42.026  31.014  31.706  1.00  0.00     0.167 HD
ATOM     61  C   UNL A   1      43.398  28.600  31.188  1.00  0.00     0.074 A 
ATOM     62  C   UNL A   1      43.726  27.305  30.628  1.00  0.00     0.031 C 
ATOM     63  C   UNL A   1      44.174  29.264  32.077  1.00  0.00     0.031 A 
BRANCH  50  64
ATOM     64  C   UNL A   1      41.947  34.776  33.710  1.00  0.00    -0.014 A 
ATOM     65  C   UNL A   1      41.446  34.945  35.010  1.00  0.00     0.009 A 
ATOM     66  C   UNL A   1      42.710  35.804  33.135  1.00  0.00     0.009 A 
ATOM     67  C   UNL A   1      41.682  36.132  35.709  1.00  0.00     0.001 A 
ATOM     68  C   UNL A   1      42.962  36.980  33.843  1.00  0.00     0.001 A 
ATOM     69  C   UNL A   1      42.444  37.145  35.126  1.00  0.00     0.000 A 
ENDBRANCH  50  64
BRANCH  51  70
ATOM     70  C   UNL A   1      40.415  26.696  28.103  1.00  0.00    -0.014 A 
ATOM     71  C   UNL A   1      39.666  25.595  28.545  1.00  0.00     0.009 A 
ATOM     72  C   UNL A   1      40.991  26.660  26.824  1.00  0.00     0.009 A 
ATOM     73  C   UNL A   1      39.518  24.470  27.732  1.00  0.00     0.001 A 
ATOM     74  C   UNL A   1      40.821  25.542  26.003  1.00  0.00     0.001 A 
ATOM     75  C   UNL A   1      40.093  24.446  26.461  1.00  0.00     0.000 A 
ENDBRANCH  51  70
BRANCH  63  76
ATOM     76  C   UNL A   1      45.439  28.590  32.521  1.00  0.00    -0.014 A 
ATOM     77  C   UNL A   1      45.441  27.691  33.598  1.00  0.00     0.009 A 
ATOM     78  C   UNL A   1      46.636  28.830  31.827  1.00  0.00     0.009 A 
ATOM     79  C   UNL A   1      46.625  27.063  33.989  1.00  0.00     0.001 A 
ATOM     80  C   UNL A   1      47.813  28.184  32.208  1.00  0.00     0.001 A 
ATOM     81  C   UNL A   1      47.808  27.308  33.292  1.00  0.00     0.000 A 
ENDBRANCH  63  76
ENDBRANCH  37  38
ENDBRANCH  29  32
ENDBRANCH  27  28
ENDBRANCH  26  27
ENDBRANCH   1  26
TORSDOF 13
ENDMDL
