MODEL 1
REMARK VINA RESULT:     -10.4      0.000      0.000
REMARK SMILES CC(C)OCCS(=O)(=O)N1CCC[C@H](C(=O)NCCCNC(=O)c2ccc(-c3c4nc(c(-c5ccccc5)c5ccc([nH]5)c(-c5ccccc5)c5nc(c(-c6ccccc6)c6ccc3[nH]6)C=C5)C=C4)cc2)C1
REMARK SMILES IDX 15 1 16 2 17 3 14 5 10 6 11 7 72 8 12 9 13 10 7 11 8 12 9 13
REMARK SMILES IDX 6 14 5 15 4 16 2 17 1 18 3 19 18 20 19 21 20 22 21 23 22 24
REMARK SMILES IDX 23 26 24 27 25 28 71 29 26 30 70 31 27 32 28 33 29 34 64 35
REMARK SMILES IDX 30 36 69 37 63 38 65 39 31 40 68 41 62 42 61 43 32 45 54 46
REMARK SMILES IDX 39 47 53 48 40 49 43 50 52 51 66 52 41 53 42 54 51 56 67 57
REMARK SMILES IDX 44 58 33 59 34 60 38 61 35 62 37 63 36 64 55 65 56 66 60 67
REMARK SMILES IDX 57 68 59 69 58 70 45 71 46 72 50 73 47 74 49 75 48 76
REMARK H PARENT 17 4 21 25 65 44 43 55
REMARK Flexibility Score: inf
ROOT
ATOM      1  C   UNL A   1      36.334  23.593  25.598  1.00  0.00     0.224 C 
ATOM      2  O   UNL A   1      37.002  24.297  26.364  1.00  0.00    -0.275 OA
ATOM      3  N   UNL A   1      37.004  22.589  24.970  1.00  0.00    -0.356 N 
ATOM      4  H   UNL A   1      37.927  22.790  24.690  1.00  0.00     0.163 HD
ENDROOT
BRANCH   1   5
ATOM      5  C   UNL A   1      34.855  23.921  25.365  1.00  0.00     0.093 C 
ATOM      6  N   UNL A   1      33.666  21.975  24.313  1.00  0.00    -0.201 NA
ATOM      7  C   UNL A   1      33.235  22.843  23.152  1.00  0.00     0.102 C 
ATOM      8  C   UNL A   1      33.876  22.765  25.551  1.00  0.00     0.115 C 
ATOM      9  C   UNL A   1      34.109  24.074  22.918  1.00  0.00     0.018 C 
ATOM     10  C   UNL A   1      34.534  24.815  24.175  1.00  0.00     0.016 C 
BRANCH   6  11
ATOM     11  S   UNL A   1      32.614  20.611  24.449  1.00  0.00     0.216 S 
ATOM     12  O   UNL A   1      32.254  20.211  23.112  1.00  0.00    -0.212 OA
ATOM     13  O   UNL A   1      31.567  21.025  25.373  1.00  0.00    -0.212 OA
BRANCH  11  14
ATOM     14  C   UNL A   1      33.479  19.270  25.272  1.00  0.00     0.182 C 
BRANCH  14  15
ATOM     15  C   UNL A   1      32.659  18.131  25.852  1.00  0.00     0.178 C 
BRANCH  15  16
ATOM     16  O   UNL A   1      33.112  16.870  25.373  1.00  0.00    -0.378 OA
BRANCH  16  17
ATOM     17  C   UNL A   1      34.345  16.813  24.656  1.00  0.00     0.112 C 
ATOM     18  C   UNL A   1      35.342  15.826  25.248  1.00  0.00     0.038 C 
ATOM     19  C   UNL A   1      34.203  16.550  23.167  1.00  0.00     0.038 C 
ENDBRANCH  16  17
ENDBRANCH  15  16
ENDBRANCH  14  15
ENDBRANCH  11  14
ENDBRANCH   6  11
ENDBRANCH   1   5
BRANCH   3  20
ATOM     20  C   UNL A   1      36.522  21.265  24.665  1.00  0.00     0.117 C 
BRANCH  20  21
ATOM     21  C   UNL A   1      37.542  20.149  24.788  1.00  0.00     0.042 C 
BRANCH  21  22
ATOM     22  C   UNL A   1      38.706  20.527  25.694  1.00  0.00     0.118 C 
BRANCH  22  23
ATOM     23  N   UNL A   1      39.759  19.508  25.746  1.00  0.00    -0.352 N 
ATOM     24  C   UNL A   1      41.091  19.601  26.079  1.00  0.00     0.251 C 
ATOM     25  H   UNL A   1      39.462  18.602  25.500  1.00  0.00     0.163 HD
ATOM     26  O   UNL A   1      41.830  18.633  25.936  1.00  0.00    -0.269 OA
BRANCH  24  27
ATOM     27  C   UNL A   1      41.635  20.877  26.581  1.00  0.00     0.039 A 
ATOM     28  C   UNL A   1      42.078  21.842  25.674  1.00  0.00     0.014 A 
ATOM     29  C   UNL A   1      41.662  21.134  27.950  1.00  0.00     0.014 A 
ATOM     30  C   UNL A   1      42.451  23.104  26.142  1.00  0.00     0.010 A 
ATOM     31  C   UNL A   1      41.897  22.423  28.398  1.00  0.00     0.010 A 
ATOM     32  C   UNL A   1      42.307  23.421  27.503  1.00  0.00    -0.014 A 
BRANCH  32  33
ATOM     33  C   UNL A   1      42.592  24.779  28.028  1.00  0.00     0.031 A 
ATOM     34  C   UNL A   1      43.987  25.130  28.467  1.00  0.00     0.074 A 
ATOM     35  C   UNL A   1      41.584  25.656  28.197  1.00  0.00     0.049 A 
ATOM     36  N   UNL A   1      44.423  26.225  29.038  1.00  0.00    -0.248 NA
ATOM     37  C   UNL A   1      45.023  24.100  28.278  1.00  0.00     0.031 C 
ATOM     38  C   UNL A   1      40.177  25.415  27.863  1.00  0.00     0.029 A 
ATOM     39  N   UNL A   1      41.588  26.934  28.697  1.00  0.00    -0.354 N 
ATOM     40  C   UNL A   1      45.769  25.998  29.301  1.00  0.00     0.074 A 
ATOM     41  C   UNL A   1      46.060  24.643  28.895  1.00  0.00     0.031 C 
ATOM     42  C   UNL A   1      39.466  26.524  28.124  1.00  0.00     0.029 A 
ATOM     43  C   UNL A   1      40.353  27.534  28.690  1.00  0.00     0.049 A 
ATOM     44  H   UNL A   1      42.402  27.378  29.030  1.00  0.00     0.167 HD
ATOM     45  C   UNL A   1      46.689  26.852  29.807  1.00  0.00     0.031 A 
ATOM     46  C   UNL A   1      39.976  28.761  29.096  1.00  0.00     0.031 A 
ATOM     47  C   UNL A   1      46.399  28.206  30.187  1.00  0.00     0.049 A 
ATOM     48  C   UNL A   1      41.015  29.691  29.658  1.00  0.00     0.074 A 
ATOM     49  C   UNL A   1      47.269  29.179  30.645  1.00  0.00     0.029 A 
ATOM     50  N   UNL A   1      45.136  28.779  30.153  1.00  0.00    -0.354 N 
ATOM     51  N   UNL A   1      42.299  29.490  29.830  1.00  0.00    -0.248 NA
ATOM     52  C   UNL A   1      40.551  31.022  30.074  1.00  0.00     0.031 C 
ATOM     53  C   UNL A   1      46.522  30.322  30.946  1.00  0.00     0.029 A 
ATOM     54  C   UNL A   1      45.199  30.084  30.610  1.00  0.00     0.049 A 
ATOM     55  H   UNL A   1      44.318  28.325  29.849  1.00  0.00     0.167 HD
ATOM     56  C   UNL A   1      42.804  30.678  30.344  1.00  0.00     0.074 A 
ATOM     57  C   UNL A   1      41.688  31.598  30.440  1.00  0.00     0.031 C 
ATOM     58  C   UNL A   1      44.075  30.981  30.703  1.00  0.00     0.031 A 
BRANCH  45  59
ATOM     59  C   UNL A   1      48.090  26.331  29.982  1.00  0.00    -0.014 A 
ATOM     60  C   UNL A   1      49.020  26.361  28.929  1.00  0.00     0.009 A 
ATOM     61  C   UNL A   1      48.489  25.808  31.222  1.00  0.00     0.009 A 
ATOM     62  C   UNL A   1      50.301  25.832  29.098  1.00  0.00     0.001 A 
ATOM     63  C   UNL A   1      49.784  25.313  31.398  1.00  0.00     0.001 A 
ATOM     64  C   UNL A   1      50.683  25.313  30.334  1.00  0.00     0.000 A 
ENDBRANCH  45  59
BRANCH  46  65
ATOM     65  C   UNL A   1      38.560  29.191  28.956  1.00  0.00    -0.014 A 
ATOM     66  C   UNL A   1      37.679  29.098  30.045  1.00  0.00     0.009 A 
ATOM     67  C   UNL A   1      38.081  29.703  27.741  1.00  0.00     0.009 A 
ATOM     68  C   UNL A   1      36.343  29.484  29.911  1.00  0.00     0.001 A 
ATOM     69  C   UNL A   1      36.752  30.117  27.619  1.00  0.00     0.001 A 
ATOM     70  C   UNL A   1      35.882  29.999  28.700  1.00  0.00     0.000 A 
ENDBRANCH  46  65
BRANCH  58  71
ATOM     71  C   UNL A   1      44.334  32.376  31.198  1.00  0.00    -0.014 A 
ATOM     72  C   UNL A   1      44.721  33.404  30.324  1.00  0.00     0.009 A 
ATOM     73  C   UNL A   1      44.141  32.674  32.557  1.00  0.00     0.009 A 
ATOM     74  C   UNL A   1      44.945  34.693  30.808  1.00  0.00     0.001 A 
ATOM     75  C   UNL A   1      44.332  33.972  33.031  1.00  0.00     0.001 A 
ATOM     76  C   UNL A   1      44.743  34.978  32.158  1.00  0.00     0.000 A 
ENDBRANCH  58  71
ENDBRANCH  32  33
ENDBRANCH  24  27
ENDBRANCH  22  23
ENDBRANCH  21  22
ENDBRANCH  20  21
ENDBRANCH   3  20
TORSDOF 15
ENDMDL
MODEL 2
REMARK VINA RESULT:     -10.4      5.403     10.208
REMARK SMILES CC(C)OCCS(=O)(=O)N1CCC[C@H](C(=O)NCCCNC(=O)c2ccc(-c3c4nc(c(-c5ccccc5)c5ccc([nH]5)c(-c5ccccc5)c5nc(c(-c6ccccc6)c6ccc3[nH]6)C=C5)C=C4)cc2)C1
REMARK SMILES IDX 15 1 16 2 17 3 14 5 10 6 11 7 72 8 12 9 13 10 7 11 8 12 9 13
REMARK SMILES IDX 6 14 5 15 4 16 2 17 1 18 3 19 18 20 19 21 20 22 21 23 22 24
REMARK SMILES IDX 23 26 24 27 25 28 71 29 26 30 70 31 27 32 28 33 29 34 64 35
REMARK SMILES IDX 30 36 69 37 63 38 65 39 31 40 68 41 62 42 61 43 32 45 54 46
REMARK SMILES IDX 39 47 53 48 40 49 43 50 52 51 66 52 41 53 42 54 51 56 67 57
REMARK SMILES IDX 44 58 33 59 34 60 38 61 35 62 37 63 36 64 55 65 56 66 60 67
REMARK SMILES IDX 57 68 59 69 58 70 45 71 46 72 50 73 47 74 49 75 48 76
REMARK H PARENT 17 4 21 25 65 44 43 55
REMARK Flexibility Score: inf
ROOT
ATOM      1  C   UNL A   1      33.952  29.072  26.701  1.00  0.00     0.224 C 
ATOM      2  O   UNL A   1      35.118  29.400  26.949  1.00  0.00    -0.275 OA
ATOM      3  N   UNL A   1      32.982  29.755  27.369  1.00  0.00    -0.356 N 
ATOM      4  H   UNL A   1      33.183  29.993  28.304  1.00  0.00     0.163 HD
ENDROOT
BRANCH   1   5
ATOM      5  C   UNL A   1      33.680  27.914  25.734  1.00  0.00     0.093 C 
ATOM      6  N   UNL A   1      31.508  28.256  24.522  1.00  0.00    -0.201 NA
ATOM      7  C   UNL A   1      30.997  26.924  25.026  1.00  0.00     0.102 C 
ATOM      8  C   UNL A   1      32.988  28.283  24.425  1.00  0.00     0.115 C 
ATOM      9  C   UNL A   1      31.675  26.423  26.300  1.00  0.00     0.018 C 
ATOM     10  C   UNL A   1      33.181  26.614  26.350  1.00  0.00     0.016 C 
BRANCH   6  11
ATOM     11  S   UNL A   1      30.643  28.716  23.099  1.00  0.00     0.216 S 
ATOM     12  O   UNL A   1      29.923  27.555  22.639  1.00  0.00    -0.212 OA
ATOM     13  O   UNL A   1      31.638  29.328  22.227  1.00  0.00    -0.212 OA
BRANCH  11  14
ATOM     14  C   UNL A   1      29.486  30.028  23.502  1.00  0.00     0.182 C 
BRANCH  14  15
ATOM     15  C   UNL A   1      28.056  29.907  23.005  1.00  0.00     0.178 C 
BRANCH  15  16
ATOM     16  O   UNL A   1      27.555  31.161  22.555  1.00  0.00    -0.378 OA
BRANCH  16  17
ATOM     17  C   UNL A   1      28.458  32.075  21.933  1.00  0.00     0.112 C 
ATOM     18  C   UNL A   1      28.027  32.493  20.535  1.00  0.00     0.038 C 
ATOM     19  C   UNL A   1      28.770  33.315  22.754  1.00  0.00     0.038 C 
ENDBRANCH  16  17
ENDBRANCH  15  16
ENDBRANCH  14  15
ENDBRANCH  11  14
ENDBRANCH   6  11
ENDBRANCH   1   5
BRANCH   3  20
ATOM     20  C   UNL A   1      31.695  30.170  26.870  1.00  0.00     0.117 C 
BRANCH  20  21
ATOM     21  C   UNL A   1      31.506  31.666  26.703  1.00  0.00     0.042 C 
BRANCH  21  22
ATOM     22  C   UNL A   1      32.745  32.454  27.108  1.00  0.00     0.118 C 
BRANCH  22  23
ATOM     23  N   UNL A   1      32.450  33.828  27.528  1.00  0.00    -0.352 N 
ATOM     24  C   UNL A   1      33.020  34.618  28.499  1.00  0.00     0.251 C 
ATOM     25  H   UNL A   1      31.720  34.259  27.028  1.00  0.00     0.163 HD
ATOM     26  O   UNL A   1      32.532  35.710  28.769  1.00  0.00    -0.269 OA
BRANCH  24  27
ATOM     27  C   UNL A   1      34.202  34.135  29.238  1.00  0.00     0.039 A 
ATOM     28  C   UNL A   1      34.028  33.370  30.394  1.00  0.00     0.014 A 
ATOM     29  C   UNL A   1      35.482  34.403  28.759  1.00  0.00     0.014 A 
ATOM     30  C   UNL A   1      35.141  32.789  31.006  1.00  0.00     0.010 A 
ATOM     31  C   UNL A   1      36.565  33.715  29.282  1.00  0.00     0.010 A 
ATOM     32  C   UNL A   1      36.411  32.911  30.419  1.00  0.00    -0.014 A 
BRANCH  32  33
ATOM     33  C   UNL A   1      37.603  32.225  30.975  1.00  0.00     0.031 A 
ATOM     34  C   UNL A   1      38.256  32.760  32.221  1.00  0.00     0.074 A 
ATOM     35  C   UNL A   1      38.149  31.187  30.312  1.00  0.00     0.049 A 
ATOM     36  N   UNL A   1      39.355  32.365  32.813  1.00  0.00    -0.248 NA
ATOM     37  C   UNL A   1      37.613  33.918  32.864  1.00  0.00     0.031 C 
ATOM     38  C   UNL A   1      37.643  30.611  29.063  1.00  0.00     0.029 A 
ATOM     39  N   UNL A   1      39.258  30.432  30.598  1.00  0.00    -0.354 N 
ATOM     40  C   UNL A   1      39.546  33.244  33.872  1.00  0.00     0.074 A 
ATOM     41  C   UNL A   1      38.494  34.232  33.800  1.00  0.00     0.031 C 
ATOM     42  C   UNL A   1      38.411  29.565  28.718  1.00  0.00     0.029 A 
ATOM     43  C   UNL A   1      39.490  29.428  29.688  1.00  0.00     0.049 A 
ATOM     44  H   UNL A   1      39.833  30.593  31.381  1.00  0.00     0.167 HD
ATOM     45  C   UNL A   1      40.493  33.216  34.837  1.00  0.00     0.031 A 
ATOM     46  C   UNL A   1      40.467  28.503  29.641  1.00  0.00     0.031 A 
ATOM     47  C   UNL A   1      41.522  32.217  34.918  1.00  0.00     0.049 A 
ATOM     48  C   UNL A   1      41.511  28.492  30.723  1.00  0.00     0.074 A 
ATOM     49  C   UNL A   1      42.490  32.052  35.892  1.00  0.00     0.029 A 
ATOM     50  N   UNL A   1      41.716  31.211  33.983  1.00  0.00    -0.354 N 
ATOM     51  N   UNL A   1      41.635  29.283  31.762  1.00  0.00    -0.248 NA
ATOM     52  C   UNL A   1      42.546  27.453  30.630  1.00  0.00     0.031 C 
ATOM     53  C   UNL A   1      43.307  30.982  35.515  1.00  0.00     0.029 A 
ATOM     54  C   UNL A   1      42.808  30.438  34.342  1.00  0.00     0.049 A 
ATOM     55  H   UNL A   1      41.161  31.067  33.184  1.00  0.00     0.167 HD
ATOM     56  C   UNL A   1      42.741  28.819  32.463  1.00  0.00     0.074 A 
ATOM     57  C   UNL A   1      43.241  27.669  31.738  1.00  0.00     0.031 C 
ATOM     58  C   UNL A   1      43.292  29.300  33.604  1.00  0.00     0.031 A 
BRANCH  45  59
ATOM     59  C   UNL A   1      40.454  34.306  35.874  1.00  0.00    -0.014 A 
ATOM     60  C   UNL A   1      41.225  35.473  35.741  1.00  0.00     0.009 A 
ATOM     61  C   UNL A   1      39.627  34.167  37.000  1.00  0.00     0.009 A 
ATOM     62  C   UNL A   1      41.208  36.452  36.737  1.00  0.00     0.001 A 
ATOM     63  C   UNL A   1      39.585  35.165  37.976  1.00  0.00     0.001 A 
ATOM     64  C   UNL A   1      40.385  36.300  37.850  1.00  0.00     0.000 A 
ENDBRANCH  45  59
BRANCH  46  65
ATOM     65  C   UNL A   1      40.485  27.492  28.552  1.00  0.00    -0.014 A 
ATOM     66  C   UNL A   1      39.815  26.268  28.708  1.00  0.00     0.009 A 
ATOM     67  C   UNL A   1      41.162  27.743  27.349  1.00  0.00     0.009 A 
ATOM     68  C   UNL A   1      39.845  25.309  27.693  1.00  0.00     0.001 A 
ATOM     69  C   UNL A   1      41.165  26.794  26.323  1.00  0.00     0.001 A 
ATOM     70  C   UNL A   1      40.515  25.574  26.500  1.00  0.00     0.000 A 
ENDBRANCH  46  65
BRANCH  58  71
ATOM     71  C   UNL A   1      44.477  28.561  34.158  1.00  0.00    -0.014 A 
ATOM     72  C   UNL A   1      44.319  27.476  35.033  1.00  0.00     0.009 A 
ATOM     73  C   UNL A   1      45.771  28.931  33.758  1.00  0.00     0.009 A 
ATOM     74  C   UNL A   1      45.436  26.800  35.525  1.00  0.00     0.001 A 
ATOM     75  C   UNL A   1      46.884  28.231  34.224  1.00  0.00     0.001 A 
ATOM     76  C   UNL A   1      46.716  27.173  35.115  1.00  0.00     0.000 A 
ENDBRANCH  58  71
ENDBRANCH  32  33
ENDBRANCH  24  27
ENDBRANCH  22  23
ENDBRANCH  21  22
ENDBRANCH  20  21
ENDBRANCH   3  20
TORSDOF 15
ENDMDL
MODEL 3
REMARK VINA RESULT:     -10.3      1.999      7.214
REMARK SMILES CC(C)OCCS(=O)(=O)N1CCC[C@H](C(=O)NCCCNC(=O)c2ccc(-c3c4nc(c(-c5ccccc5)c5ccc([nH]5)c(-c5ccccc5)c5nc(c(-c6ccccc6)c6ccc3[nH]6)C=C5)C=C4)cc2)C1
REMARK SMILES IDX 15 1 16 2 17 3 14 5 10 6 11 7 72 8 12 9 13 10 7 11 8 12 9 13
REMARK SMILES IDX 6 14 5 15 4 16 2 17 1 18 3 19 18 20 19 21 20 22 21 23 22 24
REMARK SMILES IDX 23 26 24 27 25 28 71 29 26 30 70 31 27 32 28 33 29 34 64 35
REMARK SMILES IDX 30 36 69 37 63 38 65 39 31 40 68 41 62 42 61 43 32 45 54 46
REMARK SMILES IDX 39 47 53 48 40 49 43 50 52 51 66 52 41 53 42 54 51 56 67 57
REMARK SMILES IDX 44 58 33 59 34 60 38 61 35 62 37 63 36 64 55 65 56 66 60 67
REMARK SMILES IDX 57 68 59 69 58 70 45 71 46 72 50 73 47 74 49 75 48 76
REMARK H PARENT 17 4 21 25 65 44 43 55
REMARK Flexibility Score: inf
ROOT
ATOM      1  C   UNL A   1      34.519  22.787  25.335  1.00  0.00     0.224 C 
ATOM      2  O   UNL A   1      33.972  23.466  26.211  1.00  0.00    -0.275 OA
ATOM      3  N   UNL A   1      35.651  22.128  25.707  1.00  0.00    -0.356 N 
ATOM      4  H   UNL A   1      36.246  22.603  26.332  1.00  0.00     0.163 HD
ENDROOT
BRANCH   1   5
ATOM      5  C   UNL A   1      33.944  22.777  23.914  1.00  0.00     0.093 C 
ATOM      6  N   UNL A   1      32.811  24.957  23.396  1.00  0.00    -0.201 NA
ATOM      7  C   UNL A   1      31.520  24.232  23.085  1.00  0.00     0.102 C 
ATOM      8  C   UNL A   1      34.000  24.101  23.159  1.00  0.00     0.115 C 
ATOM      9  C   UNL A   1      31.389  22.856  23.736  1.00  0.00     0.018 C 
ATOM     10  C   UNL A   1      32.647  22.006  23.710  1.00  0.00     0.016 C 
BRANCH   6  11
ATOM     11  S   UNL A   1      32.819  26.502  22.623  1.00  0.00     0.216 S 
ATOM     12  O   UNL A   1      31.445  26.914  22.472  1.00  0.00    -0.212 OA
ATOM     13  O   UNL A   1      33.644  26.332  21.435  1.00  0.00    -0.212 OA
BRANCH  11  14
ATOM     14  C   UNL A   1      33.697  27.681  23.654  1.00  0.00     0.182 C 
BRANCH  14  15
ATOM     15  C   UNL A   1      32.983  28.960  24.056  1.00  0.00     0.178 C 
BRANCH  15  16
ATOM     16  O   UNL A   1      33.449  29.442  25.311  1.00  0.00    -0.378 OA
BRANCH  16  17
ATOM     17  C   UNL A   1      32.497  29.682  26.348  1.00  0.00     0.112 C 
ATOM     18  C   UNL A   1      32.215  28.455  27.204  1.00  0.00     0.038 C 
ATOM     19  C   UNL A   1      32.826  30.858  27.250  1.00  0.00     0.038 C 
ENDBRANCH  16  17
ENDBRANCH  15  16
ENDBRANCH  14  15
ENDBRANCH  11  14
ENDBRANCH   6  11
ENDBRANCH   1   5
BRANCH   3  20
ATOM     20  C   UNL A   1      36.080  20.815  25.295  1.00  0.00     0.117 C 
BRANCH  20  21
ATOM     21  C   UNL A   1      37.469  20.737  24.690  1.00  0.00     0.042 C 
BRANCH  21  22
ATOM     22  C   UNL A   1      38.565  20.909  25.733  1.00  0.00     0.118 C 
BRANCH  22  23
ATOM     23  N   UNL A   1      39.544  19.817  25.734  1.00  0.00    -0.352 N 
ATOM     24  C   UNL A   1      40.886  19.807  26.038  1.00  0.00     0.251 C 
ATOM     25  H   UNL A   1      39.177  18.941  25.475  1.00  0.00     0.163 HD
ATOM     26  O   UNL A   1      41.551  18.793  25.853  1.00  0.00    -0.269 OA
BRANCH  24  27
ATOM     27  C   UNL A   1      41.530  21.028  26.558  1.00  0.00     0.039 A 
ATOM     28  C   UNL A   1      42.059  21.962  25.664  1.00  0.00     0.014 A 
ATOM     29  C   UNL A   1      41.569  21.267  27.929  1.00  0.00     0.014 A 
ATOM     30  C   UNL A   1      42.532  23.183  26.148  1.00  0.00     0.010 A 
ATOM     31  C   UNL A   1      41.907  22.527  28.393  1.00  0.00     0.010 A 
ATOM     32  C   UNL A   1      42.405  23.497  27.512  1.00  0.00    -0.014 A 
BRANCH  32  33
ATOM     33  C   UNL A   1      42.798  24.821  28.053  1.00  0.00     0.031 A 
ATOM     34  C   UNL A   1      41.747  25.872  28.286  1.00  0.00     0.074 A 
ATOM     35  C   UNL A   1      44.100  25.106  28.246  1.00  0.00     0.049 A 
ATOM     36  N   UNL A   1      41.892  27.117  28.663  1.00  0.00    -0.248 NA
ATOM     37  C   UNL A   1      40.350  25.487  28.018  1.00  0.00     0.031 C 
ATOM     38  C   UNL A   1      45.220  24.191  28.003  1.00  0.00     0.029 A 
ATOM     39  N   UNL A   1      44.705  26.255  28.688  1.00  0.00    -0.354 N 
ATOM     40  C   UNL A   1      40.615  27.665  28.646  1.00  0.00     0.074 A 
ATOM     41  C   UNL A   1      39.720  26.642  28.155  1.00  0.00     0.031 C 
ATOM     42  C   UNL A   1      46.367  24.799  28.345  1.00  0.00     0.029 A 
ATOM     43  C   UNL A   1      46.072  26.159  28.780  1.00  0.00     0.049 A 
ATOM     44  H   UNL A   1      44.205  27.072  28.918  1.00  0.00     0.167 HD
ATOM     45  C   UNL A   1      40.216  28.898  29.033  1.00  0.00     0.031 A 
ATOM     46  C   UNL A   1      46.987  27.067  29.169  1.00  0.00     0.031 A 
ATOM     47  C   UNL A   1      41.107  29.903  29.542  1.00  0.00     0.049 A 
ATOM     48  C   UNL A   1      46.521  28.433  29.591  1.00  0.00     0.074 A 
ATOM     49  C   UNL A   1      40.801  31.161  30.029  1.00  0.00     0.029 A 
ATOM     50  N   UNL A   1      42.484  29.761  29.630  1.00  0.00    -0.354 N 
ATOM     51  N   UNL A   1      45.301  28.912  29.643  1.00  0.00    -0.248 NA
ATOM     52  C   UNL A   1      47.559  29.380  30.019  1.00  0.00     0.031 C 
ATOM     53  C   UNL A   1      41.999  31.803  30.354  1.00  0.00     0.029 A 
ATOM     54  C   UNL A   1      43.046  30.921  30.136  1.00  0.00     0.049 A 
ATOM     55  H   UNL A   1      42.987  28.956  29.372  1.00  0.00     0.167 HD
ATOM     56  C   UNL A   1      45.421  30.204  30.138  1.00  0.00     0.074 A 
ATOM     57  C   UNL A   1      46.832  30.427  30.384  1.00  0.00     0.031 C 
ATOM     58  C   UNL A   1      44.452  31.124  30.369  1.00  0.00     0.031 A 
BRANCH  45  59
ATOM     59  C   UNL A   1      38.751  29.220  28.908  1.00  0.00    -0.014 A 
ATOM     60  C   UNL A   1      38.206  29.706  27.707  1.00  0.00     0.009 A 
ATOM     61  C   UNL A   1      37.900  29.028  30.008  1.00  0.00     0.009 A 
ATOM     62  C   UNL A   1      36.852  30.040  27.626  1.00  0.00     0.001 A 
ATOM     63  C   UNL A   1      36.540  29.329  29.912  1.00  0.00     0.001 A 
ATOM     64  C   UNL A   1      36.020  29.847  28.727  1.00  0.00     0.000 A 
ENDBRANCH  45  59
BRANCH  46  65
ATOM     65  C   UNL A   1      48.427  26.706  29.207  1.00  0.00    -0.014 A 
ATOM     66  C   UNL A   1      49.247  26.934  28.090  1.00  0.00     0.009 A 
ATOM     67  C   UNL A   1      48.996  26.139  30.358  1.00  0.00     0.009 A 
ATOM     68  C   UNL A   1      50.598  26.577  28.117  1.00  0.00     0.001 A 
ATOM     69  C   UNL A   1      50.354  25.812  30.393  1.00  0.00     0.001 A 
ATOM     70  C   UNL A   1      51.152  26.022  29.270  1.00  0.00     0.000 A 
ENDBRANCH  46  65
BRANCH  58  71
ATOM     71  C   UNL A   1      44.881  32.441  30.950  1.00  0.00    -0.014 A 
ATOM     72  C   UNL A   1      45.249  33.519  30.130  1.00  0.00     0.009 A 
ATOM     73  C   UNL A   1      44.870  32.618  32.343  1.00  0.00     0.009 A 
ATOM     74  C   UNL A   1      45.633  34.735  30.695  1.00  0.00     0.001 A 
ATOM     75  C   UNL A   1      45.222  33.847  32.904  1.00  0.00     0.001 A 
ATOM     76  C   UNL A   1      45.612  34.901  32.079  1.00  0.00     0.000 A 
ENDBRANCH  58  71
ENDBRANCH  32  33
ENDBRANCH  24  27
ENDBRANCH  22  23
ENDBRANCH  21  22
ENDBRANCH  20  21
ENDBRANCH   3  20
TORSDOF 15
ENDMDL
