MODEL 1
REMARK VINA RESULT:     -11.7      0.000      0.000
REMARK SMILES C=CC[C@]1(C(=O)NCCCNC(=O)c2ccc(-c3c4nc(c(-c5ccccc5)c5ccc([nH]5)c(-c5ccccc5)c5nc(c(-c6ccccc6)c6ccc3[nH]6)C=C5)C=C4)cc2)c2ccccc2C(=O)N1Cc1ccc([N+](=O)[O-])cc1
REMARK SMILES IDX 8 1 7 2 5 3 6 4 4 6 62 7 70 8 63 9 67 10 68 11 64 12 66 13
REMARK SMILES IDX 69 14 65 15 3 16 2 17 1 18 71 19 72 20 73 21 80 22 74 23
REMARK SMILES IDX 79 24 75 25 76 26 77 27 78 28 9 29 10 30 11 31 12 32 13 34
REMARK SMILES IDX 14 35 15 36 61 37 16 38 60 39 17 40 18 41 19 42 54 43 20 44
REMARK SMILES IDX 59 45 53 46 55 47 21 48 58 49 52 50 51 51 22 53 44 54 29 55
REMARK SMILES IDX 43 56 30 57 33 58 42 59 56 60 31 61 32 62 41 64 57 65 34 66
REMARK SMILES IDX 23 67 24 68 28 69 25 70 27 71 26 72 45 73 46 74 50 75 47 76
REMARK SMILES IDX 49 77 48 78 35 79 36 80 40 81 37 82 39 83 38 84
REMARK H PARENT 7 5 11 33 55 52 33 63
REMARK Flexibility Score: inf
ROOT
ATOM      1  C   UNL A   1      32.467  26.922  27.205  1.00  0.00     0.117 C 
ENDROOT
BRANCH   1   2
ATOM      2  N   UNL A   1      31.408  26.035  26.758  1.00  0.00    -0.354 N 
ATOM      3  C   UNL A   1      31.435  25.013  25.847  1.00  0.00     0.251 C 
ATOM      4  O   UNL A   1      30.357  24.445  25.634  1.00  0.00    -0.272 OA
ATOM      5  H   UNL A   1      30.531  26.192  27.177  1.00  0.00     0.163 HD
BRANCH   3   6
ATOM      6  C   UNL A   1      32.710  24.685  24.993  1.00  0.00     0.151 C 
ATOM      7  C   UNL A   1      32.637  23.217  24.605  1.00  0.00     0.000 A 
ATOM      8  N   UNL A   1      32.750  25.352  23.668  1.00  0.00    -0.315 N 
ATOM      9  C   UNL A   1      32.412  22.105  25.408  1.00  0.00     0.007 A 
ATOM     10  C   UNL A   1      32.721  23.085  23.221  1.00  0.00     0.046 A 
ATOM     11  C   UNL A   1      32.843  24.429  22.630  1.00  0.00     0.255 C 
ATOM     12  C   UNL A   1      32.245  20.865  24.787  1.00  0.00     0.000 A 
ATOM     13  C   UNL A   1      32.560  21.866  22.586  1.00  0.00     0.014 A 
ATOM     14  O   UNL A   1      32.949  24.648  21.438  1.00  0.00    -0.269 OA
ATOM     15  C   UNL A   1      32.313  20.747  23.388  1.00  0.00     0.001 A 
BRANCH   6  16
ATOM     16  C   UNL A   1      34.004  24.955  25.821  1.00  0.00     0.070 C 
BRANCH  16  17
ATOM     17  C   UNL A   1      35.291  24.440  25.209  1.00  0.00    -0.031 C 
ATOM     18  C   UNL A   1      36.151  23.618  25.825  1.00  0.00     0.004 C 
ENDBRANCH  16  17
ENDBRANCH   6  16
BRANCH   8  19
ATOM     19  C   UNL A   1      32.927  26.790  23.463  1.00  0.00     0.157 C 
BRANCH  19  20
ATOM     20  C   UNL A   1      31.668  27.578  23.165  1.00  0.00    -0.028 A 
ATOM     21  C   UNL A   1      31.745  28.872  22.621  1.00  0.00     0.012 A 
ATOM     22  C   UNL A   1      30.397  27.044  23.437  1.00  0.00     0.012 A 
ATOM     23  C   UNL A   1      30.585  29.598  22.319  1.00  0.00     0.086 A 
ATOM     24  C   UNL A   1      29.231  27.741  23.105  1.00  0.00     0.086 A 
ATOM     25  C   UNL A   1      29.332  29.017  22.544  1.00  0.00     0.269 A 
BRANCH  25  26
ATOM     26  N   UNL A   1      28.112  29.744  22.186  1.00  0.00     0.062 N 
ATOM     27  O   UNL A   1      27.315  30.013  23.094  1.00  0.00    -0.258 OA
ATOM     28  O   UNL A   1      27.960  30.056  20.996  1.00  0.00    -0.258 OA
ENDBRANCH  25  26
ENDBRANCH  19  20
ENDBRANCH   8  19
ENDBRANCH   3   6
ENDBRANCH   1   2
BRANCH   1  29
ATOM     29  C   UNL A   1      32.293  28.342  26.700  1.00  0.00     0.042 C 
BRANCH  29  30
ATOM     30  C   UNL A   1      33.613  29.079  26.561  1.00  0.00     0.118 C 
BRANCH  30  31
ATOM     31  N   UNL A   1      33.576  30.404  27.171  1.00  0.00    -0.352 N 
ATOM     32  C   UNL A   1      34.447  30.997  28.050  1.00  0.00     0.251 C 
ATOM     33  H   UNL A   1      32.806  30.959  26.911  1.00  0.00     0.163 HD
ATOM     34  O   UNL A   1      34.132  32.038  28.616  1.00  0.00    -0.269 OA
BRANCH  32  35
ATOM     35  C   UNL A   1      35.753  30.365  28.330  1.00  0.00     0.039 A 
ATOM     36  C   UNL A   1      36.774  30.458  27.382  1.00  0.00     0.014 A 
ATOM     37  C   UNL A   1      35.969  29.687  29.532  1.00  0.00     0.014 A 
ATOM     38  C   UNL A   1      38.035  29.936  27.675  1.00  0.00     0.010 A 
ATOM     39  C   UNL A   1      37.248  29.262  29.863  1.00  0.00     0.010 A 
ATOM     40  C   UNL A   1      38.292  29.371  28.934  1.00  0.00    -0.014 A 
BRANCH  40  41
ATOM     41  C   UNL A   1      39.638  28.870  29.301  1.00  0.00     0.031 A 
ATOM     42  C   UNL A   1      40.578  29.747  30.082  1.00  0.00     0.074 A 
ATOM     43  C   UNL A   1      40.043  27.662  28.865  1.00  0.00     0.049 A 
ATOM     44  N   UNL A   1      41.821  29.522  30.428  1.00  0.00    -0.248 NA
ATOM     45  C   UNL A   1      40.067  31.063  30.499  1.00  0.00     0.031 C 
ATOM     46  C   UNL A   1      39.246  26.740  28.053  1.00  0.00     0.029 A 
ATOM     47  N   UNL A   1      41.235  27.007  29.038  1.00  0.00    -0.354 N 
ATOM     48  C   UNL A   1      42.243  30.675  31.078  1.00  0.00     0.074 A 
ATOM     49  C   UNL A   1      41.147  31.618  31.028  1.00  0.00     0.031 C 
ATOM     50  C   UNL A   1      39.960  25.626  27.826  1.00  0.00     0.029 A 
ATOM     51  C   UNL A   1      41.275  25.771  28.440  1.00  0.00     0.049 A 
ATOM     52  H   UNL A   1      41.991  27.386  29.543  1.00  0.00     0.167 HD
ATOM     53  C   UNL A   1      43.428  30.923  31.684  1.00  0.00     0.031 A 
ATOM     54  C   UNL A   1      42.262  24.858  28.390  1.00  0.00     0.031 A 
ATOM     55  C   UNL A   1      44.510  29.978  31.753  1.00  0.00     0.049 A 
ATOM     56  C   UNL A   1      43.564  25.147  29.081  1.00  0.00     0.074 A 
ATOM     57  C   UNL A   1      45.727  30.106  32.398  1.00  0.00     0.029 A 
ATOM     58  N   UNL A   1      44.499  28.727  31.156  1.00  0.00    -0.354 N 
ATOM     59  N   UNL A   1      43.924  26.215  29.749  1.00  0.00    -0.248 NA
ATOM     60  C   UNL A   1      44.590  24.097  29.022  1.00  0.00     0.031 C 
ATOM     61  C   UNL A   1      46.471  28.947  32.154  1.00  0.00     0.029 A 
ATOM     62  C   UNL A   1      45.698  28.079  31.400  1.00  0.00     0.049 A 
ATOM     63  H   UNL A   1      43.752  28.356  30.635  1.00  0.00     0.167 HD
ATOM     64  C   UNL A   1      45.209  25.960  30.207  1.00  0.00     0.074 A 
ATOM     65  C   UNL A   1      45.557  24.627  29.756  1.00  0.00     0.031 C 
ATOM     66  C   UNL A   1      46.028  26.757  30.937  1.00  0.00     0.031 A 
BRANCH  53  67
ATOM     67  C   UNL A   1      43.606  32.272  32.321  1.00  0.00    -0.014 A 
ATOM     68  C   UNL A   1      44.165  33.346  31.608  1.00  0.00     0.009 A 
ATOM     69  C   UNL A   1      43.199  32.479  33.648  1.00  0.00     0.009 A 
ATOM     70  C   UNL A   1      44.354  34.584  32.224  1.00  0.00     0.001 A 
ATOM     71  C   UNL A   1      43.360  33.727  34.252  1.00  0.00     0.001 A 
ATOM     72  C   UNL A   1      43.947  34.775  33.544  1.00  0.00     0.000 A 
ENDBRANCH  53  67
BRANCH  54  73
ATOM     73  C   UNL A   1      42.044  23.571  27.680  1.00  0.00    -0.014 A 
ATOM     74  C   UNL A   1      41.417  22.498  28.331  1.00  0.00     0.009 A 
ATOM     75  C   UNL A   1      42.450  23.413  26.345  1.00  0.00     0.009 A 
ATOM     76  C   UNL A   1      41.220  21.285  27.666  1.00  0.00     0.001 A 
ATOM     77  C   UNL A   1      42.226  22.208  25.675  1.00  0.00     0.001 A 
ATOM     78  C   UNL A   1      41.620  21.143  26.338  1.00  0.00     0.000 A 
ENDBRANCH  54  73
BRANCH  66  79
ATOM     79  C   UNL A   1      47.369  26.197  31.313  1.00  0.00    -0.014 A 
ATOM     80  C   UNL A   1      47.592  25.628  32.576  1.00  0.00     0.009 A 
ATOM     81  C   UNL A   1      48.412  26.204  30.373  1.00  0.00     0.009 A 
ATOM     82  C   UNL A   1      48.845  25.105  32.901  1.00  0.00     0.001 A 
ATOM     83  C   UNL A   1      49.655  25.655  30.692  1.00  0.00     0.001 A 
ATOM     84  C   UNL A   1      49.872  25.115  31.958  1.00  0.00     0.000 A 
ENDBRANCH  66  79
ENDBRANCH  40  41
ENDBRANCH  32  35
ENDBRANCH  30  31
ENDBRANCH  29  30
ENDBRANCH   1  29
TORSDOF 15
ENDMDL
MODEL 2
REMARK VINA RESULT:     -11.6      2.535      7.789
REMARK SMILES C=CC[C@]1(C(=O)NCCCNC(=O)c2ccc(-c3c4nc(c(-c5ccccc5)c5ccc([nH]5)c(-c5ccccc5)c5nc(c(-c6ccccc6)c6ccc3[nH]6)C=C5)C=C4)cc2)c2ccccc2C(=O)N1Cc1ccc([N+](=O)[O-])cc1
REMARK SMILES IDX 8 1 7 2 5 3 6 4 4 6 62 7 70 8 63 9 67 10 68 11 64 12 66 13
REMARK SMILES IDX 69 14 65 15 3 16 2 17 1 18 71 19 72 20 73 21 80 22 74 23
REMARK SMILES IDX 79 24 75 25 76 26 77 27 78 28 9 29 10 30 11 31 12 32 13 34
REMARK SMILES IDX 14 35 15 36 61 37 16 38 60 39 17 40 18 41 19 42 54 43 20 44
REMARK SMILES IDX 59 45 53 46 55 47 21 48 58 49 52 50 51 51 22 53 44 54 29 55
REMARK SMILES IDX 43 56 30 57 33 58 42 59 56 60 31 61 32 62 41 64 57 65 34 66
REMARK SMILES IDX 23 67 24 68 28 69 25 70 27 71 26 72 45 73 46 74 50 75 47 76
REMARK SMILES IDX 49 77 48 78 35 79 36 80 40 81 37 82 39 83 38 84
REMARK H PARENT 7 5 11 33 55 52 33 63
REMARK Flexibility Score: inf
ROOT
ATOM      1  C   UNL A   1      34.316  24.602  24.767  1.00  0.00     0.117 C 
ENDROOT
BRANCH   1   2
ATOM      2  N   UNL A   1      33.388  24.894  25.845  1.00  0.00    -0.354 N 
ATOM      3  C   UNL A   1      32.148  25.473  25.813  1.00  0.00     0.251 C 
ATOM      4  O   UNL A   1      31.593  25.635  26.907  1.00  0.00    -0.272 OA
ATOM      5  H   UNL A   1      33.700  24.634  26.742  1.00  0.00     0.163 HD
BRANCH   3   6
ATOM      6  C   UNL A   1      31.529  26.057  24.495  1.00  0.00     0.151 C 
ATOM      7  C   UNL A   1      32.450  27.162  24.004  1.00  0.00     0.000 A 
ATOM      8  N   UNL A   1      31.536  25.119  23.344  1.00  0.00    -0.315 N 
ATOM      9  C   UNL A   1      32.971  28.246  24.701  1.00  0.00     0.007 A 
ATOM     10  C   UNL A   1      32.848  26.906  22.694  1.00  0.00     0.046 A 
ATOM     11  C   UNL A   1      32.230  25.641  22.258  1.00  0.00     0.255 C 
ATOM     12  C   UNL A   1      33.920  29.048  24.062  1.00  0.00     0.000 A 
ATOM     13  C   UNL A   1      33.784  27.689  22.042  1.00  0.00     0.014 A 
ATOM     14  O   UNL A   1      32.375  25.152  21.153  1.00  0.00    -0.269 OA
ATOM     15  C   UNL A   1      34.326  28.769  22.745  1.00  0.00     0.001 A 
BRANCH   6  16
ATOM     16  C   UNL A   1      30.105  26.632  24.769  1.00  0.00     0.070 C 
BRANCH  16  17
ATOM     17  C   UNL A   1      29.358  27.140  23.553  1.00  0.00    -0.031 C 
ATOM     18  C   UNL A   1      29.314  28.421  23.166  1.00  0.00     0.004 C 
ENDBRANCH  16  17
ENDBRANCH   6  16
BRANCH   8  19
ATOM     19  C   UNL A   1      30.715  23.911  23.249  1.00  0.00     0.157 C 
BRANCH  19  20
ATOM     20  C   UNL A   1      31.379  22.621  23.687  1.00  0.00    -0.028 A 
ATOM     21  C   UNL A   1      31.418  22.261  25.045  1.00  0.00     0.012 A 
ATOM     22  C   UNL A   1      31.984  21.764  22.752  1.00  0.00     0.012 A 
ATOM     23  C   UNL A   1      32.007  21.058  25.455  1.00  0.00     0.086 A 
ATOM     24  C   UNL A   1      32.542  20.543  23.143  1.00  0.00     0.086 A 
ATOM     25  C   UNL A   1      32.548  20.194  24.496  1.00  0.00     0.269 A 
BRANCH  25  26
ATOM     26  N   UNL A   1      33.123  18.911  24.906  1.00  0.00     0.062 N 
ATOM     27  O   UNL A   1      34.319  18.710  24.656  1.00  0.00    -0.258 OA
ATOM     28  O   UNL A   1      32.378  18.110  25.488  1.00  0.00    -0.258 OA
ENDBRANCH  25  26
ENDBRANCH  19  20
ENDBRANCH   8  19
ENDBRANCH   3   6
ENDBRANCH   1   2
BRANCH   1  29
ATOM     29  C   UNL A   1      35.232  23.435  25.082  1.00  0.00     0.042 C 
BRANCH  29  30
ATOM     30  C   UNL A   1      36.462  23.852  25.868  1.00  0.00     0.118 C 
BRANCH  30  31
ATOM     31  N   UNL A   1      37.456  22.788  25.948  1.00  0.00    -0.352 N 
ATOM     32  C   UNL A   1      38.786  22.845  26.283  1.00  0.00     0.251 C 
ATOM     33  H   UNL A   1      37.121  21.889  25.728  1.00  0.00     0.163 HD
ATOM     34  O   UNL A   1      39.509  21.874  26.086  1.00  0.00    -0.269 OA
BRANCH  32  35
ATOM     35  C   UNL A   1      39.347  24.084  26.858  1.00  0.00     0.039 A 
ATOM     36  C   UNL A   1      40.012  24.985  26.022  1.00  0.00     0.014 A 
ATOM     37  C   UNL A   1      39.212  24.359  28.221  1.00  0.00     0.014 A 
ATOM     38  C   UNL A   1      40.472  26.195  26.542  1.00  0.00     0.010 A 
ATOM     39  C   UNL A   1      39.576  25.605  28.713  1.00  0.00     0.010 A 
ATOM     40  C   UNL A   1      40.220  26.532  27.882  1.00  0.00    -0.014 A 
BRANCH  40  41
ATOM     41  C   UNL A   1      40.635  27.839  28.446  1.00  0.00     0.031 A 
ATOM     42  C   UNL A   1      42.063  28.058  28.864  1.00  0.00     0.074 A 
ATOM     43  C   UNL A   1      39.712  28.797  28.657  1.00  0.00     0.049 A 
ATOM     44  N   UNL A   1      42.601  29.097  29.450  1.00  0.00    -0.248 NA
ATOM     45  C   UNL A   1      43.003  26.951  28.622  1.00  0.00     0.031 C 
ATOM     46  C   UNL A   1      38.286  28.688  28.348  1.00  0.00     0.029 A 
ATOM     47  N   UNL A   1      39.840  30.053  29.193  1.00  0.00    -0.354 N 
ATOM     48  C   UNL A   1      43.930  28.758  29.668  1.00  0.00     0.074 A 
ATOM     49  C   UNL A   1      44.104  27.398  29.206  1.00  0.00     0.031 C 
ATOM     50  C   UNL A   1      37.677  29.840  28.669  1.00  0.00     0.029 A 
ATOM     51  C   UNL A   1      38.659  30.753  29.243  1.00  0.00     0.049 A 
ATOM     52  H   UNL A   1      40.697  30.420  29.511  1.00  0.00     0.167 HD
ATOM     53  C   UNL A   1      44.927  29.515  30.185  1.00  0.00     0.031 A 
ATOM     54  C   UNL A   1      38.397  31.990  29.701  1.00  0.00     0.031 A 
ATOM     55  C   UNL A   1      44.760  30.873  30.626  1.00  0.00     0.049 A 
ATOM     56  C   UNL A   1      39.520  32.818  30.258  1.00  0.00     0.074 A 
ATOM     57  C   UNL A   1      45.717  31.749  31.105  1.00  0.00     0.029 A 
ATOM     58  N   UNL A   1      43.551  31.553  30.635  1.00  0.00    -0.354 N 
ATOM     59  N   UNL A   1      40.785  32.507  30.396  1.00  0.00    -0.248 NA
ATOM     60  C   UNL A   1      39.178  34.174  30.711  1.00  0.00     0.031 C 
ATOM     61  C   UNL A   1      45.080  32.946  31.446  1.00  0.00     0.029 A 
ATOM     62  C   UNL A   1      43.735  32.832  31.131  1.00  0.00     0.049 A 
ATOM     63  H   UNL A   1      42.691  31.181  30.334  1.00  0.00     0.167 HD
ATOM     64  C   UNL A   1      41.396  33.633  30.931  1.00  0.00     0.074 A 
ATOM     65  C   UNL A   1      40.364  34.641  31.075  1.00  0.00     0.031 C 
ATOM     66  C   UNL A   1      42.695  33.817  31.272  1.00  0.00     0.031 A 
BRANCH  53  67
ATOM     67  C   UNL A   1      46.285  28.881  30.298  1.00  0.00    -0.014 A 
ATOM     68  C   UNL A   1      47.211  28.953  29.244  1.00  0.00     0.009 A 
ATOM     69  C   UNL A   1      46.650  28.213  31.476  1.00  0.00     0.009 A 
ATOM     70  C   UNL A   1      48.456  28.330  29.351  1.00  0.00     0.001 A 
ATOM     71  C   UNL A   1      47.907  27.617  31.593  1.00  0.00     0.001 A 
ATOM     72  C   UNL A   1      48.804  27.667  30.527  1.00  0.00     0.000 A 
ENDBRANCH  53  67
BRANCH  54  73
ATOM     73  C   UNL A   1      37.015  32.529  29.627  1.00  0.00    -0.014 A 
ATOM     74  C   UNL A   1      36.604  33.280  28.515  1.00  0.00     0.009 A 
ATOM     75  C   UNL A   1      36.096  32.287  30.660  1.00  0.00     0.009 A 
ATOM     76  C   UNL A   1      35.307  33.794  28.448  1.00  0.00     0.001 A 
ATOM     77  C   UNL A   1      34.791  32.780  30.578  1.00  0.00     0.001 A 
ATOM     78  C   UNL A   1      34.401  33.540  29.477  1.00  0.00     0.000 A 
ENDBRANCH  54  73
BRANCH  66  79
ATOM     79  C   UNL A   1      43.075  35.166  31.811  1.00  0.00    -0.014 A 
ATOM     80  C   UNL A   1      43.593  36.165  30.971  1.00  0.00     0.009 A 
ATOM     81  C   UNL A   1      42.875  35.452  33.170  1.00  0.00     0.009 A 
ATOM     82  C   UNL A   1      43.932  37.415  31.491  1.00  0.00     0.001 A 
ATOM     83  C   UNL A   1      43.190  36.713  33.681  1.00  0.00     0.001 A 
ATOM     84  C   UNL A   1      43.725  37.689  32.843  1.00  0.00     0.000 A 
ENDBRANCH  66  79
ENDBRANCH  40  41
ENDBRANCH  32  35
ENDBRANCH  30  31
ENDBRANCH  29  30
ENDBRANCH   1  29
TORSDOF 15
ENDMDL
MODEL 3
REMARK VINA RESULT:     -11.6      2.367      3.234
REMARK SMILES C=CC[C@]1(C(=O)NCCCNC(=O)c2ccc(-c3c4nc(c(-c5ccccc5)c5ccc([nH]5)c(-c5ccccc5)c5nc(c(-c6ccccc6)c6ccc3[nH]6)C=C5)C=C4)cc2)c2ccccc2C(=O)N1Cc1ccc([N+](=O)[O-])cc1
REMARK SMILES IDX 8 1 7 2 5 3 6 4 4 6 62 7 70 8 63 9 67 10 68 11 64 12 66 13
REMARK SMILES IDX 69 14 65 15 3 16 2 17 1 18 71 19 72 20 73 21 80 22 74 23
REMARK SMILES IDX 79 24 75 25 76 26 77 27 78 28 9 29 10 30 11 31 12 32 13 34
REMARK SMILES IDX 14 35 15 36 61 37 16 38 60 39 17 40 18 41 19 42 54 43 20 44
REMARK SMILES IDX 59 45 53 46 55 47 21 48 58 49 52 50 51 51 22 53 44 54 29 55
REMARK SMILES IDX 43 56 30 57 33 58 42 59 56 60 31 61 32 62 41 64 57 65 34 66
REMARK SMILES IDX 23 67 24 68 28 69 25 70 27 71 26 72 45 73 46 74 50 75 47 76
REMARK SMILES IDX 49 77 48 78 35 79 36 80 40 81 37 82 39 83 38 84
REMARK H PARENT 7 5 11 33 55 52 33 63
REMARK Flexibility Score: inf
ROOT
ATOM      1  C   UNL A   1      32.371  27.440  26.875  1.00  0.00     0.117 C 
ENDROOT
BRANCH   1   2
ATOM      2  N   UNL A   1      31.389  26.381  26.724  1.00  0.00    -0.354 N 
ATOM      3  C   UNL A   1      31.442  25.223  25.996  1.00  0.00     0.251 C 
ATOM      4  O   UNL A   1      30.427  24.516  26.023  1.00  0.00    -0.272 OA
ATOM      5  H   UNL A   1      30.552  26.518  27.224  1.00  0.00     0.163 HD
BRANCH   3   6
ATOM      6  C   UNL A   1      32.644  24.884  25.046  1.00  0.00     0.151 C 
ATOM      7  C   UNL A   1      32.555  23.406  24.703  1.00  0.00     0.000 A 
ATOM      8  N   UNL A   1      32.565  25.516  23.705  1.00  0.00    -0.315 N 
ATOM      9  C   UNL A   1      32.411  22.313  25.550  1.00  0.00     0.007 A 
ATOM     10  C   UNL A   1      32.523  23.238  23.320  1.00  0.00     0.046 A 
ATOM     11  C   UNL A   1      32.580  24.567  22.687  1.00  0.00     0.255 C 
ATOM     12  C   UNL A   1      32.206  21.056  24.978  1.00  0.00     0.000 A 
ATOM     13  C   UNL A   1      32.323  22.001  22.733  1.00  0.00     0.014 A 
ATOM     14  O   UNL A   1      32.582  24.755  21.485  1.00  0.00    -0.269 OA
ATOM     15  C   UNL A   1      32.158  20.901  23.581  1.00  0.00     0.001 A 
BRANCH   6  16
ATOM     16  C   UNL A   1      34.000  25.187  25.754  1.00  0.00     0.070 C 
BRANCH  16  17
ATOM     17  C   UNL A   1      35.213  24.491  25.171  1.00  0.00    -0.031 C 
ATOM     18  C   UNL A   1      36.226  23.993  25.892  1.00  0.00     0.004 C 
ENDBRANCH  16  17
ENDBRANCH   6  16
BRANCH   8  19
ATOM     19  C   UNL A   1      32.708  26.949  23.450  1.00  0.00     0.157 C 
BRANCH  19  20
ATOM     20  C   UNL A   1      31.431  27.695  23.118  1.00  0.00    -0.028 A 
ATOM     21  C   UNL A   1      30.176  27.131  23.408  1.00  0.00     0.012 A 
ATOM     22  C   UNL A   1      31.468  28.957  22.501  1.00  0.00     0.012 A 
ATOM     23  C   UNL A   1      28.991  27.825  23.128  1.00  0.00     0.086 A 
ATOM     24  C   UNL A   1      30.295  29.676  22.250  1.00  0.00     0.086 A 
ATOM     25  C   UNL A   1      29.060  29.105  22.568  1.00  0.00     0.269 A 
BRANCH  25  26
ATOM     26  N   UNL A   1      27.832  29.862  22.315  1.00  0.00     0.062 N 
ATOM     27  O   UNL A   1      27.792  30.574  21.304  1.00  0.00    -0.258 OA
ATOM     28  O   UNL A   1      26.903  29.732  23.126  1.00  0.00    -0.258 OA
ENDBRANCH  25  26
ENDBRANCH  19  20
ENDBRANCH   8  19
ENDBRANCH   3   6
ENDBRANCH   1   2
BRANCH   1  29
ATOM     29  C   UNL A   1      31.789  28.819  26.629  1.00  0.00     0.042 C 
BRANCH  29  30
ATOM     30  C   UNL A   1      32.768  29.753  25.942  1.00  0.00     0.118 C 
BRANCH  30  31
ATOM     31  N   UNL A   1      32.576  31.145  26.334  1.00  0.00    -0.352 N 
ATOM     32  C   UNL A   1      33.256  31.907  27.251  1.00  0.00     0.251 C 
ATOM     33  H   UNL A   1      31.845  31.610  25.867  1.00  0.00     0.163 HD
ATOM     34  O   UNL A   1      32.808  32.996  27.595  1.00  0.00    -0.269 OA
BRANCH  32  35
ATOM     35  C   UNL A   1      34.513  31.401  27.840  1.00  0.00     0.039 A 
ATOM     36  C   UNL A   1      35.591  32.275  28.001  1.00  0.00     0.014 A 
ATOM     37  C   UNL A   1      34.624  30.067  28.238  1.00  0.00     0.014 A 
ATOM     38  C   UNL A   1      36.752  31.826  28.632  1.00  0.00     0.010 A 
ATOM     39  C   UNL A   1      35.736  29.652  28.956  1.00  0.00     0.010 A 
ATOM     40  C   UNL A   1      36.817  30.523  29.151  1.00  0.00    -0.014 A 
BRANCH  40  41
ATOM     41  C   UNL A   1      38.009  30.038  29.888  1.00  0.00     0.031 A 
ATOM     42  C   UNL A   1      38.240  30.468  31.310  1.00  0.00     0.074 A 
ATOM     43  C   UNL A   1      38.921  29.278  29.253  1.00  0.00     0.049 A 
ATOM     44  N   UNL A   1      39.259  30.219  32.093  1.00  0.00    -0.248 NA
ATOM     45  C   UNL A   1      37.207  31.320  31.922  1.00  0.00     0.031 C 
ATOM     46  C   UNL A   1      38.842  28.838  27.859  1.00  0.00     0.029 A 
ATOM     47  N   UNL A   1      40.104  28.747  29.701  1.00  0.00    -0.354 N 
ATOM     48  C   UNL A   1      39.000  30.901  33.274  1.00  0.00     0.074 A 
ATOM     49  C   UNL A   1      37.760  31.621  33.087  1.00  0.00     0.031 C 
ATOM     50  C   UNL A   1      39.912  28.080  27.575  1.00  0.00     0.029 A 
ATOM     51  C   UNL A   1      40.771  28.012  28.751  1.00  0.00     0.049 A 
ATOM     52  H   UNL A   1      40.443  28.880  30.616  1.00  0.00     0.167 HD
ATOM     53  C   UNL A   1      39.716  30.912  34.424  1.00  0.00     0.031 A 
ATOM     54  C   UNL A   1      41.945  27.358  28.820  1.00  0.00     0.031 A 
ATOM     55  C   UNL A   1      40.938  30.179  34.618  1.00  0.00     0.049 A 
ATOM     56  C   UNL A   1      42.716  27.371  30.109  1.00  0.00     0.074 A 
ATOM     57  C   UNL A   1      41.706  30.071  35.762  1.00  0.00     0.029 A 
ATOM     58  N   UNL A   1      41.565  29.426  33.638  1.00  0.00    -0.354 N 
ATOM     59  N   UNL A   1      42.425  27.967  31.239  1.00  0.00    -0.248 NA
ATOM     60  C   UNL A   1      43.973  26.610  30.134  1.00  0.00     0.031 C 
ATOM     61  C   UNL A   1      42.824  29.286  35.463  1.00  0.00     0.029 A 
ATOM     62  C   UNL A   1      42.725  28.865  34.147  1.00  0.00     0.049 A 
ATOM     63  H   UNL A   1      41.237  29.308  32.718  1.00  0.00     0.167 HD
ATOM     64  C   UNL A   1      43.449  27.637  32.117  1.00  0.00     0.074 A 
ATOM     65  C   UNL A   1      44.359  26.773  31.392  1.00  0.00     0.031 C 
ATOM     66  C   UNL A   1      43.620  28.014  33.408  1.00  0.00     0.031 A 
BRANCH  53  67
ATOM     67  C   UNL A   1      39.185  31.745  35.557  1.00  0.00    -0.014 A 
ATOM     68  C   UNL A   1      39.572  33.086  35.717  1.00  0.00     0.009 A 
ATOM     69  C   UNL A   1      38.277  31.188  36.469  1.00  0.00     0.009 A 
ATOM     70  C   UNL A   1      39.096  33.837  36.794  1.00  0.00     0.001 A 
ATOM     71  C   UNL A   1      37.778  31.949  37.528  1.00  0.00     0.001 A 
ATOM     72  C   UNL A   1      38.197  33.269  37.695  1.00  0.00     0.000 A 
ENDBRANCH  53  67
BRANCH  54  73
ATOM     73  C   UNL A   1      42.448  26.613  27.638  1.00  0.00    -0.014 A 
ATOM     74  C   UNL A   1      43.276  27.246  26.699  1.00  0.00     0.009 A 
ATOM     75  C   UNL A   1      42.114  25.263  27.448  1.00  0.00     0.009 A 
ATOM     76  C   UNL A   1      43.743  26.548  25.583  1.00  0.00     0.001 A 
ATOM     77  C   UNL A   1      42.604  24.560  26.344  1.00  0.00     0.001 A 
ATOM     78  C   UNL A   1      43.411  25.205  25.409  1.00  0.00     0.000 A 
ENDBRANCH  54  73
BRANCH  66  79
ATOM     79  C   UNL A   1      44.824  27.474  34.123  1.00  0.00    -0.014 A 
ATOM     80  C   UNL A   1      46.029  28.192  34.164  1.00  0.00     0.009 A 
ATOM     81  C   UNL A   1      44.737  26.247  34.799  1.00  0.00     0.009 A 
ATOM     82  C   UNL A   1      47.134  27.675  34.842  1.00  0.00     0.001 A 
ATOM     83  C   UNL A   1      45.836  25.746  35.500  1.00  0.00     0.001 A 
ATOM     84  C   UNL A   1      47.035  26.457  35.513  1.00  0.00     0.000 A 
ENDBRANCH  66  79
ENDBRANCH  40  41
ENDBRANCH  32  35
ENDBRANCH  30  31
ENDBRANCH  29  30
ENDBRANCH   1  29
TORSDOF 15
ENDMDL
