MODEL 1
REMARK VINA RESULT:     -12.2      0.000      0.000
REMARK SMILES O=C(C[C@@H](C(=O)NCCCNC(=O)c1ccc(-c2c3nc(c(-c4ccccc4)c4ccc([nH]4)c(-c4ccccc4)c4nc(c(-c5ccccc5)c5ccc2[nH]5)C=C4)C=C3)cc1)[NH+]1CCN(c2cccc(Cl)c2)CC1)c1ccc(F)cc1
REMARK SMILES IDX 8 1 7 2 5 3 6 4 4 6 3 7 2 8 1 9 75 10 76 11 81 12 77 13
REMARK SMILES IDX 80 14 78 15 79 16 62 17 63 18 74 19 64 21 73 22 65 23 66 24
REMARK SMILES IDX 67 25 72 26 68 27 70 28 69 29 71 30 9 31 10 32 11 33 12 34
REMARK SMILES IDX 13 36 14 37 15 38 61 39 16 40 60 41 17 42 18 43 19 44 54 45
REMARK SMILES IDX 20 46 59 47 53 48 55 49 21 50 58 51 52 52 51 53 22 55 44 56
REMARK SMILES IDX 29 57 43 58 30 59 33 60 42 61 56 62 31 63 32 64 41 66 57 67
REMARK SMILES IDX 34 68 23 69 24 70 28 71 25 72 27 73 26 74 45 75 46 76 50 77
REMARK SMILES IDX 47 78 49 79 48 80 35 81 36 82 40 83 37 84 39 85 38 86
REMARK H PARENT 7 5 62 20 11 35 55 54 33 65
REMARK Flexibility Score: inf
ROOT
ATOM      1  C   UNL A   1      31.392  27.245  26.119  1.00  0.00     0.118 C 
ENDROOT
BRANCH   1   2
ATOM      2  N   UNL A   1      30.511  26.109  26.319  1.00  0.00    -0.351 N 
ATOM      3  C   UNL A   1      30.728  24.785  26.554  1.00  0.00     0.278 C 
ATOM      4  O   UNL A   1      29.744  24.177  26.996  1.00  0.00    -0.268 OA
ATOM      5  H   UNL A   1      29.556  26.345  26.276  1.00  0.00     0.163 HD
BRANCH   3   6
ATOM      6  C   UNL A   1      32.084  24.064  26.271  1.00  0.00     0.282 C 
BRANCH   6   7
ATOM      7  C   UNL A   1      32.773  24.317  24.929  1.00  0.00     0.156 C 
BRANCH   7   8
ATOM      8  C   UNL A   1      34.186  24.831  24.724  1.00  0.00     0.169 C 
ATOM      9  O   UNL A   1      34.326  26.053  24.576  1.00  0.00    -0.294 OA
BRANCH   8  10
ATOM     10  C   UNL A   1      35.445  24.017  24.816  1.00  0.00     0.018 A 
ATOM     11  C   UNL A   1      36.445  24.164  25.778  1.00  0.00     0.015 A 
ATOM     12  C   UNL A   1      35.578  22.956  23.902  1.00  0.00     0.015 A 
ATOM     13  C   UNL A   1      37.484  23.234  25.900  1.00  0.00     0.040 A 
ATOM     14  C   UNL A   1      36.636  22.048  23.993  1.00  0.00     0.040 A 
ATOM     15  C   UNL A   1      37.564  22.175  25.014  1.00  0.00     0.123 A 
ATOM     16  F   UNL A   1      38.525  21.256  25.160  1.00  0.00    -0.207 F 
ENDBRANCH   8  10
ENDBRANCH   7   8
ENDBRANCH   6   7
BRANCH   6  17
ATOM     17  N   UNL A   1      31.939  22.609  26.569  1.00  0.00    -0.321 N 
ATOM     18  C   UNL A   1      31.320  21.712  25.582  1.00  0.00     0.284 C 
ATOM     19  C   UNL A   1      32.992  21.921  27.335  1.00  0.00     0.284 C 
ATOM     20  H   UNL A   1      31.195  22.801  27.239  1.00  0.00     0.348 HD
ATOM     21  C   UNL A   1      32.280  20.889  24.695  1.00  0.00     0.178 C 
ATOM     22  C   UNL A   1      33.969  21.005  26.543  1.00  0.00     0.178 C 
ATOM     23  N   UNL A   1      33.274  20.222  25.522  1.00  0.00    -0.360 N 
BRANCH  23  24
ATOM     24  C   UNL A   1      33.521  18.895  25.254  1.00  0.00     0.038 A 
ATOM     25  C   UNL A   1      34.442  18.522  24.263  1.00  0.00     0.026 A 
ATOM     26  C   UNL A   1      32.730  17.900  25.833  1.00  0.00     0.046 A 
ATOM     27  C   UNL A   1      34.545  17.197  23.832  1.00  0.00     0.004 A 
ATOM     28  C   UNL A   1      32.816  16.581  25.387  1.00  0.00     0.043 A 
ATOM     29  C   UNL A   1      33.714  16.226  24.384  1.00  0.00     0.020 A 
ATOM     30  Cl  UNL A   1      31.756  15.389  26.039  1.00  0.00    -0.084 Cl
ENDBRANCH  23  24
ENDBRANCH   6  17
ENDBRANCH   3   6
ENDBRANCH   1   2
BRANCH   1  31
ATOM     31  C   UNL A   1      31.982  27.886  27.391  1.00  0.00     0.042 C 
BRANCH  31  32
ATOM     32  C   UNL A   1      33.376  28.527  27.329  1.00  0.00     0.118 C 
BRANCH  32  33
ATOM     33  N   UNL A   1      33.358  29.963  27.546  1.00  0.00    -0.352 N 
ATOM     34  C   UNL A   1      34.329  30.792  28.063  1.00  0.00     0.251 C 
ATOM     35  H   UNL A   1      32.522  30.413  27.284  1.00  0.00     0.163 HD
ATOM     36  O   UNL A   1      34.055  31.967  28.289  1.00  0.00    -0.269 OA
BRANCH  34  37
ATOM     37  C   UNL A   1      35.699  30.304  28.374  1.00  0.00     0.039 A 
ATOM     38  C   UNL A   1      36.657  30.312  27.353  1.00  0.00     0.014 A 
ATOM     39  C   UNL A   1      36.026  29.739  29.609  1.00  0.00     0.014 A 
ATOM     40  C   UNL A   1      37.945  29.809  27.582  1.00  0.00     0.010 A 
ATOM     41  C   UNL A   1      37.326  29.258  29.843  1.00  0.00     0.010 A 
ATOM     42  C   UNL A   1      38.308  29.296  28.839  1.00  0.00    -0.014 A 
BRANCH  42  43
ATOM     43  C   UNL A   1      39.704  28.829  29.101  1.00  0.00     0.031 A 
ATOM     44  C   UNL A   1      40.722  29.720  29.772  1.00  0.00     0.074 A 
ATOM     45  C   UNL A   1      40.088  27.595  28.715  1.00  0.00     0.049 A 
ATOM     46  N   UNL A   1      41.974  29.466  30.068  1.00  0.00    -0.248 NA
ATOM     47  C   UNL A   1      40.279  31.070  30.147  1.00  0.00     0.031 C 
ATOM     48  C   UNL A   1      39.238  26.617  28.037  1.00  0.00     0.029 A 
ATOM     49  N   UNL A   1      41.298  26.950  28.839  1.00  0.00    -0.354 N 
ATOM     50  C   UNL A   1      42.472  30.624  30.654  1.00  0.00     0.074 A 
ATOM     51  C   UNL A   1      41.396  31.594  30.639  1.00  0.00     0.031 C 
ATOM     52  C   UNL A   1      39.943  25.492  27.826  1.00  0.00     0.029 A 
ATOM     53  C   UNL A   1      41.304  25.677  28.320  1.00  0.00     0.049 A 
ATOM     54  H   UNL A   1      42.087  27.363  29.260  1.00  0.00     0.167 HD
ATOM     55  C   UNL A   1      43.702  30.863  31.173  1.00  0.00     0.031 A 
ATOM     56  C   UNL A   1      42.287  24.758  28.240  1.00  0.00     0.031 A 
ATOM     57  C   UNL A   1      44.786  29.914  31.209  1.00  0.00     0.049 A 
ATOM     58  C   UNL A   1      43.653  25.057  28.792  1.00  0.00     0.074 A 
ATOM     59  C   UNL A   1      46.043  30.064  31.774  1.00  0.00     0.029 A 
ATOM     60  N   UNL A   1      44.749  28.646  30.656  1.00  0.00    -0.354 N 
ATOM     61  N   UNL A   1      44.078  26.134  29.403  1.00  0.00    -0.248 NA
ATOM     62  C   UNL A   1      44.674  24.006  28.646  1.00  0.00     0.031 C 
ATOM     63  C   UNL A   1      46.784  28.906  31.518  1.00  0.00     0.029 A 
ATOM     64  C   UNL A   1      45.971  28.016  30.839  1.00  0.00     0.049 A 
ATOM     65  H   UNL A   1      43.972  28.250  30.201  1.00  0.00     0.167 HD
ATOM     66  C   UNL A   1      45.404  25.881  29.738  1.00  0.00     0.074 A 
ATOM     67  C   UNL A   1      45.711  24.545  29.273  1.00  0.00     0.031 C 
ATOM     68  C   UNL A   1      46.282  26.688  30.379  1.00  0.00     0.031 A 
BRANCH  55  69
ATOM     69  C   UNL A   1      43.959  32.229  31.749  1.00  0.00    -0.014 A 
ATOM     70  C   UNL A   1      43.774  32.485  33.116  1.00  0.00     0.009 A 
ATOM     71  C   UNL A   1      44.458  33.250  30.926  1.00  0.00     0.009 A 
ATOM     72  C   UNL A   1      44.050  33.749  33.641  1.00  0.00     0.001 A 
ATOM     73  C   UNL A   1      44.758  34.506  31.458  1.00  0.00     0.001 A 
ATOM     74  C   UNL A   1      44.546  34.757  32.813  1.00  0.00     0.000 A 
ENDBRANCH  55  69
BRANCH  56  75
ATOM     75  C   UNL A   1      42.017  23.440  27.606  1.00  0.00    -0.014 A 
ATOM     76  C   UNL A   1      41.437  22.398  28.346  1.00  0.00     0.009 A 
ATOM     77  C   UNL A   1      42.360  23.212  26.265  1.00  0.00     0.009 A 
ATOM     78  C   UNL A   1      41.225  21.148  27.762  1.00  0.00     0.001 A 
ATOM     79  C   UNL A   1      42.122  21.969  25.675  1.00  0.00     0.001 A 
ATOM     80  C   UNL A   1      41.564  20.936  26.426  1.00  0.00     0.000 A 
ENDBRANCH  56  75
BRANCH  68  81
ATOM     81  C   UNL A   1      47.658  26.146  30.650  1.00  0.00    -0.014 A 
ATOM     82  C   UNL A   1      48.647  26.137  29.655  1.00  0.00     0.009 A 
ATOM     83  C   UNL A   1      47.982  25.679  31.935  1.00  0.00     0.009 A 
ATOM     84  C   UNL A   1      49.926  25.648  29.935  1.00  0.00     0.001 A 
ATOM     85  C   UNL A   1      49.268  25.215  32.217  1.00  0.00     0.001 A 
ATOM     86  C   UNL A   1      50.237  25.193  31.216  1.00  0.00     0.000 A 
ENDBRANCH  68  81
ENDBRANCH  42  43
ENDBRANCH  34  37
ENDBRANCH  32  33
ENDBRANCH  31  32
ENDBRANCH   1  31
TORSDOF 15
ENDMDL
MODEL 2
REMARK VINA RESULT:     -11.9      0.862      1.451
REMARK SMILES O=C(C[C@@H](C(=O)NCCCNC(=O)c1ccc(-c2c3nc(c(-c4ccccc4)c4ccc([nH]4)c(-c4ccccc4)c4nc(c(-c5ccccc5)c5ccc2[nH]5)C=C4)C=C3)cc1)[NH+]1CCN(c2cccc(Cl)c2)CC1)c1ccc(F)cc1
REMARK SMILES IDX 8 1 7 2 5 3 6 4 4 6 3 7 2 8 1 9 75 10 76 11 81 12 77 13
REMARK SMILES IDX 80 14 78 15 79 16 62 17 63 18 74 19 64 21 73 22 65 23 66 24
REMARK SMILES IDX 67 25 72 26 68 27 70 28 69 29 71 30 9 31 10 32 11 33 12 34
REMARK SMILES IDX 13 36 14 37 15 38 61 39 16 40 60 41 17 42 18 43 19 44 54 45
REMARK SMILES IDX 20 46 59 47 53 48 55 49 21 50 58 51 52 52 51 53 22 55 44 56
REMARK SMILES IDX 29 57 43 58 30 59 33 60 42 61 56 62 31 63 32 64 41 66 57 67
REMARK SMILES IDX 34 68 23 69 24 70 28 71 25 72 27 73 26 74 45 75 46 76 50 77
REMARK SMILES IDX 47 78 49 79 48 80 35 81 36 82 40 83 37 84 39 85 38 86
REMARK H PARENT 7 5 62 20 11 35 55 54 33 65
REMARK Flexibility Score: inf
ROOT
ATOM      1  C   UNL A   1      32.229  27.217  26.899  1.00  0.00     0.118 C 
ENDROOT
BRANCH   1   2
ATOM      2  N   UNL A   1      31.098  26.331  26.690  1.00  0.00    -0.351 N 
ATOM      3  C   UNL A   1      30.988  25.007  26.388  1.00  0.00     0.278 C 
ATOM      4  O   UNL A   1      29.869  24.525  26.609  1.00  0.00    -0.268 OA
ATOM      5  H   UNL A   1      30.229  26.782  26.785  1.00  0.00     0.163 HD
BRANCH   3   6
ATOM      6  C   UNL A   1      32.150  24.154  25.787  1.00  0.00     0.282 C 
BRANCH   6   7
ATOM      7  C   UNL A   1      32.510  24.356  24.314  1.00  0.00     0.156 C 
BRANCH   7   8
ATOM      8  C   UNL A   1      33.906  24.362  23.720  1.00  0.00     0.169 C 
ATOM      9  O   UNL A   1      34.095  25.081  22.730  1.00  0.00    -0.294 OA
BRANCH   8  10
ATOM     10  C   UNL A   1      35.116  23.683  24.297  1.00  0.00     0.018 A 
ATOM     11  C   UNL A   1      35.798  22.606  23.729  1.00  0.00     0.015 A 
ATOM     12  C   UNL A   1      35.655  24.245  25.469  1.00  0.00     0.015 A 
ATOM     13  C   UNL A   1      37.026  22.168  24.239  1.00  0.00     0.040 A 
ATOM     14  C   UNL A   1      36.859  23.784  26.007  1.00  0.00     0.040 A 
ATOM     15  C   UNL A   1      37.553  22.770  25.367  1.00  0.00     0.123 A 
ATOM     16  F   UNL A   1      38.751  22.389  25.827  1.00  0.00    -0.207 F 
ENDBRANCH   8  10
ENDBRANCH   7   8
ENDBRANCH   6   7
BRANCH   6  17
ATOM     17  N   UNL A   1      31.932  22.717  26.127  1.00  0.00    -0.321 N 
ATOM     18  C   UNL A   1      31.430  21.786  25.106  1.00  0.00     0.284 C 
ATOM     19  C   UNL A   1      32.855  22.048  27.058  1.00  0.00     0.284 C 
ATOM     20  H   UNL A   1      31.109  22.954  26.681  1.00  0.00     0.348 HD
ATOM     21  C   UNL A   1      32.481  20.906  24.393  1.00  0.00     0.178 C 
ATOM     22  C   UNL A   1      33.908  21.079  26.446  1.00  0.00     0.178 C 
ATOM     23  N   UNL A   1      33.339  20.262  25.376  1.00  0.00    -0.360 N 
BRANCH  23  24
ATOM     24  C   UNL A   1      33.588  18.919  25.203  1.00  0.00     0.038 A 
ATOM     25  C   UNL A   1      34.566  18.482  24.296  1.00  0.00     0.026 A 
ATOM     26  C   UNL A   1      32.752  17.966  25.788  1.00  0.00     0.046 A 
ATOM     27  C   UNL A   1      34.682  17.133  23.951  1.00  0.00     0.004 A 
ATOM     28  C   UNL A   1      32.852  16.621  25.427  1.00  0.00     0.043 A 
ATOM     29  C   UNL A   1      33.808  16.202  24.505  1.00  0.00     0.020 A 
ATOM     30  Cl  UNL A   1      31.741  15.478  26.078  1.00  0.00    -0.084 Cl
ENDBRANCH  23  24
ENDBRANCH   6  17
ENDBRANCH   3   6
ENDBRANCH   1   2
BRANCH   1  31
ATOM     31  C   UNL A   1      32.796  27.912  25.645  1.00  0.00     0.042 C 
BRANCH  31  32
ATOM     32  C   UNL A   1      34.005  28.848  25.790  1.00  0.00     0.118 C 
BRANCH  32  33
ATOM     33  N   UNL A   1      33.714  30.047  26.557  1.00  0.00    -0.352 N 
ATOM     34  C   UNL A   1      34.422  30.634  27.581  1.00  0.00     0.251 C 
ATOM     35  H   UNL A   1      32.882  30.510  26.306  1.00  0.00     0.163 HD
ATOM     36  O   UNL A   1      33.925  31.578  28.190  1.00  0.00    -0.269 OA
BRANCH  34  37
ATOM     37  C   UNL A   1      35.768  30.151  27.990  1.00  0.00     0.039 A 
ATOM     38  C   UNL A   1      35.938  29.676  29.296  1.00  0.00     0.014 A 
ATOM     39  C   UNL A   1      36.884  30.261  27.156  1.00  0.00     0.014 A 
ATOM     40  C   UNL A   1      37.200  29.264  29.745  1.00  0.00     0.010 A 
ATOM     41  C   UNL A   1      38.144  29.824  27.602  1.00  0.00     0.010 A 
ATOM     42  C   UNL A   1      38.319  29.309  28.897  1.00  0.00    -0.014 A 
BRANCH  42  43
ATOM     43  C   UNL A   1      39.648  28.799  29.356  1.00  0.00     0.031 A 
ATOM     44  C   UNL A   1      40.521  29.600  30.291  1.00  0.00     0.074 A 
ATOM     45  C   UNL A   1      40.105  27.609  28.914  1.00  0.00     0.049 A 
ATOM     46  N   UNL A   1      41.701  29.301  30.779  1.00  0.00    -0.248 NA
ATOM     47  C   UNL A   1      40.008  30.907  30.724  1.00  0.00     0.031 C 
ATOM     48  C   UNL A   1      39.398  26.720  27.991  1.00  0.00     0.029 A 
ATOM     49  N   UNL A   1      41.277  26.939  29.184  1.00  0.00    -0.354 N 
ATOM     50  C   UNL A   1      42.075  30.383  31.567  1.00  0.00     0.074 A 
ATOM     51  C   UNL A   1      41.013  31.361  31.462  1.00  0.00     0.031 C 
ATOM     52  C   UNL A   1      40.138  25.616  27.791  1.00  0.00     0.029 A 
ATOM     53  C   UNL A   1      41.386  25.729  28.540  1.00  0.00     0.049 A 
ATOM     54  H   UNL A   1      41.974  27.295  29.782  1.00  0.00     0.167 HD
ATOM     55  C   UNL A   1      43.190  30.549  32.322  1.00  0.00     0.031 A 
ATOM     56  C   UNL A   1      42.374  24.812  28.540  1.00  0.00     0.031 A 
ATOM     57  C   UNL A   1      44.257  29.589  32.451  1.00  0.00     0.049 A 
ATOM     58  C   UNL A   1      43.616  25.034  29.358  1.00  0.00     0.074 A 
ATOM     59  C   UNL A   1      45.389  29.662  33.246  1.00  0.00     0.029 A 
ATOM     60  N   UNL A   1      44.330  28.388  31.767  1.00  0.00    -0.354 N 
ATOM     61  N   UNL A   1      43.916  26.034  30.148  1.00  0.00    -0.248 NA
ATOM     62  C   UNL A   1      44.654  23.993  29.287  1.00  0.00     0.031 C 
ATOM     63  C   UNL A   1      46.174  28.529  33.005  1.00  0.00     0.029 A 
ATOM     64  C   UNL A   1      45.503  27.727  32.097  1.00  0.00     0.049 A 
ATOM     65  H   UNL A   1      43.651  28.052  31.138  1.00  0.00     0.167 HD
ATOM     66  C   UNL A   1      45.160  25.730  30.688  1.00  0.00     0.074 A 
ATOM     67  C   UNL A   1      45.556  24.449  30.145  1.00  0.00     0.031 C 
ATOM     68  C   UNL A   1      45.903  26.452  31.561  1.00  0.00     0.031 A 
BRANCH  55  69
ATOM     69  C   UNL A   1      43.329  31.842  33.079  1.00  0.00    -0.014 A 
ATOM     70  C   UNL A   1      43.947  32.960  32.497  1.00  0.00     0.009 A 
ATOM     71  C   UNL A   1      42.774  31.961  34.363  1.00  0.00     0.009 A 
ATOM     72  C   UNL A   1      44.037  34.162  33.201  1.00  0.00     0.001 A 
ATOM     73  C   UNL A   1      42.843  33.173  35.054  1.00  0.00     0.001 A 
ATOM     74  C   UNL A   1      43.482  34.269  34.476  1.00  0.00     0.000 A 
ENDBRANCH  55  69
BRANCH  56  75
ATOM     75  C   UNL A   1      42.234  23.574  27.729  1.00  0.00    -0.014 A 
ATOM     76  C   UNL A   1      42.603  23.563  26.375  1.00  0.00     0.009 A 
ATOM     77  C   UNL A   1      41.709  22.405  28.301  1.00  0.00     0.009 A 
ATOM     78  C   UNL A   1      42.429  22.412  25.605  1.00  0.00     0.001 A 
ATOM     79  C   UNL A   1      41.562  21.247  27.534  1.00  0.00     0.001 A 
ATOM     80  C   UNL A   1      41.913  21.254  26.186  1.00  0.00     0.000 A 
ENDBRANCH  56  75
BRANCH  68  81
ATOM     81  C   UNL A   1      47.211  25.868  32.015  1.00  0.00    -0.014 A 
ATOM     82  C   UNL A   1      48.387  26.045  31.272  1.00  0.00     0.009 A 
ATOM     83  C   UNL A   1      47.275  25.167  33.231  1.00  0.00     0.009 A 
ATOM     84  C   UNL A   1      49.597  25.512  31.723  1.00  0.00     0.001 A 
ATOM     85  C   UNL A   1      48.490  24.656  33.692  1.00  0.00     0.001 A 
ATOM     86  C   UNL A   1      49.648  24.823  32.936  1.00  0.00     0.000 A 
ENDBRANCH  68  81
ENDBRANCH  42  43
ENDBRANCH  34  37
ENDBRANCH  32  33
ENDBRANCH  31  32
ENDBRANCH   1  31
TORSDOF 15
ENDMDL
MODEL 3
REMARK VINA RESULT:     -11.9      1.124      5.776
REMARK SMILES O=C(C[C@@H](C(=O)NCCCNC(=O)c1ccc(-c2c3nc(c(-c4ccccc4)c4ccc([nH]4)c(-c4ccccc4)c4nc(c(-c5ccccc5)c5ccc2[nH]5)C=C4)C=C3)cc1)[NH+]1CCN(c2cccc(Cl)c2)CC1)c1ccc(F)cc1
REMARK SMILES IDX 8 1 7 2 5 3 6 4 4 6 3 7 2 8 1 9 75 10 76 11 81 12 77 13
REMARK SMILES IDX 80 14 78 15 79 16 62 17 63 18 74 19 64 21 73 22 65 23 66 24
REMARK SMILES IDX 67 25 72 26 68 27 70 28 69 29 71 30 9 31 10 32 11 33 12 34
REMARK SMILES IDX 13 36 14 37 15 38 61 39 16 40 60 41 17 42 18 43 19 44 54 45
REMARK SMILES IDX 20 46 59 47 53 48 55 49 21 50 58 51 52 52 51 53 22 55 44 56
REMARK SMILES IDX 29 57 43 58 30 59 33 60 42 61 56 62 31 63 32 64 41 66 57 67
REMARK SMILES IDX 34 68 23 69 24 70 28 71 25 72 27 73 26 74 45 75 46 76 50 77
REMARK SMILES IDX 47 78 49 79 48 80 35 81 36 82 40 83 37 84 39 85 38 86
REMARK H PARENT 7 5 62 20 11 35 55 54 33 65
REMARK Flexibility Score: inf
ROOT
ATOM      1  C   UNL A   1      32.260  27.371  26.944  1.00  0.00     0.118 C 
ENDROOT
BRANCH   1   2
ATOM      2  N   UNL A   1      31.150  26.454  26.759  1.00  0.00    -0.351 N 
ATOM      3  C   UNL A   1      31.067  25.151  26.367  1.00  0.00     0.278 C 
ATOM      4  O   UNL A   1      29.989  24.605  26.640  1.00  0.00    -0.268 OA
ATOM      5  H   UNL A   1      30.275  26.857  26.957  1.00  0.00     0.163 HD
BRANCH   3   6
ATOM      6  C   UNL A   1      32.206  24.396  25.613  1.00  0.00     0.282 C 
BRANCH   6   7
ATOM      7  C   UNL A   1      32.584  24.871  24.209  1.00  0.00     0.156 C 
BRANCH   7   8
ATOM      8  C   UNL A   1      33.916  24.660  23.514  1.00  0.00     0.169 C 
ATOM      9  O   UNL A   1      34.021  25.086  22.355  1.00  0.00    -0.294 OA
BRANCH   8  10
ATOM     10  C   UNL A   1      35.163  24.105  24.141  1.00  0.00     0.018 A 
ATOM     11  C   UNL A   1      35.650  24.420  25.410  1.00  0.00     0.015 A 
ATOM     12  C   UNL A   1      35.846  23.114  23.413  1.00  0.00     0.015 A 
ATOM     13  C   UNL A   1      36.709  23.707  25.984  1.00  0.00     0.040 A 
ATOM     14  C   UNL A   1      36.932  22.428  23.964  1.00  0.00     0.040 A 
ATOM     15  C   UNL A   1      37.333  22.707  25.260  1.00  0.00     0.123 A 
ATOM     16  F   UNL A   1      38.311  21.989  25.824  1.00  0.00    -0.207 F 
ENDBRANCH   8  10
ENDBRANCH   7   8
ENDBRANCH   6   7
BRANCH   6  17
ATOM     17  N   UNL A   1      31.943  22.928  25.665  1.00  0.00    -0.321 N 
ATOM     18  C   UNL A   1      31.470  22.222  24.466  1.00  0.00     0.284 C 
ATOM     19  C   UNL A   1      32.807  22.069  26.490  1.00  0.00     0.284 C 
ATOM     20  H   UNL A   1      31.100  23.081  26.219  1.00  0.00     0.348 HD
ATOM     21  C   UNL A   1      32.534  21.461  23.645  1.00  0.00     0.178 C 
ATOM     22  C   UNL A   1      33.867  21.202  25.751  1.00  0.00     0.178 C 
ATOM     23  N   UNL A   1      33.331  20.618  24.522  1.00  0.00    -0.360 N 
BRANCH  23  24
ATOM     24  C   UNL A   1      33.560  19.325  24.109  1.00  0.00     0.038 A 
ATOM     25  C   UNL A   1      32.737  18.723  23.145  1.00  0.00     0.026 A 
ATOM     26  C   UNL A   1      34.499  18.530  24.770  1.00  0.00     0.046 A 
ATOM     27  C   UNL A   1      32.819  17.355  22.874  1.00  0.00     0.004 A 
ATOM     28  C   UNL A   1      34.566  17.159  24.516  1.00  0.00     0.043 A 
ATOM     29  C   UNL A   1      33.725  16.566  23.577  1.00  0.00     0.020 A 
ATOM     30  Cl  UNL A   1      35.656  16.177  25.419  1.00  0.00    -0.084 Cl
ENDBRANCH  23  24
ENDBRANCH   6  17
ENDBRANCH   3   6
ENDBRANCH   1   2
BRANCH   1  31
ATOM     31  C   UNL A   1      32.821  28.034  25.670  1.00  0.00     0.042 C 
BRANCH  31  32
ATOM     32  C   UNL A   1      34.040  28.960  25.783  1.00  0.00     0.118 C 
BRANCH  32  33
ATOM     33  N   UNL A   1      33.753  30.206  26.473  1.00  0.00    -0.352 N 
ATOM     34  C   UNL A   1      34.420  30.815  27.512  1.00  0.00     0.251 C 
ATOM     35  H   UNL A   1      32.959  30.688  26.147  1.00  0.00     0.163 HD
ATOM     36  O   UNL A   1      33.926  31.806  28.043  1.00  0.00    -0.269 OA
BRANCH  34  37
ATOM     37  C   UNL A   1      35.716  30.300  28.028  1.00  0.00     0.039 A 
ATOM     38  C   UNL A   1      36.830  30.328  27.180  1.00  0.00     0.014 A 
ATOM     39  C   UNL A   1      35.831  29.692  29.280  1.00  0.00     0.014 A 
ATOM     40  C   UNL A   1      38.059  29.801  27.601  1.00  0.00     0.010 A 
ATOM     41  C   UNL A   1      37.071  29.187  29.709  1.00  0.00     0.010 A 
ATOM     42  C   UNL A   1      38.205  29.244  28.882  1.00  0.00    -0.014 A 
BRANCH  42  43
ATOM     43  C   UNL A   1      39.536  28.751  29.355  1.00  0.00     0.031 A 
ATOM     44  C   UNL A   1      40.091  27.423  28.903  1.00  0.00     0.074 A 
ATOM     45  C   UNL A   1      40.259  29.486  30.226  1.00  0.00     0.049 A 
ATOM     46  N   UNL A   1      41.228  26.851  29.223  1.00  0.00    -0.248 NA
ATOM     47  C   UNL A   1      39.262  26.633  27.982  1.00  0.00     0.031 C 
ATOM     48  C   UNL A   1      39.858  30.780  30.779  1.00  0.00     0.029 A 
ATOM     49  N   UNL A   1      41.487  29.248  30.800  1.00  0.00    -0.354 N 
ATOM     50  C   UNL A   1      41.246  25.633  28.553  1.00  0.00     0.074 A 
ATOM     51  C   UNL A   1      39.991  25.533  27.838  1.00  0.00     0.031 C 
ATOM     52  C   UNL A   1      40.829  31.231  31.591  1.00  0.00     0.029 A 
ATOM     53  C   UNL A   1      41.906  30.247  31.648  1.00  0.00     0.049 A 
ATOM     54  H   UNL A   1      42.016  28.437  30.621  1.00  0.00     0.167 HD
ATOM     55  C   UNL A   1      42.217  24.687  28.520  1.00  0.00     0.031 A 
ATOM     56  C   UNL A   1      43.023  30.364  32.393  1.00  0.00     0.031 A 
ATOM     57  C   UNL A   1      43.477  24.765  29.215  1.00  0.00     0.049 A 
ATOM     58  C   UNL A   1      44.071  29.286  32.366  1.00  0.00     0.074 A 
ATOM     59  C   UNL A   1      44.537  23.873  29.179  1.00  0.00     0.029 A 
ATOM     60  N   UNL A   1      43.848  25.786  30.073  1.00  0.00    -0.354 N 
ATOM     61  N   UNL A   1      44.095  28.176  31.672  1.00  0.00    -0.248 NA
ATOM     62  C   UNL A   1      45.250  29.484  33.225  1.00  0.00     0.031 C 
ATOM     63  C   UNL A   1      45.528  24.327  30.056  1.00  0.00     0.029 A 
ATOM     64  C   UNL A   1      45.106  25.529  30.597  1.00  0.00     0.049 A 
ATOM     65  H   UNL A   1      43.301  26.577  30.282  1.00  0.00     0.167 HD
ATOM     66  C   UNL A   1      45.300  27.559  31.988  1.00  0.00     0.074 A 
ATOM     67  C   UNL A   1      45.985  28.420  32.927  1.00  0.00     0.031 C 
ATOM     68  C   UNL A   1      45.792  26.382  31.532  1.00  0.00     0.031 A 
BRANCH  55  69
ATOM     69  C   UNL A   1      41.956  23.453  27.700  1.00  0.00    -0.014 A 
ATOM     70  C   UNL A   1      42.420  23.350  26.378  1.00  0.00     0.009 A 
ATOM     71  C   UNL A   1      41.299  22.356  28.278  1.00  0.00     0.009 A 
ATOM     72  C   UNL A   1      42.199  22.185  25.642  1.00  0.00     0.001 A 
ATOM     73  C   UNL A   1      41.102  21.183  27.547  1.00  0.00     0.001 A 
ATOM     74  C   UNL A   1      41.544  21.101  26.228  1.00  0.00     0.000 A 
ENDBRANCH  55  69
BRANCH  56  75
ATOM     75  C   UNL A   1      43.221  31.567  33.244  1.00  0.00    -0.014 A 
ATOM     76  C   UNL A   1      43.957  32.663  32.769  1.00  0.00     0.009 A 
ATOM     77  C   UNL A   1      42.692  31.614  34.543  1.00  0.00     0.009 A 
ATOM     78  C   UNL A   1      44.179  33.773  33.586  1.00  0.00     0.001 A 
ATOM     79  C   UNL A   1      42.893  32.738  35.348  1.00  0.00     0.001 A 
ATOM     80  C   UNL A   1      43.644  33.811  34.872  1.00  0.00     0.000 A 
ENDBRANCH  56  75
BRANCH  68  81
ATOM     81  C   UNL A   1      47.152  25.961  32.013  1.00  0.00    -0.014 A 
ATOM     82  C   UNL A   1      48.318  26.350  31.335  1.00  0.00     0.009 A 
ATOM     83  C   UNL A   1      47.271  25.201  33.188  1.00  0.00     0.009 A 
ATOM     84  C   UNL A   1      49.574  25.965  31.811  1.00  0.00     0.001 A 
ATOM     85  C   UNL A   1      48.528  24.840  33.675  1.00  0.00     0.001 A 
ATOM     86  C   UNL A   1      49.679  25.216  32.984  1.00  0.00     0.000 A 
ENDBRANCH  68  81
ENDBRANCH  42  43
ENDBRANCH  34  37
ENDBRANCH  32  33
ENDBRANCH  31  32
ENDBRANCH   1  31
TORSDOF 15
ENDMDL
