MODEL 1
REMARK VINA RESULT:     -13.5      0.000      0.000
REMARK SMILES O=C(NCCCNC(=O)C1(n2cnc3ccccc32)CC[NH+](Cc2cccc3nonc23)CC1)c1ccc(-c2c3nc(c(-c4ccccc4)c4ccc([nH]4)c(-c4ccccc4)c4nc(c(-c5ccccc5)c5ccc2[nH]5)C=C4)C=C3)cc1
REMARK SMILES IDX 5 1 4 2 3 3 1 4 2 5 35 7 36 8 82 9 37 10 81 11 38 12 39 13
REMARK SMILES IDX 40 14 75 15 41 16 80 17 74 18 76 19 42 20 79 21 73 22 72 23
REMARK SMILES IDX 43 25 65 26 50 27 64 28 51 29 54 30 63 31 77 32 52 33 53 34
REMARK SMILES IDX 62 36 78 37 55 38 44 39 45 40 49 41 46 42 48 43 47 44 66 45
REMARK SMILES IDX 67 46 71 47 68 48 70 49 69 50 56 51 57 52 61 53 58 54 60 55
REMARK SMILES IDX 59 56 6 57 7 58 8 59 9 61 10 62 20 63 34 64 21 65 33 66
REMARK SMILES IDX 22 67 11 69 12 70 19 71 13 72 14 73 18 74 15 75 17 76 16 77
REMARK SMILES IDX 23 78 24 79 25 80 32 81 26 82 28 83 31 84 27 85 29 86 30 87
REMARK H PARENT 3 6 76 24 54 35 7 60 22 68
REMARK Flexibility Score: inf
ROOT
ATOM      1  C   UNL A   1      33.826  28.993  27.032  1.00  0.00     0.042 C 
ENDROOT
BRANCH   1   2
ATOM      2  C   UNL A   1      35.280  29.104  27.425  1.00  0.00     0.118 C 
BRANCH   2   3
ATOM      3  N   UNL A   1      35.494  29.691  28.756  1.00  0.00    -0.352 N 
ATOM      4  O   UNL A   1      36.538  29.783  30.780  1.00  0.00    -0.269 OA
ATOM      5  C   UNL A   1      36.584  29.508  29.601  1.00  0.00     0.251 C 
ATOM      6  H   UNL A   1      34.782  30.284  29.088  1.00  0.00     0.163 HD
BRANCH   5   7
ATOM      7  C   UNL A   1      37.811  28.955  28.996  1.00  0.00     0.039 A 
ATOM      8  C   UNL A   1      38.418  29.521  27.877  1.00  0.00     0.014 A 
ATOM      9  C   UNL A   1      38.425  27.934  29.704  1.00  0.00     0.014 A 
ATOM     10  C   UNL A   1      39.707  29.106  27.552  1.00  0.00     0.010 A 
ATOM     11  C   UNL A   1      39.772  27.766  29.563  1.00  0.00     0.010 A 
ATOM     12  C   UNL A   1      40.398  28.251  28.430  1.00  0.00    -0.014 A 
BRANCH  12  13
ATOM     13  C   UNL A   1      41.792  27.879  28.216  1.00  0.00     0.031 A 
ATOM     14  C   UNL A   1      41.992  26.611  27.477  1.00  0.00     0.074 A 
ATOM     15  C   UNL A   1      42.842  28.663  28.548  1.00  0.00     0.049 A 
ATOM     16  N   UNL A   1      42.352  25.482  27.986  1.00  0.00    -0.248 NA
ATOM     17  C   UNL A   1      41.607  26.539  26.061  1.00  0.00     0.031 C 
ATOM     18  C   UNL A   1      42.852  30.051  29.037  1.00  0.00     0.029 A 
ATOM     19  N   UNL A   1      44.170  28.392  28.431  1.00  0.00    -0.354 N 
ATOM     20  C   UNL A   1      42.441  24.594  26.925  1.00  0.00     0.074 A 
ATOM     21  C   UNL A   1      41.802  25.243  25.806  1.00  0.00     0.031 C 
ATOM     22  C   UNL A   1      44.094  30.570  28.935  1.00  0.00     0.029 A 
ATOM     23  C   UNL A   1      44.999  29.493  28.594  1.00  0.00     0.049 A 
ATOM     24  H   UNL A   1      44.514  27.488  28.246  1.00  0.00     0.167 HD
ATOM     25  C   UNL A   1      43.254  23.505  26.998  1.00  0.00     0.031 A 
ATOM     26  C   UNL A   1      46.347  29.518  28.489  1.00  0.00     0.031 A 
ATOM     27  C   UNL A   1      43.675  23.257  28.357  1.00  0.00     0.049 A 
ATOM     28  C   UNL A   1      46.819  28.138  28.720  1.00  0.00     0.074 A 
ATOM     29  C   UNL A   1      43.022  22.964  29.538  1.00  0.00     0.029 A 
ATOM     30  N   UNL A   1      44.918  23.727  28.712  1.00  0.00    -0.354 N 
ATOM     31  N   UNL A   1      46.717  27.527  29.866  1.00  0.00    -0.248 NA
ATOM     32  C   UNL A   1      47.025  27.279  27.568  1.00  0.00     0.031 C 
ATOM     33  C   UNL A   1      43.728  23.691  30.541  1.00  0.00     0.029 A 
ATOM     34  C   UNL A   1      44.821  24.323  29.943  1.00  0.00     0.049 A 
ATOM     35  H   UNL A   1      45.738  23.648  28.174  1.00  0.00     0.167 HD
ATOM     36  C   UNL A   1      46.389  26.221  29.536  1.00  0.00     0.074 A 
ATOM     37  C   UNL A   1      46.721  26.101  28.118  1.00  0.00     0.031 C 
ATOM     38  C   UNL A   1      45.623  25.456  30.368  1.00  0.00     0.031 A 
BRANCH  25  39
ATOM     39  C   UNL A   1      43.996  22.934  25.816  1.00  0.00    -0.014 A 
ATOM     40  C   UNL A   1      45.029  23.612  25.143  1.00  0.00     0.009 A 
ATOM     41  C   UNL A   1      43.850  21.565  25.523  1.00  0.00     0.009 A 
ATOM     42  C   UNL A   1      45.887  22.966  24.249  1.00  0.00     0.001 A 
ATOM     43  C   UNL A   1      44.733  20.904  24.661  1.00  0.00     0.001 A 
ATOM     44  C   UNL A   1      45.755  21.603  24.029  1.00  0.00     0.000 A 
ENDBRANCH  25  39
BRANCH  26  45
ATOM     45  C   UNL A   1      47.195  30.554  27.866  1.00  0.00    -0.014 A 
ATOM     46  C   UNL A   1      48.385  30.963  28.494  1.00  0.00     0.009 A 
ATOM     47  C   UNL A   1      46.678  31.362  26.842  1.00  0.00     0.009 A 
ATOM     48  C   UNL A   1      48.998  32.175  28.157  1.00  0.00     0.001 A 
ATOM     49  C   UNL A   1      47.291  32.575  26.508  1.00  0.00     0.001 A 
ATOM     50  C   UNL A   1      48.437  32.992  27.181  1.00  0.00     0.000 A 
ENDBRANCH  26  45
BRANCH  38  51
ATOM     51  C   UNL A   1      45.384  25.948  31.781  1.00  0.00    -0.014 A 
ATOM     52  C   UNL A   1      46.243  25.483  32.790  1.00  0.00     0.009 A 
ATOM     53  C   UNL A   1      44.262  26.704  32.166  1.00  0.00     0.009 A 
ATOM     54  C   UNL A   1      45.982  25.744  34.138  1.00  0.00     0.001 A 
ATOM     55  C   UNL A   1      44.016  26.990  33.515  1.00  0.00     0.001 A 
ATOM     56  C   UNL A   1      44.870  26.499  34.501  1.00  0.00     0.000 A 
ENDBRANCH  38  51
ENDBRANCH  12  13
ENDBRANCH   5   7
ENDBRANCH   2   3
ENDBRANCH   1   2
BRANCH   1  57
ATOM     57  C   UNL A   1      33.530  27.724  26.239  1.00  0.00     0.117 C 
BRANCH  57  58
ATOM     58  N   UNL A   1      32.251  27.089  26.545  1.00  0.00    -0.354 N 
ATOM     59  C   UNL A   1      31.395  26.325  25.796  1.00  0.00     0.246 C 
ATOM     60  H   UNL A   1      31.945  27.239  27.468  1.00  0.00     0.163 HD
ATOM     61  O   UNL A   1      30.367  25.945  26.367  1.00  0.00    -0.272 OA
BRANCH  59  62
ATOM     62  C   UNL A   1      31.679  25.979  24.302  1.00  0.00     0.135 C 
ATOM     63  C   UNL A   1      30.697  24.913  23.734  1.00  0.00     0.101 C 
ATOM     64  C   UNL A   1      33.067  25.292  24.151  1.00  0.00     0.101 C 
ATOM     65  C   UNL A   1      30.805  23.561  24.439  1.00  0.00     0.265 C 
ATOM     66  C   UNL A   1      33.144  24.005  24.980  1.00  0.00     0.265 C 
ATOM     67  N   UNL A   1      32.166  23.039  24.494  1.00  0.00    -0.331 N 
ATOM     68  H   UNL A   1      32.413  22.868  23.520  1.00  0.00     0.348 HD
BRANCH  62  69
ATOM     69  N   UNL A   1      31.483  27.230  23.545  1.00  0.00    -0.315 N 
ATOM     70  C   UNL A   1      32.462  28.035  23.026  1.00  0.00     0.201 A 
ATOM     71  C   UNL A   1      30.268  27.859  23.296  1.00  0.00     0.069 A 
ATOM     72  N   UNL A   1      31.976  29.136  22.501  1.00  0.00    -0.237 NA
ATOM     73  C   UNL A   1      30.616  29.035  22.635  1.00  0.00     0.088 A 
ATOM     74  C   UNL A   1      28.925  27.542  23.574  1.00  0.00     0.028 A 
ATOM     75  C   UNL A   1      29.609  29.923  22.218  1.00  0.00     0.030 A 
ATOM     76  C   UNL A   1      27.935  28.422  23.120  1.00  0.00     0.002 A 
ATOM     77  C   UNL A   1      28.268  29.597  22.453  1.00  0.00     0.002 A 
ENDBRANCH  62  69
BRANCH  67  78
ATOM     78  C   UNL A   1      32.274  21.726  25.167  1.00  0.00     0.301 C 
BRANCH  78  79
ATOM     79  C   UNL A   1      32.325  20.506  24.280  1.00  0.00     0.038 A 
ATOM     80  C   UNL A   1      32.191  20.581  22.867  1.00  0.00     0.012 A 
ATOM     81  C   UNL A   1      32.528  19.180  24.735  1.00  0.00     0.144 A 
ATOM     82  C   UNL A   1      32.155  19.459  21.999  1.00  0.00     0.003 A 
ATOM     83  C   UNL A   1      32.525  18.027  23.836  1.00  0.00     0.135 A 
ATOM     84  N   UNL A   1      32.746  18.731  25.977  1.00  0.00    -0.049 NA
ATOM     85  C   UNL A   1      32.312  18.141  22.452  1.00  0.00     0.034 A 
ATOM     86  N   UNL A   1      32.747  16.926  24.563  1.00  0.00    -0.050 NA
ATOM     87  O   UNL A   1      32.901  17.359  25.866  1.00  0.00    -0.243 OA
ENDBRANCH  78  79
ENDBRANCH  67  78
ENDBRANCH  59  62
ENDBRANCH  57  58
ENDBRANCH   1  57
TORSDOF 13
ENDMDL
MODEL 2
REMARK VINA RESULT:     -13.5      2.082      5.902
REMARK SMILES O=C(NCCCNC(=O)C1(n2cnc3ccccc32)CC[NH+](Cc2cccc3nonc23)CC1)c1ccc(-c2c3nc(c(-c4ccccc4)c4ccc([nH]4)c(-c4ccccc4)c4nc(c(-c5ccccc5)c5ccc2[nH]5)C=C4)C=C3)cc1
REMARK SMILES IDX 5 1 4 2 3 3 1 4 2 5 35 7 36 8 82 9 37 10 81 11 38 12 39 13
REMARK SMILES IDX 40 14 75 15 41 16 80 17 74 18 76 19 42 20 79 21 73 22 72 23
REMARK SMILES IDX 43 25 65 26 50 27 64 28 51 29 54 30 63 31 77 32 52 33 53 34
REMARK SMILES IDX 62 36 78 37 55 38 44 39 45 40 49 41 46 42 48 43 47 44 66 45
REMARK SMILES IDX 67 46 71 47 68 48 70 49 69 50 56 51 57 52 61 53 58 54 60 55
REMARK SMILES IDX 59 56 6 57 7 58 8 59 9 61 10 62 20 63 34 64 21 65 33 66
REMARK SMILES IDX 22 67 11 69 12 70 19 71 13 72 14 73 18 74 15 75 17 76 16 77
REMARK SMILES IDX 23 78 24 79 25 80 32 81 26 82 28 83 31 84 27 85 29 86 30 87
REMARK H PARENT 3 6 76 24 54 35 7 60 22 68
REMARK Flexibility Score: inf
ROOT
ATOM      1  C   UNL A   1      33.417  28.373  27.295  1.00  0.00     0.042 C 
ENDROOT
BRANCH   1   2
ATOM      2  C   UNL A   1      34.543  29.193  26.710  1.00  0.00     0.118 C 
BRANCH   2   3
ATOM      3  N   UNL A   1      34.425  30.635  26.966  1.00  0.00    -0.352 N 
ATOM      4  O   UNL A   1      34.660  32.479  28.287  1.00  0.00    -0.269 OA
ATOM      5  C   UNL A   1      35.044  31.373  27.971  1.00  0.00     0.251 C 
ATOM      6  H   UNL A   1      33.841  31.138  26.355  1.00  0.00     0.163 HD
BRANCH   5   7
ATOM      7  C   UNL A   1      36.196  30.746  28.646  1.00  0.00     0.039 A 
ATOM      8  C   UNL A   1      36.051  29.866  29.717  1.00  0.00     0.014 A 
ATOM      9  C   UNL A   1      37.430  30.952  28.050  1.00  0.00     0.014 A 
ATOM     10  C   UNL A   1      37.161  29.117  30.102  1.00  0.00     0.010 A 
ATOM     11  C   UNL A   1      38.401  30.011  28.229  1.00  0.00     0.010 A 
ATOM     12  C   UNL A   1      38.331  29.166  29.321  1.00  0.00    -0.014 A 
BRANCH  12  13
ATOM     13  C   UNL A   1      39.483  28.314  29.594  1.00  0.00     0.031 A 
ATOM     14  C   UNL A   1      39.862  28.217  31.022  1.00  0.00     0.074 A 
ATOM     15  C   UNL A   1      40.107  27.566  28.656  1.00  0.00     0.049 A 
ATOM     16  N   UNL A   1      40.865  28.800  31.585  1.00  0.00    -0.248 NA
ATOM     17  C   UNL A   1      38.957  27.536  31.958  1.00  0.00     0.031 C 
ATOM     18  C   UNL A   1      39.726  27.316  27.256  1.00  0.00     0.029 A 
ATOM     19  N   UNL A   1      41.206  26.778  28.798  1.00  0.00    -0.354 N 
ATOM     20  C   UNL A   1      40.847  28.399  32.912  1.00  0.00     0.074 A 
ATOM     21  C   UNL A   1      39.563  27.777  33.124  1.00  0.00     0.031 C 
ATOM     22  C   UNL A   1      40.420  26.267  26.767  1.00  0.00     0.029 A 
ATOM     23  C   UNL A   1      41.443  25.923  27.731  1.00  0.00     0.049 A 
ATOM     24  H   UNL A   1      41.787  26.813  29.592  1.00  0.00     0.167 HD
ATOM     25  C   UNL A   1      41.990  28.394  33.651  1.00  0.00     0.031 A 
ATOM     26  C   UNL A   1      42.434  25.010  27.626  1.00  0.00     0.031 A 
ATOM     27  C   UNL A   1      43.037  29.146  33.001  1.00  0.00     0.049 A 
ATOM     28  C   UNL A   1      43.511  25.440  28.542  1.00  0.00     0.074 A 
ATOM     29  C   UNL A   1      43.187  30.461  32.608  1.00  0.00     0.029 A 
ATOM     30  N   UNL A   1      43.958  28.423  32.280  1.00  0.00    -0.354 N 
ATOM     31  N   UNL A   1      44.214  26.522  28.364  1.00  0.00    -0.248 NA
ATOM     32  C   UNL A   1      43.530  24.893  29.887  1.00  0.00     0.031 C 
ATOM     33  C   UNL A   1      43.869  30.399  31.358  1.00  0.00     0.029 A 
ATOM     34  C   UNL A   1      44.175  29.063  31.086  1.00  0.00     0.049 A 
ATOM     35  H   UNL A   1      44.390  27.588  32.572  1.00  0.00     0.167 HD
ATOM     36  C   UNL A   1      44.382  27.041  29.639  1.00  0.00     0.074 A 
ATOM     37  C   UNL A   1      44.056  25.934  30.537  1.00  0.00     0.031 C 
ATOM     38  C   UNL A   1      44.493  28.386  29.842  1.00  0.00     0.031 A 
BRANCH  25  39
ATOM     39  C   UNL A   1      42.287  27.377  34.725  1.00  0.00    -0.014 A 
ATOM     40  C   UNL A   1      41.883  27.520  36.066  1.00  0.00     0.009 A 
ATOM     41  C   UNL A   1      42.751  26.106  34.342  1.00  0.00     0.009 A 
ATOM     42  C   UNL A   1      41.913  26.456  36.970  1.00  0.00     0.001 A 
ATOM     43  C   UNL A   1      42.744  25.026  35.233  1.00  0.00     0.001 A 
ATOM     44  C   UNL A   1      42.319  25.200  36.545  1.00  0.00     0.000 A 
ENDBRANCH  25  39
BRANCH  26  45
ATOM     45  C   UNL A   1      42.362  23.642  27.074  1.00  0.00    -0.014 A 
ATOM     46  C   UNL A   1      41.464  22.707  27.621  1.00  0.00     0.009 A 
ATOM     47  C   UNL A   1      43.387  23.165  26.243  1.00  0.00     0.009 A 
ATOM     48  C   UNL A   1      41.632  21.335  27.403  1.00  0.00     0.001 A 
ATOM     49  C   UNL A   1      43.554  21.792  26.029  1.00  0.00     0.001 A 
ATOM     50  C   UNL A   1      42.691  20.877  26.626  1.00  0.00     0.000 A 
ENDBRANCH  26  45
BRANCH  38  51
ATOM     51  C   UNL A   1      44.727  29.278  28.640  1.00  0.00    -0.014 A 
ATOM     52  C   UNL A   1      46.055  29.547  28.272  1.00  0.00     0.009 A 
ATOM     53  C   UNL A   1      43.704  29.982  27.979  1.00  0.00     0.009 A 
ATOM     54  C   UNL A   1      46.356  30.499  27.294  1.00  0.00     0.001 A 
ATOM     55  C   UNL A   1      44.004  30.915  26.978  1.00  0.00     0.001 A 
ATOM     56  C   UNL A   1      45.331  31.181  26.645  1.00  0.00     0.000 A 
ENDBRANCH  38  51
ENDBRANCH  12  13
ENDBRANCH   5   7
ENDBRANCH   2   3
ENDBRANCH   1   2
BRANCH   1  57
ATOM     57  C   UNL A   1      32.098  28.580  26.557  1.00  0.00     0.117 C 
BRANCH  57  58
ATOM     58  N   UNL A   1      31.119  27.512  26.732  1.00  0.00    -0.354 N 
ATOM     59  C   UNL A   1      30.839  26.386  26.004  1.00  0.00     0.246 C 
ATOM     60  H   UNL A   1      30.549  27.622  27.528  1.00  0.00     0.163 HD
ATOM     61  O   UNL A   1      29.918  25.680  26.430  1.00  0.00    -0.272 OA
BRANCH  59  62
ATOM     62  C   UNL A   1      31.610  26.027  24.697  1.00  0.00     0.135 C 
ATOM     63  C   UNL A   1      30.991  24.810  23.949  1.00  0.00     0.101 C 
ATOM     64  C   UNL A   1      33.051  25.540  25.026  1.00  0.00     0.101 C 
ATOM     65  C   UNL A   1      31.045  23.516  24.760  1.00  0.00     0.265 C 
ATOM     66  C   UNL A   1      33.029  24.310  25.940  1.00  0.00     0.265 C 
ATOM     67  N   UNL A   1      32.376  23.197  25.263  1.00  0.00    -0.331 N 
ATOM     68  H   UNL A   1      32.931  23.024  24.425  1.00  0.00     0.348 HD
BRANCH  62  69
ATOM     69  N   UNL A   1      31.503  27.206  23.818  1.00  0.00    -0.315 N 
ATOM     70  C   UNL A   1      32.537  27.950  23.316  1.00  0.00     0.201 A 
ATOM     71  C   UNL A   1      30.325  27.824  23.410  1.00  0.00     0.069 A 
ATOM     72  N   UNL A   1      32.119  29.005  22.655  1.00  0.00    -0.237 NA
ATOM     73  C   UNL A   1      30.751  28.932  22.680  1.00  0.00     0.088 A 
ATOM     74  C   UNL A   1      28.958  27.550  23.599  1.00  0.00     0.028 A 
ATOM     75  C   UNL A   1      29.800  29.790  22.101  1.00  0.00     0.030 A 
ATOM     76  C   UNL A   1      28.027  28.397  22.986  1.00  0.00     0.002 A 
ATOM     77  C   UNL A   1      28.438  29.503  22.248  1.00  0.00     0.002 A 
ENDBRANCH  62  69
BRANCH  67  78
ATOM     78  C   UNL A   1      32.433  21.939  26.041  1.00  0.00     0.301 C 
BRANCH  78  79
ATOM     79  C   UNL A   1      33.328  20.847  25.508  1.00  0.00     0.038 A 
ATOM     80  C   UNL A   1      32.819  19.624  24.991  1.00  0.00     0.012 A 
ATOM     81  C   UNL A   1      34.741  20.915  25.443  1.00  0.00     0.144 A 
ATOM     82  C   UNL A   1      33.620  18.538  24.552  1.00  0.00     0.003 A 
ATOM     83  C   UNL A   1      35.565  19.809  24.959  1.00  0.00     0.135 A 
ATOM     84  N   UNL A   1      35.562  21.917  25.782  1.00  0.00    -0.049 NA
ATOM     85  C   UNL A   1      35.021  18.587  24.527  1.00  0.00     0.034 A 
ATOM     86  N   UNL A   1      36.848  20.182  25.015  1.00  0.00    -0.050 NA
ATOM     87  O   UNL A   1      36.843  21.476  25.500  1.00  0.00    -0.243 OA
ENDBRANCH  78  79
ENDBRANCH  67  78
ENDBRANCH  59  62
ENDBRANCH  57  58
ENDBRANCH   1  57
TORSDOF 13
ENDMDL
MODEL 3
REMARK VINA RESULT:     -13.4      2.686      8.034
REMARK SMILES O=C(NCCCNC(=O)C1(n2cnc3ccccc32)CC[NH+](Cc2cccc3nonc23)CC1)c1ccc(-c2c3nc(c(-c4ccccc4)c4ccc([nH]4)c(-c4ccccc4)c4nc(c(-c5ccccc5)c5ccc2[nH]5)C=C4)C=C3)cc1
REMARK SMILES IDX 5 1 4 2 3 3 1 4 2 5 35 7 36 8 82 9 37 10 81 11 38 12 39 13
REMARK SMILES IDX 40 14 75 15 41 16 80 17 74 18 76 19 42 20 79 21 73 22 72 23
REMARK SMILES IDX 43 25 65 26 50 27 64 28 51 29 54 30 63 31 77 32 52 33 53 34
REMARK SMILES IDX 62 36 78 37 55 38 44 39 45 40 49 41 46 42 48 43 47 44 66 45
REMARK SMILES IDX 67 46 71 47 68 48 70 49 69 50 56 51 57 52 61 53 58 54 60 55
REMARK SMILES IDX 59 56 6 57 7 58 8 59 9 61 10 62 20 63 34 64 21 65 33 66
REMARK SMILES IDX 22 67 11 69 12 70 19 71 13 72 14 73 18 74 15 75 17 76 16 77
REMARK SMILES IDX 23 78 24 79 25 80 32 81 26 82 28 83 31 84 27 85 29 86 30 87
REMARK H PARENT 3 6 76 24 54 35 7 60 22 68
REMARK Flexibility Score: inf
ROOT
ATOM      1  C   UNL A   1      36.910  21.289  24.482  1.00  0.00     0.042 C 
ENDROOT
BRANCH   1   2
ATOM      2  C   UNL A   1      38.145  21.311  25.353  1.00  0.00     0.118 C 
BRANCH   2   3
ATOM      3  N   UNL A   1      38.803  20.004  25.486  1.00  0.00    -0.352 N 
ATOM      4  O   UNL A   1      40.652  18.675  25.607  1.00  0.00    -0.269 OA
ATOM      5  C   UNL A   1      40.132  19.750  25.812  1.00  0.00     0.251 C 
ATOM      6  H   UNL A   1      38.237  19.215  25.328  1.00  0.00     0.163 HD
BRANCH   5   7
ATOM      7  C   UNL A   1      40.893  20.859  26.419  1.00  0.00     0.039 A 
ATOM      8  C   UNL A   1      41.526  21.841  25.660  1.00  0.00     0.014 A 
ATOM      9  C   UNL A   1      40.807  20.965  27.798  1.00  0.00     0.014 A 
ATOM     10  C   UNL A   1      41.974  22.986  26.314  1.00  0.00     0.010 A 
ATOM     11  C   UNL A   1      40.967  22.196  28.365  1.00  0.00     0.010 A 
ATOM     12  C   UNL A   1      41.653  23.175  27.671  1.00  0.00    -0.014 A 
BRANCH  12  13
ATOM     13  C   UNL A   1      41.981  24.405  28.382  1.00  0.00     0.031 A 
ATOM     14  C   UNL A   1      41.033  25.522  28.166  1.00  0.00     0.074 A 
ATOM     15  C   UNL A   1      42.996  24.517  29.269  1.00  0.00     0.049 A 
ATOM     16  N   UNL A   1      41.233  26.558  27.424  1.00  0.00    -0.248 NA
ATOM     17  C   UNL A   1      39.666  25.413  28.694  1.00  0.00     0.031 C 
ATOM     18  C   UNL A   1      43.874  23.471  29.819  1.00  0.00     0.029 A 
ATOM     19  N   UNL A   1      43.408  25.621  29.947  1.00  0.00    -0.354 N 
ATOM     20  C   UNL A   1      40.098  27.344  27.549  1.00  0.00     0.074 A 
ATOM     21  C   UNL A   1      39.105  26.514  28.187  1.00  0.00     0.031 C 
ATOM     22  C   UNL A   1      44.527  23.937  30.904  1.00  0.00     0.029 A 
ATOM     23  C   UNL A   1      44.291  25.363  30.987  1.00  0.00     0.049 A 
ATOM     24  H   UNL A   1      43.105  26.530  29.719  1.00  0.00     0.167 HD
ATOM     25  C   UNL A   1      40.157  28.688  27.338  1.00  0.00     0.031 A 
ATOM     26  C   UNL A   1      44.823  26.262  31.844  1.00  0.00     0.031 A 
ATOM     27  C   UNL A   1      41.385  29.059  26.675  1.00  0.00     0.049 A 
ATOM     28  C   UNL A   1      44.760  27.579  31.176  1.00  0.00     0.074 A 
ATOM     29  C   UNL A   1      41.965  28.751  25.461  1.00  0.00     0.029 A 
ATOM     30  N   UNL A   1      42.399  29.530  27.476  1.00  0.00    -0.354 N 
ATOM     31  N   UNL A   1      45.452  27.878  30.115  1.00  0.00    -0.248 NA
ATOM     32  C   UNL A   1      43.612  28.428  31.436  1.00  0.00     0.031 C 
ATOM     33  C   UNL A   1      43.357  28.625  25.737  1.00  0.00     0.029 A 
ATOM     34  C   UNL A   1      43.573  28.942  27.081  1.00  0.00     0.049 A 
ATOM     35  H   UNL A   1      42.300  30.180  28.208  1.00  0.00     0.167 HD
ATOM     36  C   UNL A   1      44.589  28.637  29.339  1.00  0.00     0.074 A 
ATOM     37  C   UNL A   1      43.529  29.049  30.257  1.00  0.00     0.031 C 
ATOM     38  C   UNL A   1      44.670  28.622  27.976  1.00  0.00     0.031 A 
BRANCH  25  39
ATOM     39  C   UNL A   1      39.324  29.691  28.097  1.00  0.00    -0.014 A 
ATOM     40  C   UNL A   1      38.015  30.053  27.729  1.00  0.00     0.009 A 
ATOM     41  C   UNL A   1      39.751  30.094  29.376  1.00  0.00     0.009 A 
ATOM     42  C   UNL A   1      37.166  30.753  28.590  1.00  0.00     0.001 A 
ATOM     43  C   UNL A   1      38.890  30.758  30.257  1.00  0.00     0.001 A 
ATOM     44  C   UNL A   1      37.596  31.082  29.866  1.00  0.00     0.000 A 
ENDBRANCH  25  39
BRANCH  26  45
ATOM     45  C   UNL A   1      45.043  26.119  33.297  1.00  0.00    -0.014 A 
ATOM     46  C   UNL A   1      44.141  25.375  34.078  1.00  0.00     0.009 A 
ATOM     47  C   UNL A   1      45.940  26.973  33.958  1.00  0.00     0.009 A 
ATOM     48  C   UNL A   1      44.089  25.533  35.467  1.00  0.00     0.001 A 
ATOM     49  C   UNL A   1      45.884  27.132  35.348  1.00  0.00     0.001 A 
ATOM     50  C   UNL A   1      44.945  26.430  36.099  1.00  0.00     0.000 A 
ENDBRANCH  26  45
BRANCH  38  51
ATOM     51  C   UNL A   1      45.894  28.002  27.335  1.00  0.00    -0.014 A 
ATOM     52  C   UNL A   1      46.910  28.864  26.893  1.00  0.00     0.009 A 
ATOM     53  C   UNL A   1      45.998  26.637  27.007  1.00  0.00     0.009 A 
ATOM     54  C   UNL A   1      47.983  28.388  26.133  1.00  0.00     0.001 A 
ATOM     55  C   UNL A   1      47.087  26.156  26.271  1.00  0.00     0.001 A 
ATOM     56  C   UNL A   1      48.073  27.034  25.824  1.00  0.00     0.000 A 
ENDBRANCH  38  51
ENDBRANCH  12  13
ENDBRANCH   5   7
ENDBRANCH   2   3
ENDBRANCH   1   2
BRANCH   1  57
ATOM     57  C   UNL A   1      36.141  22.606  24.523  1.00  0.00     0.117 C 
BRANCH  57  58
ATOM     58  N   UNL A   1      35.391  22.920  23.311  1.00  0.00    -0.354 N 
ATOM     59  C   UNL A   1      34.068  23.199  23.089  1.00  0.00     0.246 C 
ATOM     60  H   UNL A   1      35.942  22.935  22.496  1.00  0.00     0.163 HD
ATOM     61  O   UNL A   1      33.750  23.415  21.914  1.00  0.00    -0.272 OA
BRANCH  59  62
ATOM     62  C   UNL A   1      33.016  23.212  24.240  1.00  0.00     0.135 C 
ATOM     63  C   UNL A   1      31.555  23.350  23.717  1.00  0.00     0.101 C 
ATOM     64  C   UNL A   1      33.190  24.478  25.129  1.00  0.00     0.101 C 
ATOM     65  C   UNL A   1      31.300  24.667  22.987  1.00  0.00     0.265 C 
ATOM     66  C   UNL A   1      33.039  25.762  24.306  1.00  0.00     0.265 C 
ATOM     67  N   UNL A   1      31.693  25.845  23.753  1.00  0.00    -0.331 N 
ATOM     68  H   UNL A   1      31.067  25.845  24.558  1.00  0.00     0.348 HD
BRANCH  62  69
ATOM     69  N   UNL A   1      33.136  21.911  24.923  1.00  0.00    -0.315 N 
ATOM     70  C   UNL A   1      33.584  21.694  26.199  1.00  0.00     0.201 A 
ATOM     71  C   UNL A   1      32.894  20.661  24.362  1.00  0.00     0.069 A 
ATOM     72  N   UNL A   1      33.681  20.416  26.484  1.00  0.00    -0.237 NA
ATOM     73  C   UNL A   1      33.234  19.759  25.368  1.00  0.00     0.088 A 
ATOM     74  C   UNL A   1      32.431  20.223  23.108  1.00  0.00     0.028 A 
ATOM     75  C   UNL A   1      33.097  18.379  25.139  1.00  0.00     0.030 A 
ATOM     76  C   UNL A   1      32.270  18.846  22.911  1.00  0.00     0.002 A 
ATOM     77  C   UNL A   1      32.598  17.934  23.909  1.00  0.00     0.002 A 
ENDBRANCH  62  69
BRANCH  67  78
ATOM     78  C   UNL A   1      31.439  27.123  23.053  1.00  0.00     0.301 C 
BRANCH  78  79
ATOM     79  C   UNL A   1      30.022  27.642  23.071  1.00  0.00     0.038 A 
ATOM     80  C   UNL A   1      28.988  27.018  23.822  1.00  0.00     0.012 A 
ATOM     81  C   UNL A   1      29.569  28.792  22.379  1.00  0.00     0.144 A 
ATOM     82  C   UNL A   1      27.627  27.421  23.810  1.00  0.00     0.003 A 
ATOM     83  C   UNL A   1      28.174  29.226  22.395  1.00  0.00     0.135 A 
ATOM     84  N   UNL A   1      30.258  29.657  21.624  1.00  0.00    -0.049 NA
ATOM     85  C   UNL A   1      27.168  28.533  23.091  1.00  0.00     0.034 A 
ATOM     86  N   UNL A   1      28.069  30.338  21.658  1.00  0.00    -0.050 NA
ATOM     87  O   UNL A   1      29.346  30.609  21.203  1.00  0.00    -0.243 OA
ENDBRANCH  78  79
ENDBRANCH  67  78
ENDBRANCH  59  62
ENDBRANCH  57  58
ENDBRANCH   1  57
TORSDOF 13
ENDMDL
