MODEL 1
REMARK VINA RESULT:     -10.7      0.000      0.000
REMARK SMILES O=C(NCCCNC(=O)c1sccc1NS(=O)(=O)N1CCCC1)c1ccc(-c2c3nc(c(-c4ccccc4)c4ccc([nH]4)c(-c4ccccc4)c4nc(c(-c5ccccc5)c5ccc2[nH]5)C=C4)C=C3)cc1
REMARK SMILES IDX 5 1 4 2 3 3 1 4 2 5 24 7 25 8 71 9 26 10 70 11 27 12 28 13
REMARK SMILES IDX 29 14 64 15 30 16 69 17 63 18 65 19 31 20 68 21 62 22 61 23
REMARK SMILES IDX 32 25 54 26 39 27 53 28 40 29 43 30 52 31 66 32 41 33 42 34
REMARK SMILES IDX 51 36 67 37 44 38 33 39 34 40 38 41 35 42 37 43 36 44 55 45
REMARK SMILES IDX 56 46 60 47 57 48 59 49 58 50 45 51 46 52 50 53 47 54 49 55
REMARK SMILES IDX 48 56 6 57 7 58 8 59 9 61 10 62 11 63 14 64 12 65 13 66
REMARK SMILES IDX 15 67 16 69 17 70 18 71 19 72 20 73 23 74 21 75 22 76
REMARK H PARENT 3 6 65 24 43 35 7 60 15 68
REMARK Flexibility Score: inf
ROOT
ATOM      1  C   UNL A   1      38.032  20.098  24.835  1.00  0.00     0.042 C 
ENDROOT
BRANCH   1   2
ATOM      2  C   UNL A   1      38.920  20.085  26.066  1.00  0.00     0.118 C 
BRANCH   2   3
ATOM      3  N   UNL A   1      40.109  19.259  25.909  1.00  0.00    -0.352 N 
ATOM      4  O   UNL A   1      42.302  18.771  25.725  1.00  0.00    -0.269 OA
ATOM      5  C   UNL A   1      41.438  19.581  26.045  1.00  0.00     0.251 C 
ATOM      6  H   UNL A   1      39.932  18.321  25.667  1.00  0.00     0.163 HD
BRANCH   5   7
ATOM      7  C   UNL A   1      41.832  20.911  26.557  1.00  0.00     0.039 A 
ATOM      8  C   UNL A   1      41.914  21.153  27.929  1.00  0.00     0.014 A 
ATOM      9  C   UNL A   1      42.144  21.924  25.647  1.00  0.00     0.014 A 
ATOM     10  C   UNL A   1      42.136  22.443  28.391  1.00  0.00     0.010 A 
ATOM     11  C   UNL A   1      42.479  23.195  26.116  1.00  0.00     0.010 A 
ATOM     12  C   UNL A   1      42.450  23.472  27.492  1.00  0.00    -0.014 A 
BRANCH  12  13
ATOM     13  C   UNL A   1      42.825  24.808  28.014  1.00  0.00     0.031 A 
ATOM     14  C   UNL A   1      41.787  25.853  28.300  1.00  0.00     0.074 A 
ATOM     15  C   UNL A   1      44.129  25.076  28.217  1.00  0.00     0.049 A 
ATOM     16  N   UNL A   1      41.951  27.082  28.719  1.00  0.00    -0.248 NA
ATOM     17  C   UNL A   1      40.383  25.476  28.077  1.00  0.00     0.031 C 
ATOM     18  C   UNL A   1      45.230  24.139  27.970  1.00  0.00     0.029 A 
ATOM     19  N   UNL A   1      44.752  26.208  28.675  1.00  0.00    -0.354 N 
ATOM     20  C   UNL A   1      40.678  27.635  28.785  1.00  0.00     0.074 A 
ATOM     21  C   UNL A   1      39.755  26.614  28.337  1.00  0.00     0.031 C 
ATOM     22  C   UNL A   1      46.388  24.725  28.302  1.00  0.00     0.029 A 
ATOM     23  C   UNL A   1      46.120  26.100  28.709  1.00  0.00     0.049 A 
ATOM     24  H   UNL A   1      44.266  27.018  28.951  1.00  0.00     0.167 HD
ATOM     25  C   UNL A   1      40.317  28.879  29.180  1.00  0.00     0.031 A 
ATOM     26  C   UNL A   1      47.066  27.013  28.994  1.00  0.00     0.031 A 
ATOM     27  C   UNL A   1      41.248  29.893  29.606  1.00  0.00     0.049 A 
ATOM     28  C   UNL A   1      46.645  28.399  29.379  1.00  0.00     0.074 A 
ATOM     29  C   UNL A   1      40.980  31.171  30.065  1.00  0.00     0.029 A 
ATOM     30  N   UNL A   1      42.628  29.750  29.606  1.00  0.00    -0.354 N 
ATOM     31  N   UNL A   1      45.435  28.891  29.486  1.00  0.00    -0.248 NA
ATOM     32  C   UNL A   1      47.717  29.353  29.684  1.00  0.00     0.031 C 
ATOM     33  C   UNL A   1      42.199  31.825  30.272  1.00  0.00     0.029 A 
ATOM     34  C   UNL A   1      43.227  30.930  30.018  1.00  0.00     0.049 A 
ATOM     35  H   UNL A   1      43.112  28.931  29.352  1.00  0.00     0.167 HD
ATOM     36  C   UNL A   1      45.597  30.208  29.893  1.00  0.00     0.074 A 
ATOM     37  C   UNL A   1      47.023  30.432  30.026  1.00  0.00     0.031 C 
ATOM     38  C   UNL A   1      44.647  31.143  30.138  1.00  0.00     0.031 A 
BRANCH  25  39
ATOM     39  C   UNL A   1      38.853  29.229  29.117  1.00  0.00    -0.014 A 
ATOM     40  C   UNL A   1      38.005  29.067  30.224  1.00  0.00     0.009 A 
ATOM     41  C   UNL A   1      38.316  29.747  27.927  1.00  0.00     0.009 A 
ATOM     42  C   UNL A   1      36.643  29.365  30.126  1.00  0.00     0.001 A 
ATOM     43  C   UNL A   1      36.962  30.076  27.841  1.00  0.00     0.001 A 
ATOM     44  C   UNL A   1      36.124  29.871  28.934  1.00  0.00     0.000 A 
ENDBRANCH  25  39
BRANCH  26  45
ATOM     45  C   UNL A   1      48.497  26.633  28.883  1.00  0.00    -0.014 A 
ATOM     46  C   UNL A   1      49.177  26.064  29.969  1.00  0.00     0.009 A 
ATOM     47  C   UNL A   1      49.176  26.790  27.663  1.00  0.00     0.009 A 
ATOM     48  C   UNL A   1      50.512  25.673  29.838  1.00  0.00     0.001 A 
ATOM     49  C   UNL A   1      50.499  26.368  27.526  1.00  0.00     0.001 A 
ATOM     50  C   UNL A   1      51.168  25.817  28.616  1.00  0.00     0.000 A 
ENDBRANCH  26  45
BRANCH  38  51
ATOM     51  C   UNL A   1      45.114  32.491  30.612  1.00  0.00    -0.014 A 
ATOM     52  C   UNL A   1      45.317  32.760  31.976  1.00  0.00     0.009 A 
ATOM     53  C   UNL A   1      45.417  33.488  29.671  1.00  0.00     0.009 A 
ATOM     54  C   UNL A   1      45.790  34.008  32.385  1.00  0.00     0.001 A 
ATOM     55  C   UNL A   1      45.919  34.723  30.081  1.00  0.00     0.001 A 
ATOM     56  C   UNL A   1      46.100  34.985  31.438  1.00  0.00     0.000 A 
ENDBRANCH  38  51
ENDBRANCH  12  13
ENDBRANCH   5   7
ENDBRANCH   2   3
ENDBRANCH   1   2
BRANCH   1  57
ATOM     57  C   UNL A   1      37.233  21.376  24.657  1.00  0.00     0.118 C 
BRANCH  57  58
ATOM     58  N   UNL A   1      36.560  21.815  25.866  1.00  0.00    -0.351 N 
ATOM     59  C   UNL A   1      35.437  22.599  25.990  1.00  0.00     0.263 C 
ATOM     60  H   UNL A   1      36.961  21.509  26.712  1.00  0.00     0.163 HD
ATOM     61  O   UNL A   1      35.147  22.984  27.122  1.00  0.00    -0.268 OA
BRANCH  59  62
ATOM     62  C   UNL A   1      34.673  22.927  24.805  1.00  0.00     0.116 A 
ATOM     63  S   UNL A   1      34.626  24.578  24.343  1.00  0.00    -0.136 S 
ATOM     64  C   UNL A   1      33.936  22.116  23.950  1.00  0.00     0.073 A 
ATOM     65  C   UNL A   1      33.670  24.234  22.979  1.00  0.00     0.068 A 
ATOM     66  C   UNL A   1      33.375  22.893  22.888  1.00  0.00     0.039 A 
BRANCH  64  67
ATOM     67  N   UNL A   1      33.689  20.730  24.129  1.00  0.00    -0.269 N 
ATOM     68  H   UNL A   1      34.147  20.093  23.535  1.00  0.00     0.181 HD
BRANCH  67  69
ATOM     69  S   UNL A   1      32.648  20.123  25.309  1.00  0.00     0.301 S 
ATOM     70  O   UNL A   1      33.407  19.971  26.527  1.00  0.00    -0.189 OA
ATOM     71  O   UNL A   1      31.461  20.949  25.286  1.00  0.00    -0.189 OA
BRANCH  69  72
ATOM     72  N   UNL A   1      32.262  18.596  24.732  1.00  0.00    -0.185 NA
ATOM     73  C   UNL A   1      32.744  17.441  25.525  1.00  0.00     0.104 C 
ATOM     74  C   UNL A   1      32.601  18.350  23.304  1.00  0.00     0.104 C 
ATOM     75  C   UNL A   1      33.896  16.894  24.702  1.00  0.00     0.018 C 
ATOM     76  C   UNL A   1      33.396  17.053  23.279  1.00  0.00     0.018 C 
ENDBRANCH  69  72
ENDBRANCH  67  69
ENDBRANCH  64  67
ENDBRANCH  59  62
ENDBRANCH  57  58
ENDBRANCH   1  57
TORSDOF 13
ENDMDL
MODEL 2
REMARK VINA RESULT:     -10.7      3.914      8.385
REMARK SMILES O=C(NCCCNC(=O)c1sccc1NS(=O)(=O)N1CCCC1)c1ccc(-c2c3nc(c(-c4ccccc4)c4ccc([nH]4)c(-c4ccccc4)c4nc(c(-c5ccccc5)c5ccc2[nH]5)C=C4)C=C3)cc1
REMARK SMILES IDX 5 1 4 2 3 3 1 4 2 5 24 7 25 8 71 9 26 10 70 11 27 12 28 13
REMARK SMILES IDX 29 14 64 15 30 16 69 17 63 18 65 19 31 20 68 21 62 22 61 23
REMARK SMILES IDX 32 25 54 26 39 27 53 28 40 29 43 30 52 31 66 32 41 33 42 34
REMARK SMILES IDX 51 36 67 37 44 38 33 39 34 40 38 41 35 42 37 43 36 44 55 45
REMARK SMILES IDX 56 46 60 47 57 48 59 49 58 50 45 51 46 52 50 53 47 54 49 55
REMARK SMILES IDX 48 56 6 57 7 58 8 59 9 61 10 62 11 63 14 64 12 65 13 66
REMARK SMILES IDX 15 67 16 69 17 70 18 71 19 72 20 73 23 74 21 75 22 76
REMARK H PARENT 3 6 65 24 43 35 7 60 15 68
REMARK Flexibility Score: inf
ROOT
ATOM      1  C   UNL A   1      34.044  28.116  25.839  1.00  0.00     0.042 C 
ENDROOT
BRANCH   1   2
ATOM      2  C   UNL A   1      33.741  28.398  27.299  1.00  0.00     0.118 C 
BRANCH   2   3
ATOM      3  N   UNL A   1      33.613  29.818  27.596  1.00  0.00    -0.352 N 
ATOM      4  O   UNL A   1      34.156  31.826  28.463  1.00  0.00    -0.269 OA
ATOM      5  C   UNL A   1      34.511  30.692  28.160  1.00  0.00     0.251 C 
ATOM      6  H   UNL A   1      32.745  30.215  27.354  1.00  0.00     0.163 HD
BRANCH   5   7
ATOM      7  C   UNL A   1      35.901  30.263  28.424  1.00  0.00     0.039 A 
ATOM      8  C   UNL A   1      36.882  30.374  27.438  1.00  0.00     0.014 A 
ATOM      9  C   UNL A   1      36.228  29.759  29.685  1.00  0.00     0.014 A 
ATOM     10  C   UNL A   1      38.140  29.827  27.651  1.00  0.00     0.010 A 
ATOM     11  C   UNL A   1      37.528  29.314  29.936  1.00  0.00     0.010 A 
ATOM     12  C   UNL A   1      38.487  29.317  28.910  1.00  0.00    -0.014 A 
BRANCH  12  13
ATOM     13  C   UNL A   1      39.878  28.871  29.160  1.00  0.00     0.031 A 
ATOM     14  C   UNL A   1      40.894  29.791  29.771  1.00  0.00     0.074 A 
ATOM     15  C   UNL A   1      40.223  27.617  28.812  1.00  0.00     0.049 A 
ATOM     16  N   UNL A   1      42.160  29.570  30.016  1.00  0.00    -0.248 NA
ATOM     17  C   UNL A   1      40.434  31.136  30.147  1.00  0.00     0.031 C 
ATOM     18  C   UNL A   1      39.322  26.633  28.205  1.00  0.00     0.029 A 
ATOM     19  N   UNL A   1      41.417  26.953  28.917  1.00  0.00    -0.354 N 
ATOM     20  C   UNL A   1      42.657  30.753  30.549  1.00  0.00     0.074 A 
ATOM     21  C   UNL A   1      41.559  31.697  30.567  1.00  0.00     0.031 C 
ATOM     22  C   UNL A   1      39.987  25.486  28.014  1.00  0.00     0.029 A 
ATOM     23  C   UNL A   1      41.377  25.678  28.411  1.00  0.00     0.049 A 
ATOM     24  H   UNL A   1      42.225  27.352  29.314  1.00  0.00     0.167 HD
ATOM     25  C   UNL A   1      43.912  31.025  30.980  1.00  0.00     0.031 A 
ATOM     26  C   UNL A   1      42.354  24.769  28.242  1.00  0.00     0.031 A 
ATOM     27  C   UNL A   1      45.001  30.082  30.941  1.00  0.00     0.049 A 
ATOM     28  C   UNL A   1      43.747  25.109  28.679  1.00  0.00     0.074 A 
ATOM     29  C   UNL A   1      46.299  30.245  31.392  1.00  0.00     0.029 A 
ATOM     30  N   UNL A   1      44.923  28.805  30.401  1.00  0.00    -0.354 N 
ATOM     31  N   UNL A   1      44.190  26.214  29.229  1.00  0.00    -0.248 NA
ATOM     32  C   UNL A   1      44.773  24.080  28.476  1.00  0.00     0.031 C 
ATOM     33  C   UNL A   1      47.025  29.097  31.058  1.00  0.00     0.029 A 
ATOM     34  C   UNL A   1      46.161  28.186  30.471  1.00  0.00     0.049 A 
ATOM     35  H   UNL A   1      44.109  28.400  30.025  1.00  0.00     0.167 HD
ATOM     36  C   UNL A   1      45.542  26.007  29.459  1.00  0.00     0.074 A 
ATOM     37  C   UNL A   1      45.843  24.665  29.000  1.00  0.00     0.031 C 
ATOM     38  C   UNL A   1      46.450  26.853  30.004  1.00  0.00     0.031 A 
BRANCH  25  39
ATOM     39  C   UNL A   1      44.186  32.418  31.484  1.00  0.00    -0.014 A 
ATOM     40  C   UNL A   1      44.035  32.759  32.837  1.00  0.00     0.009 A 
ATOM     41  C   UNL A   1      44.621  33.405  30.584  1.00  0.00     0.009 A 
ATOM     42  C   UNL A   1      44.261  34.070  33.268  1.00  0.00     0.001 A 
ATOM     43  C   UNL A   1      44.879  34.705  31.022  1.00  0.00     0.001 A 
ATOM     44  C   UNL A   1      44.684  35.040  32.360  1.00  0.00     0.000 A 
ENDBRANCH  25  39
BRANCH  26  45
ATOM     45  C   UNL A   1      42.034  23.471  27.595  1.00  0.00    -0.014 A 
ATOM     46  C   UNL A   1      42.309  23.255  26.238  1.00  0.00     0.009 A 
ATOM     47  C   UNL A   1      41.497  22.418  28.356  1.00  0.00     0.009 A 
ATOM     48  C   UNL A   1      42.041  22.016  25.653  1.00  0.00     0.001 A 
ATOM     49  C   UNL A   1      41.261  21.171  27.776  1.00  0.00     0.001 A 
ATOM     50  C   UNL A   1      41.526  20.973  26.422  1.00  0.00     0.000 A 
ENDBRANCH  26  45
BRANCH  38  51
ATOM     51  C   UNL A   1      47.854  26.342  30.172  1.00  0.00    -0.014 A 
ATOM     52  C   UNL A   1      48.294  25.794  31.388  1.00  0.00     0.009 A 
ATOM     53  C   UNL A   1      48.729  26.354  29.075  1.00  0.00     0.009 A 
ATOM     54  C   UNL A   1      49.591  25.289  31.504  1.00  0.00     0.001 A 
ATOM     55  C   UNL A   1      50.013  25.821  29.185  1.00  0.00     0.001 A 
ATOM     56  C   UNL A   1      50.445  25.294  30.402  1.00  0.00     0.000 A 
ENDBRANCH  38  51
ENDBRANCH  12  13
ENDBRANCH   5   7
ENDBRANCH   2   3
ENDBRANCH   1   2
BRANCH   1  57
ATOM     57  C   UNL A   1      33.220  28.934  24.863  1.00  0.00     0.118 C 
BRANCH  57  58
ATOM     58  N   UNL A   1      33.803  29.020  23.536  1.00  0.00    -0.351 N 
ATOM     59  C   UNL A   1      33.753  28.102  22.513  1.00  0.00     0.263 C 
ATOM     60  H   UNL A   1      34.301  29.847  23.343  1.00  0.00     0.163 HD
ATOM     61  O   UNL A   1      34.468  28.317  21.535  1.00  0.00    -0.268 OA
BRANCH  59  62
ATOM     62  C   UNL A   1      32.882  26.953  22.640  1.00  0.00     0.116 A 
ATOM     63  S   UNL A   1      33.628  25.446  22.981  1.00  0.00    -0.136 S 
ATOM     64  C   UNL A   1      31.502  26.845  22.520  1.00  0.00     0.073 A 
ATOM     65  C   UNL A   1      32.130  24.643  23.023  1.00  0.00     0.068 A 
ATOM     66  C   UNL A   1      31.084  25.499  22.762  1.00  0.00     0.039 A 
BRANCH  64  67
ATOM     67  N   UNL A   1      30.619  27.887  22.132  1.00  0.00    -0.269 N 
ATOM     68  H   UNL A   1      30.647  28.201  21.200  1.00  0.00     0.181 HD
BRANCH  67  69
ATOM     69  S   UNL A   1      29.527  28.612  23.193  1.00  0.00     0.301 S 
ATOM     70  O   UNL A   1      28.212  28.104  22.883  1.00  0.00    -0.189 OA
ATOM     71  O   UNL A   1      30.073  28.465  24.523  1.00  0.00    -0.189 OA
BRANCH  69  72
ATOM     72  N   UNL A   1      29.584  30.231  22.756  1.00  0.00    -0.185 NA
ATOM     73  C   UNL A   1      29.130  31.212  23.768  1.00  0.00     0.104 C 
ATOM     74  C   UNL A   1      28.927  30.565  21.462  1.00  0.00     0.104 C 
ATOM     75  C   UNL A   1      27.771  31.656  23.257  1.00  0.00     0.018 C 
ATOM     76  C   UNL A   1      27.983  31.721  21.757  1.00  0.00     0.018 C 
ENDBRANCH  69  72
ENDBRANCH  67  69
ENDBRANCH  64  67
ENDBRANCH  59  62
ENDBRANCH  57  58
ENDBRANCH   1  57
TORSDOF 13
ENDMDL
MODEL 3
REMARK VINA RESULT:     -10.6      1.304      2.778
REMARK SMILES O=C(NCCCNC(=O)c1sccc1NS(=O)(=O)N1CCCC1)c1ccc(-c2c3nc(c(-c4ccccc4)c4ccc([nH]4)c(-c4ccccc4)c4nc(c(-c5ccccc5)c5ccc2[nH]5)C=C4)C=C3)cc1
REMARK SMILES IDX 5 1 4 2 3 3 1 4 2 5 24 7 25 8 71 9 26 10 70 11 27 12 28 13
REMARK SMILES IDX 29 14 64 15 30 16 69 17 63 18 65 19 31 20 68 21 62 22 61 23
REMARK SMILES IDX 32 25 54 26 39 27 53 28 40 29 43 30 52 31 66 32 41 33 42 34
REMARK SMILES IDX 51 36 67 37 44 38 33 39 34 40 38 41 35 42 37 43 36 44 55 45
REMARK SMILES IDX 56 46 60 47 57 48 59 49 58 50 45 51 46 52 50 53 47 54 49 55
REMARK SMILES IDX 48 56 6 57 7 58 8 59 9 61 10 62 11 63 14 64 12 65 13 66
REMARK SMILES IDX 15 67 16 69 17 70 18 71 19 72 20 73 23 74 21 75 22 76
REMARK H PARENT 3 6 65 24 43 35 7 60 15 68
REMARK Flexibility Score: inf
ROOT
ATOM      1  C   UNL A   1      37.782  19.779  24.813  1.00  0.00     0.042 C 
ENDROOT
BRANCH   1   2
ATOM      2  C   UNL A   1      38.826  20.141  25.852  1.00  0.00     0.118 C 
BRANCH   2   3
ATOM      3  N   UNL A   1      39.986  19.260  25.835  1.00  0.00    -0.352 N 
ATOM      4  O   UNL A   1      42.161  18.673  25.871  1.00  0.00    -0.269 OA
ATOM      5  C   UNL A   1      41.310  19.531  26.082  1.00  0.00     0.251 C 
ATOM      6  H   UNL A   1      39.789  18.322  25.610  1.00  0.00     0.163 HD
BRANCH   5   7
ATOM      7  C   UNL A   1      41.716  20.861  26.582  1.00  0.00     0.039 A 
ATOM      8  C   UNL A   1      41.761  21.127  27.951  1.00  0.00     0.014 A 
ATOM      9  C   UNL A   1      42.077  21.851  25.664  1.00  0.00     0.014 A 
ATOM     10  C   UNL A   1      41.997  22.420  28.397  1.00  0.00     0.010 A 
ATOM     11  C   UNL A   1      42.425  23.123  26.121  1.00  0.00     0.010 A 
ATOM     12  C   UNL A   1      42.359  23.426  27.490  1.00  0.00    -0.014 A 
BRANCH  12  13
ATOM     13  C   UNL A   1      42.747  24.763  27.999  1.00  0.00     0.031 A 
ATOM     14  C   UNL A   1      41.716  25.814  28.292  1.00  0.00     0.074 A 
ATOM     15  C   UNL A   1      44.054  25.027  28.184  1.00  0.00     0.049 A 
ATOM     16  N   UNL A   1      41.891  27.045  28.702  1.00  0.00    -0.248 NA
ATOM     17  C   UNL A   1      40.308  25.442  28.089  1.00  0.00     0.031 C 
ATOM     18  C   UNL A   1      45.148  24.084  27.929  1.00  0.00     0.029 A 
ATOM     19  N   UNL A   1      44.687  26.158  28.628  1.00  0.00    -0.354 N 
ATOM     20  C   UNL A   1      40.622  27.603  28.780  1.00  0.00     0.074 A 
ATOM     21  C   UNL A   1      39.688  26.584  28.351  1.00  0.00     0.031 C 
ATOM     22  C   UNL A   1      46.312  24.667  28.243  1.00  0.00     0.029 A 
ATOM     23  C   UNL A   1      46.055  26.045  28.645  1.00  0.00     0.049 A 
ATOM     24  H   UNL A   1      44.208  26.972  28.905  1.00  0.00     0.167 HD
ATOM     25  C   UNL A   1      40.270  28.852  29.173  1.00  0.00     0.031 A 
ATOM     26  C   UNL A   1      47.009  26.956  28.912  1.00  0.00     0.031 A 
ATOM     27  C   UNL A   1      41.211  29.864  29.581  1.00  0.00     0.049 A 
ATOM     28  C   UNL A   1      46.599  28.346  29.294  1.00  0.00     0.074 A 
ATOM     29  C   UNL A   1      40.954  31.145  30.037  1.00  0.00     0.029 A 
ATOM     30  N   UNL A   1      42.591  29.715  29.565  1.00  0.00    -0.354 N 
ATOM     31  N   UNL A   1      45.392  28.844  29.415  1.00  0.00    -0.248 NA
ATOM     32  C   UNL A   1      47.678  29.298  29.581  1.00  0.00     0.031 C 
ATOM     33  C   UNL A   1      42.179  31.796  30.224  1.00  0.00     0.029 A 
ATOM     34  C   UNL A   1      43.199  30.895  29.963  1.00  0.00     0.049 A 
ATOM     35  H   UNL A   1      43.067  28.893  29.309  1.00  0.00     0.167 HD
ATOM     36  C   UNL A   1      45.564  30.162  29.812  1.00  0.00     0.074 A 
ATOM     37  C   UNL A   1      46.993  30.381  29.925  1.00  0.00     0.031 C 
ATOM     38  C   UNL A   1      44.622  31.103  30.063  1.00  0.00     0.031 A 
BRANCH  25  39
ATOM     39  C   UNL A   1      38.807  29.207  29.127  1.00  0.00    -0.014 A 
ATOM     40  C   UNL A   1      37.971  29.045  30.243  1.00  0.00     0.009 A 
ATOM     41  C   UNL A   1      38.259  29.730  27.944  1.00  0.00     0.009 A 
ATOM     42  C   UNL A   1      36.609  29.349  30.159  1.00  0.00     0.001 A 
ATOM     43  C   UNL A   1      36.906  30.065  27.873  1.00  0.00     0.001 A 
ATOM     44  C   UNL A   1      36.079  29.860  28.975  1.00  0.00     0.000 A 
ENDBRANCH  25  39
BRANCH  26  45
ATOM     45  C   UNL A   1      48.436  26.569  28.786  1.00  0.00    -0.014 A 
ATOM     46  C   UNL A   1      49.118  25.971  29.855  1.00  0.00     0.009 A 
ATOM     47  C   UNL A   1      49.110  26.750  27.566  1.00  0.00     0.009 A 
ATOM     48  C   UNL A   1      50.449  25.575  29.709  1.00  0.00     0.001 A 
ATOM     49  C   UNL A   1      50.430  26.323  27.413  1.00  0.00     0.001 A 
ATOM     50  C   UNL A   1      51.101  25.742  28.487  1.00  0.00     0.000 A 
ENDBRANCH  26  45
BRANCH  38  51
ATOM     51  C   UNL A   1      45.100  32.452  30.524  1.00  0.00    -0.014 A 
ATOM     52  C   UNL A   1      45.342  33.494  29.614  1.00  0.00     0.009 A 
ATOM     53  C   UNL A   1      45.251  32.700  31.897  1.00  0.00     0.009 A 
ATOM     54  C   UNL A   1      45.746  34.749  30.072  1.00  0.00     0.001 A 
ATOM     55  C   UNL A   1      45.624  33.964  32.354  1.00  0.00     0.001 A 
ATOM     56  C   UNL A   1      45.878  34.986  31.440  1.00  0.00     0.000 A 
ENDBRANCH  38  51
ENDBRANCH  12  13
ENDBRANCH   5   7
ENDBRANCH   2   3
ENDBRANCH   1   2
BRANCH   1  57
ATOM     57  C   UNL A   1      36.693  20.821  24.635  1.00  0.00     0.118 C 
BRANCH  57  58
ATOM     58  N   UNL A   1      35.940  21.089  25.845  1.00  0.00    -0.351 N 
ATOM     59  C   UNL A   1      34.577  21.124  26.022  1.00  0.00     0.263 C 
ATOM     60  H   UNL A   1      36.478  21.271  26.650  1.00  0.00     0.163 HD
ATOM     61  O   UNL A   1      34.163  21.543  27.103  1.00  0.00    -0.268 OA
BRANCH  59  62
ATOM     62  C   UNL A   1      33.716  20.679  24.947  1.00  0.00     0.116 A 
ATOM     63  S   UNL A   1      33.592  18.985  24.701  1.00  0.00    -0.136 S 
ATOM     64  C   UNL A   1      32.951  21.403  24.040  1.00  0.00     0.073 A 
ATOM     65  C   UNL A   1      32.489  19.189  23.423  1.00  0.00     0.068 A 
ATOM     66  C   UNL A   1      32.234  20.518  23.175  1.00  0.00     0.039 A 
BRANCH  64  67
ATOM     67  N   UNL A   1      32.931  22.816  23.915  1.00  0.00    -0.269 N 
ATOM     68  H   UNL A   1      32.358  23.333  24.525  1.00  0.00     0.181 HD
BRANCH  67  69
ATOM     69  S   UNL A   1      33.842  23.653  22.767  1.00  0.00     0.301 S 
ATOM     70  O   UNL A   1      35.234  23.492  23.112  1.00  0.00    -0.189 OA
ATOM     71  O   UNL A   1      33.358  23.244  21.468  1.00  0.00    -0.189 OA
BRANCH  69  72
ATOM     72  N   UNL A   1      33.414  25.253  23.030  1.00  0.00    -0.185 NA
ATOM     73  C   UNL A   1      32.316  25.502  23.992  1.00  0.00     0.104 C 
ATOM     74  C   UNL A   1      33.141  26.049  21.802  1.00  0.00     0.104 C 
ATOM     75  C   UNL A   1      31.139  25.872  23.109  1.00  0.00     0.018 C 
ATOM     76  C   UNL A   1      31.786  26.706  22.021  1.00  0.00     0.018 C 
ENDBRANCH  69  72
ENDBRANCH  67  69
ENDBRANCH  64  67
ENDBRANCH  59  62
ENDBRANCH  57  58
ENDBRANCH   1  57
TORSDOF 13
ENDMDL
