MODEL 1
REMARK VINA RESULT:     -12.4      0.000      0.000
REMARK SMILES O=C(NCCCNC(=O)[C@H]1[C@@H](C(=O)NN2CCOCC2)[C@H]2C=C[C@@H]1CC2)c1ccc(-c2c3nc(c(-c4ccccc4)c4ccc([nH]4)c(-c4ccccc4)c4nc(c(-c5ccccc5)c5ccc2[nH]5)C=C4)C=C3)cc1
REMARK SMILES IDX 5 1 4 2 3 3 1 4 2 5 27 7 28 8 74 9 29 10 73 11 30 12 31 13
REMARK SMILES IDX 32 14 67 15 33 16 72 17 66 18 68 19 34 20 71 21 65 22 64 23
REMARK SMILES IDX 35 25 57 26 42 27 56 28 43 29 46 30 55 31 69 32 44 33 45 34
REMARK SMILES IDX 54 36 70 37 47 38 36 39 37 40 41 41 38 42 40 43 39 44 58 45
REMARK SMILES IDX 59 46 63 47 60 48 62 49 61 50 48 51 49 52 53 53 50 54 52 55
REMARK SMILES IDX 51 56 6 57 7 58 8 59 9 61 10 62 11 63 24 64 21 65 23 66
REMARK SMILES IDX 25 67 22 68 26 69 12 70 13 71 14 72 15 74 16 75 20 76 17 77
REMARK SMILES IDX 19 78 18 79
REMARK H PARENT 3 6 68 24 46 35 7 60 14 73
REMARK Flexibility Score: inf
ROOT
ATOM      1  C   UNL A   1      31.534  32.228  26.494  1.00  0.00     0.042 C 
ENDROOT
BRANCH   1   2
ATOM      2  C   UNL A   1      32.644  32.798  27.370  1.00  0.00     0.118 C 
BRANCH   2   3
ATOM      3  N   UNL A   1      32.445  34.220  27.612  1.00  0.00    -0.352 N 
ATOM      4  O   UNL A   1      32.462  36.096  28.854  1.00  0.00    -0.269 OA
ATOM      5  C   UNL A   1      32.983  35.012  28.589  1.00  0.00     0.251 C 
ATOM      6  H   UNL A   1      31.838  34.675  26.984  1.00  0.00     0.163 HD
BRANCH   5   7
ATOM      7  C   UNL A   1      34.199  34.582  29.306  1.00  0.00     0.039 A 
ATOM      8  C   UNL A   1      34.099  34.016  30.580  1.00  0.00     0.014 A 
ATOM      9  C   UNL A   1      35.437  34.651  28.661  1.00  0.00     0.014 A 
ATOM     10  C   UNL A   1      35.241  33.598  31.246  1.00  0.00     0.010 A 
ATOM     11  C   UNL A   1      36.573  34.144  29.293  1.00  0.00     0.010 A 
ATOM     12  C   UNL A   1      36.478  33.605  30.585  1.00  0.00    -0.014 A 
BRANCH  12  13
ATOM     13  C   UNL A   1      37.616  32.883  31.195  1.00  0.00     0.031 A 
ATOM     14  C   UNL A   1      38.225  31.682  30.539  1.00  0.00     0.074 A 
ATOM     15  C   UNL A   1      38.082  33.335  32.378  1.00  0.00     0.049 A 
ATOM     16  N   UNL A   1      39.205  30.929  30.965  1.00  0.00    -0.248 NA
ATOM     17  C   UNL A   1      37.663  31.265  29.245  1.00  0.00     0.031 C 
ATOM     18  C   UNL A   1      37.544  34.489  33.109  1.00  0.00     0.029 A 
ATOM     19  N   UNL A   1      39.106  32.894  33.172  1.00  0.00    -0.354 N 
ATOM     20  C   UNL A   1      39.364  29.935  30.009  1.00  0.00     0.074 A 
ATOM     21  C   UNL A   1      38.373  30.174  28.981  1.00  0.00     0.031 C 
ATOM     22  C   UNL A   1      38.263  34.682  34.222  1.00  0.00     0.029 A 
ATOM     23  C   UNL A   1      39.259  33.625  34.324  1.00  0.00     0.049 A 
ATOM     24  H   UNL A   1      39.677  32.126  32.939  1.00  0.00     0.167 HD
ATOM     25  C   UNL A   1      40.256  28.917  30.001  1.00  0.00     0.031 A 
ATOM     26  C   UNL A   1      40.082  33.444  35.372  1.00  0.00     0.031 A 
ATOM     27  C   UNL A   1      41.238  28.698  31.032  1.00  0.00     0.049 A 
ATOM     28  C   UNL A   1      41.025  32.279  35.347  1.00  0.00     0.074 A 
ATOM     29  C   UNL A   1      42.230  27.733  31.081  1.00  0.00     0.029 A 
ATOM     30  N   UNL A   1      41.342  29.440  32.197  1.00  0.00    -0.354 N 
ATOM     31  N   UNL A   1      41.212  31.391  34.401  1.00  0.00    -0.248 NA
ATOM     32  C   UNL A   1      41.863  32.083  36.537  1.00  0.00     0.031 C 
ATOM     33  C   UNL A   1      42.890  27.851  32.308  1.00  0.00     0.029 A 
ATOM     34  C   UNL A   1      42.349  28.924  32.995  1.00  0.00     0.049 A 
ATOM     35  H   UNL A   1      40.783  30.219  32.423  1.00  0.00     0.167 HD
ATOM     36  C   UNL A   1      42.191  30.534  34.878  1.00  0.00     0.074 A 
ATOM     37  C   UNL A   1      42.583  31.027  36.182  1.00  0.00     0.031 C 
ATOM     38  C   UNL A   1      42.712  29.428  34.295  1.00  0.00     0.031 A 
BRANCH  25  39
ATOM     39  C   UNL A   1      40.200  27.934  28.867  1.00  0.00    -0.014 A 
ATOM     40  C   UNL A   1      40.918  28.144  27.680  1.00  0.00     0.009 A 
ATOM     41  C   UNL A   1      39.494  26.731  29.032  1.00  0.00     0.009 A 
ATOM     42  C   UNL A   1      40.917  27.172  26.675  1.00  0.00     0.001 A 
ATOM     43  C   UNL A   1      39.513  25.754  28.036  1.00  0.00     0.001 A 
ATOM     44  C   UNL A   1      40.223  25.976  26.856  1.00  0.00     0.000 A 
ENDBRANCH  25  39
BRANCH  26  45
ATOM     45  C   UNL A   1      40.000  34.343  36.552  1.00  0.00    -0.014 A 
ATOM     46  C   UNL A   1      40.763  35.518  36.617  1.00  0.00     0.009 A 
ATOM     47  C   UNL A   1      39.160  34.020  37.630  1.00  0.00     0.009 A 
ATOM     48  C   UNL A   1      40.707  36.334  37.750  1.00  0.00     0.001 A 
ATOM     49  C   UNL A   1      39.080  34.854  38.745  1.00  0.00     0.001 A 
ATOM     50  C   UNL A   1      39.864  36.004  38.810  1.00  0.00     0.000 A 
ENDBRANCH  26  45
BRANCH  38  51
ATOM     51  C   UNL A   1      43.764  28.687  35.067  1.00  0.00    -0.014 A 
ATOM     52  C   UNL A   1      45.120  29.018  34.934  1.00  0.00     0.009 A 
ATOM     53  C   UNL A   1      43.390  27.673  35.961  1.00  0.00     0.009 A 
ATOM     54  C   UNL A   1      46.087  28.324  35.662  1.00  0.00     0.001 A 
ATOM     55  C   UNL A   1      44.356  27.002  36.709  1.00  0.00     0.001 A 
ATOM     56  C   UNL A   1      45.704  27.321  36.553  1.00  0.00     0.000 A 
ENDBRANCH  38  51
ENDBRANCH  12  13
ENDBRANCH   5   7
ENDBRANCH   2   3
ENDBRANCH   1   2
BRANCH   1  57
ATOM     57  C   UNL A   1      31.420  30.713  26.625  1.00  0.00     0.117 C 
BRANCH  57  58
ATOM     58  N   UNL A   1      32.414  30.065  25.799  1.00  0.00    -0.356 N 
ATOM     59  C   UNL A   1      32.538  28.821  25.277  1.00  0.00     0.224 C 
ATOM     60  H   UNL A   1      33.165  30.657  25.565  1.00  0.00     0.163 HD
ATOM     61  O   UNL A   1      33.679  28.593  24.865  1.00  0.00    -0.275 OA
BRANCH  59  62
ATOM     62  C   UNL A   1      31.364  27.862  25.008  1.00  0.00     0.098 C 
ATOM     63  C   UNL A   1      30.635  28.060  23.608  1.00  0.00     0.100 C 
ATOM     64  C   UNL A   1      31.536  26.331  25.241  1.00  0.00     0.025 C 
ATOM     65  C   UNL A   1      30.408  26.677  22.937  1.00  0.00     0.025 C 
ATOM     66  C   UNL A   1      32.295  25.727  24.088  1.00  0.00    -0.027 C 
ATOM     67  C   UNL A   1      30.127  25.673  25.234  1.00  0.00     0.009 C 
ATOM     68  C   UNL A   1      31.706  25.896  22.898  1.00  0.00    -0.027 C 
ATOM     69  C   UNL A   1      29.460  25.869  23.860  1.00  0.00     0.009 C 
BRANCH  63  70
ATOM     70  C   UNL A   1      31.048  29.254  22.719  1.00  0.00     0.238 C 
ATOM     71  O   UNL A   1      32.257  29.430  22.492  1.00  0.00    -0.273 OA
ATOM     72  N   UNL A   1      30.193  30.157  22.143  1.00  0.00    -0.288 N 
ATOM     73  H   UNL A   1      30.510  30.609  21.328  1.00  0.00     0.185 HD
BRANCH  72  74
ATOM     74  N   UNL A   1      28.914  30.502  22.597  1.00  0.00    -0.217 NA
ATOM     75  C   UNL A   1      27.975  30.809  21.490  1.00  0.00     0.136 C 
ATOM     76  C   UNL A   1      28.960  31.653  23.531  1.00  0.00     0.136 C 
ATOM     77  C   UNL A   1      28.108  32.227  20.903  1.00  0.00     0.177 C 
ATOM     78  C   UNL A   1      29.072  33.029  22.875  1.00  0.00     0.177 C 
ATOM     79  O   UNL A   1      28.028  33.227  21.923  1.00  0.00    -0.379 OA
ENDBRANCH  72  74
ENDBRANCH  63  70
ENDBRANCH  59  62
ENDBRANCH  57  58
ENDBRANCH   1  57
TORSDOF 12
ENDMDL
MODEL 2
REMARK VINA RESULT:     -12.4      0.318      5.959
REMARK SMILES O=C(NCCCNC(=O)[C@H]1[C@@H](C(=O)NN2CCOCC2)[C@H]2C=C[C@@H]1CC2)c1ccc(-c2c3nc(c(-c4ccccc4)c4ccc([nH]4)c(-c4ccccc4)c4nc(c(-c5ccccc5)c5ccc2[nH]5)C=C4)C=C3)cc1
REMARK SMILES IDX 5 1 4 2 3 3 1 4 2 5 27 7 28 8 74 9 29 10 73 11 30 12 31 13
REMARK SMILES IDX 32 14 67 15 33 16 72 17 66 18 68 19 34 20 71 21 65 22 64 23
REMARK SMILES IDX 35 25 57 26 42 27 56 28 43 29 46 30 55 31 69 32 44 33 45 34
REMARK SMILES IDX 54 36 70 37 47 38 36 39 37 40 41 41 38 42 40 43 39 44 58 45
REMARK SMILES IDX 59 46 63 47 60 48 62 49 61 50 48 51 49 52 53 53 50 54 52 55
REMARK SMILES IDX 51 56 6 57 7 58 8 59 9 61 10 62 11 63 24 64 21 65 23 66
REMARK SMILES IDX 25 67 22 68 26 69 12 70 13 71 14 72 15 74 16 75 20 76 17 77
REMARK SMILES IDX 19 78 18 79
REMARK H PARENT 3 6 68 24 46 35 7 60 14 73
REMARK Flexibility Score: inf
ROOT
ATOM      1  C   UNL A   1      31.540  32.265  26.493  1.00  0.00     0.042 C 
ENDROOT
BRANCH   1   2
ATOM      2  C   UNL A   1      32.659  32.823  27.366  1.00  0.00     0.118 C 
BRANCH   2   3
ATOM      3  N   UNL A   1      32.476  34.246  27.610  1.00  0.00    -0.352 N 
ATOM      4  O   UNL A   1      32.484  36.114  28.864  1.00  0.00    -0.269 OA
ATOM      5  C   UNL A   1      32.995  35.023  28.609  1.00  0.00     0.251 C 
ATOM      6  H   UNL A   1      31.898  34.715  26.966  1.00  0.00     0.163 HD
BRANCH   5   7
ATOM      7  C   UNL A   1      34.179  34.568  29.363  1.00  0.00     0.039 A 
ATOM      8  C   UNL A   1      34.028  34.000  30.631  1.00  0.00     0.014 A 
ATOM      9  C   UNL A   1      35.438  34.616  28.759  1.00  0.00     0.014 A 
ATOM     10  C   UNL A   1      35.140  33.558  31.332  1.00  0.00     0.010 A 
ATOM     11  C   UNL A   1      36.544  34.086  29.425  1.00  0.00     0.010 A 
ATOM     12  C   UNL A   1      36.398  33.544  30.711  1.00  0.00    -0.014 A 
BRANCH  12  13
ATOM     13  C   UNL A   1      37.502  32.799  31.354  1.00  0.00     0.031 A 
ATOM     14  C   UNL A   1      38.052  33.209  32.686  1.00  0.00     0.074 A 
ATOM     15  C   UNL A   1      38.010  31.740  30.691  1.00  0.00     0.049 A 
ATOM     16  N   UNL A   1      39.035  32.673  33.361  1.00  0.00    -0.248 NA
ATOM     17  C   UNL A   1      37.430  34.368  33.343  1.00  0.00     0.031 C 
ATOM     18  C   UNL A   1      37.555  31.270  29.377  1.00  0.00     0.029 A 
ATOM     19  N   UNL A   1      39.011  30.865  31.022  1.00  0.00    -0.354 N 
ATOM     20  C   UNL A   1      39.169  33.441  34.510  1.00  0.00     0.074 A 
ATOM     21  C   UNL A   1      38.171  34.487  34.439  1.00  0.00     0.031 C 
ATOM     22  C   UNL A   1      38.248  30.177  29.033  1.00  0.00     0.029 A 
ATOM     23  C   UNL A   1      39.247  29.915  30.060  1.00  0.00     0.049 A 
ATOM     24  H   UNL A   1      39.512  30.913  31.869  1.00  0.00     0.167 HD
ATOM     25  C   UNL A   1      40.050  33.282  35.524  1.00  0.00     0.031 A 
ATOM     26  C   UNL A   1      40.190  28.960  29.987  1.00  0.00     0.031 A 
ATOM     27  C   UNL A   1      41.035  32.231  35.579  1.00  0.00     0.049 A 
ATOM     28  C   UNL A   1      41.177  28.842  31.109  1.00  0.00     0.074 A 
ATOM     29  C   UNL A   1      41.930  31.946  36.596  1.00  0.00     0.029 A 
ATOM     30  N   UNL A   1      41.264  31.308  34.572  1.00  0.00    -0.354 N 
ATOM     31  N   UNL A   1      41.243  29.531  32.223  1.00  0.00    -0.248 NA
ATOM     32  C   UNL A   1      42.226  27.826  30.962  1.00  0.00     0.031 C 
ATOM     33  C   UNL A   1      42.745  30.891  36.176  1.00  0.00     0.029 A 
ATOM     34  C   UNL A   1      42.319  30.482  34.923  1.00  0.00     0.049 A 
ATOM     35  H   UNL A   1      40.751  31.247  33.734  1.00  0.00     0.167 HD
ATOM     36  C   UNL A   1      42.336  29.029  32.911  1.00  0.00     0.074 A 
ATOM     37  C   UNL A   1      42.884  27.956  32.106  1.00  0.00     0.031 C 
ATOM     38  C   UNL A   1      42.851  29.428  34.098  1.00  0.00     0.031 A 
BRANCH  25  39
ATOM     39  C   UNL A   1      40.028  34.279  36.647  1.00  0.00    -0.014 A 
ATOM     40  C   UNL A   1      40.718  35.497  36.559  1.00  0.00     0.009 A 
ATOM     41  C   UNL A   1      39.224  34.032  37.772  1.00  0.00     0.009 A 
ATOM     42  C   UNL A   1      40.610  36.444  37.582  1.00  0.00     0.001 A 
ATOM     43  C   UNL A   1      39.101  34.988  38.782  1.00  0.00     0.001 A 
ATOM     44  C   UNL A   1      39.797  36.192  38.687  1.00  0.00     0.000 A 
ENDBRANCH  25  39
BRANCH  26  45
ATOM     45  C   UNL A   1      40.284  28.091  28.785  1.00  0.00    -0.014 A 
ATOM     46  C   UNL A   1      39.670  26.831  28.755  1.00  0.00     0.009 A 
ATOM     47  C   UNL A   1      41.005  28.520  27.658  1.00  0.00     0.009 A 
ATOM     48  C   UNL A   1      39.800  26.009  27.634  1.00  0.00     0.001 A 
ATOM     49  C   UNL A   1      41.105  27.711  26.526  1.00  0.00     0.001 A 
ATOM     50  C   UNL A   1      40.514  26.449  26.520  1.00  0.00     0.000 A 
ENDBRANCH  26  45
BRANCH  38  51
ATOM     51  C   UNL A   1      44.063  28.693  34.591  1.00  0.00    -0.014 A 
ATOM     52  C   UNL A   1      45.354  29.155  34.297  1.00  0.00     0.009 A 
ATOM     53  C   UNL A   1      43.909  27.547  35.386  1.00  0.00     0.009 A 
ATOM     54  C   UNL A   1      46.472  28.464  34.765  1.00  0.00     0.001 A 
ATOM     55  C   UNL A   1      45.028  26.876  35.877  1.00  0.00     0.001 A 
ATOM     56  C   UNL A   1      46.308  27.329  35.559  1.00  0.00     0.000 A 
ENDBRANCH  38  51
ENDBRANCH  12  13
ENDBRANCH   5   7
ENDBRANCH   2   3
ENDBRANCH   1   2
BRANCH   1  57
ATOM     57  C   UNL A   1      31.410  30.751  26.622  1.00  0.00     0.117 C 
BRANCH  57  58
ATOM     58  N   UNL A   1      32.416  30.094  25.817  1.00  0.00    -0.356 N 
ATOM     59  C   UNL A   1      32.548  28.844  25.312  1.00  0.00     0.224 C 
ATOM     60  H   UNL A   1      33.169  30.685  25.585  1.00  0.00     0.163 HD
ATOM     61  O   UNL A   1      33.695  28.613  24.918  1.00  0.00    -0.275 OA
BRANCH  59  62
ATOM     62  C   UNL A   1      31.378  27.881  25.040  1.00  0.00     0.098 C 
ATOM     63  C   UNL A   1      30.650  28.079  23.640  1.00  0.00     0.100 C 
ATOM     64  C   UNL A   1      31.558  26.350  25.268  1.00  0.00     0.025 C 
ATOM     65  C   UNL A   1      30.430  26.697  22.965  1.00  0.00     0.025 C 
ATOM     66  C   UNL A   1      32.321  25.753  24.113  1.00  0.00    -0.027 C 
ATOM     67  C   UNL A   1      30.153  25.685  25.259  1.00  0.00     0.009 C 
ATOM     68  C   UNL A   1      31.731  25.923  22.924  1.00  0.00    -0.027 C 
ATOM     69  C   UNL A   1      29.485  25.881  23.885  1.00  0.00     0.009 C 
BRANCH  63  70
ATOM     70  C   UNL A   1      31.057  29.278  22.756  1.00  0.00     0.238 C 
ATOM     71  O   UNL A   1      32.262  29.446  22.508  1.00  0.00    -0.273 OA
ATOM     72  N   UNL A   1      30.199  30.193  22.203  1.00  0.00    -0.288 N 
ATOM     73  H   UNL A   1      30.506  30.650  21.386  1.00  0.00     0.185 HD
BRANCH  72  74
ATOM     74  N   UNL A   1      28.932  30.544  22.683  1.00  0.00    -0.217 NA
ATOM     75  C   UNL A   1      27.959  30.814  21.594  1.00  0.00     0.136 C 
ATOM     76  C   UNL A   1      28.997  31.723  23.581  1.00  0.00     0.136 C 
ATOM     77  C   UNL A   1      28.067  32.214  20.962  1.00  0.00     0.177 C 
ATOM     78  C   UNL A   1      29.081  33.080  22.881  1.00  0.00     0.177 C 
ATOM     79  O   UNL A   1      28.010  33.244  21.954  1.00  0.00    -0.379 OA
ENDBRANCH  72  74
ENDBRANCH  63  70
ENDBRANCH  59  62
ENDBRANCH  57  58
ENDBRANCH   1  57
TORSDOF 12
ENDMDL
MODEL 3
REMARK VINA RESULT:     -12.2      6.515     11.186
REMARK SMILES O=C(NCCCNC(=O)[C@H]1[C@@H](C(=O)NN2CCOCC2)[C@H]2C=C[C@@H]1CC2)c1ccc(-c2c3nc(c(-c4ccccc4)c4ccc([nH]4)c(-c4ccccc4)c4nc(c(-c5ccccc5)c5ccc2[nH]5)C=C4)C=C3)cc1
REMARK SMILES IDX 5 1 4 2 3 3 1 4 2 5 27 7 28 8 74 9 29 10 73 11 30 12 31 13
REMARK SMILES IDX 32 14 67 15 33 16 72 17 66 18 68 19 34 20 71 21 65 22 64 23
REMARK SMILES IDX 35 25 57 26 42 27 56 28 43 29 46 30 55 31 69 32 44 33 45 34
REMARK SMILES IDX 54 36 70 37 47 38 36 39 37 40 41 41 38 42 40 43 39 44 58 45
REMARK SMILES IDX 59 46 63 47 60 48 62 49 61 50 48 51 49 52 53 53 50 54 52 55
REMARK SMILES IDX 51 56 6 57 7 58 8 59 9 61 10 62 11 63 24 64 21 65 23 66
REMARK SMILES IDX 25 67 22 68 26 69 12 70 13 71 14 72 15 74 16 75 20 76 17 77
REMARK SMILES IDX 19 78 18 79
REMARK H PARENT 3 6 68 24 46 35 7 60 14 73
REMARK Flexibility Score: inf
ROOT
ATOM      1  C   UNL A   1      38.054  19.805  25.004  1.00  0.00     0.042 C 
ENDROOT
BRANCH   1   2
ATOM      2  C   UNL A   1      39.241  20.240  25.857  1.00  0.00     0.118 C 
BRANCH   2   3
ATOM      3  N   UNL A   1      40.227  19.175  25.970  1.00  0.00    -0.352 N 
ATOM      4  O   UNL A   1      42.288  18.284  25.823  1.00  0.00    -0.269 OA
ATOM      5  C   UNL A   1      41.588  19.267  26.069  1.00  0.00     0.251 C 
ATOM      6  H   UNL A   1      39.863  18.260  25.975  1.00  0.00     0.163 HD
BRANCH   5   7
ATOM      7  C   UNL A   1      42.216  20.532  26.496  1.00  0.00     0.039 A 
ATOM      8  C   UNL A   1      42.736  21.413  25.545  1.00  0.00     0.014 A 
ATOM      9  C   UNL A   1      42.195  20.887  27.848  1.00  0.00     0.014 A 
ATOM     10  C   UNL A   1      43.312  22.609  25.946  1.00  0.00     0.010 A 
ATOM     11  C   UNL A   1      42.689  22.132  28.242  1.00  0.00     0.010 A 
ATOM     12  C   UNL A   1      43.240  23.003  27.291  1.00  0.00    -0.014 A 
BRANCH  12  13
ATOM     13  C   UNL A   1      43.585  24.398  27.644  1.00  0.00     0.031 A 
ATOM     14  C   UNL A   1      42.531  25.395  28.017  1.00  0.00     0.074 A 
ATOM     15  C   UNL A   1      44.887  24.749  27.605  1.00  0.00     0.049 A 
ATOM     16  N   UNL A   1      42.676  26.658  28.322  1.00  0.00    -0.248 NA
ATOM     17  C   UNL A   1      41.138  24.923  28.045  1.00  0.00     0.031 C 
ATOM     18  C   UNL A   1      45.991  23.854  27.235  1.00  0.00     0.029 A 
ATOM     19  N   UNL A   1      45.509  25.938  27.879  1.00  0.00    -0.354 N 
ATOM     20  C   UNL A   1      41.396  27.141  28.555  1.00  0.00     0.074 A 
ATOM     21  C   UNL A   1      40.482  26.037  28.349  1.00  0.00     0.031 C 
ATOM     22  C   UNL A   1      47.151  24.515  27.339  1.00  0.00     0.029 A 
ATOM     23  C   UNL A   1      46.870  25.896  27.705  1.00  0.00     0.049 A 
ATOM     24  H   UNL A   1      45.026  26.745  28.172  1.00  0.00     0.167 HD
ATOM     25  C   UNL A   1      41.026  28.395  28.905  1.00  0.00     0.031 A 
ATOM     26  C   UNL A   1      47.792  26.871  27.789  1.00  0.00     0.031 A 
ATOM     27  C   UNL A   1      41.950  29.480  29.111  1.00  0.00     0.049 A 
ATOM     28  C   UNL A   1      47.339  28.257  28.136  1.00  0.00     0.074 A 
ATOM     29  C   UNL A   1      41.679  30.771  29.532  1.00  0.00     0.029 A 
ATOM     30  N   UNL A   1      43.317  29.408  28.896  1.00  0.00    -0.354 N 
ATOM     31  N   UNL A   1      46.132  28.679  28.425  1.00  0.00    -0.248 NA
ATOM     32  C   UNL A   1      48.369  29.302  28.158  1.00  0.00     0.031 C 
ATOM     33  C   UNL A   1      42.873  31.497  29.507  1.00  0.00     0.029 A 
ATOM     34  C   UNL A   1      43.896  30.644  29.127  1.00  0.00     0.049 A 
ATOM     35  H   UNL A   1      43.803  28.597  28.620  1.00  0.00     0.167 HD
ATOM     36  C   UNL A   1      46.258  30.038  28.667  1.00  0.00     0.074 A 
ATOM     37  C   UNL A   1      47.663  30.362  28.525  1.00  0.00     0.031 C 
ATOM     38  C   UNL A   1      45.296  30.942  28.968  1.00  0.00     0.031 A 
BRANCH  25  39
ATOM     39  C   UNL A   1      39.560  28.686  29.058  1.00  0.00    -0.014 A 
ATOM     40  C   UNL A   1      38.900  28.502  30.282  1.00  0.00     0.009 A 
ATOM     41  C   UNL A   1      38.853  29.245  27.981  1.00  0.00     0.009 A 
ATOM     42  C   UNL A   1      37.556  28.862  30.419  1.00  0.00     0.001 A 
ATOM     43  C   UNL A   1      37.517  29.624  28.127  1.00  0.00     0.001 A 
ATOM     44  C   UNL A   1      36.869  29.430  29.346  1.00  0.00     0.000 A 
ENDBRANCH  25  39
BRANCH  26  45
ATOM     45  C   UNL A   1      49.216  26.583  27.475  1.00  0.00    -0.014 A 
ATOM     46  C   UNL A   1      50.120  26.226  28.486  1.00  0.00     0.009 A 
ATOM     47  C   UNL A   1      49.681  26.675  26.152  1.00  0.00     0.009 A 
ATOM     48  C   UNL A   1      51.464  25.997  28.183  1.00  0.00     0.001 A 
ATOM     49  C   UNL A   1      51.016  26.412  25.847  1.00  0.00     0.001 A 
ATOM     50  C   UNL A   1      51.910  26.086  26.865  1.00  0.00     0.000 A 
ENDBRANCH  26  45
BRANCH  38  51
ATOM     51  C   UNL A   1      45.739  32.362  29.167  1.00  0.00    -0.014 A 
ATOM     52  C   UNL A   1      45.740  33.272  28.100  1.00  0.00     0.009 A 
ATOM     53  C   UNL A   1      46.128  32.800  30.442  1.00  0.00     0.009 A 
ATOM     54  C   UNL A   1      46.151  34.590  28.300  1.00  0.00     0.001 A 
ATOM     55  C   UNL A   1      46.509  34.126  30.645  1.00  0.00     0.001 A 
ATOM     56  C   UNL A   1      46.530  35.017  29.572  1.00  0.00     0.000 A 
ENDBRANCH  38  51
ENDBRANCH  12  13
ENDBRANCH   5   7
ENDBRANCH   2   3
ENDBRANCH   1   2
BRANCH   1  57
ATOM     57  C   UNL A   1      37.307  20.994  24.410  1.00  0.00     0.117 C 
BRANCH  57  58
ATOM     58  N   UNL A   1      37.058  21.987  25.430  1.00  0.00    -0.356 N 
ATOM     59  C   UNL A   1      36.264  23.083  25.504  1.00  0.00     0.224 C 
ATOM     60  H   UNL A   1      37.579  21.834  26.251  1.00  0.00     0.163 HD
ATOM     61  O   UNL A   1      36.561  23.818  26.449  1.00  0.00    -0.275 OA
BRANCH  59  62
ATOM     62  C   UNL A   1      34.992  23.301  24.663  1.00  0.00     0.098 C 
ATOM     63  C   UNL A   1      33.784  22.322  24.995  1.00  0.00     0.100 C 
ATOM     64  C   UNL A   1      34.407  24.735  24.492  1.00  0.00     0.025 C 
ATOM     65  C   UNL A   1      32.464  23.135  25.094  1.00  0.00     0.025 C 
ATOM     66  C   UNL A   1      33.653  25.125  25.737  1.00  0.00    -0.027 C 
ATOM     67  C   UNL A   1      33.366  24.704  23.338  1.00  0.00     0.009 C 
ATOM     68  C   UNL A   1      32.642  24.304  26.042  1.00  0.00    -0.027 C 
ATOM     69  C   UNL A   1      32.204  23.761  23.701  1.00  0.00     0.009 C 
BRANCH  63  70
ATOM     70  C   UNL A   1      34.019  21.167  25.994  1.00  0.00     0.238 C 
ATOM     71  O   UNL A   1      34.386  21.449  27.146  1.00  0.00    -0.273 OA
ATOM     72  N   UNL A   1      33.856  19.833  25.728  1.00  0.00    -0.288 N 
ATOM     73  H   UNL A   1      33.659  19.249  26.496  1.00  0.00     0.185 HD
BRANCH  72  74
ATOM     74  N   UNL A   1      33.942  19.215  24.474  1.00  0.00    -0.217 NA
ATOM     75  C   UNL A   1      32.627  18.741  23.975  1.00  0.00     0.136 C 
ATOM     76  C   UNL A   1      34.895  18.080  24.490  1.00  0.00     0.136 C 
ATOM     77  C   UNL A   1      32.158  17.397  24.564  1.00  0.00     0.177 C 
ATOM     78  C   UNL A   1      34.353  16.773  25.069  1.00  0.00     0.177 C 
ATOM     79  O   UNL A   1      33.152  16.380  24.406  1.00  0.00    -0.379 OA
ENDBRANCH  72  74
ENDBRANCH  63  70
ENDBRANCH  59  62
ENDBRANCH  57  58
ENDBRANCH   1  57
TORSDOF 12
ENDMDL
