MODEL 1
REMARK VINA RESULT:     -11.2      0.000      0.000
REMARK SMILES C[NH2+][C@]1(C(=O)NCCCNC(=O)c2ccc(-c3c4nc(c(-c5ccccc5)c5ccc([nH]5)c(-c5ccccc5)c5nc(c(-c6ccccc6)c6ccc3[nH]6)C=C5)C=C4)cc2)CCC[C@@H](Sc2nncs2)C1
REMARK SMILES IDX 8 1 7 2 6 3 4 4 5 5 3 7 61 8 71 9 62 10 64 11 63 12 2 13
REMARK SMILES IDX 1 14 65 17 66 18 67 19 70 20 68 21 69 22 9 23 10 24 11 25
REMARK SMILES IDX 12 27 13 28 14 29 60 30 15 31 59 32 16 33 17 34 18 35 53 36
REMARK SMILES IDX 19 37 58 38 52 39 54 40 20 41 57 42 51 43 50 44 21 46 43 47
REMARK SMILES IDX 28 48 42 49 29 50 32 51 41 52 55 53 30 54 31 55 40 57 56 58
REMARK SMILES IDX 33 59 22 60 23 61 27 62 24 63 26 64 25 65 44 66 45 67 49 68
REMARK SMILES IDX 46 69 48 70 47 71 34 72 35 73 39 74 36 75 38 76 37 77
REMARK H PARENT 6 6 2 15 2 16 10 26 54 45 32 56
REMARK Flexibility Score: inf
ROOT
ATOM      1  C   UNL A   1      37.398  19.846  24.889  1.00  0.00     0.042 C 
ENDROOT
BRANCH   1   2
ATOM      2  C   UNL A   1      36.252  20.843  24.738  1.00  0.00     0.118 C 
BRANCH   2   3
ATOM      3  N   UNL A   1      35.591  21.098  26.010  1.00  0.00    -0.351 N 
ATOM      4  C   UNL A   1      34.294  21.345  26.345  1.00  0.00     0.281 C 
ATOM      5  O   UNL A   1      34.077  21.512  27.553  1.00  0.00    -0.268 OA
ATOM      6  H   UNL A   1      36.204  21.092  26.781  1.00  0.00     0.163 HD
BRANCH   4   7
ATOM      7  C   UNL A   1      33.116  21.351  25.303  1.00  0.00     0.176 C 
ATOM      8  C   UNL A   1      33.181  22.558  24.340  1.00  0.00     0.079 C 
ATOM      9  C   UNL A   1      33.155  20.002  24.538  1.00  0.00     0.094 C 
ATOM     10  C   UNL A   1      32.183  22.473  23.187  1.00  0.00     0.008 C 
ATOM     11  C   UNL A   1      32.207  19.959  23.332  1.00  0.00     0.061 C 
ATOM     12  C   UNL A   1      32.370  21.173  22.409  1.00  0.00     0.015 C 
BRANCH   7  13
ATOM     13  N   UNL A   1      31.816  21.310  26.057  1.00  0.00    -0.336 N 
ATOM     14  C   UNL A   1      31.203  22.608  26.325  1.00  0.00     0.331 C 
ATOM     15  H   UNL A   1      31.154  20.758  25.512  1.00  0.00     0.346 HD
ATOM     16  H   UNL A   1      32.033  20.910  26.969  1.00  0.00     0.346 HD
ENDBRANCH   7  13
BRANCH  11  17
ATOM     17  S   UNL A   1      32.319  18.378  22.406  1.00  0.00    -0.090 SA
BRANCH  17  18
ATOM     18  C   UNL A   1      33.059  17.292  23.555  1.00  0.00     0.174 A 
ATOM     19  N   UNL A   1      34.124  16.570  23.278  1.00  0.00    -0.132 NA
ATOM     20  S   UNL A   1      32.469  17.086  25.153  1.00  0.00    -0.094 S 
ATOM     21  N   UNL A   1      34.524  15.789  24.344  1.00  0.00    -0.146 NA
ATOM     22  C   UNL A   1      33.747  15.968  25.391  1.00  0.00     0.203 A 
ENDBRANCH  17  18
ENDBRANCH  11  17
ENDBRANCH   4   7
ENDBRANCH   2   3
ENDBRANCH   1   2
BRANCH   1  23
ATOM     23  C   UNL A   1      38.602  20.411  25.631  1.00  0.00     0.118 C 
BRANCH  23  24
ATOM     24  N   UNL A   1      39.700  19.460  25.707  1.00  0.00    -0.352 N 
ATOM     25  C   UNL A   1      41.015  19.656  26.050  1.00  0.00     0.251 C 
ATOM     26  H   UNL A   1      39.463  18.531  25.479  1.00  0.00     0.163 HD
ATOM     27  O   UNL A   1      41.832  18.759  25.869  1.00  0.00    -0.269 OA
BRANCH  25  28
ATOM     28  C   UNL A   1      41.462  20.948  26.618  1.00  0.00     0.039 A 
ATOM     29  C   UNL A   1      41.944  21.931  25.748  1.00  0.00     0.014 A 
ATOM     30  C   UNL A   1      41.452  21.181  27.996  1.00  0.00     0.014 A 
ATOM     31  C   UNL A   1      42.364  23.164  26.252  1.00  0.00     0.010 A 
ATOM     32  C   UNL A   1      41.805  22.435  28.492  1.00  0.00     0.010 A 
ATOM     33  C   UNL A   1      42.271  23.436  27.626  1.00  0.00    -0.014 A 
BRANCH  33  34
ATOM     34  C   UNL A   1      42.667  24.755  28.178  1.00  0.00     0.031 A 
ATOM     35  C   UNL A   1      41.633  25.826  28.397  1.00  0.00     0.074 A 
ATOM     36  C   UNL A   1      43.966  25.013  28.424  1.00  0.00     0.049 A 
ATOM     37  N   UNL A   1      41.797  27.060  28.803  1.00  0.00    -0.248 NA
ATOM     38  C   UNL A   1      40.237  25.471  28.098  1.00  0.00     0.031 C 
ATOM     39  C   UNL A   1      45.071  24.072  28.224  1.00  0.00     0.029 A 
ATOM     40  N   UNL A   1      44.577  26.149  28.891  1.00  0.00    -0.354 N 
ATOM     41  C   UNL A   1      40.531  27.633  28.788  1.00  0.00     0.074 A 
ATOM     42  C   UNL A   1      39.617  26.625  28.294  1.00  0.00     0.031 C 
ATOM     43  C   UNL A   1      46.221  24.664  28.585  1.00  0.00     0.029 A 
ATOM     44  C   UNL A   1      45.941  26.032  29.007  1.00  0.00     0.049 A 
ATOM     45  H   UNL A   1      44.085  26.970  29.122  1.00  0.00     0.167 HD
ATOM     46  C   UNL A   1      40.159  28.879  29.165  1.00  0.00     0.031 A 
ATOM     47  C   UNL A   1      46.865  26.929  29.402  1.00  0.00     0.031 A 
ATOM     48  C   UNL A   1      41.063  29.877  29.672  1.00  0.00     0.049 A 
ATOM     49  C   UNL A   1      46.426  28.305  29.813  1.00  0.00     0.074 A 
ATOM     50  C   UNL A   1      40.772  31.149  30.132  1.00  0.00     0.029 A 
ATOM     51  N   UNL A   1      42.433  29.712  29.787  1.00  0.00    -0.354 N 
ATOM     52  N   UNL A   1      45.218  28.812  29.846  1.00  0.00    -0.248 NA
ATOM     53  C   UNL A   1      47.482  29.232  30.250  1.00  0.00     0.031 C 
ATOM     54  C   UNL A   1      41.974  31.770  30.488  1.00  0.00     0.029 A 
ATOM     55  C   UNL A   1      43.006  30.867  30.293  1.00  0.00     0.049 A 
ATOM     56  H   UNL A   1      42.927  28.896  29.544  1.00  0.00     0.167 HD
ATOM     57  C   UNL A   1      45.363  30.105  30.333  1.00  0.00     0.074 A 
ATOM     58  C   UNL A   1      46.774  30.300  30.592  1.00  0.00     0.031 C 
ATOM     59  C   UNL A   1      44.412  31.044  30.548  1.00  0.00     0.031 A 
BRANCH  46  60
ATOM     60  C   UNL A   1      38.705  29.235  29.035  1.00  0.00    -0.014 A 
ATOM     61  C   UNL A   1      37.833  29.141  30.132  1.00  0.00     0.009 A 
ATOM     62  C   UNL A   1      38.206  29.700  27.809  1.00  0.00     0.009 A 
ATOM     63  C   UNL A   1      36.484  29.473  29.993  1.00  0.00     0.001 A 
ATOM     64  C   UNL A   1      36.863  30.057  27.680  1.00  0.00     0.001 A 
ATOM     65  C   UNL A   1      36.001  29.935  28.769  1.00  0.00     0.000 A 
ENDBRANCH  46  60
BRANCH  47  66
ATOM     66  C   UNL A   1      48.299  26.546  29.445  1.00  0.00    -0.014 A 
ATOM     67  C   UNL A   1      48.837  25.939  30.591  1.00  0.00     0.009 A 
ATOM     68  C   UNL A   1      49.136  26.786  28.346  1.00  0.00     0.009 A 
ATOM     69  C   UNL A   1      50.191  25.602  30.642  1.00  0.00     0.001 A 
ATOM     70  C   UNL A   1      50.485  26.424  28.391  1.00  0.00     0.001 A 
ATOM     71  C   UNL A   1      51.012  25.840  29.541  1.00  0.00     0.000 A 
ENDBRANCH  47  66
BRANCH  59  72
ATOM     72  C   UNL A   1      44.861  32.356  31.123  1.00  0.00    -0.014 A 
ATOM     73  C   UNL A   1      44.933  32.557  32.509  1.00  0.00     0.009 A 
ATOM     74  C   UNL A   1      45.256  33.392  30.261  1.00  0.00     0.009 A 
ATOM     75  C   UNL A   1      45.364  33.782  33.022  1.00  0.00     0.001 A 
ATOM     76  C   UNL A   1      45.710  34.605  30.777  1.00  0.00     0.001 A 
ATOM     77  C   UNL A   1      45.756  34.803  32.155  1.00  0.00     0.000 A 
ENDBRANCH  59  72
ENDBRANCH  33  34
ENDBRANCH  25  28
ENDBRANCH  23  24
ENDBRANCH   1  23
TORSDOF 13
ENDMDL
MODEL 2
REMARK VINA RESULT:     -11.1      2.306      6.949
REMARK SMILES C[NH2+][C@]1(C(=O)NCCCNC(=O)c2ccc(-c3c4nc(c(-c5ccccc5)c5ccc([nH]5)c(-c5ccccc5)c5nc(c(-c6ccccc6)c6ccc3[nH]6)C=C5)C=C4)cc2)CCC[C@@H](Sc2nncs2)C1
REMARK SMILES IDX 8 1 7 2 6 3 4 4 5 5 3 7 61 8 71 9 62 10 64 11 63 12 2 13
REMARK SMILES IDX 1 14 65 17 66 18 67 19 70 20 68 21 69 22 9 23 10 24 11 25
REMARK SMILES IDX 12 27 13 28 14 29 60 30 15 31 59 32 16 33 17 34 18 35 53 36
REMARK SMILES IDX 19 37 58 38 52 39 54 40 20 41 57 42 51 43 50 44 21 46 43 47
REMARK SMILES IDX 28 48 42 49 29 50 32 51 41 52 55 53 30 54 31 55 40 57 56 58
REMARK SMILES IDX 33 59 22 60 23 61 27 62 24 63 26 64 25 65 44 66 45 67 49 68
REMARK SMILES IDX 46 69 48 70 47 71 34 72 35 73 39 74 36 75 38 76 37 77
REMARK H PARENT 6 6 2 15 2 16 10 26 54 45 32 56
REMARK Flexibility Score: inf
ROOT
ATOM      1  C   UNL A   1      37.984  19.342  24.971  1.00  0.00     0.042 C 
ENDROOT
BRANCH   1   2
ATOM      2  C   UNL A   1      36.883  20.312  24.552  1.00  0.00     0.118 C 
BRANCH   2   3
ATOM      3  N   UNL A   1      36.048  20.696  25.681  1.00  0.00    -0.351 N 
ATOM      4  C   UNL A   1      35.383  21.844  25.990  1.00  0.00     0.281 C 
ATOM      5  O   UNL A   1      34.745  21.823  27.053  1.00  0.00    -0.268 OA
ATOM      6  H   UNL A   1      35.945  19.986  26.356  1.00  0.00     0.163 HD
BRANCH   4   7
ATOM      7  C   UNL A   1      35.343  23.104  25.050  1.00  0.00     0.176 C 
ATOM      8  C   UNL A   1      34.641  22.817  23.702  1.00  0.00     0.079 C 
ATOM      9  C   UNL A   1      34.647  24.253  25.827  1.00  0.00     0.094 C 
ATOM     10  C   UNL A   1      34.395  24.070  22.865  1.00  0.00     0.008 C 
ATOM     11  C   UNL A   1      34.330  25.473  24.953  1.00  0.00     0.061 C 
ATOM     12  C   UNL A   1      33.598  25.100  23.660  1.00  0.00     0.015 C 
BRANCH   7  13
ATOM     13  N   UNL A   1      36.750  23.593  24.851  1.00  0.00    -0.336 N 
ATOM     14  C   UNL A   1      37.511  23.832  26.073  1.00  0.00     0.331 C 
ATOM     15  H   UNL A   1      37.251  22.895  24.301  1.00  0.00     0.346 HD
ATOM     16  H   UNL A   1      36.670  24.499  24.390  1.00  0.00     0.346 HD
ENDBRANCH   7  13
BRANCH  11  17
ATOM     17  S   UNL A   1      33.451  26.791  25.880  1.00  0.00    -0.090 SA
BRANCH  17  18
ATOM     18  C   UNL A   1      31.789  26.256  25.859  1.00  0.00     0.174 A 
ATOM     19  N   UNL A   1      31.310  25.367  26.702  1.00  0.00    -0.132 NA
ATOM     20  S   UNL A   1      30.633  26.859  24.744  1.00  0.00    -0.094 S 
ATOM     21  N   UNL A   1      29.971  25.105  26.488  1.00  0.00    -0.146 NA
ATOM     22  C   UNL A   1      29.492  25.824  25.496  1.00  0.00     0.203 A 
ENDBRANCH  17  18
ENDBRANCH  11  17
ENDBRANCH   4   7
ENDBRANCH   2   3
ENDBRANCH   1   2
BRANCH   1  23
ATOM     23  C   UNL A   1      39.122  20.007  25.736  1.00  0.00     0.118 C 
BRANCH  23  24
ATOM     24  N   UNL A   1      40.318  19.179  25.776  1.00  0.00    -0.352 N 
ATOM     25  C   UNL A   1      41.617  19.521  26.056  1.00  0.00     0.251 C 
ATOM     26  H   UNL A   1      40.171  18.226  25.574  1.00  0.00     0.163 HD
ATOM     27  O   UNL A   1      42.517  18.711  25.852  1.00  0.00    -0.269 OA
BRANCH  25  28
ATOM     28  C   UNL A   1      41.949  20.863  26.583  1.00  0.00     0.039 A 
ATOM     29  C   UNL A   1      42.368  21.851  25.685  1.00  0.00     0.014 A 
ATOM     30  C   UNL A   1      41.892  21.144  27.951  1.00  0.00     0.014 A 
ATOM     31  C   UNL A   1      42.678  23.131  26.151  1.00  0.00     0.010 A 
ATOM     32  C   UNL A   1      42.134  22.439  28.406  1.00  0.00     0.010 A 
ATOM     33  C   UNL A   1      42.535  23.443  27.512  1.00  0.00    -0.014 A 
BRANCH  33  34
ATOM     34  C   UNL A   1      42.813  24.809  28.021  1.00  0.00     0.031 A 
ATOM     35  C   UNL A   1      44.210  25.197  28.423  1.00  0.00     0.074 A 
ATOM     36  C   UNL A   1      41.799  25.681  28.180  1.00  0.00     0.049 A 
ATOM     37  N   UNL A   1      44.634  26.317  28.953  1.00  0.00    -0.248 NA
ATOM     38  C   UNL A   1      45.262  24.187  28.226  1.00  0.00     0.031 C 
ATOM     39  C   UNL A   1      40.395  25.418  27.859  1.00  0.00     0.029 A 
ATOM     40  N   UNL A   1      41.796  26.967  28.660  1.00  0.00    -0.354 N 
ATOM     41  C   UNL A   1      45.995  26.138  29.171  1.00  0.00     0.074 A 
ATOM     42  C   UNL A   1      46.317  24.790  28.755  1.00  0.00     0.031 C 
ATOM     43  C   UNL A   1      39.670  26.515  28.132  1.00  0.00     0.029 A 
ATOM     44  C   UNL A   1      40.549  27.543  28.679  1.00  0.00     0.049 A 
ATOM     45  H   UNL A   1      42.609  27.432  28.963  1.00  0.00     0.167 HD
ATOM     46  C   UNL A   1      46.900  27.020  29.660  1.00  0.00     0.031 A 
ATOM     47  C   UNL A   1      40.156  28.761  29.097  1.00  0.00     0.031 A 
ATOM     48  C   UNL A   1      46.586  28.366  30.058  1.00  0.00     0.049 A 
ATOM     49  C   UNL A   1      41.178  29.720  29.637  1.00  0.00     0.074 A 
ATOM     50  C   UNL A   1      47.444  29.353  30.513  1.00  0.00     0.029 A 
ATOM     51  N   UNL A   1      45.313  28.914  30.048  1.00  0.00    -0.354 N 
ATOM     52  N   UNL A   1      42.470  29.554  29.784  1.00  0.00    -0.248 NA
ATOM     53  C   UNL A   1      40.686  31.040  30.061  1.00  0.00     0.031 C 
ATOM     54  C   UNL A   1      46.683  30.487  30.816  1.00  0.00     0.029 A 
ATOM     55  C   UNL A   1      45.360  30.220  30.506  1.00  0.00     0.049 A 
ATOM     56  H   UNL A   1      44.498  28.445  29.758  1.00  0.00     0.167 HD
ATOM     57  C   UNL A   1      42.950  30.755  30.290  1.00  0.00     0.074 A 
ATOM     58  C   UNL A   1      41.813  31.643  30.414  1.00  0.00     0.031 C 
ATOM     59  C   UNL A   1      44.220  31.092  30.620  1.00  0.00     0.031 A 
BRANCH  46  60
ATOM     60  C   UNL A   1      48.320  26.549  29.796  1.00  0.00    -0.014 A 
ATOM     61  C   UNL A   1      49.257  26.760  28.771  1.00  0.00     0.009 A 
ATOM     62  C   UNL A   1      48.736  25.916  30.976  1.00  0.00     0.009 A 
ATOM     63  C   UNL A   1      50.572  26.313  28.913  1.00  0.00     0.001 A 
ATOM     64  C   UNL A   1      50.059  25.494  31.126  1.00  0.00     0.001 A 
ATOM     65  C   UNL A   1      50.973  25.685  30.092  1.00  0.00     0.000 A 
ENDBRANCH  46  60
BRANCH  47  66
ATOM     66  C   UNL A   1      38.726  29.150  29.005  1.00  0.00    -0.014 A 
ATOM     67  C   UNL A   1      38.210  29.680  27.812  1.00  0.00     0.009 A 
ATOM     68  C   UNL A   1      37.871  28.998  30.107  1.00  0.00     0.009 A 
ATOM     69  C   UNL A   1      36.871  30.070  27.732  1.00  0.00     0.001 A 
ATOM     70  C   UNL A   1      36.526  29.365  30.016  1.00  0.00     0.001 A 
ATOM     71  C   UNL A   1      36.030  29.908  28.832  1.00  0.00     0.000 A 
ENDBRANCH  47  66
BRANCH  59  72
ATOM     72  C   UNL A   1      44.452  32.490  31.114  1.00  0.00    -0.014 A 
ATOM     73  C   UNL A   1      44.720  33.541  30.225  1.00  0.00     0.009 A 
ATOM     74  C   UNL A   1      44.361  32.764  32.488  1.00  0.00     0.009 A 
ATOM     75  C   UNL A   1      44.922  34.837  30.705  1.00  0.00     0.001 A 
ATOM     76  C   UNL A   1      44.539  34.064  32.962  1.00  0.00     0.001 A 
ATOM     77  C   UNL A   1      44.826  35.097  32.073  1.00  0.00     0.000 A 
ENDBRANCH  59  72
ENDBRANCH  33  34
ENDBRANCH  25  28
ENDBRANCH  23  24
ENDBRANCH   1  23
TORSDOF 13
ENDMDL
MODEL 3
REMARK VINA RESULT:     -11.0      4.595      9.149
REMARK SMILES C[NH2+][C@]1(C(=O)NCCCNC(=O)c2ccc(-c3c4nc(c(-c5ccccc5)c5ccc([nH]5)c(-c5ccccc5)c5nc(c(-c6ccccc6)c6ccc3[nH]6)C=C5)C=C4)cc2)CCC[C@@H](Sc2nncs2)C1
REMARK SMILES IDX 8 1 7 2 6 3 4 4 5 5 3 7 61 8 71 9 62 10 64 11 63 12 2 13
REMARK SMILES IDX 1 14 65 17 66 18 67 19 70 20 68 21 69 22 9 23 10 24 11 25
REMARK SMILES IDX 12 27 13 28 14 29 60 30 15 31 59 32 16 33 17 34 18 35 53 36
REMARK SMILES IDX 19 37 58 38 52 39 54 40 20 41 57 42 51 43 50 44 21 46 43 47
REMARK SMILES IDX 28 48 42 49 29 50 32 51 41 52 55 53 30 54 31 55 40 57 56 58
REMARK SMILES IDX 33 59 22 60 23 61 27 62 24 63 26 64 25 65 44 66 45 67 49 68
REMARK SMILES IDX 46 69 48 70 47 71 34 72 35 73 39 74 36 75 38 76 37 77
REMARK H PARENT 6 6 2 15 2 16 10 26 54 45 32 56
REMARK Flexibility Score: inf
ROOT
ATOM      1  C   UNL A   1      31.333  32.347  26.501  1.00  0.00     0.042 C 
ENDROOT
BRANCH   1   2
ATOM      2  C   UNL A   1      31.241  30.844  26.252  1.00  0.00     0.118 C 
BRANCH   2   3
ATOM      3  N   UNL A   1      32.060  30.437  25.120  1.00  0.00    -0.351 N 
ATOM      4  C   UNL A   1      32.723  29.284  24.825  1.00  0.00     0.281 C 
ATOM      5  O   UNL A   1      33.330  29.277  23.744  1.00  0.00    -0.268 OA
ATOM      6  H   UNL A   1      32.155  31.134  24.430  1.00  0.00     0.163 HD
BRANCH   4   7
ATOM      7  C   UNL A   1      32.682  28.003  25.736  1.00  0.00     0.176 C 
ATOM      8  C   UNL A   1      31.276  27.365  25.802  1.00  0.00     0.079 C 
ATOM      9  C   UNL A   1      33.741  27.005  25.197  1.00  0.00     0.094 C 
ATOM     10  C   UNL A   1      31.254  26.006  26.497  1.00  0.00     0.008 C 
ATOM     11  C   UNL A   1      33.654  25.617  25.845  1.00  0.00     0.061 C 
ATOM     12  C   UNL A   1      32.233  25.045  25.828  1.00  0.00     0.015 C 
BRANCH   7  13
ATOM     13  N   UNL A   1      33.188  28.375  27.102  1.00  0.00    -0.336 N 
ATOM     14  C   UNL A   1      34.519  28.973  27.138  1.00  0.00     0.331 C 
ATOM     15  H   UNL A   1      32.533  29.043  27.509  1.00  0.00     0.346 HD
ATOM     16  H   UNL A   1      33.260  27.501  27.623  1.00  0.00     0.346 HD
ENDBRANCH   7  13
BRANCH  11  17
ATOM     17  S   UNL A   1      34.874  24.438  25.146  1.00  0.00    -0.090 SA
BRANCH  17  18
ATOM     18  C   UNL A   1      34.070  23.826  23.722  1.00  0.00     0.174 A 
ATOM     19  N   UNL A   1      34.010  24.492  22.589  1.00  0.00    -0.132 NA
ATOM     20  S   UNL A   1      33.301  22.293  23.675  1.00  0.00    -0.094 S 
ATOM     21  N   UNL A   1      33.322  23.805  21.609  1.00  0.00    -0.146 NA
ATOM     22  C   UNL A   1      32.903  22.636  22.043  1.00  0.00     0.203 A 
ENDBRANCH  17  18
ENDBRANCH  11  17
ENDBRANCH   4   7
ENDBRANCH   2   3
ENDBRANCH   1   2
BRANCH   1  23
ATOM     23  C   UNL A   1      32.613  32.769  27.210  1.00  0.00     0.118 C 
BRANCH  23  24
ATOM     24  N   UNL A   1      32.520  34.110  27.766  1.00  0.00    -0.352 N 
ATOM     25  C   UNL A   1      33.273  34.714  28.743  1.00  0.00     0.251 C 
ATOM     26  H   UNL A   1      31.807  34.672  27.382  1.00  0.00     0.163 HD
ATOM     27  O   UNL A   1      32.915  35.792  29.208  1.00  0.00    -0.269 OA
BRANCH  25  28
ATOM     28  C   UNL A   1      34.504  34.070  29.254  1.00  0.00     0.039 A 
ATOM     29  C   UNL A   1      34.407  33.230  30.367  1.00  0.00     0.014 A 
ATOM     30  C   UNL A   1      35.752  34.320  28.676  1.00  0.00     0.014 A 
ATOM     31  C   UNL A   1      35.549  32.600  30.867  1.00  0.00     0.010 A 
ATOM     32  C   UNL A   1      36.878  33.637  29.130  1.00  0.00     0.010 A 
ATOM     33  C   UNL A   1      36.789  32.776  30.234  1.00  0.00    -0.014 A 
BRANCH  33  34
ATOM     34  C   UNL A   1      38.006  32.079  30.720  1.00  0.00     0.031 A 
ATOM     35  C   UNL A   1      38.819  32.667  31.841  1.00  0.00     0.074 A 
ATOM     36  C   UNL A   1      38.416  30.949  30.111  1.00  0.00     0.049 A 
ATOM     37  N   UNL A   1      39.946  32.241  32.353  1.00  0.00    -0.248 NA
ATOM     38  C   UNL A   1      38.311  33.906  32.450  1.00  0.00     0.031 C 
ATOM     39  C   UNL A   1      37.736  30.294  28.991  1.00  0.00     0.029 A 
ATOM     40  N   UNL A   1      39.510  30.156  30.346  1.00  0.00    -0.354 N 
ATOM     41  C   UNL A   1      40.292  33.170  33.328  1.00  0.00     0.074 A 
ATOM     42  C   UNL A   1      39.277  34.202  33.307  1.00  0.00     0.031 C 
ATOM     43  C   UNL A   1      38.418  29.188  28.652  1.00  0.00     0.029 A 
ATOM     44  C   UNL A   1      39.598  29.076  29.502  1.00  0.00     0.049 A 
ATOM     45  H   UNL A   1      40.170  30.343  31.053  1.00  0.00     0.167 HD
ATOM     46  C   UNL A   1      41.349  33.159  34.174  1.00  0.00     0.031 A 
ATOM     47  C   UNL A   1      40.529  28.107  29.417  1.00  0.00     0.031 A 
ATOM     48  C   UNL A   1      42.349  32.126  34.208  1.00  0.00     0.049 A 
ATOM     49  C   UNL A   1      41.694  28.118  30.366  1.00  0.00     0.074 A 
ATOM     50  C   UNL A   1      43.428  31.998  35.067  1.00  0.00     0.029 A 
ATOM     51  N   UNL A   1      42.393  31.043  33.345  1.00  0.00    -0.354 N 
ATOM     52  N   UNL A   1      41.974  28.974  31.319  1.00  0.00    -0.248 NA
ATOM     53  C   UNL A   1      42.666  27.023  30.232  1.00  0.00     0.031 C 
ATOM     54  C   UNL A   1      44.147  30.857  34.697  1.00  0.00     0.029 A 
ATOM     55  C   UNL A   1      43.491  30.251  33.639  1.00  0.00     0.049 A 
ATOM     56  H   UNL A   1      41.741  30.863  32.631  1.00  0.00     0.167 HD
ATOM     57  C   UNL A   1      43.138  28.506  31.916  1.00  0.00     0.074 A 
ATOM     58  C   UNL A   1      43.503  27.287  31.225  1.00  0.00     0.031 C 
ATOM     59  C   UNL A   1      43.839  29.039  32.945  1.00  0.00     0.031 A 
BRANCH  46  60
ATOM     60  C   UNL A   1      41.479  34.310  35.132  1.00  0.00    -0.014 A 
ATOM     61  C   UNL A   1      42.141  35.492  34.763  1.00  0.00     0.009 A 
ATOM     62  C   UNL A   1      40.904  34.223  36.408  1.00  0.00     0.009 A 
ATOM     63  C   UNL A   1      42.256  36.550  35.666  1.00  0.00     0.001 A 
ATOM     64  C   UNL A   1      40.997  35.293  37.301  1.00  0.00     0.001 A 
ATOM     65  C   UNL A   1      41.679  36.451  36.933  1.00  0.00     0.000 A 
ENDBRANCH  46  60
BRANCH  47  66
ATOM     66  C   UNL A   1      40.389  27.030  28.404  1.00  0.00    -0.014 A 
ATOM     67  C   UNL A   1      39.654  25.871  28.697  1.00  0.00     0.009 A 
ATOM     68  C   UNL A   1      40.987  27.154  27.141  1.00  0.00     0.009 A 
ATOM     69  C   UNL A   1      39.543  24.847  27.754  1.00  0.00     0.001 A 
ATOM     70  C   UNL A   1      40.853  26.139  26.190  1.00  0.00     0.001 A 
ATOM     71  C   UNL A   1      40.137  24.984  26.501  1.00  0.00     0.000 A 
ENDBRANCH  47  66
BRANCH  59  72
ATOM     72  C   UNL A   1      45.052  28.287  33.410  1.00  0.00    -0.014 A 
ATOM     73  C   UNL A   1      44.958  27.284  34.385  1.00  0.00     0.009 A 
ATOM     74  C   UNL A   1      46.302  28.563  32.832  1.00  0.00     0.009 A 
ATOM     75  C   UNL A   1      46.098  26.590  34.795  1.00  0.00     0.001 A 
ATOM     76  C   UNL A   1      47.435  27.851  33.225  1.00  0.00     0.001 A 
ATOM     77  C   UNL A   1      47.334  26.871  34.211  1.00  0.00     0.000 A 
ENDBRANCH  59  72
ENDBRANCH  33  34
ENDBRANCH  25  28
ENDBRANCH  23  24
ENDBRANCH   1  23
TORSDOF 13
ENDMDL
