MODEL 1
REMARK VINA RESULT:     -11.4      0.000      0.000
REMARK SMILES Cc1ccc(Cl)c(Nc2ccccc2C(=O)NCCCNC(=O)c2ccc(-c3c4nc(c(-c5ccccc5)c5ccc([nH]5)c(-c5ccccc5)c5nc(c(-c6ccccc6)c6ccc3[nH]6)C=C5)C=C4)cc2)c1Cl
REMARK SMILES IDX 19 1 18 2 17 3 15 4 16 5 14 7 9 8 10 9 11 10 13 11 12 12
REMARK SMILES IDX 8 13 7 15 1 16 2 17 3 18 72 19 4 20 73 21 5 22 6 23 20 24
REMARK SMILES IDX 21 25 22 26 23 28 24 29 25 30 71 31 26 32 70 33 27 34 28 35
REMARK SMILES IDX 29 36 64 37 30 38 69 39 63 40 65 41 31 42 68 43 62 44 61 45
REMARK SMILES IDX 32 47 54 48 39 49 53 50 40 51 43 52 52 53 66 54 41 55 42 56
REMARK SMILES IDX 51 58 67 59 44 60 33 61 34 62 38 63 35 64 37 65 36 66 55 67
REMARK SMILES IDX 56 68 60 69 57 70 59 71 58 72 45 73 46 74 50 75 47 76 49 77
REMARK SMILES IDX 48 78
REMARK H PARENT 17 6 8 14 21 27 65 46 43 57
REMARK Flexibility Score: inf
ROOT
ATOM      1  C   UNL A   1      32.200  28.078  26.953  1.00  0.00     0.042 C 
ENDROOT
BRANCH   1   2
ATOM      2  C   UNL A   1      32.235  26.634  26.506  1.00  0.00     0.118 C 
BRANCH   2   3
ATOM      3  N   UNL A   1      31.085  25.830  26.824  1.00  0.00    -0.352 N 
ATOM      4  C   UNL A   1      30.867  24.501  26.538  1.00  0.00     0.253 C 
ATOM      5  O   UNL A   1      29.919  23.959  27.111  1.00  0.00    -0.269 OA
ATOM      6  H   UNL A   1      30.361  26.289  27.308  1.00  0.00     0.163 HD
BRANCH   4   7
ATOM      7  C   UNL A   1      31.603  23.748  25.470  1.00  0.00     0.063 A 
ATOM      8  C   UNL A   1      31.524  23.879  24.066  1.00  0.00     0.051 A 
ATOM      9  C   UNL A   1      32.237  22.942  23.277  1.00  0.00     0.027 A 
ATOM     10  C   UNL A   1      33.057  21.962  23.835  1.00  0.00     0.002 A 
ATOM     11  C   UNL A   1      32.466  22.766  26.015  1.00  0.00     0.016 A 
ATOM     12  C   UNL A   1      33.194  21.890  25.211  1.00  0.00     0.001 A 
BRANCH   8  13
ATOM     13  N   UNL A   1      30.895  24.897  23.315  1.00  0.00    -0.352 N 
ATOM     14  H   UNL A   1      30.163  24.554  22.753  1.00  0.00     0.167 HD
BRANCH  13  15
ATOM     15  C   UNL A   1      31.071  26.297  23.182  1.00  0.00     0.077 A 
ATOM     16  C   UNL A   1      33.777  28.988  22.773  1.00  0.00     0.046 C 
ATOM     17  C   UNL A   1      32.452  28.318  23.018  1.00  0.00    -0.030 A 
ATOM     18  C   UNL A   1      31.365  29.098  23.440  1.00  0.00     0.006 A 
ATOM     19  C   UNL A   1      32.288  26.924  22.854  1.00  0.00     0.069 A 
ATOM     20  C   UNL A   1      30.125  28.513  23.668  1.00  0.00     0.023 A 
ATOM     21  Cl  UNL A   1      33.576  26.024  22.108  1.00  0.00    -0.082 Cl
ATOM     22  C   UNL A   1      29.979  27.134  23.533  1.00  0.00     0.066 A 
ATOM     23  Cl  UNL A   1      28.434  26.450  23.936  1.00  0.00    -0.082 Cl
ENDBRANCH  13  15
ENDBRANCH   8  13
ENDBRANCH   4   7
ENDBRANCH   2   3
ENDBRANCH   1   2
BRANCH   1  24
ATOM     24  C   UNL A   1      33.496  28.848  26.732  1.00  0.00     0.118 C 
BRANCH  24  25
ATOM     25  N   UNL A   1      33.582  30.136  27.428  1.00  0.00    -0.352 N 
ATOM     26  C   UNL A   1      34.575  30.724  28.184  1.00  0.00     0.251 C 
ATOM     27  H   UNL A   1      32.772  30.688  27.339  1.00  0.00     0.163 HD
ATOM     28  O   UNL A   1      34.358  31.791  28.744  1.00  0.00    -0.269 OA
BRANCH  26  29
ATOM     29  C   UNL A   1      35.888  30.064  28.358  1.00  0.00     0.039 A 
ATOM     30  C   UNL A   1      36.828  30.107  27.322  1.00  0.00     0.014 A 
ATOM     31  C   UNL A   1      36.202  29.404  29.541  1.00  0.00     0.014 A 
ATOM     32  C   UNL A   1      38.114  29.595  27.526  1.00  0.00     0.010 A 
ATOM     33  C   UNL A   1      37.513  29.034  29.797  1.00  0.00     0.010 A 
ATOM     34  C   UNL A   1      38.485  29.109  28.789  1.00  0.00    -0.014 A 
BRANCH  34  35
ATOM     35  C   UNL A   1      39.861  28.644  29.101  1.00  0.00     0.031 A 
ATOM     36  C   UNL A   1      40.848  29.604  29.713  1.00  0.00     0.074 A 
ATOM     37  C   UNL A   1      40.263  27.417  28.718  1.00  0.00     0.049 A 
ATOM     38  N   UNL A   1      42.138  29.466  29.896  1.00  0.00    -0.248 NA
ATOM     39  C   UNL A   1      40.324  30.918  30.120  1.00  0.00     0.031 C 
ATOM     40  C   UNL A   1      39.427  26.416  28.052  1.00  0.00     0.029 A 
ATOM     41  N   UNL A   1      41.491  26.811  28.814  1.00  0.00    -0.354 N 
ATOM     42  C   UNL A   1      42.578  30.688  30.387  1.00  0.00     0.074 A 
ATOM     43  C   UNL A   1      41.437  31.574  30.408  1.00  0.00     0.031 C 
ATOM     44  C   UNL A   1      40.158  25.313  27.824  1.00  0.00     0.029 A 
ATOM     45  C   UNL A   1      41.523  25.544  28.284  1.00  0.00     0.049 A 
ATOM     46  H   UNL A   1      42.275  27.244  29.224  1.00  0.00     0.167 HD
ATOM     47  C   UNL A   1      43.815  31.038  30.814  1.00  0.00     0.031 A 
ATOM     48  C   UNL A   1      42.540  24.670  28.171  1.00  0.00     0.031 A 
ATOM     49  C   UNL A   1      44.938  30.141  30.829  1.00  0.00     0.049 A 
ATOM     50  C   UNL A   1      43.896  25.057  28.691  1.00  0.00     0.074 A 
ATOM     51  C   UNL A   1      46.214  30.362  31.312  1.00  0.00     0.029 A 
ATOM     52  N   UNL A   1      44.910  28.843  30.341  1.00  0.00    -0.354 N 
ATOM     53  N   UNL A   1      44.283  26.194  29.218  1.00  0.00    -0.248 NA
ATOM     54  C   UNL A   1      44.948  24.036  28.614  1.00  0.00     0.031 C 
ATOM     55  C   UNL A   1      46.973  29.209  31.079  1.00  0.00     0.029 A 
ATOM     56  C   UNL A   1      46.153  28.254  30.499  1.00  0.00     0.049 A 
ATOM     57  H   UNL A   1      44.124  28.406  29.942  1.00  0.00     0.167 HD
ATOM     58  C   UNL A   1      45.619  26.019  29.556  1.00  0.00     0.074 A 
ATOM     59  C   UNL A   1      45.967  24.660  29.190  1.00  0.00     0.031 C 
ATOM     60  C   UNL A   1      46.479  26.902  30.121  1.00  0.00     0.031 A 
BRANCH  47  61
ATOM     61  C   UNL A   1      43.998  32.452  31.296  1.00  0.00    -0.014 A 
ATOM     62  C   UNL A   1      43.797  32.799  32.643  1.00  0.00     0.009 A 
ATOM     63  C   UNL A   1      44.356  33.461  30.388  1.00  0.00     0.009 A 
ATOM     64  C   UNL A   1      43.886  34.129  33.057  1.00  0.00     0.001 A 
ATOM     65  C   UNL A   1      44.482  34.785  30.811  1.00  0.00     0.001 A 
ATOM     66  C   UNL A   1      44.230  35.121  32.141  1.00  0.00     0.000 A 
ENDBRANCH  47  61
BRANCH  48  67
ATOM     67  C   UNL A   1      42.298  23.333  27.569  1.00  0.00    -0.014 A 
ATOM     68  C   UNL A   1      41.725  22.305  28.331  1.00  0.00     0.009 A 
ATOM     69  C   UNL A   1      42.599  23.090  26.219  1.00  0.00     0.009 A 
ATOM     70  C   UNL A   1      41.472  21.055  27.761  1.00  0.00     0.001 A 
ATOM     71  C   UNL A   1      42.321  21.847  25.645  1.00  0.00     0.001 A 
ATOM     72  C   UNL A   1      41.763  20.829  26.417  1.00  0.00     0.000 A 
ENDBRANCH  48  67
BRANCH  60  73
ATOM     73  C   UNL A   1      47.872  26.416  30.401  1.00  0.00    -0.014 A 
ATOM     74  C   UNL A   1      48.208  25.840  31.635  1.00  0.00     0.009 A 
ATOM     75  C   UNL A   1      48.848  26.492  29.395  1.00  0.00     0.009 A 
ATOM     76  C   UNL A   1      49.506  25.379  31.868  1.00  0.00     0.001 A 
ATOM     77  C   UNL A   1      50.135  26.006  29.620  1.00  0.00     0.001 A 
ATOM     78  C   UNL A   1      50.466  25.458  30.859  1.00  0.00     0.000 A 
ENDBRANCH  60  73
ENDBRANCH  34  35
ENDBRANCH  26  29
ENDBRANCH  24  25
ENDBRANCH   1  24
TORSDOF 12
ENDMDL
MODEL 2
REMARK VINA RESULT:     -11.2      1.073      1.597
REMARK SMILES Cc1ccc(Cl)c(Nc2ccccc2C(=O)NCCCNC(=O)c2ccc(-c3c4nc(c(-c5ccccc5)c5ccc([nH]5)c(-c5ccccc5)c5nc(c(-c6ccccc6)c6ccc3[nH]6)C=C5)C=C4)cc2)c1Cl
REMARK SMILES IDX 19 1 18 2 17 3 15 4 16 5 14 7 9 8 10 9 11 10 13 11 12 12
REMARK SMILES IDX 8 13 7 15 1 16 2 17 3 18 72 19 4 20 73 21 5 22 6 23 20 24
REMARK SMILES IDX 21 25 22 26 23 28 24 29 25 30 71 31 26 32 70 33 27 34 28 35
REMARK SMILES IDX 29 36 64 37 30 38 69 39 63 40 65 41 31 42 68 43 62 44 61 45
REMARK SMILES IDX 32 47 54 48 39 49 53 50 40 51 43 52 52 53 66 54 41 55 42 56
REMARK SMILES IDX 51 58 67 59 44 60 33 61 34 62 38 63 35 64 37 65 36 66 55 67
REMARK SMILES IDX 56 68 60 69 57 70 59 71 58 72 45 73 46 74 50 75 47 76 49 77
REMARK SMILES IDX 48 78
REMARK H PARENT 17 6 8 14 21 27 65 46 43 57
REMARK Flexibility Score: inf
ROOT
ATOM      1  C   UNL A   1      32.378  27.746  27.044  1.00  0.00     0.042 C 
ENDROOT
BRANCH   1   2
ATOM      2  C   UNL A   1      32.349  26.336  26.501  1.00  0.00     0.118 C 
BRANCH   2   3
ATOM      3  N   UNL A   1      31.200  25.537  26.835  1.00  0.00    -0.352 N 
ATOM      4  C   UNL A   1      30.940  24.230  26.491  1.00  0.00     0.253 C 
ATOM      5  O   UNL A   1      30.011  23.675  27.083  1.00  0.00    -0.269 OA
ATOM      6  H   UNL A   1      30.512  25.982  27.380  1.00  0.00     0.163 HD
BRANCH   4   7
ATOM      7  C   UNL A   1      31.604  23.522  25.348  1.00  0.00     0.063 A 
ATOM      8  C   UNL A   1      31.469  23.741  23.959  1.00  0.00     0.051 A 
ATOM      9  C   UNL A   1      32.116  22.833  23.085  1.00  0.00     0.027 A 
ATOM     10  C   UNL A   1      32.927  21.797  23.546  1.00  0.00     0.002 A 
ATOM     11  C   UNL A   1      32.457  22.483  25.795  1.00  0.00     0.016 A 
ATOM     12  C   UNL A   1      33.120  21.636  24.907  1.00  0.00     0.001 A 
BRANCH   8  13
ATOM     13  N   UNL A   1      30.843  24.822  23.300  1.00  0.00    -0.352 N 
ATOM     14  H   UNL A   1      30.058  24.541  22.776  1.00  0.00     0.167 HD
BRANCH  13  15
ATOM     15  C   UNL A   1      31.078  26.217  23.218  1.00  0.00     0.077 A 
ATOM     16  C   UNL A   1      33.898  28.803  22.912  1.00  0.00     0.046 C 
ATOM     17  C   UNL A   1      32.545  28.182  23.130  1.00  0.00    -0.030 A 
ATOM     18  C   UNL A   1      31.490  28.993  23.576  1.00  0.00     0.006 A 
ATOM     19  C   UNL A   1      32.323  26.803  22.915  1.00  0.00     0.069 A 
ATOM     20  C   UNL A   1      30.225  28.454  23.779  1.00  0.00     0.023 A 
ATOM     21  Cl  UNL A   1      33.575  25.876  22.142  1.00  0.00    -0.082 Cl
ATOM     22  C   UNL A   1      30.022  27.088  23.595  1.00  0.00     0.066 A 
ATOM     23  Cl  UNL A   1      28.447  26.456  23.969  1.00  0.00    -0.082 Cl
ENDBRANCH  13  15
ENDBRANCH   8  13
ENDBRANCH   4   7
ENDBRANCH   2   3
ENDBRANCH   1   2
BRANCH   1  24
ATOM     24  C   UNL A   1      33.699  28.481  26.847  1.00  0.00     0.118 C 
BRANCH  24  25
ATOM     25  N   UNL A   1      33.620  29.942  26.944  1.00  0.00    -0.352 N 
ATOM     26  C   UNL A   1      34.442  30.885  27.526  1.00  0.00     0.251 C 
ATOM     27  H   UNL A   1      32.824  30.324  26.509  1.00  0.00     0.163 HD
ATOM     28  O   UNL A   1      34.096  32.060  27.547  1.00  0.00    -0.269 OA
BRANCH  26  29
ATOM     29  C   UNL A   1      35.720  30.490  28.159  1.00  0.00     0.039 A 
ATOM     30  C   UNL A   1      35.706  29.814  29.385  1.00  0.00     0.014 A 
ATOM     31  C   UNL A   1      36.936  30.777  27.549  1.00  0.00     0.014 A 
ATOM     32  C   UNL A   1      36.902  29.328  29.926  1.00  0.00     0.010 A 
ATOM     33  C   UNL A   1      38.096  30.169  28.003  1.00  0.00     0.010 A 
ATOM     34  C   UNL A   1      38.099  29.448  29.206  1.00  0.00    -0.014 A 
BRANCH  34  35
ATOM     35  C   UNL A   1      39.383  28.867  29.676  1.00  0.00     0.031 A 
ATOM     36  C   UNL A   1      40.252  29.655  30.623  1.00  0.00     0.074 A 
ATOM     37  C   UNL A   1      39.830  27.707  29.157  1.00  0.00     0.049 A 
ATOM     38  N   UNL A   1      41.481  29.422  31.011  1.00  0.00    -0.248 NA
ATOM     39  C   UNL A   1      39.682  30.902  31.158  1.00  0.00     0.031 C 
ATOM     40  C   UNL A   1      39.119  26.881  28.179  1.00  0.00     0.029 A 
ATOM     41  N   UNL A   1      41.007  27.033  29.366  1.00  0.00    -0.354 N 
ATOM     42  C   UNL A   1      41.840  30.515  31.788  1.00  0.00     0.074 A 
ATOM     43  C   UNL A   1      40.731  31.441  31.759  1.00  0.00     0.031 C 
ATOM     44  C   UNL A   1      39.862  25.800  27.893  1.00  0.00     0.029 A 
ATOM     45  C   UNL A   1      41.119  25.879  28.630  1.00  0.00     0.049 A 
ATOM     46  H   UNL A   1      41.706  27.348  29.984  1.00  0.00     0.167 HD
ATOM     47  C   UNL A   1      42.979  30.723  32.491  1.00  0.00     0.031 A 
ATOM     48  C   UNL A   1      42.124  24.988  28.550  1.00  0.00     0.031 A 
ATOM     49  C   UNL A   1      44.064  29.782  32.549  1.00  0.00     0.049 A 
ATOM     50  C   UNL A   1      43.363  25.209  29.370  1.00  0.00     0.074 A 
ATOM     51  C   UNL A   1      45.229  29.850  33.291  1.00  0.00     0.029 A 
ATOM     52  N   UNL A   1      44.108  28.592  31.838  1.00  0.00    -0.354 N 
ATOM     53  N   UNL A   1      43.662  26.215  30.157  1.00  0.00    -0.248 NA
ATOM     54  C   UNL A   1      44.394  24.165  29.305  1.00  0.00     0.031 C 
ATOM     55  C   UNL A   1      45.999  28.719  32.996  1.00  0.00     0.029 A 
ATOM     56  C   UNL A   1      45.288  27.922  32.112  1.00  0.00     0.049 A 
ATOM     57  H   UNL A   1      43.405  28.271  31.229  1.00  0.00     0.167 HD
ATOM     58  C   UNL A   1      44.906  25.917  30.698  1.00  0.00     0.074 A 
ATOM     59  C   UNL A   1      45.295  24.627  30.162  1.00  0.00     0.031 C 
ATOM     60  C   UNL A   1      45.658  26.643  31.562  1.00  0.00     0.031 A 
BRANCH  47  61
ATOM     61  C   UNL A   1      43.091  32.020  33.247  1.00  0.00    -0.014 A 
ATOM     62  C   UNL A   1      42.624  32.141  34.567  1.00  0.00     0.009 A 
ATOM     63  C   UNL A   1      43.651  33.146  32.625  1.00  0.00     0.009 A 
ATOM     64  C   UNL A   1      42.656  33.373  35.223  1.00  0.00     0.001 A 
ATOM     65  C   UNL A   1      43.716  34.369  33.297  1.00  0.00     0.001 A 
ATOM     66  C   UNL A   1      43.203  34.485  34.588  1.00  0.00     0.000 A 
ENDBRANCH  47  61
BRANCH  48  67
ATOM     67  C   UNL A   1      41.978  23.791  27.681  1.00  0.00    -0.014 A 
ATOM     68  C   UNL A   1      42.472  23.803  26.368  1.00  0.00     0.009 A 
ATOM     69  C   UNL A   1      41.383  22.617  28.170  1.00  0.00     0.009 A 
ATOM     70  C   UNL A   1      42.360  22.671  25.557  1.00  0.00     0.001 A 
ATOM     71  C   UNL A   1      41.295  21.479  27.365  1.00  0.00     0.001 A 
ATOM     72  C   UNL A   1      41.779  21.509  26.058  1.00  0.00     0.000 A 
ENDBRANCH  48  67
BRANCH  60  73
ATOM     73  C   UNL A   1      46.964  26.046  32.000  1.00  0.00    -0.014 A 
ATOM     74  C   UNL A   1      48.149  26.281  31.288  1.00  0.00     0.009 A 
ATOM     75  C   UNL A   1      47.014  25.275  33.173  1.00  0.00     0.009 A 
ATOM     76  C   UNL A   1      49.355  25.729  31.724  1.00  0.00     0.001 A 
ATOM     77  C   UNL A   1      48.224  24.747  33.621  1.00  0.00     0.001 A 
ATOM     78  C   UNL A   1      49.392  24.967  32.892  1.00  0.00     0.000 A 
ENDBRANCH  60  73
ENDBRANCH  34  35
ENDBRANCH  26  29
ENDBRANCH  24  25
ENDBRANCH   1  24
TORSDOF 12
ENDMDL
MODEL 3
REMARK VINA RESULT:     -11.2      2.613      7.220
REMARK SMILES Cc1ccc(Cl)c(Nc2ccccc2C(=O)NCCCNC(=O)c2ccc(-c3c4nc(c(-c5ccccc5)c5ccc([nH]5)c(-c5ccccc5)c5nc(c(-c6ccccc6)c6ccc3[nH]6)C=C5)C=C4)cc2)c1Cl
REMARK SMILES IDX 19 1 18 2 17 3 15 4 16 5 14 7 9 8 10 9 11 10 13 11 12 12
REMARK SMILES IDX 8 13 7 15 1 16 2 17 3 18 72 19 4 20 73 21 5 22 6 23 20 24
REMARK SMILES IDX 21 25 22 26 23 28 24 29 25 30 71 31 26 32 70 33 27 34 28 35
REMARK SMILES IDX 29 36 64 37 30 38 69 39 63 40 65 41 31 42 68 43 62 44 61 45
REMARK SMILES IDX 32 47 54 48 39 49 53 50 40 51 43 52 52 53 66 54 41 55 42 56
REMARK SMILES IDX 51 58 67 59 44 60 33 61 34 62 38 63 35 64 37 65 36 66 55 67
REMARK SMILES IDX 56 68 60 69 57 70 59 71 58 72 45 73 46 74 50 75 47 76 49 77
REMARK SMILES IDX 48 78
REMARK H PARENT 17 6 8 14 21 27 65 46 43 57
REMARK Flexibility Score: inf
ROOT
ATOM      1  C   UNL A   1      37.783  20.083  24.735  1.00  0.00     0.042 C 
ENDROOT
BRANCH   1   2
ATOM      2  C   UNL A   1      37.024  21.314  24.294  1.00  0.00     0.118 C 
BRANCH   2   3
ATOM      3  N   UNL A   1      37.476  22.575  24.817  1.00  0.00    -0.352 N 
ATOM      4  C   UNL A   1      36.858  23.387  25.740  1.00  0.00     0.253 C 
ATOM      5  O   UNL A   1      37.536  24.301  26.217  1.00  0.00    -0.269 OA
ATOM      6  H   UNL A   1      38.339  22.899  24.470  1.00  0.00     0.163 HD
BRANCH   4   7
ATOM      7  C   UNL A   1      35.395  23.320  26.061  1.00  0.00     0.063 A 
ATOM      8  C   UNL A   1      34.339  24.140  25.605  1.00  0.00     0.051 A 
ATOM      9  C   UNL A   1      33.057  23.939  26.174  1.00  0.00     0.027 A 
ATOM     10  C   UNL A   1      32.797  22.925  27.095  1.00  0.00     0.002 A 
ATOM     11  C   UNL A   1      35.101  22.277  26.974  1.00  0.00     0.016 A 
ATOM     12  C   UNL A   1      33.817  22.073  27.478  1.00  0.00     0.001 A 
BRANCH   8  13
ATOM     13  N   UNL A   1      34.360  25.095  24.564  1.00  0.00    -0.352 N 
ATOM     14  H   UNL A   1      35.263  25.233  24.196  1.00  0.00     0.167 HD
BRANCH  13  15
ATOM     15  C   UNL A   1      33.385  25.902  23.926  1.00  0.00     0.077 A 
ATOM     16  C   UNL A   1      31.205  29.016  24.457  1.00  0.00     0.046 C 
ATOM     17  C   UNL A   1      31.766  27.745  23.879  1.00  0.00    -0.030 A 
ATOM     18  C   UNL A   1      31.102  27.138  22.803  1.00  0.00     0.006 A 
ATOM     19  C   UNL A   1      32.929  27.142  24.411  1.00  0.00     0.069 A 
ATOM     20  C   UNL A   1      31.597  25.968  22.239  1.00  0.00     0.023 A 
ATOM     21  Cl  UNL A   1      33.858  28.033  25.581  1.00  0.00    -0.082 Cl
ATOM     22  C   UNL A   1      32.727  25.364  22.789  1.00  0.00     0.066 A 
ATOM     23  Cl  UNL A   1      33.233  23.847  22.109  1.00  0.00    -0.082 Cl
ENDBRANCH  13  15
ENDBRANCH   8  13
ENDBRANCH   4   7
ENDBRANCH   2   3
ENDBRANCH   1   2
BRANCH   1  24
ATOM     24  C   UNL A   1      38.818  20.326  25.827  1.00  0.00     0.118 C 
BRANCH  24  25
ATOM     25  N   UNL A   1      39.963  19.411  25.815  1.00  0.00    -0.352 N 
ATOM     26  C   UNL A   1      41.302  19.588  26.097  1.00  0.00     0.251 C 
ATOM     27  H   UNL A   1      39.731  18.491  25.554  1.00  0.00     0.163 HD
ATOM     28  O   UNL A   1      42.086  18.663  25.918  1.00  0.00    -0.269 OA
BRANCH  26  29
ATOM     29  C   UNL A   1      41.811  20.892  26.576  1.00  0.00     0.039 A 
ATOM     30  C   UNL A   1      42.318  21.818  25.657  1.00  0.00     0.014 A 
ATOM     31  C   UNL A   1      41.786  21.213  27.929  1.00  0.00     0.014 A 
ATOM     32  C   UNL A   1      42.683  23.099  26.088  1.00  0.00     0.010 A 
ATOM     33  C   UNL A   1      42.002  22.521  28.332  1.00  0.00     0.010 A 
ATOM     34  C   UNL A   1      42.468  23.480  27.421  1.00  0.00    -0.014 A 
BRANCH  34  35
ATOM     35  C   UNL A   1      42.740  24.853  27.919  1.00  0.00     0.031 A 
ATOM     36  C   UNL A   1      44.128  25.214  28.380  1.00  0.00     0.074 A 
ATOM     37  C   UNL A   1      41.726  25.725  28.082  1.00  0.00     0.049 A 
ATOM     38  N   UNL A   1      44.540  26.283  29.015  1.00  0.00    -0.248 NA
ATOM     39  C   UNL A   1      45.181  24.212  28.149  1.00  0.00     0.031 C 
ATOM     40  C   UNL A   1      40.324  25.476  27.741  1.00  0.00     0.029 A 
ATOM     41  N   UNL A   1      41.720  26.996  28.601  1.00  0.00    -0.354 N 
ATOM     42  C   UNL A   1      45.880  26.054  29.299  1.00  0.00     0.074 A 
ATOM     43  C   UNL A   1      46.193  24.723  28.833  1.00  0.00     0.031 C 
ATOM     44  C   UNL A   1      39.599  26.567  28.036  1.00  0.00     0.029 A 
ATOM     45  C   UNL A   1      40.474  27.574  28.628  1.00  0.00     0.049 A 
ATOM     46  H   UNL A   1      42.531  27.450  28.925  1.00  0.00     0.167 HD
ATOM     47  C   UNL A   1      46.784  26.887  29.870  1.00  0.00     0.031 A 
ATOM     48  C   UNL A   1      40.078  28.775  29.086  1.00  0.00     0.031 A 
ATOM     49  C   UNL A   1      46.479  28.225  30.296  1.00  0.00     0.049 A 
ATOM     50  C   UNL A   1      41.100  29.705  29.675  1.00  0.00     0.074 A 
ATOM     51  C   UNL A   1      47.331  29.184  30.812  1.00  0.00     0.029 A 
ATOM     52  N   UNL A   1      45.216  28.795  30.245  1.00  0.00    -0.354 N 
ATOM     53  N   UNL A   1      42.380  29.503  29.875  1.00  0.00    -0.248 NA
ATOM     54  C   UNL A   1      40.626  31.033  30.086  1.00  0.00     0.031 C 
ATOM     55  C   UNL A   1      46.574  30.322  31.113  1.00  0.00     0.029 A 
ATOM     56  C   UNL A   1      45.261  30.089  30.733  1.00  0.00     0.049 A 
ATOM     57  H   UNL A   1      44.406  28.345  29.910  1.00  0.00     0.167 HD
ATOM     58  C   UNL A   1      42.871  30.684  30.415  1.00  0.00     0.074 A 
ATOM     59  C   UNL A   1      41.753  31.603  30.494  1.00  0.00     0.031 C 
ATOM     60  C   UNL A   1      44.134  30.983  30.809  1.00  0.00     0.031 A 
BRANCH  47  61
ATOM     61  C   UNL A   1      48.181  26.357  30.057  1.00  0.00    -0.014 A 
ATOM     62  C   UNL A   1      48.578  25.748  31.259  1.00  0.00     0.009 A 
ATOM     63  C   UNL A   1      49.122  26.487  29.024  1.00  0.00     0.009 A 
ATOM     64  C   UNL A   1      49.900  25.341  31.447  1.00  0.00     0.001 A 
ATOM     65  C   UNL A   1      50.435  26.045  29.201  1.00  0.00     0.001 A 
ATOM     66  C   UNL A   1      50.827  25.488  30.418  1.00  0.00     0.000 A 
ENDBRANCH  47  61
BRANCH  48  67
ATOM     67  C   UNL A   1      38.650  29.172  28.972  1.00  0.00    -0.014 A 
ATOM     68  C   UNL A   1      37.793  29.064  30.077  1.00  0.00     0.009 A 
ATOM     69  C   UNL A   1      38.145  29.697  27.772  1.00  0.00     0.009 A 
ATOM     70  C   UNL A   1      36.457  29.460  29.981  1.00  0.00     0.001 A 
ATOM     71  C   UNL A   1      36.815  30.116  27.686  1.00  0.00     0.001 A 
ATOM     72  C   UNL A   1      35.971  29.992  28.788  1.00  0.00     0.000 A 
ENDBRANCH  48  67
BRANCH  60  73
ATOM     73  C   UNL A   1      44.376  32.369  31.334  1.00  0.00    -0.014 A 
ATOM     74  C   UNL A   1      44.275  32.658  32.703  1.00  0.00     0.009 A 
ATOM     75  C   UNL A   1      44.759  33.388  30.447  1.00  0.00     0.009 A 
ATOM     76  C   UNL A   1      44.521  33.950  33.171  1.00  0.00     0.001 A 
ATOM     77  C   UNL A   1      45.031  34.672  30.921  1.00  0.00     0.001 A 
ATOM     78  C   UNL A   1      44.904  34.954  32.280  1.00  0.00     0.000 A 
ENDBRANCH  60  73
ENDBRANCH  34  35
ENDBRANCH  26  29
ENDBRANCH  24  25
ENDBRANCH   1  24
TORSDOF 12
ENDMDL
