MODEL 1
REMARK VINA RESULT:     -10.6      0.000      0.000
REMARK SMILES CCOC(=O)[C@@H](C)Oc1ccc(Br)cc1/C=C/C(=O)NCCCNC(=O)c1ccc(-c2c3nc(c(-c4ccccc4)c4ccc([nH]4)c(-c4ccccc4)c4nc(c(-c5ccccc5)c5ccc2[nH]5)C=C4)C=C3)cc1
REMARK SMILES IDX 18 1 19 2 20 3 17 5 16 6 15 7 9 8 10 9 11 10 14 11 12 12
REMARK SMILES IDX 13 13 8 14 6 15 7 16 4 17 5 18 3 19 2 20 1 21 21 22 22 23
REMARK SMILES IDX 23 24 24 25 25 26 26 28 27 29 28 30 74 31 29 32 73 33 30 34
REMARK SMILES IDX 31 35 32 36 67 37 33 38 72 39 66 40 68 41 34 42 71 43 65 44
REMARK SMILES IDX 64 45 35 47 57 48 42 49 56 50 43 51 46 52 55 53 69 54 44 55
REMARK SMILES IDX 45 56 54 58 70 59 47 60 36 61 37 62 41 63 38 64 40 65 39 66
REMARK SMILES IDX 58 67 59 68 63 69 60 70 62 71 61 72 48 73 49 74 53 75 50 76
REMARK SMILES IDX 52 77 51 78
REMARK H PARENT 20 4 24 27 68 46 46 57
REMARK Flexibility Score: inf
ROOT
ATOM      1  C   UNL A   1      37.452  23.286  25.644  1.00  0.00     0.244 C 
ATOM      2  O   UNL A   1      38.156  24.122  26.207  1.00  0.00    -0.270 OA
ATOM      3  N   UNL A   1      37.992  22.106  25.243  1.00  0.00    -0.352 N 
ATOM      4  H   UNL A   1      38.966  22.035  25.360  1.00  0.00     0.163 HD
ENDROOT
BRANCH   1   5
ATOM      5  C   UNL A   1      36.004  23.534  25.501  1.00  0.00     0.072 C 
ATOM      6  C   UNL A   1      35.095  23.292  26.459  1.00  0.00     0.017 C 
BRANCH   6   7
ATOM      7  C   UNL A   1      33.669  23.590  26.258  1.00  0.00     0.018 A 
ATOM      8  C   UNL A   1      32.712  22.560  26.196  1.00  0.00     0.127 A 
ATOM      9  C   UNL A   1      31.352  22.885  26.165  1.00  0.00     0.048 A 
ATOM     10  C   UNL A   1      30.941  24.213  26.057  1.00  0.00     0.019 A 
ATOM     11  C   UNL A   1      33.248  24.924  26.138  1.00  0.00     0.027 A 
ATOM     12  C   UNL A   1      31.892  25.227  26.026  1.00  0.00     0.018 A 
ATOM     13  Br  UNL A   1      31.340  27.028  25.877  1.00  0.00    -0.051 Br
BRANCH   8  14
ATOM     14  O   UNL A   1      33.126  21.255  26.298  1.00  0.00    -0.478 OA
BRANCH  14  15
ATOM     15  C   UNL A   1      33.480  20.600  25.069  1.00  0.00     0.279 C 
ATOM     16  C   UNL A   1      32.916  21.318  23.840  1.00  0.00     0.066 C 
BRANCH  15  17
ATOM     17  C   UNL A   1      33.325  19.071  25.015  1.00  0.00     0.347 C 
ATOM     18  O   UNL A   1      32.284  18.486  25.302  1.00  0.00    -0.248 OA
BRANCH  17  19
ATOM     19  O   UNL A   1      34.435  18.467  24.504  1.00  0.00    -0.463 OA
BRANCH  19  20
ATOM     20  C   UNL A   1      34.409  17.032  24.446  1.00  0.00     0.229 C 
ATOM     21  C   UNL A   1      34.234  16.567  23.016  1.00  0.00     0.049 C 
ENDBRANCH  19  20
ENDBRANCH  17  19
ENDBRANCH  15  17
ENDBRANCH  14  15
ENDBRANCH   8  14
ENDBRANCH   6   7
ENDBRANCH   1   5
BRANCH   3  22
ATOM     22  C   UNL A   1      37.359  20.932  24.667  1.00  0.00     0.118 C 
BRANCH  22  23
ATOM     23  C   UNL A   1      38.201  19.677  24.887  1.00  0.00     0.042 C 
BRANCH  23  24
ATOM     24  C   UNL A   1      39.144  19.770  26.086  1.00  0.00     0.118 C 
BRANCH  24  25
ATOM     25  N   UNL A   1      40.425  19.129  25.832  1.00  0.00    -0.352 N 
ATOM     26  C   UNL A   1      41.700  19.620  25.908  1.00  0.00     0.251 C 
ATOM     27  H   UNL A   1      40.364  18.184  25.559  1.00  0.00     0.163 HD
ATOM     28  O   UNL A   1      42.625  18.944  25.455  1.00  0.00    -0.269 OA
BRANCH  26  29
ATOM     29  C   UNL A   1      41.993  20.940  26.510  1.00  0.00     0.039 A 
ATOM     30  C   UNL A   1      42.351  21.988  25.654  1.00  0.00     0.014 A 
ATOM     31  C   UNL A   1      41.999  21.145  27.893  1.00  0.00     0.014 A 
ATOM     32  C   UNL A   1      42.679  23.239  26.179  1.00  0.00     0.010 A 
ATOM     33  C   UNL A   1      42.266  22.413  28.414  1.00  0.00     0.010 A 
ATOM     34  C   UNL A   1      42.619  23.470  27.563  1.00  0.00    -0.014 A 
BRANCH  34  35
ATOM     35  C   UNL A   1      42.929  24.816  28.109  1.00  0.00     0.031 A 
ATOM     36  C   UNL A   1      44.351  25.231  28.378  1.00  0.00     0.074 A 
ATOM     37  C   UNL A   1      41.920  25.671  28.365  1.00  0.00     0.049 A 
ATOM     38  N   UNL A   1      44.805  26.381  28.813  1.00  0.00    -0.248 NA
ATOM     39  C   UNL A   1      45.398  24.224  28.143  1.00  0.00     0.031 C 
ATOM     40  C   UNL A   1      40.495  25.378  28.188  1.00  0.00     0.029 A 
ATOM     41  N   UNL A   1      41.938  26.966  28.819  1.00  0.00    -0.354 N 
ATOM     42  C   UNL A   1      46.184  26.235  28.903  1.00  0.00     0.074 A 
ATOM     43  C   UNL A   1      46.489  24.871  28.528  1.00  0.00     0.031 C 
ATOM     44  C   UNL A   1      39.780  26.473  28.491  1.00  0.00     0.029 A 
ATOM     45  C   UNL A   1      40.690  27.534  28.910  1.00  0.00     0.049 A 
ATOM     46  H   UNL A   1      42.765  27.443  29.056  1.00  0.00     0.167 HD
ATOM     47  C   UNL A   1      47.116  27.158  29.242  1.00  0.00     0.031 A 
ATOM     48  C   UNL A   1      40.320  28.774  29.278  1.00  0.00     0.031 A 
ATOM     49  C   UNL A   1      46.819  28.516  29.614  1.00  0.00     0.049 A 
ATOM     50  C   UNL A   1      41.377  29.778  29.645  1.00  0.00     0.074 A 
ATOM     51  C   UNL A   1      47.698  29.531  29.954  1.00  0.00     0.029 A 
ATOM     52  N   UNL A   1      45.544  29.052  29.688  1.00  0.00    -0.354 N 
ATOM     53  N   UNL A   1      42.678  29.635  29.671  1.00  0.00    -0.248 NA
ATOM     54  C   UNL A   1      40.907  31.121  30.015  1.00  0.00     0.031 C 
ATOM     55  C   UNL A   1      46.952  30.672  30.265  1.00  0.00     0.029 A 
ATOM     56  C   UNL A   1      45.612  30.381  30.074  1.00  0.00     0.049 A 
ATOM     57  H   UNL A   1      44.712  28.561  29.494  1.00  0.00     0.167 HD
ATOM     58  C   UNL A   1      43.185  30.876  30.036  1.00  0.00     0.074 A 
ATOM     59  C   UNL A   1      42.052  31.764  30.194  1.00  0.00     0.031 C 
ATOM     60  C   UNL A   1      44.474  31.247  30.229  1.00  0.00     0.031 A 
BRANCH  47  61
ATOM     61  C   UNL A   1      48.557  26.729  29.216  1.00  0.00    -0.014 A 
ATOM     62  C   UNL A   1      49.163  26.178  30.357  1.00  0.00     0.009 A 
ATOM     63  C   UNL A   1      49.301  26.827  28.031  1.00  0.00     0.009 A 
ATOM     64  C   UNL A   1      50.493  25.755  30.317  1.00  0.00     0.001 A 
ATOM     65  C   UNL A   1      50.624  26.380  27.987  1.00  0.00     0.001 A 
ATOM     66  C   UNL A   1      51.221  25.851  29.131  1.00  0.00     0.000 A 
ENDBRANCH  47  61
BRANCH  48  67
ATOM     67  C   UNL A   1      38.883  29.154  29.298  1.00  0.00    -0.014 A 
ATOM     68  C   UNL A   1      38.273  29.700  28.158  1.00  0.00     0.009 A 
ATOM     69  C   UNL A   1      38.124  29.004  30.469  1.00  0.00     0.009 A 
ATOM     70  C   UNL A   1      36.944  30.124  28.201  1.00  0.00     0.001 A 
ATOM     71  C   UNL A   1      36.786  29.402  30.500  1.00  0.00     0.001 A 
ATOM     72  C   UNL A   1      36.201  29.973  29.371  1.00  0.00     0.000 A 
ENDBRANCH  48  67
BRANCH  60  73
ATOM     73  C   UNL A   1      44.717  32.682  30.603  1.00  0.00    -0.014 A 
ATOM     74  C   UNL A   1      44.763  33.085  31.946  1.00  0.00     0.009 A 
ATOM     75  C   UNL A   1      44.901  33.641  29.596  1.00  0.00     0.009 A 
ATOM     76  C   UNL A   1      44.942  34.431  32.273  1.00  0.00     0.001 A 
ATOM     77  C   UNL A   1      45.109  34.981  29.926  1.00  0.00     0.001 A 
ATOM     78  C   UNL A   1      45.116  35.377  31.262  1.00  0.00     0.000 A 
ENDBRANCH  60  73
ENDBRANCH  34  35
ENDBRANCH  26  29
ENDBRANCH  24  25
ENDBRANCH  23  24
ENDBRANCH  22  23
ENDBRANCH   3  22
TORSDOF 16
ENDMDL
MODEL 2
REMARK VINA RESULT:     -10.5      0.815      6.079
REMARK SMILES CCOC(=O)[C@@H](C)Oc1ccc(Br)cc1/C=C/C(=O)NCCCNC(=O)c1ccc(-c2c3nc(c(-c4ccccc4)c4ccc([nH]4)c(-c4ccccc4)c4nc(c(-c5ccccc5)c5ccc2[nH]5)C=C4)C=C3)cc1
REMARK SMILES IDX 18 1 19 2 20 3 17 5 16 6 15 7 9 8 10 9 11 10 14 11 12 12
REMARK SMILES IDX 13 13 8 14 6 15 7 16 4 17 5 18 3 19 2 20 1 21 21 22 22 23
REMARK SMILES IDX 23 24 24 25 25 26 26 28 27 29 28 30 74 31 29 32 73 33 30 34
REMARK SMILES IDX 31 35 32 36 67 37 33 38 72 39 66 40 68 41 34 42 71 43 65 44
REMARK SMILES IDX 64 45 35 47 57 48 42 49 56 50 43 51 46 52 55 53 69 54 44 55
REMARK SMILES IDX 45 56 54 58 70 59 47 60 36 61 37 62 41 63 38 64 40 65 39 66
REMARK SMILES IDX 58 67 59 68 63 69 60 70 62 71 61 72 48 73 49 74 53 75 50 76
REMARK SMILES IDX 52 77 51 78
REMARK H PARENT 20 4 24 27 68 46 46 57
REMARK Flexibility Score: inf
ROOT
ATOM      1  C   UNL A   1      37.414  23.468  25.545  1.00  0.00     0.244 C 
ATOM      2  O   UNL A   1      38.131  24.319  26.066  1.00  0.00    -0.270 OA
ATOM      3  N   UNL A   1      37.957  22.307  25.096  1.00  0.00    -0.352 N 
ATOM      4  H   UNL A   1      38.939  22.263  25.143  1.00  0.00     0.163 HD
ENDROOT
BRANCH   1   5
ATOM      5  C   UNL A   1      35.952  23.675  25.506  1.00  0.00     0.072 C 
ATOM      6  C   UNL A   1      35.248  23.897  24.385  1.00  0.00     0.017 C 
BRANCH   6   7
ATOM      7  C   UNL A   1      33.787  24.067  24.416  1.00  0.00     0.018 A 
ATOM      8  C   UNL A   1      32.925  22.954  24.431  1.00  0.00     0.127 A 
ATOM      9  C   UNL A   1      31.554  23.148  24.622  1.00  0.00     0.048 A 
ATOM     10  C   UNL A   1      31.017  24.435  24.659  1.00  0.00     0.019 A 
ATOM     11  C   UNL A   1      33.238  25.359  24.444  1.00  0.00     0.027 A 
ATOM     12  C   UNL A   1      31.860  25.535  24.552  1.00  0.00     0.018 A 
ATOM     13  Br  UNL A   1      31.137  27.281  24.599  1.00  0.00    -0.051 Br
BRANCH   8  14
ATOM     14  O   UNL A   1      33.463  21.692  24.389  1.00  0.00    -0.478 OA
BRANCH  14  15
ATOM     15  C   UNL A   1      33.088  20.803  25.454  1.00  0.00     0.279 C 
ATOM     16  C   UNL A   1      33.773  21.153  26.776  1.00  0.00     0.066 C 
BRANCH  15  17
ATOM     17  C   UNL A   1      33.079  19.296  25.145  1.00  0.00     0.347 C 
ATOM     18  O   UNL A   1      32.110  18.569  25.349  1.00  0.00    -0.248 OA
BRANCH  17  19
ATOM     19  O   UNL A   1      34.222  18.901  24.517  1.00  0.00    -0.463 OA
BRANCH  19  20
ATOM     20  C   UNL A   1      34.456  17.484  24.453  1.00  0.00     0.229 C 
ATOM     21  C   UNL A   1      34.118  16.959  23.074  1.00  0.00     0.049 C 
ENDBRANCH  19  20
ENDBRANCH  17  19
ENDBRANCH  15  17
ENDBRANCH  14  15
ENDBRANCH   8  14
ENDBRANCH   6   7
ENDBRANCH   1   5
BRANCH   3  22
ATOM     22  C   UNL A   1      37.318  21.119  24.554  1.00  0.00     0.118 C 
BRANCH  22  23
ATOM     23  C   UNL A   1      38.114  19.857  24.881  1.00  0.00     0.042 C 
BRANCH  23  24
ATOM     24  C   UNL A   1      39.052  20.013  26.078  1.00  0.00     0.118 C 
BRANCH  24  25
ATOM     25  N   UNL A   1      40.286  19.262  25.913  1.00  0.00    -0.352 N 
ATOM     26  C   UNL A   1      41.592  19.667  25.974  1.00  0.00     0.251 C 
ATOM     27  H   UNL A   1      40.162  18.303  25.724  1.00  0.00     0.163 HD
ATOM     28  O   UNL A   1      42.474  18.888  25.606  1.00  0.00    -0.269 OA
BRANCH  26  29
ATOM     29  C   UNL A   1      41.970  21.012  26.462  1.00  0.00     0.039 A 
ATOM     30  C   UNL A   1      41.952  21.240  27.842  1.00  0.00     0.014 A 
ATOM     31  C   UNL A   1      42.262  22.066  25.591  1.00  0.00     0.014 A 
ATOM     32  C   UNL A   1      42.258  22.505  28.347  1.00  0.00     0.010 A 
ATOM     33  C   UNL A   1      42.629  23.315  26.099  1.00  0.00     0.010 A 
ATOM     34  C   UNL A   1      42.620  23.549  27.481  1.00  0.00    -0.014 A 
BRANCH  34  35
ATOM     35  C   UNL A   1      42.985  24.881  28.030  1.00  0.00     0.031 A 
ATOM     36  C   UNL A   1      41.935  25.934  28.264  1.00  0.00     0.074 A 
ATOM     37  C   UNL A   1      44.275  25.143  28.318  1.00  0.00     0.049 A 
ATOM     38  N   UNL A   1      42.070  27.133  28.775  1.00  0.00    -0.248 NA
ATOM     39  C   UNL A   1      40.558  25.605  27.860  1.00  0.00     0.031 C 
ATOM     40  C   UNL A   1      45.396  24.225  28.100  1.00  0.00     0.029 A 
ATOM     41  N   UNL A   1      44.860  26.255  28.869  1.00  0.00    -0.354 N 
ATOM     42  C   UNL A   1      40.801  27.699  28.755  1.00  0.00     0.074 A 
ATOM     43  C   UNL A   1      39.919  26.734  28.134  1.00  0.00     0.031 C 
ATOM     44  C   UNL A   1      46.526  24.796  28.547  1.00  0.00     0.029 A 
ATOM     45  C   UNL A   1      46.215  26.127  29.058  1.00  0.00     0.049 A 
ATOM     46  H   UNL A   1      44.357  27.067  29.106  1.00  0.00     0.167 HD
ATOM     47  C   UNL A   1      40.400  28.901  29.231  1.00  0.00     0.031 A 
ATOM     48  C   UNL A   1      47.107  26.982  29.593  1.00  0.00     0.031 A 
ATOM     49  C   UNL A   1      41.272  29.863  29.851  1.00  0.00     0.049 A 
ATOM     50  C   UNL A   1      46.631  28.307  30.117  1.00  0.00     0.074 A 
ATOM     51  C   UNL A   1      40.953  31.102  30.385  1.00  0.00     0.029 A 
ATOM     52  N   UNL A   1      42.635  29.693  30.028  1.00  0.00    -0.354 N 
ATOM     53  N   UNL A   1      45.418  28.801  30.138  1.00  0.00    -0.248 NA
ATOM     54  C   UNL A   1      47.651  29.184  30.710  1.00  0.00     0.031 C 
ATOM     55  C   UNL A   1      42.130  31.693  30.854  1.00  0.00     0.029 A 
ATOM     56  C   UNL A   1      43.173  30.805  30.656  1.00  0.00     0.049 A 
ATOM     57  H   UNL A   1      43.146  28.898  29.750  1.00  0.00     0.167 HD
ATOM     58  C   UNL A   1      45.524  30.035  30.766  1.00  0.00     0.074 A 
ATOM     59  C   UNL A   1      46.915  30.200  31.136  1.00  0.00     0.031 C 
ATOM     60  C   UNL A   1      44.559  30.953  31.013  1.00  0.00     0.031 A 
BRANCH  47  61
ATOM     61  C   UNL A   1      38.940  29.244  29.109  1.00  0.00    -0.014 A 
ATOM     62  C   UNL A   1      38.413  29.720  27.899  1.00  0.00     0.009 A 
ATOM     63  C   UNL A   1      38.075  29.038  30.194  1.00  0.00     0.009 A 
ATOM     64  C   UNL A   1      37.051  30.007  27.784  1.00  0.00     0.001 A 
ATOM     65  C   UNL A   1      36.708  29.303  30.070  1.00  0.00     0.001 A 
ATOM     66  C   UNL A   1      36.199  29.794  28.868  1.00  0.00     0.000 A 
ENDBRANCH  47  61
BRANCH  48  67
ATOM     67  C   UNL A   1      48.542  26.607  29.686  1.00  0.00    -0.014 A 
ATOM     68  C   UNL A   1      49.027  25.913  30.806  1.00  0.00     0.009 A 
ATOM     69  C   UNL A   1      49.440  26.974  28.672  1.00  0.00     0.009 A 
ATOM     70  C   UNL A   1      50.389  25.628  30.925  1.00  0.00     0.001 A 
ATOM     71  C   UNL A   1      50.796  26.660  28.781  1.00  0.00     0.001 A 
ATOM     72  C   UNL A   1      51.272  25.999  29.913  1.00  0.00     0.000 A 
ENDBRANCH  48  67
BRANCH  60  73
ATOM     73  C   UNL A   1      44.978  32.199  31.739  1.00  0.00    -0.014 A 
ATOM     74  C   UNL A   1      45.411  33.337  31.041  1.00  0.00     0.009 A 
ATOM     75  C   UNL A   1      44.939  32.233  33.142  1.00  0.00     0.009 A 
ATOM     76  C   UNL A   1      45.842  34.469  31.736  1.00  0.00     0.001 A 
ATOM     77  C   UNL A   1      45.343  33.376  33.832  1.00  0.00     0.001 A 
ATOM     78  C   UNL A   1      45.806  34.487  33.130  1.00  0.00     0.000 A 
ENDBRANCH  60  73
ENDBRANCH  34  35
ENDBRANCH  26  29
ENDBRANCH  24  25
ENDBRANCH  23  24
ENDBRANCH  22  23
ENDBRANCH   3  22
TORSDOF 16
ENDMDL
MODEL 3
REMARK VINA RESULT:     -10.5      4.835      9.475
REMARK SMILES CCOC(=O)[C@@H](C)Oc1ccc(Br)cc1/C=C/C(=O)NCCCNC(=O)c1ccc(-c2c3nc(c(-c4ccccc4)c4ccc([nH]4)c(-c4ccccc4)c4nc(c(-c5ccccc5)c5ccc2[nH]5)C=C4)C=C3)cc1
REMARK SMILES IDX 18 1 19 2 20 3 17 5 16 6 15 7 9 8 10 9 11 10 14 11 12 12
REMARK SMILES IDX 13 13 8 14 6 15 7 16 4 17 5 18 3 19 2 20 1 21 21 22 22 23
REMARK SMILES IDX 23 24 24 25 25 26 26 28 27 29 28 30 74 31 29 32 73 33 30 34
REMARK SMILES IDX 31 35 32 36 67 37 33 38 72 39 66 40 68 41 34 42 71 43 65 44
REMARK SMILES IDX 64 45 35 47 57 48 42 49 56 50 43 51 46 52 55 53 69 54 44 55
REMARK SMILES IDX 45 56 54 58 70 59 47 60 36 61 37 62 41 63 38 64 40 65 39 66
REMARK SMILES IDX 58 67 59 68 63 69 60 70 62 71 61 72 48 73 49 74 53 75 50 76
REMARK SMILES IDX 52 77 51 78
REMARK H PARENT 20 4 24 27 68 46 46 57
REMARK Flexibility Score: inf
ROOT
ATOM      1  C   UNL A   1      33.894  29.139  27.121  1.00  0.00     0.244 C 
ATOM      2  O   UNL A   1      35.010  29.116  27.635  1.00  0.00    -0.270 OA
ATOM      3  N   UNL A   1      33.044  30.162  27.395  1.00  0.00    -0.352 N 
ATOM      4  H   UNL A   1      33.361  30.792  28.081  1.00  0.00     0.163 HD
ENDROOT
BRANCH   1   5
ATOM      5  C   UNL A   1      33.529  28.107  26.130  1.00  0.00     0.072 C 
ATOM      6  C   UNL A   1      33.928  28.112  24.848  1.00  0.00     0.017 C 
BRANCH   6   7
ATOM      7  C   UNL A   1      33.550  27.035  23.921  1.00  0.00     0.018 A 
ATOM      8  C   UNL A   1      32.677  27.276  22.843  1.00  0.00     0.127 A 
ATOM      9  C   UNL A   1      32.465  26.273  21.892  1.00  0.00     0.048 A 
ATOM     10  C   UNL A   1      32.999  24.997  22.073  1.00  0.00     0.019 A 
ATOM     11  C   UNL A   1      34.075  25.746  24.103  1.00  0.00     0.027 A 
ATOM     12  C   UNL A   1      33.787  24.734  23.188  1.00  0.00     0.018 A 
ATOM     13  Br  UNL A   1      34.510  23.006  23.439  1.00  0.00    -0.051 Br
BRANCH   8  14
ATOM     14  O   UNL A   1      32.152  28.533  22.676  1.00  0.00    -0.478 OA
BRANCH  14  15
ATOM     15  C   UNL A   1      30.898  28.793  23.327  1.00  0.00     0.279 C 
ATOM     16  C   UNL A   1      30.276  27.529  23.925  1.00  0.00     0.066 C 
BRANCH  15  17
ATOM     17  C   UNL A   1      29.889  29.685  22.585  1.00  0.00     0.347 C 
ATOM     18  O   UNL A   1      29.874  29.818  21.363  1.00  0.00    -0.248 OA
BRANCH  17  19
ATOM     19  O   UNL A   1      28.958  30.209  23.430  1.00  0.00    -0.463 OA
BRANCH  19  20
ATOM     20  C   UNL A   1      27.598  30.199  22.964  1.00  0.00     0.229 C 
ATOM     21  C   UNL A   1      26.975  28.840  23.193  1.00  0.00     0.049 C 
ENDBRANCH  19  20
ENDBRANCH  17  19
ENDBRANCH  15  17
ENDBRANCH  14  15
ENDBRANCH   8  14
ENDBRANCH   6   7
ENDBRANCH   1   5
BRANCH   3  22
ATOM     22  C   UNL A   1      31.737  30.471  26.840  1.00  0.00     0.118 C 
BRANCH  22  23
ATOM     23  C   UNL A   1      31.439  31.968  26.910  1.00  0.00     0.042 C 
BRANCH  23  24
ATOM     24  C   UNL A   1      32.690  32.845  26.928  1.00  0.00     0.118 C 
BRANCH  24  25
ATOM     25  N   UNL A   1      32.501  34.062  27.702  1.00  0.00    -0.352 N 
ATOM     26  C   UNL A   1      33.189  34.551  28.779  1.00  0.00     0.251 C 
ATOM     27  H   UNL A   1      31.752  34.627  27.402  1.00  0.00     0.163 HD
ATOM     28  O   UNL A   1      32.724  35.511  29.396  1.00  0.00    -0.269 OA
BRANCH  26  29
ATOM     29  C   UNL A   1      34.468  33.955  29.223  1.00  0.00     0.039 A 
ATOM     30  C   UNL A   1      34.444  33.096  30.328  1.00  0.00     0.014 A 
ATOM     31  C   UNL A   1      35.691  34.283  28.630  1.00  0.00     0.014 A 
ATOM     32  C   UNL A   1      35.632  32.544  30.812  1.00  0.00     0.010 A 
ATOM     33  C   UNL A   1      36.871  33.682  29.074  1.00  0.00     0.010 A 
ATOM     34  C   UNL A   1      36.854  32.814  30.176  1.00  0.00    -0.014 A 
BRANCH  34  35
ATOM     35  C   UNL A   1      38.108  32.189  30.672  1.00  0.00     0.031 A 
ATOM     36  C   UNL A   1      38.619  30.906  30.073  1.00  0.00     0.074 A 
ATOM     37  C   UNL A   1      38.790  32.783  31.670  1.00  0.00     0.049 A 
ATOM     38  N   UNL A   1      39.716  30.246  30.354  1.00  0.00    -0.248 NA
ATOM     39  C   UNL A   1      37.788  30.274  29.036  1.00  0.00     0.031 C 
ATOM     40  C   UNL A   1      38.381  34.007  32.365  1.00  0.00     0.029 A 
ATOM     41  N   UNL A   1      39.978  32.445  32.267  1.00  0.00    -0.354 N 
ATOM     42  C   UNL A   1      39.706  29.126  29.531  1.00  0.00     0.074 A 
ATOM     43  C   UNL A   1      38.471  29.168  28.778  1.00  0.00     0.031 C 
ATOM     44  C   UNL A   1      39.321  34.337  33.265  1.00  0.00     0.029 A 
ATOM     45  C   UNL A   1      40.383  33.337  33.231  1.00  0.00     0.049 A 
ATOM     46  H   UNL A   1      40.492  31.641  32.027  1.00  0.00     0.167 HD
ATOM     47  C   UNL A   1      40.649  28.164  29.395  1.00  0.00     0.031 A 
ATOM     48  C   UNL A   1      41.491  33.354  33.994  1.00  0.00     0.031 A 
ATOM     49  C   UNL A   1      41.879  28.118  30.139  1.00  0.00     0.049 A 
ATOM     50  C   UNL A   1      42.522  32.274  33.818  1.00  0.00     0.074 A 
ATOM     51  C   UNL A   1      42.907  27.193  30.056  1.00  0.00     0.029 A 
ATOM     52  N   UNL A   1      42.253  29.042  31.101  1.00  0.00    -0.354 N 
ATOM     53  N   UNL A   1      42.518  31.255  32.995  1.00  0.00    -0.248 NA
ATOM     54  C   UNL A   1      43.719  32.364  34.665  1.00  0.00     0.031 C 
ATOM     55  C   UNL A   1      43.887  27.540  30.991  1.00  0.00     0.029 A 
ATOM     56  C   UNL A   1      43.492  28.707  31.623  1.00  0.00     0.049 A 
ATOM     57  H   UNL A   1      41.718  29.824  31.373  1.00  0.00     0.167 HD
ATOM     58  C   UNL A   1      43.722  30.594  33.210  1.00  0.00     0.074 A 
ATOM     59  C   UNL A   1      44.440  31.346  34.218  1.00  0.00     0.031 C 
ATOM     60  C   UNL A   1      44.190  29.464  32.627  1.00  0.00     0.031 A 
BRANCH  47  61
ATOM     61  C   UNL A   1      40.390  27.077  28.389  1.00  0.00    -0.014 A 
ATOM     62  C   UNL A   1      40.898  27.170  27.083  1.00  0.00     0.009 A 
ATOM     63  C   UNL A   1      39.679  25.926  28.760  1.00  0.00     0.009 A 
ATOM     64  C   UNL A   1      40.680  26.143  26.163  1.00  0.00     0.001 A 
ATOM     65  C   UNL A   1      39.482  24.888  27.845  1.00  0.00     0.001 A 
ATOM     66  C   UNL A   1      39.976  25.001  26.546  1.00  0.00     0.000 A 
ENDBRANCH  47  61
BRANCH  48  67
ATOM     67  C   UNL A   1      41.704  34.442  34.983  1.00  0.00    -0.014 A 
ATOM     68  C   UNL A   1      41.224  34.318  36.297  1.00  0.00     0.009 A 
ATOM     69  C   UNL A   1      42.358  35.626  34.608  1.00  0.00     0.009 A 
ATOM     70  C   UNL A   1      41.360  35.371  37.202  1.00  0.00     0.001 A 
ATOM     71  C   UNL A   1      42.519  36.667  35.526  1.00  0.00     0.001 A 
ATOM     72  C   UNL A   1      42.009  36.544  36.817  1.00  0.00     0.000 A 
ENDBRANCH  48  67
BRANCH  60  73
ATOM     73  C   UNL A   1      45.552  28.998  33.053  1.00  0.00    -0.014 A 
ATOM     74  C   UNL A   1      46.711  29.435  32.391  1.00  0.00     0.009 A 
ATOM     75  C   UNL A   1      45.678  28.108  34.131  1.00  0.00     0.009 A 
ATOM     76  C   UNL A   1      47.965  28.953  32.771  1.00  0.00     0.001 A 
ATOM     77  C   UNL A   1      46.936  27.650  34.527  1.00  0.00     0.001 A 
ATOM     78  C   UNL A   1      48.076  28.062  33.839  1.00  0.00     0.000 A 
ENDBRANCH  60  73
ENDBRANCH  34  35
ENDBRANCH  26  29
ENDBRANCH  24  25
ENDBRANCH  23  24
ENDBRANCH  22  23
ENDBRANCH   3  22
TORSDOF 16
ENDMDL
