MODEL 1
REMARK VINA RESULT:     -11.7      0.000      0.000
REMARK SMILES CC1=C2C(=O)N(C[C@H]3CCCO3)C(=O)N=C2S[C@@H]1C(=O)NCCCNC(=O)c1ccc(-c2c3nc(c(-c4ccccc4)c4ccc([nH]4)c(-c4ccccc4)c4nc(c(-c5ccccc5)c5ccc2[nH]5)C=C4)C=C3)cc1
REMARK SMILES IDX 23 1 22 2 21 3 19 4 20 5 18 7 1 8 2 9 3 10 4 11 16 12 17 13
REMARK SMILES IDX 5 14 6 15 15 16 13 17 14 18 7 19 8 20 9 21 12 22 10 23 11 24
REMARK SMILES IDX 24 25 25 26 26 27 27 29 28 30 29 31 75 32 30 33 74 34 31 35
REMARK SMILES IDX 32 36 33 37 68 38 34 39 73 40 67 41 69 42 35 43 72 44 66 45
REMARK SMILES IDX 65 46 36 48 58 49 43 50 57 51 44 52 47 53 56 54 70 55 45 56
REMARK SMILES IDX 46 57 55 59 71 60 48 61 37 62 38 63 42 64 39 65 41 66 40 67
REMARK SMILES IDX 59 68 60 69 64 70 61 71 63 72 62 73 49 74 50 75 54 76 51 77
REMARK SMILES IDX 53 78 52 79
REMARK H PARENT 21 6 25 28 69 47 47 58
REMARK Flexibility Score: inf
ROOT
ATOM      1  C   UNL A   1      37.767  19.683  25.089  1.00  0.00     0.042 C 
ENDROOT
BRANCH   1   2
ATOM      2  C   UNL A   1      36.674  20.719  24.886  1.00  0.00     0.117 C 
BRANCH   2   3
ATOM      3  N   UNL A   1      35.346  20.135  24.964  1.00  0.00    -0.355 N 
ATOM      4  C   UNL A   1      34.109  20.670  24.758  1.00  0.00     0.237 C 
ATOM      5  O   UNL A   1      33.142  19.916  24.912  1.00  0.00    -0.273 OA
ATOM      6  H   UNL A   1      35.338  19.182  25.208  1.00  0.00     0.163 HD
BRANCH   4   7
ATOM      7  C   UNL A   1      33.888  22.125  24.321  1.00  0.00     0.169 C 
ATOM      8  C   UNL A   1      34.339  23.156  26.639  1.00  0.00     0.042 C 
ATOM      9  C   UNL A   1      33.471  23.058  25.424  1.00  0.00    -0.035 C 
ATOM     10  C   UNL A   1      32.326  23.721  25.208  1.00  0.00     0.073 C 
ATOM     11  C   UNL A   1      31.568  24.605  26.085  1.00  0.00     0.264 C 
ATOM     12  C   UNL A   1      31.741  23.486  23.902  1.00  0.00     0.116 C 
ATOM     13  S   UNL A   1      32.580  22.229  23.047  1.00  0.00    -0.087 SA
ATOM     14  O   UNL A   1      31.574  24.456  27.300  1.00  0.00    -0.268 OA
ATOM     15  N   UNL A   1      30.840  25.525  25.372  1.00  0.00    -0.256 N 
ATOM     16  N   UNL A   1      30.735  24.116  23.426  1.00  0.00    -0.186 NA
ATOM     17  C   UNL A   1      30.241  25.181  24.149  1.00  0.00     0.351 C 
ATOM     18  O   UNL A   1      29.290  25.826  23.713  1.00  0.00    -0.246 OA
BRANCH  15  19
ATOM     19  C   UNL A   1      30.586  26.869  25.890  1.00  0.00     0.163 C 
BRANCH  19  20
ATOM     20  C   UNL A   1      31.625  27.993  25.710  1.00  0.00     0.138 C 
ATOM     21  C   UNL A   1      32.701  28.132  26.786  1.00  0.00     0.036 C 
ATOM     22  O   UNL A   1      32.339  27.709  24.481  1.00  0.00    -0.376 OA
ATOM     23  C   UNL A   1      33.896  27.415  26.226  1.00  0.00     0.031 C 
ATOM     24  C   UNL A   1      33.746  27.656  24.747  1.00  0.00     0.160 C 
ENDBRANCH  19  20
ENDBRANCH  15  19
ENDBRANCH   4   7
ENDBRANCH   2   3
ENDBRANCH   1   2
BRANCH   1  25
ATOM     25  C   UNL A   1      39.006  20.266  25.745  1.00  0.00     0.118 C 
BRANCH  25  26
ATOM     26  N   UNL A   1      40.077  19.283  25.871  1.00  0.00    -0.352 N 
ATOM     27  C   UNL A   1      41.405  19.480  26.162  1.00  0.00     0.251 C 
ATOM     28  H   UNL A   1      39.811  18.347  25.728  1.00  0.00     0.163 HD
ATOM     29  O   UNL A   1      42.209  18.562  26.045  1.00  0.00    -0.269 OA
BRANCH  27  30
ATOM     30  C   UNL A   1      41.856  20.815  26.598  1.00  0.00     0.039 A 
ATOM     31  C   UNL A   1      42.340  21.718  25.650  1.00  0.00     0.014 A 
ATOM     32  C   UNL A   1      41.769  21.176  27.945  1.00  0.00     0.014 A 
ATOM     33  C   UNL A   1      42.667  23.017  26.042  1.00  0.00     0.010 A 
ATOM     34  C   UNL A   1      42.013  22.490  28.317  1.00  0.00     0.010 A 
ATOM     35  C   UNL A   1      42.468  23.421  27.371  1.00  0.00    -0.014 A 
BRANCH  35  36
ATOM     36  C   UNL A   1      42.739  24.806  27.824  1.00  0.00     0.031 A 
ATOM     37  C   UNL A   1      44.132  25.185  28.241  1.00  0.00     0.074 A 
ATOM     38  C   UNL A   1      41.724  25.677  27.972  1.00  0.00     0.049 A 
ATOM     39  N   UNL A   1      44.549  26.267  28.846  1.00  0.00    -0.248 NA
ATOM     40  C   UNL A   1      45.190  24.194  27.977  1.00  0.00     0.031 C 
ATOM     41  C   UNL A   1      40.322  25.421  27.632  1.00  0.00     0.029 A 
ATOM     42  N   UNL A   1      41.716  26.955  28.473  1.00  0.00    -0.354 N 
ATOM     43  C   UNL A   1      45.905  26.069  29.071  1.00  0.00     0.074 A 
ATOM     44  C   UNL A   1      46.234  24.752  28.572  1.00  0.00     0.031 C 
ATOM     45  C   UNL A   1      39.594  26.512  27.922  1.00  0.00     0.029 A 
ATOM     46  C   UNL A   1      40.466  27.523  28.511  1.00  0.00     0.049 A 
ATOM     47  H   UNL A   1      42.529  27.420  28.777  1.00  0.00     0.167 HD
ATOM     48  C   UNL A   1      46.800  26.914  29.635  1.00  0.00     0.031 A 
ATOM     49  C   UNL A   1      40.065  28.717  28.985  1.00  0.00     0.031 A 
ATOM     50  C   UNL A   1      46.478  28.235  30.099  1.00  0.00     0.049 A 
ATOM     51  C   UNL A   1      41.080  29.644  29.592  1.00  0.00     0.074 A 
ATOM     52  C   UNL A   1      47.324  29.191  30.632  1.00  0.00     0.029 A 
ATOM     53  N   UNL A   1      45.208  28.788  30.076  1.00  0.00    -0.354 N 
ATOM     54  N   UNL A   1      42.366  29.460  29.765  1.00  0.00    -0.248 NA
ATOM     55  C   UNL A   1      40.588  30.947  30.064  1.00  0.00     0.031 C 
ATOM     56  C   UNL A   1      46.558  30.315  30.961  1.00  0.00     0.029 A 
ATOM     57  C   UNL A   1      45.244  30.071  30.592  1.00  0.00     0.049 A 
ATOM     58  H   UNL A   1      44.399  28.335  29.742  1.00  0.00     0.167 HD
ATOM     59  C   UNL A   1      42.843  30.632  30.334  1.00  0.00     0.074 A 
ATOM     60  C   UNL A   1      41.710  31.524  30.472  1.00  0.00     0.031 C 
ATOM     61  C   UNL A   1      44.108  30.946  30.704  1.00  0.00     0.031 A 
BRANCH  48  62
ATOM     62  C   UNL A   1      48.213  26.424  29.781  1.00  0.00    -0.014 A 
ATOM     63  C   UNL A   1      49.163  26.631  28.769  1.00  0.00     0.009 A 
ATOM     64  C   UNL A   1      48.604  25.766  30.957  1.00  0.00     0.009 A 
ATOM     65  C   UNL A   1      50.467  26.153  28.915  1.00  0.00     0.001 A 
ATOM     66  C   UNL A   1      49.915  25.314  31.112  1.00  0.00     0.001 A 
ATOM     67  C   UNL A   1      50.842  25.499  30.088  1.00  0.00     0.000 A 
ENDBRANCH  48  62
BRANCH  49  68
ATOM     68  C   UNL A   1      38.636  29.112  28.892  1.00  0.00    -0.014 A 
ATOM     69  C   UNL A   1      38.134  29.672  27.707  1.00  0.00     0.009 A 
ATOM     70  C   UNL A   1      37.769  28.932  29.980  1.00  0.00     0.009 A 
ATOM     71  C   UNL A   1      36.797  30.066  27.622  1.00  0.00     0.001 A 
ATOM     72  C   UNL A   1      36.426  29.302  29.882  1.00  0.00     0.001 A 
ATOM     73  C   UNL A   1      35.943  29.876  28.708  1.00  0.00     0.000 A 
ENDBRANCH  49  68
BRANCH  61  74
ATOM     74  C   UNL A   1      44.346  32.326  31.243  1.00  0.00    -0.014 A 
ATOM     75  C   UNL A   1      44.282  32.593  32.619  1.00  0.00     0.009 A 
ATOM     76  C   UNL A   1      44.698  33.359  30.360  1.00  0.00     0.009 A 
ATOM     77  C   UNL A   1      44.547  33.877  33.098  1.00  0.00     0.001 A 
ATOM     78  C   UNL A   1      44.984  34.636  30.844  1.00  0.00     0.001 A 
ATOM     79  C   UNL A   1      44.902  34.895  32.212  1.00  0.00     0.000 A 
ENDBRANCH  61  74
ENDBRANCH  35  36
ENDBRANCH  27  30
ENDBRANCH  25  26
ENDBRANCH   1  25
TORSDOF 12
ENDMDL
MODEL 2
REMARK VINA RESULT:     -11.6      3.147      8.743
REMARK SMILES CC1=C2C(=O)N(C[C@H]3CCCO3)C(=O)N=C2S[C@@H]1C(=O)NCCCNC(=O)c1ccc(-c2c3nc(c(-c4ccccc4)c4ccc([nH]4)c(-c4ccccc4)c4nc(c(-c5ccccc5)c5ccc2[nH]5)C=C4)C=C3)cc1
REMARK SMILES IDX 23 1 22 2 21 3 19 4 20 5 18 7 1 8 2 9 3 10 4 11 16 12 17 13
REMARK SMILES IDX 5 14 6 15 15 16 13 17 14 18 7 19 8 20 9 21 12 22 10 23 11 24
REMARK SMILES IDX 24 25 25 26 26 27 27 29 28 30 29 31 75 32 30 33 74 34 31 35
REMARK SMILES IDX 32 36 33 37 68 38 34 39 73 40 67 41 69 42 35 43 72 44 66 45
REMARK SMILES IDX 65 46 36 48 58 49 43 50 57 51 44 52 47 53 56 54 70 55 45 56
REMARK SMILES IDX 46 57 55 59 71 60 48 61 37 62 38 63 42 64 39 65 41 66 40 67
REMARK SMILES IDX 59 68 60 69 64 70 61 71 63 72 62 73 49 74 50 75 54 76 51 77
REMARK SMILES IDX 53 78 52 79
REMARK H PARENT 21 6 25 28 69 47 47 58
REMARK Flexibility Score: inf
ROOT
ATOM      1  C   UNL A   1      31.546  31.997  26.534  1.00  0.00     0.042 C 
ENDROOT
BRANCH   1   2
ATOM      2  C   UNL A   1      31.730  30.549  26.112  1.00  0.00     0.117 C 
BRANCH   2   3
ATOM      3  N   UNL A   1      31.018  30.243  24.882  1.00  0.00    -0.355 N 
ATOM      4  C   UNL A   1      30.802  29.064  24.230  1.00  0.00     0.237 C 
ATOM      5  O   UNL A   1      30.158  29.119  23.178  1.00  0.00    -0.273 OA
ATOM      6  H   UNL A   1      30.620  31.027  24.440  1.00  0.00     0.163 HD
BRANCH   4   7
ATOM      7  C   UNL A   1      31.289  27.711  24.766  1.00  0.00     0.169 C 
ATOM      8  C   UNL A   1      33.745  28.026  24.053  1.00  0.00     0.042 C 
ATOM      9  C   UNL A   1      32.517  27.170  24.088  1.00  0.00    -0.035 C 
ATOM     10  C   UNL A   1      32.386  25.946  23.560  1.00  0.00     0.073 C 
ATOM     11  C   UNL A   1      33.309  25.165  22.745  1.00  0.00     0.264 C 
ATOM     12  C   UNL A   1      31.102  25.322  23.820  1.00  0.00     0.116 C 
ATOM     13  S   UNL A   1      29.996  26.432  24.568  1.00  0.00    -0.087 SA
ATOM     14  O   UNL A   1      34.104  25.705  21.989  1.00  0.00    -0.268 OA
ATOM     15  N   UNL A   1      33.106  23.816  22.900  1.00  0.00    -0.256 N 
ATOM     16  N   UNL A   1      30.807  24.110  23.538  1.00  0.00    -0.186 NA
ATOM     17  C   UNL A   1      31.813  23.294  23.067  1.00  0.00     0.351 C 
ATOM     18  O   UNL A   1      31.573  22.117  22.808  1.00  0.00    -0.246 OA
BRANCH  15  19
ATOM     19  C   UNL A   1      34.210  22.860  22.815  1.00  0.00     0.163 C 
BRANCH  19  20
ATOM     20  C   UNL A   1      35.041  22.501  24.061  1.00  0.00     0.138 C 
ATOM     21  C   UNL A   1      36.211  23.418  24.414  1.00  0.00     0.036 C 
ATOM     22  O   UNL A   1      34.141  22.566  25.196  1.00  0.00    -0.376 OA
ATOM     23  C   UNL A   1      35.669  24.339  25.470  1.00  0.00     0.031 C 
ATOM     24  C   UNL A   1      34.678  23.456  26.181  1.00  0.00     0.160 C 
ENDBRANCH  19  20
ENDBRANCH  15  19
ENDBRANCH   4   7
ENDBRANCH   2   3
ENDBRANCH   1   2
BRANCH   1  25
ATOM     25  C   UNL A   1      32.765  32.553  27.247  1.00  0.00     0.118 C 
BRANCH  25  26
ATOM     26  N   UNL A   1      32.539  33.902  27.754  1.00  0.00    -0.352 N 
ATOM     27  C   UNL A   1      33.220  34.587  28.732  1.00  0.00     0.251 C 
ATOM     28  H   UNL A   1      31.793  34.391  27.338  1.00  0.00     0.163 HD
ATOM     29  O   UNL A   1      32.781  35.645  29.169  1.00  0.00    -0.269 OA
BRANCH  27  30
ATOM     30  C   UNL A   1      34.475  34.025  29.263  1.00  0.00     0.039 A 
ATOM     31  C   UNL A   1      34.445  33.269  30.437  1.00  0.00     0.014 A 
ATOM     32  C   UNL A   1      35.675  34.225  28.577  1.00  0.00     0.014 A 
ATOM     33  C   UNL A   1      35.611  32.647  30.884  1.00  0.00     0.010 A 
ATOM     34  C   UNL A   1      36.813  33.537  28.975  1.00  0.00     0.010 A 
ATOM     35  C   UNL A   1      36.793  32.745  30.133  1.00  0.00    -0.014 A 
BRANCH  35  36
ATOM     36  C   UNL A   1      38.041  32.052  30.531  1.00  0.00     0.031 A 
ATOM     37  C   UNL A   1      39.001  32.738  31.461  1.00  0.00     0.074 A 
ATOM     38  C   UNL A   1      38.363  30.871  29.969  1.00  0.00     0.049 A 
ATOM     39  N   UNL A   1      40.224  32.405  31.781  1.00  0.00    -0.248 NA
ATOM     40  C   UNL A   1      38.534  33.990  32.081  1.00  0.00     0.031 C 
ATOM     41  C   UNL A   1      37.531  30.117  29.029  1.00  0.00     0.029 A 
ATOM     42  N   UNL A   1      39.497  30.109  30.095  1.00  0.00    -0.354 N 
ATOM     43  C   UNL A   1      40.685  33.424  32.604  1.00  0.00     0.074 A 
ATOM     44  C   UNL A   1      39.626  34.404  32.705  1.00  0.00     0.031 C 
ATOM     45  C   UNL A   1      38.178  28.995  28.674  1.00  0.00     0.029 A 
ATOM     46  C   UNL A   1      39.485  28.974  29.322  1.00  0.00     0.049 A 
ATOM     47  H   UNL A   1      40.249  30.353  30.683  1.00  0.00     0.167 HD
ATOM     48  C   UNL A   1      41.881  33.529  33.229  1.00  0.00     0.031 A 
ATOM     49  C   UNL A   1      40.430  28.033  29.140  1.00  0.00     0.031 A 
ATOM     50  C   UNL A   1      42.919  32.538  33.154  1.00  0.00     0.049 A 
ATOM     51  C   UNL A   1      41.744  28.164  29.857  1.00  0.00     0.074 A 
ATOM     52  C   UNL A   1      44.144  32.523  33.797  1.00  0.00     0.029 A 
ATOM     53  N   UNL A   1      42.846  31.381  32.395  1.00  0.00    -0.354 N 
ATOM     54  N   UNL A   1      42.154  29.113  30.663  1.00  0.00    -0.248 NA
ATOM     55  C   UNL A   1      42.724  27.089  29.645  1.00  0.00     0.031 C 
ATOM     56  C   UNL A   1      44.827  31.367  33.401  1.00  0.00     0.029 A 
ATOM     57  C   UNL A   1      44.008  30.646  32.547  1.00  0.00     0.049 A 
ATOM     58  H   UNL A   1      42.082  31.120  31.832  1.00  0.00     0.167 HD
ATOM     59  C   UNL A   1      43.422  28.736  31.078  1.00  0.00     0.074 A 
ATOM     60  C   UNL A   1      43.714  27.468  30.441  1.00  0.00     0.031 C 
ATOM     61  C   UNL A   1      44.270  29.379  31.918  1.00  0.00     0.031 A 
BRANCH  48  62
ATOM     62  C   UNL A   1      42.126  34.767  34.045  1.00  0.00    -0.014 A 
ATOM     63  C   UNL A   1      42.663  35.927  33.465  1.00  0.00     0.009 A 
ATOM     64  C   UNL A   1      41.795  34.779  35.408  1.00  0.00     0.009 A 
ATOM     65  C   UNL A   1      42.900  37.062  34.243  1.00  0.00     0.001 A 
ATOM     66  C   UNL A   1      42.007  35.924  36.178  1.00  0.00     0.001 A 
ATOM     67  C   UNL A   1      42.568  37.060  35.597  1.00  0.00     0.000 A 
ENDBRANCH  48  62
BRANCH  49  68
ATOM     68  C   UNL A   1      40.163  26.873  28.251  1.00  0.00    -0.014 A 
ATOM     69  C   UNL A   1      40.662  26.859  26.940  1.00  0.00     0.009 A 
ATOM     70  C   UNL A   1      39.414  25.777  28.707  1.00  0.00     0.009 A 
ATOM     71  C   UNL A   1      40.395  25.780  26.093  1.00  0.00     0.001 A 
ATOM     72  C   UNL A   1      39.172  24.689  27.866  1.00  0.00     0.001 A 
ATOM     73  C   UNL A   1      39.655  24.694  26.559  1.00  0.00     0.000 A 
ENDBRANCH  49  68
BRANCH  61  74
ATOM     74  C   UNL A   1      45.568  28.699  32.239  1.00  0.00    -0.014 A 
ATOM     75  C   UNL A   1      46.728  28.949  31.490  1.00  0.00     0.009 A 
ATOM     76  C   UNL A   1      45.641  27.842  33.349  1.00  0.00     0.009 A 
ATOM     77  C   UNL A   1      47.933  28.334  31.835  1.00  0.00     0.001 A 
ATOM     78  C   UNL A   1      46.851  27.247  33.704  1.00  0.00     0.001 A 
ATOM     79  C   UNL A   1      47.995  27.489  32.943  1.00  0.00     0.000 A 
ENDBRANCH  61  74
ENDBRANCH  35  36
ENDBRANCH  27  30
ENDBRANCH  25  26
ENDBRANCH   1  25
TORSDOF 12
ENDMDL
MODEL 3
REMARK VINA RESULT:     -11.5      4.261      9.283
REMARK SMILES CC1=C2C(=O)N(C[C@H]3CCCO3)C(=O)N=C2S[C@@H]1C(=O)NCCCNC(=O)c1ccc(-c2c3nc(c(-c4ccccc4)c4ccc([nH]4)c(-c4ccccc4)c4nc(c(-c5ccccc5)c5ccc2[nH]5)C=C4)C=C3)cc1
REMARK SMILES IDX 23 1 22 2 21 3 19 4 20 5 18 7 1 8 2 9 3 10 4 11 16 12 17 13
REMARK SMILES IDX 5 14 6 15 15 16 13 17 14 18 7 19 8 20 9 21 12 22 10 23 11 24
REMARK SMILES IDX 24 25 25 26 26 27 27 29 28 30 29 31 75 32 30 33 74 34 31 35
REMARK SMILES IDX 32 36 33 37 68 38 34 39 73 40 67 41 69 42 35 43 72 44 66 45
REMARK SMILES IDX 65 46 36 48 58 49 43 50 57 51 44 52 47 53 56 54 70 55 45 56
REMARK SMILES IDX 46 57 55 59 71 60 48 61 37 62 38 63 42 64 39 65 41 66 40 67
REMARK SMILES IDX 59 68 60 69 64 70 61 71 63 72 62 73 49 74 50 75 54 76 51 77
REMARK SMILES IDX 53 78 52 79
REMARK H PARENT 21 6 25 28 69 47 47 58
REMARK Flexibility Score: inf
ROOT
ATOM      1  C   UNL A   1      31.540  31.946  26.765  1.00  0.00     0.042 C 
ENDROOT
BRANCH   1   2
ATOM      2  C   UNL A   1      31.948  30.628  26.128  1.00  0.00     0.117 C 
BRANCH   2   3
ATOM      3  N   UNL A   1      31.163  30.328  24.942  1.00  0.00    -0.355 N 
ATOM      4  C   UNL A   1      30.887  29.149  24.314  1.00  0.00     0.237 C 
ATOM      5  O   UNL A   1      30.186  29.209  23.298  1.00  0.00    -0.273 OA
ATOM      6  H   UNL A   1      30.757  31.117  24.516  1.00  0.00     0.163 HD
BRANCH   4   7
ATOM      7  C   UNL A   1      31.375  27.790  24.833  1.00  0.00     0.169 C 
ATOM      8  C   UNL A   1      33.809  28.074  24.037  1.00  0.00     0.042 C 
ATOM      9  C   UNL A   1      32.573  27.234  24.114  1.00  0.00    -0.035 C 
ATOM     10  C   UNL A   1      32.408  26.011  23.592  1.00  0.00     0.073 C 
ATOM     11  C   UNL A   1      33.293  25.218  22.747  1.00  0.00     0.264 C 
ATOM     12  C   UNL A   1      31.127  25.403  23.895  1.00  0.00     0.116 C 
ATOM     13  S   UNL A   1      30.061  26.527  24.680  1.00  0.00    -0.087 SA
ATOM     14  O   UNL A   1      34.069  25.749  21.964  1.00  0.00    -0.268 OA
ATOM     15  N   UNL A   1      33.080  23.872  22.910  1.00  0.00    -0.256 N 
ATOM     16  N   UNL A   1      30.806  24.194  23.625  1.00  0.00    -0.186 NA
ATOM     17  C   UNL A   1      31.787  23.366  23.120  1.00  0.00     0.351 C 
ATOM     18  O   UNL A   1      31.523  22.192  22.870  1.00  0.00    -0.246 OA
BRANCH  15  19
ATOM     19  C   UNL A   1      34.168  22.903  22.787  1.00  0.00     0.163 C 
BRANCH  19  20
ATOM     20  C   UNL A   1      35.040  22.537  24.004  1.00  0.00     0.138 C 
ATOM     21  C   UNL A   1      36.133  23.526  24.406  1.00  0.00     0.036 C 
ATOM     22  O   UNL A   1      34.150  22.457  25.146  1.00  0.00    -0.376 OA
ATOM     23  C   UNL A   1      35.529  24.331  25.520  1.00  0.00     0.031 C 
ATOM     24  C   UNL A   1      34.623  23.327  26.181  1.00  0.00     0.160 C 
ENDBRANCH  19  20
ENDBRANCH  15  19
ENDBRANCH   4   7
ENDBRANCH   2   3
ENDBRANCH   1   2
BRANCH   1  25
ATOM     25  C   UNL A   1      32.720  32.692  27.362  1.00  0.00     0.118 C 
BRANCH  25  26
ATOM     26  N   UNL A   1      32.414  34.096  27.612  1.00  0.00    -0.352 N 
ATOM     27  C   UNL A   1      32.966  34.953  28.533  1.00  0.00     0.251 C 
ATOM     28  H   UNL A   1      31.714  34.485  27.041  1.00  0.00     0.163 HD
ATOM     29  O   UNL A   1      32.463  36.052  28.738  1.00  0.00    -0.269 OA
BRANCH  27  30
ATOM     30  C   UNL A   1      34.162  34.529  29.285  1.00  0.00     0.039 A 
ATOM     31  C   UNL A   1      34.007  33.939  30.541  1.00  0.00     0.014 A 
ATOM     32  C   UNL A   1      35.432  34.691  28.728  1.00  0.00     0.014 A 
ATOM     33  C   UNL A   1      35.126  33.439  31.209  1.00  0.00     0.010 A 
ATOM     34  C   UNL A   1      36.531  34.119  29.353  1.00  0.00     0.010 A 
ATOM     35  C   UNL A   1      36.389  33.491  30.600  1.00  0.00    -0.014 A 
BRANCH  35  36
ATOM     36  C   UNL A   1      37.598  32.918  31.238  1.00  0.00     0.031 A 
ATOM     37  C   UNL A   1      38.267  31.727  30.612  1.00  0.00     0.074 A 
ATOM     38  C   UNL A   1      38.017  33.387  32.428  1.00  0.00     0.049 A 
ATOM     39  N   UNL A   1      39.205  30.956  31.097  1.00  0.00    -0.248 NA
ATOM     40  C   UNL A   1      37.786  31.330  29.277  1.00  0.00     0.031 C 
ATOM     41  C   UNL A   1      37.434  34.517  33.155  1.00  0.00     0.029 A 
ATOM     42  N   UNL A   1      39.026  32.950  33.249  1.00  0.00    -0.354 N 
ATOM     43  C   UNL A   1      39.396  29.961  30.147  1.00  0.00     0.074 A 
ATOM     44  C   UNL A   1      38.454  30.204  29.077  1.00  0.00     0.031 C 
ATOM     45  C   UNL A   1      38.103  34.691  34.306  1.00  0.00     0.029 A 
ATOM     46  C   UNL A   1      39.128  33.659  34.421  1.00  0.00     0.049 A 
ATOM     47  H   UNL A   1      39.620  32.198  33.021  1.00  0.00     0.167 HD
ATOM     48  C   UNL A   1      40.286  28.940  30.161  1.00  0.00     0.031 A 
ATOM     49  C   UNL A   1      39.943  33.484  35.478  1.00  0.00     0.031 A 
ATOM     50  C   UNL A   1      41.243  28.721  31.209  1.00  0.00     0.049 A 
ATOM     51  C   UNL A   1      40.932  32.353  35.462  1.00  0.00     0.074 A 
ATOM     52  C   UNL A   1      42.226  27.750  31.289  1.00  0.00     0.029 A 
ATOM     53  N   UNL A   1      41.343  29.492  32.356  1.00  0.00    -0.354 N 
ATOM     54  N   UNL A   1      41.129  31.441  34.542  1.00  0.00    -0.248 NA
ATOM     55  C   UNL A   1      41.817  32.232  36.630  1.00  0.00     0.031 C 
ATOM     56  C   UNL A   1      42.902  27.916  32.503  1.00  0.00     0.029 A 
ATOM     57  C   UNL A   1      42.366  29.015  33.156  1.00  0.00     0.049 A 
ATOM     58  H   UNL A   1      40.770  30.263  32.571  1.00  0.00     0.167 HD
ATOM     59  C   UNL A   1      42.178  30.659  35.002  1.00  0.00     0.074 A 
ATOM     60  C   UNL A   1      42.581  31.206  36.282  1.00  0.00     0.031 C 
ATOM     61  C   UNL A   1      42.761  29.585  34.416  1.00  0.00     0.031 A 
BRANCH  48  62
ATOM     62  C   UNL A   1      40.254  27.983  29.003  1.00  0.00    -0.014 A 
ATOM     63  C   UNL A   1      39.520  26.788  29.066  1.00  0.00     0.009 A 
ATOM     64  C   UNL A   1      40.952  28.293  27.825  1.00  0.00     0.009 A 
ATOM     65  C   UNL A   1      39.518  25.903  27.986  1.00  0.00     0.001 A 
ATOM     66  C   UNL A   1      40.924  27.419  26.737  1.00  0.00     0.001 A 
ATOM     67  C   UNL A   1      40.216  26.221  26.822  1.00  0.00     0.000 A 
ENDBRANCH  48  62
BRANCH  49  68
ATOM     68  C   UNL A   1      39.869  34.412  36.635  1.00  0.00    -0.014 A 
ATOM     69  C   UNL A   1      39.089  34.084  37.755  1.00  0.00     0.009 A 
ATOM     70  C   UNL A   1      40.576  35.624  36.630  1.00  0.00     0.009 A 
ATOM     71  C   UNL A   1      38.999  34.963  38.837  1.00  0.00     0.001 A 
ATOM     72  C   UNL A   1      40.505  36.488  37.724  1.00  0.00     0.001 A 
ATOM     73  C   UNL A   1      39.711  36.162  38.822  1.00  0.00     0.000 A 
ENDBRANCH  49  68
BRANCH  61  74
ATOM     74  C   UNL A   1      43.930  28.965  35.122  1.00  0.00    -0.014 A 
ATOM     75  C   UNL A   1      45.239  29.422  34.908  1.00  0.00     0.009 A 
ATOM     76  C   UNL A   1      43.706  27.947  36.063  1.00  0.00     0.009 A 
ATOM     77  C   UNL A   1      46.305  28.854  35.609  1.00  0.00     0.001 A 
ATOM     78  C   UNL A   1      44.770  27.397  36.777  1.00  0.00     0.001 A 
ATOM     79  C   UNL A   1      46.069  27.848  36.545  1.00  0.00     0.000 A 
ENDBRANCH  61  74
ENDBRANCH  35  36
ENDBRANCH  27  30
ENDBRANCH  25  26
ENDBRANCH   1  25
TORSDOF 12
ENDMDL
