MODEL 1
REMARK VINA RESULT:     -10.4      0.000      0.000
REMARK SMILES CCCCCCCNC(=O)Oc1cccc(-c2ccc([C@@H](C)C(=O)NCCCNC(=O)c3ccc(-c4c5nc(c(-c6ccccc6)c6ccc([nH]6)c(-c6ccccc6)c6nc(c(-c7ccccc7)c7ccc4[nH]7)C=C6)C=C5)cc3)cc2F)c1
REMARK SMILES IDX 17 1 18 2 19 3 20 4 80 5 81 6 82 7 16 8 12 9 13 10 83 11
REMARK SMILES IDX 14 12 15 13 11 14 9 15 8 16 10 18 7 19 6 20 5 21 4 22 3 23
REMARK SMILES IDX 2 24 1 25 21 26 22 27 23 28 24 29 25 30 26 32 27 33 28 34
REMARK SMILES IDX 29 35 30 36 31 38 32 39 33 40 79 41 34 42 78 43 35 44 36 45
REMARK SMILES IDX 37 46 72 47 38 48 77 49 71 50 73 51 39 52 76 53 70 54 69 55
REMARK SMILES IDX 40 57 62 58 47 59 61 60 48 61 51 62 60 63 74 64 49 65 50 66
REMARK SMILES IDX 59 68 75 69 52 70 41 71 42 72 46 73 43 74 45 75 44 76 63 77
REMARK SMILES IDX 64 78 68 79 65 80 67 81 66 82 53 83 54 84 58 85 55 86 57 87
REMARK SMILES IDX 56 88
REMARK H PARENT 8 17 25 31 29 37 73 56 51 67
REMARK Flexibility Score: inf
ROOT
ATOM      1  C   UNL A   1      32.688  26.631  25.339  1.00  0.00     0.018 A 
ATOM      2  C   UNL A   1      33.294  26.305  24.115  1.00  0.00     0.012 A 
ATOM      3  C   UNL A   1      33.116  25.053  23.513  1.00  0.00     0.005 A 
ATOM      4  C   UNL A   1      32.379  24.047  24.143  1.00  0.00    -0.033 A 
ATOM      5  C   UNL A   1      31.748  24.368  25.352  1.00  0.00     0.044 A 
ATOM      6  C   UNL A   1      31.885  25.637  25.920  1.00  0.00     0.131 A 
ATOM      7  F   UNL A   1      31.215  25.878  27.059  1.00  0.00    -0.206 F 
ENDROOT
BRANCH   1   8
ATOM      8  C   UNL A   1      32.925  27.947  25.976  1.00  0.00    -0.012 A 
ATOM      9  C   UNL A   1      32.098  30.044  26.894  1.00  0.00     0.133 A 
ATOM     10  C   UNL A   1      33.382  30.439  27.253  1.00  0.00     0.047 A 
ATOM     11  C   UNL A   1      31.864  28.823  26.260  1.00  0.00     0.056 A 
ATOM     12  C   UNL A   1      34.447  29.589  26.983  1.00  0.00     0.004 A 
ATOM     13  C   UNL A   1      34.220  28.363  26.346  1.00  0.00     0.009 A 
BRANCH   9  14
ATOM     14  O   UNL A   1      31.065  30.974  27.075  1.00  0.00    -0.410 OA
BRANCH  14  15
ATOM     15  C   UNL A   1      31.196  32.202  26.446  1.00  0.00     0.412 C 
ATOM     16  N   UNL A   1      30.626  32.225  25.203  1.00  0.00    -0.321 N 
ATOM     17  H   UNL A   1      30.709  33.064  24.695  1.00  0.00     0.167 HD
ATOM     18  O   UNL A   1      31.760  33.190  26.899  1.00  0.00    -0.224 OA
BRANCH  16  19
ATOM     19  C   UNL A   1      29.909  31.143  24.558  1.00  0.00     0.119 C 
BRANCH  19  20
ATOM     20  C   UNL A   1      28.673  31.641  23.808  1.00  0.00     0.021 C 
BRANCH  20  21
ATOM     21  C   UNL A   1      28.298  30.819  22.570  1.00  0.00     0.002 C 
BRANCH  21  22
ATOM     22  C   UNL A   1      28.333  29.299  22.756  1.00  0.00     0.000 C 
BRANCH  22  23
ATOM     23  C   UNL A   1      29.666  28.630  22.406  1.00  0.00    -0.000 C 
BRANCH  23  24
ATOM     24  C   UNL A   1      29.967  27.335  23.168  1.00  0.00    -0.003 C 
ATOM     25  C   UNL A   1      28.739  26.725  23.827  1.00  0.00     0.004 C 
ENDBRANCH  23  24
ENDBRANCH  22  23
ENDBRANCH  21  22
ENDBRANCH  20  21
ENDBRANCH  19  20
ENDBRANCH  16  19
ENDBRANCH  14  15
ENDBRANCH   9  14
ENDBRANCH   1   8
BRANCH   4  26
ATOM     26  C   UNL A   1      32.271  22.634  23.594  1.00  0.00     0.105 C 
ATOM     27  C   UNL A   1      32.814  22.427  22.181  1.00  0.00     0.023 C 
BRANCH  26  28
ATOM     28  C   UNL A   1      32.688  21.553  24.604  1.00  0.00     0.227 C 
ATOM     29  O   UNL A   1      31.822  20.864  25.160  1.00  0.00    -0.274 OA
ATOM     30  N   UNL A   1      33.976  21.284  24.948  1.00  0.00    -0.356 N 
ATOM     31  H   UNL A   1      34.075  20.521  25.562  1.00  0.00     0.163 HD
BRANCH  30  32
ATOM     32  C   UNL A   1      35.230  21.910  24.580  1.00  0.00     0.117 C 
BRANCH  32  33
ATOM     33  C   UNL A   1      35.603  23.055  25.518  1.00  0.00     0.042 C 
BRANCH  33  34
ATOM     34  C   UNL A   1      36.978  23.653  25.246  1.00  0.00     0.118 C 
BRANCH  34  35
ATOM     35  N   UNL A   1      38.052  22.705  25.513  1.00  0.00    -0.352 N 
ATOM     36  C   UNL A   1      39.286  22.887  26.086  1.00  0.00     0.251 C 
ATOM     37  H   UNL A   1      37.860  21.780  25.236  1.00  0.00     0.163 HD
ATOM     38  O   UNL A   1      40.116  21.984  26.013  1.00  0.00    -0.269 OA
BRANCH  36  39
ATOM     39  C   UNL A   1      39.640  24.148  26.779  1.00  0.00     0.039 A 
ATOM     40  C   UNL A   1      40.375  25.114  26.081  1.00  0.00     0.014 A 
ATOM     41  C   UNL A   1      39.317  24.364  28.120  1.00  0.00     0.014 A 
ATOM     42  C   UNL A   1      40.737  26.308  26.710  1.00  0.00     0.010 A 
ATOM     43  C   UNL A   1      39.605  25.588  28.720  1.00  0.00     0.010 A 
ATOM     44  C   UNL A   1      40.330  26.568  28.027  1.00  0.00    -0.014 A 
BRANCH  44  45
ATOM     45  C   UNL A   1      40.666  27.847  28.703  1.00  0.00     0.031 A 
ATOM     46  C   UNL A   1      42.029  28.053  29.305  1.00  0.00     0.074 A 
ATOM     47  C   UNL A   1      39.724  28.802  28.828  1.00  0.00     0.049 A 
ATOM     48  N   UNL A   1      42.488  29.075  29.984  1.00  0.00    -0.248 NA
ATOM     49  C   UNL A   1      42.997  26.954  29.148  1.00  0.00     0.031 C 
ATOM     50  C   UNL A   1      38.353  28.715  28.321  1.00  0.00     0.029 A 
ATOM     51  N   UNL A   1      39.778  30.035  29.430  1.00  0.00    -0.354 N 
ATOM     52  C   UNL A   1      43.782  28.731  30.357  1.00  0.00     0.074 A 
ATOM     53  C   UNL A   1      44.020  27.391  29.866  1.00  0.00     0.031 C 
ATOM     54  C   UNL A   1      37.706  29.856  28.605  1.00  0.00     0.029 A 
ATOM     55  C   UNL A   1      38.601  30.737  29.350  1.00  0.00     0.049 A 
ATOM     56  H   UNL A   1      40.584  30.382  29.876  1.00  0.00     0.167 HD
ATOM     57  C   UNL A   1      44.695  29.467  31.034  1.00  0.00     0.031 A 
ATOM     58  C   UNL A   1      38.273  31.952  29.827  1.00  0.00     0.031 A 
ATOM     59  C   UNL A   1      44.464  30.806  31.505  1.00  0.00     0.049 A 
ATOM     60  C   UNL A   1      39.302  32.748  30.581  1.00  0.00     0.074 A 
ATOM     61  C   UNL A   1      45.350  31.663  32.138  1.00  0.00     0.029 A 
ATOM     62  N   UNL A   1      43.259  31.482  31.402  1.00  0.00    -0.354 N 
ATOM     63  N   UNL A   1      40.544  32.438  30.862  1.00  0.00    -0.248 NA
ATOM     64  C   UNL A   1      38.882  34.067  31.077  1.00  0.00     0.031 C 
ATOM     65  C   UNL A   1      44.664  32.838  32.461  1.00  0.00     0.029 A 
ATOM     66  C   UNL A   1      43.369  32.735  31.982  1.00  0.00     0.049 A 
ATOM     67  H   UNL A   1      42.445  31.124  30.978  1.00  0.00     0.167 HD
ATOM     68  C   UNL A   1      41.063  33.531  31.542  1.00  0.00     0.074 A 
ATOM     69  C   UNL A   1      40.004  34.518  31.619  1.00  0.00     0.031 C 
ATOM     70  C   UNL A   1      42.306  33.705  32.054  1.00  0.00     0.031 A 
BRANCH  57  71
ATOM     71  C   UNL A   1      46.027  28.828  31.316  1.00  0.00    -0.014 A 
ATOM     72  C   UNL A   1      46.253  28.096  32.493  1.00  0.00     0.009 A 
ATOM     73  C   UNL A   1      47.065  28.939  30.377  1.00  0.00     0.009 A 
ATOM     74  C   UNL A   1      47.503  27.527  32.743  1.00  0.00     0.001 A 
ATOM     75  C   UNL A   1      48.304  28.343  30.617  1.00  0.00     0.001 A 
ATOM     76  C   UNL A   1      48.526  27.647  31.804  1.00  0.00     0.000 A 
ENDBRANCH  57  71
BRANCH  58  77
ATOM     77  C   UNL A   1      36.917  32.506  29.582  1.00  0.00    -0.014 A 
ATOM     78  C   UNL A   1      35.873  32.243  30.483  1.00  0.00     0.009 A 
ATOM     79  C   UNL A   1      36.658  33.303  28.457  1.00  0.00     0.009 A 
ATOM     80  C   UNL A   1      34.592  32.748  30.249  1.00  0.00     0.001 A 
ATOM     81  C   UNL A   1      35.383  33.830  28.239  1.00  0.00     0.001 A 
ATOM     82  C   UNL A   1      34.349  33.544  29.131  1.00  0.00     0.000 A 
ENDBRANCH  58  77
BRANCH  70  83
ATOM     83  C   UNL A   1      42.600  35.022  32.712  1.00  0.00    -0.014 A 
ATOM     84  C   UNL A   1      43.315  36.028  32.043  1.00  0.00     0.009 A 
ATOM     85  C   UNL A   1      42.119  35.273  34.007  1.00  0.00     0.009 A 
ATOM     86  C   UNL A   1      43.570  37.248  32.672  1.00  0.00     0.001 A 
ATOM     87  C   UNL A   1      42.352  36.504  34.622  1.00  0.00     0.001 A 
ATOM     88  C   UNL A   1      43.085  37.486  33.959  1.00  0.00     0.000 A 
ENDBRANCH  70  83
ENDBRANCH  44  45
ENDBRANCH  36  39
ENDBRANCH  34  35
ENDBRANCH  33  34
ENDBRANCH  32  33
ENDBRANCH  30  32
ENDBRANCH  26  28
ENDBRANCH   4  26
TORSDOF 20
ENDMDL
MODEL 2
REMARK VINA RESULT:     -10.2      2.804      7.070
REMARK SMILES CCCCCCCNC(=O)Oc1cccc(-c2ccc([C@@H](C)C(=O)NCCCNC(=O)c3ccc(-c4c5nc(c(-c6ccccc6)c6ccc([nH]6)c(-c6ccccc6)c6nc(c(-c7ccccc7)c7ccc4[nH]7)C=C6)C=C5)cc3)cc2F)c1
REMARK SMILES IDX 17 1 18 2 19 3 20 4 80 5 81 6 82 7 16 8 12 9 13 10 83 11
REMARK SMILES IDX 14 12 15 13 11 14 9 15 8 16 10 18 7 19 6 20 5 21 4 22 3 23
REMARK SMILES IDX 2 24 1 25 21 26 22 27 23 28 24 29 25 30 26 32 27 33 28 34
REMARK SMILES IDX 29 35 30 36 31 38 32 39 33 40 79 41 34 42 78 43 35 44 36 45
REMARK SMILES IDX 37 46 72 47 38 48 77 49 71 50 73 51 39 52 76 53 70 54 69 55
REMARK SMILES IDX 40 57 62 58 47 59 61 60 48 61 51 62 60 63 74 64 49 65 50 66
REMARK SMILES IDX 59 68 75 69 52 70 41 71 42 72 46 73 43 74 45 75 44 76 63 77
REMARK SMILES IDX 64 78 68 79 65 80 67 81 66 82 53 83 54 84 58 85 55 86 57 87
REMARK SMILES IDX 56 88
REMARK H PARENT 8 17 25 31 29 37 73 56 51 67
REMARK Flexibility Score: inf
ROOT
ATOM      1  C   UNL A   1      33.380  28.417  26.641  1.00  0.00     0.018 A 
ATOM      2  C   UNL A   1      33.799  27.465  25.696  1.00  0.00     0.012 A 
ATOM      3  C   UNL A   1      32.945  26.451  25.242  1.00  0.00     0.005 A 
ATOM      4  C   UNL A   1      31.658  26.303  25.765  1.00  0.00    -0.033 A 
ATOM      5  C   UNL A   1      31.220  27.261  26.689  1.00  0.00     0.044 A 
ATOM      6  C   UNL A   1      32.058  28.303  27.097  1.00  0.00     0.131 A 
ATOM      7  F   UNL A   1      31.550  29.202  27.954  1.00  0.00    -0.206 F 
ENDROOT
BRANCH   1   8
ATOM      8  C   UNL A   1      34.315  29.454  27.136  1.00  0.00    -0.012 A 
ATOM      9  C   UNL A   1      34.833  31.775  27.655  1.00  0.00     0.133 A 
ATOM     10  C   UNL A   1      36.087  31.427  28.145  1.00  0.00     0.047 A 
ATOM     11  C   UNL A   1      33.957  30.812  27.152  1.00  0.00     0.056 A 
ATOM     12  C   UNL A   1      36.463  30.089  28.141  1.00  0.00     0.004 A 
ATOM     13  C   UNL A   1      35.590  29.118  27.636  1.00  0.00     0.009 A 
BRANCH   9  14
ATOM     14  O   UNL A   1      34.534  33.142  27.566  1.00  0.00    -0.410 OA
BRANCH  14  15
ATOM     15  C   UNL A   1      33.320  33.562  28.086  1.00  0.00     0.412 C 
ATOM     16  N   UNL A   1      33.424  34.030  29.366  1.00  0.00    -0.321 N 
ATOM     17  H   UNL A   1      32.589  34.320  29.799  1.00  0.00     0.167 HD
ATOM     18  O   UNL A   1      32.238  33.531  27.511  1.00  0.00    -0.224 OA
BRANCH  16  19
ATOM     19  C   UNL A   1      34.638  34.147  30.151  1.00  0.00     0.119 C 
BRANCH  19  20
ATOM     20  C   UNL A   1      34.619  33.230  31.374  1.00  0.00     0.021 C 
BRANCH  20  21
ATOM     21  C   UNL A   1      35.549  33.661  32.514  1.00  0.00     0.002 C 
BRANCH  21  22
ATOM     22  C   UNL A   1      36.721  34.557  32.102  1.00  0.00     0.000 C 
BRANCH  22  23
ATOM     23  C   UNL A   1      38.080  34.163  32.690  1.00  0.00    -0.000 C 
BRANCH  23  24
ATOM     24  C   UNL A   1      39.064  33.537  31.698  1.00  0.00    -0.003 C 
ATOM     25  C   UNL A   1      38.580  33.587  30.256  1.00  0.00     0.004 C 
ENDBRANCH  23  24
ENDBRANCH  22  23
ENDBRANCH  21  22
ENDBRANCH  20  21
ENDBRANCH  19  20
ENDBRANCH  16  19
ENDBRANCH  14  15
ENDBRANCH   9  14
ENDBRANCH   1   8
BRANCH   4  26
ATOM     26  C   UNL A   1      30.747  25.141  25.403  1.00  0.00     0.105 C 
ATOM     27  C   UNL A   1      30.803  24.682  23.947  1.00  0.00     0.023 C 
BRANCH  26  28
ATOM     28  C   UNL A   1      30.772  24.002  26.434  1.00  0.00     0.227 C 
ATOM     29  O   UNL A   1      29.840  23.882  27.242  1.00  0.00    -0.274 OA
ATOM     30  N   UNL A   1      31.769  23.083  26.534  1.00  0.00    -0.356 N 
ATOM     31  H   UNL A   1      31.603  22.384  27.206  1.00  0.00     0.163 HD
BRANCH  30  32
ATOM     32  C   UNL A   1      33.032  22.939  25.836  1.00  0.00     0.117 C 
BRANCH  32  33
ATOM     33  C   UNL A   1      34.057  22.153  26.648  1.00  0.00     0.042 C 
BRANCH  33  34
ATOM     34  C   UNL A   1      35.494  22.611  26.438  1.00  0.00     0.118 C 
BRANCH  34  35
ATOM     35  N   UNL A   1      36.346  21.542  25.935  1.00  0.00    -0.352 N 
ATOM     36  C   UNL A   1      37.696  21.511  25.690  1.00  0.00     0.251 C 
ATOM     37  H   UNL A   1      35.873  20.701  25.739  1.00  0.00     0.163 HD
ATOM     38  O   UNL A   1      38.165  20.565  25.060  1.00  0.00    -0.269 OA
BRANCH  36  39
ATOM     39  C   UNL A   1      38.593  22.593  26.157  1.00  0.00     0.039 A 
ATOM     40  C   UNL A   1      38.305  23.911  25.784  1.00  0.00     0.014 A 
ATOM     41  C   UNL A   1      39.745  22.323  26.899  1.00  0.00     0.014 A 
ATOM     42  C   UNL A   1      39.139  24.953  26.196  1.00  0.00     0.010 A 
ATOM     43  C   UNL A   1      40.528  23.369  27.379  1.00  0.00     0.010 A 
ATOM     44  C   UNL A   1      40.243  24.695  27.022  1.00  0.00    -0.014 A 
BRANCH  44  45
ATOM     45  C   UNL A   1      41.120  25.790  27.509  1.00  0.00     0.031 A 
ATOM     46  C   UNL A   1      40.637  26.729  28.581  1.00  0.00     0.074 A 
ATOM     47  C   UNL A   1      42.328  25.978  26.945  1.00  0.00     0.049 A 
ATOM     48  N   UNL A   1      41.234  27.777  29.093  1.00  0.00    -0.248 NA
ATOM     49  C   UNL A   1      39.296  26.475  29.132  1.00  0.00     0.031 C 
ATOM     50  C   UNL A   1      42.901  25.162  25.873  1.00  0.00     0.029 A 
ATOM     51  N   UNL A   1      43.291  26.924  27.193  1.00  0.00    -0.354 N 
ATOM     52  C   UNL A   1      40.332  28.320  30.000  1.00  0.00     0.074 A 
ATOM     53  C   UNL A   1      39.134  27.512  29.940  1.00  0.00     0.031 C 
ATOM     54  C   UNL A   1      44.127  25.622  25.577  1.00  0.00     0.029 A 
ATOM     55  C   UNL A   1      44.409  26.790  26.406  1.00  0.00     0.049 A 
ATOM     56  H   UNL A   1      43.190  27.632  27.870  1.00  0.00     0.167 HD
ATOM     57  C   UNL A   1      40.491  29.385  30.822  1.00  0.00     0.031 A 
ATOM     58  C   UNL A   1      45.534  27.527  26.352  1.00  0.00     0.031 A 
ATOM     59  C   UNL A   1      41.689  30.177  30.896  1.00  0.00     0.049 A 
ATOM     60  C   UNL A   1      45.684  28.708  27.269  1.00  0.00     0.074 A 
ATOM     61  C   UNL A   1      41.975  31.232  31.746  1.00  0.00     0.029 A 
ATOM     62  N   UNL A   1      42.799  30.006  30.084  1.00  0.00    -0.354 N 
ATOM     63  N   UNL A   1      44.852  29.164  28.173  1.00  0.00    -0.248 NA
ATOM     64  C   UNL A   1      46.936  29.472  27.161  1.00  0.00     0.031 C 
ATOM     65  C   UNL A   1      43.238  31.731  31.413  1.00  0.00     0.029 A 
ATOM     66  C   UNL A   1      43.761  30.953  30.394  1.00  0.00     0.049 A 
ATOM     67  H   UNL A   1      42.888  29.314  29.389  1.00  0.00     0.167 HD
ATOM     68  C   UNL A   1      45.488  30.249  28.760  1.00  0.00     0.074 A 
ATOM     69  C   UNL A   1      46.781  30.375  28.119  1.00  0.00     0.031 C 
ATOM     70  C   UNL A   1      45.042  31.067  29.745  1.00  0.00     0.031 A 
BRANCH  57  71
ATOM     71  C   UNL A   1      39.327  29.762  31.699  1.00  0.00    -0.014 A 
ATOM     72  C   UNL A   1      39.454  29.820  33.096  1.00  0.00     0.009 A 
ATOM     73  C   UNL A   1      38.093  30.088  31.116  1.00  0.00     0.009 A 
ATOM     74  C   UNL A   1      38.357  30.153  33.892  1.00  0.00     0.001 A 
ATOM     75  C   UNL A   1      37.007  30.451  31.913  1.00  0.00     0.001 A 
ATOM     76  C   UNL A   1      37.136  30.472  33.301  1.00  0.00     0.000 A 
ENDBRANCH  57  71
BRANCH  58  77
ATOM     77  C   UNL A   1      46.623  27.152  25.414  1.00  0.00    -0.014 A 
ATOM     78  C   UNL A   1      47.511  26.115  25.740  1.00  0.00     0.009 A 
ATOM     79  C   UNL A   1      46.779  27.820  24.190  1.00  0.00     0.009 A 
ATOM     80  C   UNL A   1      48.547  25.770  24.869  1.00  0.00     0.001 A 
ATOM     81  C   UNL A   1      47.799  27.454  23.308  1.00  0.00     0.001 A 
ATOM     82  C   UNL A   1      48.687  26.436  23.653  1.00  0.00     0.000 A 
ENDBRANCH  58  77
BRANCH  70  83
ATOM     83  C   UNL A   1      45.974  32.148  30.214  1.00  0.00    -0.014 A 
ATOM     84  C   UNL A   1      46.921  31.908  31.221  1.00  0.00     0.009 A 
ATOM     85  C   UNL A   1      45.926  33.414  29.609  1.00  0.00     0.009 A 
ATOM     86  C   UNL A   1      47.781  32.927  31.636  1.00  0.00     0.001 A 
ATOM     87  C   UNL A   1      46.807  34.421  30.007  1.00  0.00     0.001 A 
ATOM     88  C   UNL A   1      47.726  34.180  31.025  1.00  0.00     0.000 A 
ENDBRANCH  70  83
ENDBRANCH  44  45
ENDBRANCH  36  39
ENDBRANCH  34  35
ENDBRANCH  33  34
ENDBRANCH  32  33
ENDBRANCH  30  32
ENDBRANCH  26  28
ENDBRANCH   4  26
TORSDOF 20
ENDMDL
MODEL 3
REMARK VINA RESULT:     -10.1      2.311      8.648
REMARK SMILES CCCCCCCNC(=O)Oc1cccc(-c2ccc([C@@H](C)C(=O)NCCCNC(=O)c3ccc(-c4c5nc(c(-c6ccccc6)c6ccc([nH]6)c(-c6ccccc6)c6nc(c(-c7ccccc7)c7ccc4[nH]7)C=C6)C=C5)cc3)cc2F)c1
REMARK SMILES IDX 17 1 18 2 19 3 20 4 80 5 81 6 82 7 16 8 12 9 13 10 83 11
REMARK SMILES IDX 14 12 15 13 11 14 9 15 8 16 10 18 7 19 6 20 5 21 4 22 3 23
REMARK SMILES IDX 2 24 1 25 21 26 22 27 23 28 24 29 25 30 26 32 27 33 28 34
REMARK SMILES IDX 29 35 30 36 31 38 32 39 33 40 79 41 34 42 78 43 35 44 36 45
REMARK SMILES IDX 37 46 72 47 38 48 77 49 71 50 73 51 39 52 76 53 70 54 69 55
REMARK SMILES IDX 40 57 62 58 47 59 61 60 48 61 51 62 60 63 74 64 49 65 50 66
REMARK SMILES IDX 59 68 75 69 52 70 41 71 42 72 46 73 43 74 45 75 44 76 63 77
REMARK SMILES IDX 64 78 68 79 65 80 67 81 66 82 53 83 54 84 58 85 55 86 57 87
REMARK SMILES IDX 56 88
REMARK H PARENT 8 17 25 31 29 37 73 56 51 67
REMARK Flexibility Score: inf
ROOT
ATOM      1  C   UNL A   1      31.692  24.376  24.718  1.00  0.00     0.018 A 
ATOM      2  C   UNL A   1      32.210  24.977  23.559  1.00  0.00     0.012 A 
ATOM      3  C   UNL A   1      31.628  26.122  22.997  1.00  0.00     0.005 A 
ATOM      4  C   UNL A   1      30.462  26.674  23.531  1.00  0.00    -0.033 A 
ATOM      5  C   UNL A   1      29.950  26.099  24.702  1.00  0.00     0.044 A 
ATOM      6  C   UNL A   1      30.567  24.991  25.288  1.00  0.00     0.131 A 
ATOM      7  F   UNL A   1      30.039  24.524  26.431  1.00  0.00    -0.206 F 
ENDROOT
BRANCH   1   8
ATOM      8  C   UNL A   1      32.301  23.143  25.268  1.00  0.00    -0.012 A 
ATOM      9  C   UNL A   1      33.003  20.825  25.020  1.00  0.00     0.133 A 
ATOM     10  C   UNL A   1      33.526  20.805  26.308  1.00  0.00     0.047 A 
ATOM     11  C   UNL A   1      32.393  21.969  24.502  1.00  0.00     0.056 A 
ATOM     12  C   UNL A   1      33.449  21.955  27.084  1.00  0.00     0.004 A 
ATOM     13  C   UNL A   1      32.837  23.105  26.572  1.00  0.00     0.009 A 
BRANCH   9  14
ATOM     14  O   UNL A   1      32.994  19.617  24.310  1.00  0.00    -0.410 OA
BRANCH  14  15
ATOM     15  C   UNL A   1      33.024  18.445  25.047  1.00  0.00     0.412 C 
ATOM     16  N   UNL A   1      34.222  17.792  24.959  1.00  0.00    -0.321 N 
ATOM     17  H   UNL A   1      34.295  16.936  25.441  1.00  0.00     0.167 HD
ATOM     18  O   UNL A   1      32.104  17.987  25.714  1.00  0.00    -0.224 OA
BRANCH  16  19
ATOM     19  C   UNL A   1      35.396  18.230  24.230  1.00  0.00     0.119 C 
BRANCH  19  20
ATOM     20  C   UNL A   1      36.573  18.518  25.162  1.00  0.00     0.021 C 
BRANCH  20  21
ATOM     21  C   UNL A   1      37.464  19.689  24.729  1.00  0.00     0.002 C 
BRANCH  21  22
ATOM     22  C   UNL A   1      36.799  21.069  24.773  1.00  0.00     0.000 C 
BRANCH  22  23
ATOM     23  C   UNL A   1      37.639  22.176  25.418  1.00  0.00    -0.000 C 
BRANCH  23  24
ATOM     24  C   UNL A   1      36.854  23.409  25.874  1.00  0.00    -0.003 C 
ATOM     25  C   UNL A   1      35.961  23.991  24.787  1.00  0.00     0.004 C 
ENDBRANCH  23  24
ENDBRANCH  22  23
ENDBRANCH  21  22
ENDBRANCH  20  21
ENDBRANCH  19  20
ENDBRANCH  16  19
ENDBRANCH  14  15
ENDBRANCH   9  14
ENDBRANCH   1   8
BRANCH   4  26
ATOM     26  C   UNL A   1      29.721  27.830  22.880  1.00  0.00     0.105 C 
ATOM     27  C   UNL A   1      28.323  28.115  23.428  1.00  0.00     0.023 C 
BRANCH  26  28
ATOM     28  C   UNL A   1      30.594  29.078  22.675  1.00  0.00     0.227 C 
ATOM     29  O   UNL A   1      30.579  29.667  21.586  1.00  0.00    -0.274 OA
ATOM     30  N   UNL A   1      31.409  29.606  23.627  1.00  0.00    -0.356 N 
ATOM     31  H   UNL A   1      31.853  30.441  23.356  1.00  0.00     0.163 HD
BRANCH  30  32
ATOM     32  C   UNL A   1      31.747  29.169  24.967  1.00  0.00     0.117 C 
BRANCH  32  33
ATOM     33  C   UNL A   1      33.203  28.725  25.083  1.00  0.00     0.042 C 
BRANCH  33  34
ATOM     34  C   UNL A   1      33.746  28.755  26.505  1.00  0.00     0.118 C 
BRANCH  34  35
ATOM     35  N   UNL A   1      33.610  30.069  27.120  1.00  0.00    -0.352 N 
ATOM     36  C   UNL A   1      34.436  30.744  27.983  1.00  0.00     0.251 C 
ATOM     37  H   UNL A   1      32.789  30.553  26.873  1.00  0.00     0.163 HD
ATOM     38  O   UNL A   1      34.015  31.754  28.543  1.00  0.00    -0.269 OA
BRANCH  36  39
ATOM     39  C   UNL A   1      35.814  30.278  28.261  1.00  0.00     0.039 A 
ATOM     40  C   UNL A   1      36.115  29.797  29.540  1.00  0.00     0.014 A 
ATOM     41  C   UNL A   1      36.827  30.369  27.303  1.00  0.00     0.014 A 
ATOM     42  C   UNL A   1      37.409  29.363  29.839  1.00  0.00     0.010 A 
ATOM     43  C   UNL A   1      38.095  29.859  27.575  1.00  0.00     0.010 A 
ATOM     44  C   UNL A   1      38.404  29.363  28.850  1.00  0.00    -0.014 A 
BRANCH  44  45
ATOM     45  C   UNL A   1      39.776  28.867  29.130  1.00  0.00     0.031 A 
ATOM     46  C   UNL A   1      40.789  29.766  29.785  1.00  0.00     0.074 A 
ATOM     47  C   UNL A   1      40.129  27.626  28.741  1.00  0.00     0.049 A 
ATOM     48  N   UNL A   1      42.049  29.532  30.057  1.00  0.00    -0.248 NA
ATOM     49  C   UNL A   1      40.336  31.116  30.159  1.00  0.00     0.031 C 
ATOM     50  C   UNL A   1      39.253  26.667  28.066  1.00  0.00     0.029 A 
ATOM     51  N   UNL A   1      41.325  26.962  28.854  1.00  0.00    -0.354 N 
ATOM     52  C   UNL A   1      42.543  30.710  30.605  1.00  0.00     0.074 A 
ATOM     53  C   UNL A   1      41.460  31.668  30.590  1.00  0.00     0.031 C 
ATOM     54  C   UNL A   1      39.931  25.529  27.851  1.00  0.00     0.029 A 
ATOM     55  C   UNL A   1      41.299  25.691  28.336  1.00  0.00     0.049 A 
ATOM     56  H   UNL A   1      42.125  27.360  29.268  1.00  0.00     0.167 HD
ATOM     57  C   UNL A   1      43.780  30.967  31.092  1.00  0.00     0.031 A 
ATOM     58  C   UNL A   1      42.267  24.761  28.253  1.00  0.00     0.031 A 
ATOM     59  C   UNL A   1      44.851  30.008  31.125  1.00  0.00     0.049 A 
ATOM     60  C   UNL A   1      43.634  25.072  28.794  1.00  0.00     0.074 A 
ATOM     61  C   UNL A   1      46.119  30.148  31.663  1.00  0.00     0.029 A 
ATOM     62  N   UNL A   1      44.782  28.730  30.592  1.00  0.00    -0.354 N 
ATOM     63  N   UNL A   1      44.064  26.165  29.375  1.00  0.00    -0.248 NA
ATOM     64  C   UNL A   1      44.649  24.014  28.672  1.00  0.00     0.031 C 
ATOM     65  C   UNL A   1      46.833  28.973  31.410  1.00  0.00     0.029 A 
ATOM     66  C   UNL A   1      45.994  28.081  30.764  1.00  0.00     0.049 A 
ATOM     67  H   UNL A   1      43.989  28.343  30.155  1.00  0.00     0.167 HD
ATOM     68  C   UNL A   1      45.388  25.919  29.714  1.00  0.00     0.074 A 
ATOM     69  C   UNL A   1      45.686  24.567  29.285  1.00  0.00     0.031 C 
ATOM     70  C   UNL A   1      46.276  26.737  30.329  1.00  0.00     0.031 A 
BRANCH  57  71
ATOM     71  C   UNL A   1      44.042  32.352  31.617  1.00  0.00    -0.014 A 
ATOM     72  C   UNL A   1      43.659  32.727  32.915  1.00  0.00     0.009 A 
ATOM     73  C   UNL A   1      44.706  33.289  30.809  1.00  0.00     0.009 A 
ATOM     74  C   UNL A   1      43.896  34.024  33.376  1.00  0.00     0.001 A 
ATOM     75  C   UNL A   1      44.968  34.575  31.284  1.00  0.00     0.001 A 
ATOM     76  C   UNL A   1      44.553  34.945  32.562  1.00  0.00     0.000 A 
ENDBRANCH  57  71
BRANCH  58  77
ATOM     77  C   UNL A   1      41.973  23.432  27.657  1.00  0.00    -0.014 A 
ATOM     78  C   UNL A   1      42.035  23.251  26.267  1.00  0.00     0.009 A 
ATOM     79  C   UNL A   1      41.635  22.339  28.470  1.00  0.00     0.009 A 
ATOM     80  C   UNL A   1      41.743  22.008  25.701  1.00  0.00     0.001 A 
ATOM     81  C   UNL A   1      41.371  21.090  27.903  1.00  0.00     0.001 A 
ATOM     82  C   UNL A   1      41.416  20.928  26.519  1.00  0.00     0.000 A 
ENDBRANCH  58  77
BRANCH  70  83
ATOM     83  C   UNL A   1      47.644  26.182  30.605  1.00  0.00    -0.014 A 
ATOM     84  C   UNL A   1      48.628  26.137  29.606  1.00  0.00     0.009 A 
ATOM     85  C   UNL A   1      47.962  25.733  31.897  1.00  0.00     0.009 A 
ATOM     86  C   UNL A   1      49.896  25.623  29.888  1.00  0.00     0.001 A 
ATOM     87  C   UNL A   1      49.239  25.246  32.183  1.00  0.00     0.001 A 
ATOM     88  C   UNL A   1      50.200  25.183  31.176  1.00  0.00     0.000 A 
ENDBRANCH  70  83
ENDBRANCH  44  45
ENDBRANCH  36  39
ENDBRANCH  34  35
ENDBRANCH  33  34
ENDBRANCH  32  33
ENDBRANCH  30  32
ENDBRANCH  26  28
ENDBRANCH   4  26
TORSDOF 20
ENDMDL
