MODEL 1
REMARK VINA RESULT:     -11.1      0.000      0.000
REMARK SMILES CNC(=O)[C@H](C)S(=O)(=O)c1cc(C(=O)NCCCNC(=O)c2ccc(-c3c4nc(c(-c5ccccc5)c5ccc([nH]5)c(-c5ccccc5)c5nc(c(-c6ccccc6)c6ccc3[nH]6)C=C5)C=C4)cc2)c(C)cc1C
REMARK SMILES IDX 16 1 15 2 13 3 14 4 12 6 10 7 11 8 73 9 72 10 74 11 70 12
REMARK SMILES IDX 71 13 7 14 8 15 9 16 5 17 6 18 3 19 1 20 2 21 4 23 17 24
REMARK SMILES IDX 18 25 19 26 20 27 21 29 22 30 23 31 69 32 24 33 68 34 25 35
REMARK SMILES IDX 26 36 27 37 62 38 28 39 67 40 61 41 63 42 29 43 66 44 60 45
REMARK SMILES IDX 59 46 30 48 52 49 37 50 51 51 38 52 41 53 50 54 64 55 39 56
REMARK SMILES IDX 40 57 49 59 65 60 42 61 31 62 32 63 36 64 33 65 35 66 34 67
REMARK SMILES IDX 53 68 54 69 58 70 55 71 57 72 56 73 43 74 44 75 48 76 45 77
REMARK SMILES IDX 47 78 46 79
REMARK H PARENT 15 5 2 22 19 28 63 47 41 58
REMARK Flexibility Score: inf
ROOT
ATOM      1  C   UNL A   1      31.746  28.166  26.996  1.00  0.00     0.118 C 
ENDROOT
BRANCH   1   2
ATOM      2  N   UNL A   1      31.017  26.920  27.077  1.00  0.00    -0.352 N 
ATOM      3  C   UNL A   1      30.579  26.031  26.134  1.00  0.00     0.251 C 
ATOM      4  O   UNL A   1      29.826  25.140  26.539  1.00  0.00    -0.269 OA
ATOM      5  H   UNL A   1      30.790  26.657  27.999  1.00  0.00     0.163 HD
BRANCH   3   6
ATOM      6  C   UNL A   1      31.036  25.982  24.707  1.00  0.00     0.044 A 
ATOM      7  C   UNL A   1      32.383  24.610  23.152  1.00  0.00     0.071 A 
ATOM      8  C   UNL A   1      31.884  24.885  24.439  1.00  0.00     0.034 A 
ATOM      9  C   UNL A   1      32.166  25.525  22.119  1.00  0.00    -0.032 A 
ATOM     10  C   UNL A   1      31.292  26.589  22.379  1.00  0.00     0.009 A 
ATOM     11  C   UNL A   1      32.674  25.458  20.710  1.00  0.00     0.046 C 
ATOM     12  C   UNL A   1      30.653  26.780  23.620  1.00  0.00    -0.038 A 
ATOM     13  C   UNL A   1      29.539  27.777  23.592  1.00  0.00     0.045 C 
BRANCH   7  14
ATOM     14  S   UNL A   1      33.268  23.066  22.957  1.00  0.00     0.190 S 
ATOM     15  O   UNL A   1      34.613  23.399  22.529  1.00  0.00    -0.223 OA
ATOM     16  O   UNL A   1      32.486  22.200  22.087  1.00  0.00    -0.223 OA
BRANCH  14  17
ATOM     17  C   UNL A   1      33.383  22.311  24.570  1.00  0.00     0.199 C 
ATOM     18  C   UNL A   1      32.424  21.125  24.709  1.00  0.00     0.036 C 
BRANCH  17  19
ATOM     19  C   UNL A   1      34.792  21.862  24.868  1.00  0.00     0.238 C 
ATOM     20  C   UNL A   1      35.635  24.138  25.649  1.00  0.00     0.142 C 
ATOM     21  N   UNL A   1      35.704  22.713  25.418  1.00  0.00    -0.358 N 
ATOM     22  H   UNL A   1      36.545  22.287  25.703  1.00  0.00     0.163 HD
ATOM     23  O   UNL A   1      35.162  20.703  24.671  1.00  0.00    -0.274 OA
ENDBRANCH  17  19
ENDBRANCH  14  17
ENDBRANCH   7  14
ENDBRANCH   3   6
ENDBRANCH   1   2
BRANCH   1  24
ATOM     24  C   UNL A   1      33.234  27.868  26.812  1.00  0.00     0.042 C 
BRANCH  24  25
ATOM     25  C   UNL A   1      33.990  28.930  26.036  1.00  0.00     0.118 C 
BRANCH  25  26
ATOM     26  N   UNL A   1      33.817  30.244  26.626  1.00  0.00    -0.352 N 
ATOM     27  C   UNL A   1      34.518  30.852  27.637  1.00  0.00     0.251 C 
ATOM     28  H   UNL A   1      33.087  30.782  26.242  1.00  0.00     0.163 HD
ATOM     29  O   UNL A   1      34.043  31.845  28.182  1.00  0.00    -0.269 OA
BRANCH  27  30
ATOM     30  C   UNL A   1      35.828  30.323  28.087  1.00  0.00     0.039 A 
ATOM     31  C   UNL A   1      35.904  29.681  29.327  1.00  0.00     0.014 A 
ATOM     32  C   UNL A   1      36.991  30.503  27.333  1.00  0.00     0.014 A 
ATOM     33  C   UNL A   1      37.128  29.192  29.787  1.00  0.00     0.010 A 
ATOM     34  C   UNL A   1      38.189  29.923  27.742  1.00  0.00     0.010 A 
ATOM     35  C   UNL A   1      38.278  29.286  28.986  1.00  0.00    -0.014 A 
BRANCH  35  36
ATOM     36  C   UNL A   1      39.586  28.760  29.451  1.00  0.00     0.031 A 
ATOM     37  C   UNL A   1      40.421  29.558  30.418  1.00  0.00     0.074 A 
ATOM     38  C   UNL A   1      40.043  27.587  28.973  1.00  0.00     0.049 A 
ATOM     39  N   UNL A   1      41.603  29.285  30.910  1.00  0.00    -0.248 NA
ATOM     40  C   UNL A   1      39.866  30.843  30.875  1.00  0.00     0.031 C 
ATOM     41  C   UNL A   1      39.345  26.735  28.007  1.00  0.00     0.029 A 
ATOM     42  N   UNL A   1      41.205  26.906  29.236  1.00  0.00    -0.354 N 
ATOM     43  C   UNL A   1      41.935  30.368  31.717  1.00  0.00     0.074 A 
ATOM     44  C   UNL A   1      40.861  31.327  31.602  1.00  0.00     0.031 C 
ATOM     45  C   UNL A   1      40.073  25.629  27.790  1.00  0.00     0.029 A 
ATOM     46  C   UNL A   1      41.308  25.714  28.562  1.00  0.00     0.049 A 
ATOM     47  H   UNL A   1      41.898  27.240  29.850  1.00  0.00     0.167 HD
ATOM     48  C   UNL A   1      43.024  30.539  32.504  1.00  0.00     0.031 A 
ATOM     49  C   UNL A   1      42.290  24.793  28.563  1.00  0.00     0.031 A 
ATOM     50  C   UNL A   1      44.090  29.580  32.621  1.00  0.00     0.049 A 
ATOM     51  C   UNL A   1      43.504  25.019  29.421  1.00  0.00     0.074 A 
ATOM     52  C   UNL A   1      45.216  29.637  33.423  1.00  0.00     0.029 A 
ATOM     53  N   UNL A   1      44.161  28.391  31.913  1.00  0.00    -0.354 N 
ATOM     54  N   UNL A   1      43.773  26.020  30.224  1.00  0.00    -0.248 NA
ATOM     55  C   UNL A   1      44.545  23.983  29.378  1.00  0.00     0.031 C 
ATOM     56  C   UNL A   1      45.997  28.507  33.157  1.00  0.00     0.029 A 
ATOM     57  C   UNL A   1      45.325  27.716  32.240  1.00  0.00     0.049 A 
ATOM     58  H   UNL A   1      43.484  28.073  31.272  1.00  0.00     0.167 HD
ATOM     59  C   UNL A   1      44.998  25.719  30.806  1.00  0.00     0.074 A 
ATOM     60  C   UNL A   1      45.408  24.435  30.276  1.00  0.00     0.031 C 
ATOM     61  C   UNL A   1      45.718  26.440  31.700  1.00  0.00     0.031 A 
BRANCH  48  62
ATOM     62  C   UNL A   1      43.117  31.817  33.293  1.00  0.00    -0.014 A 
ATOM     63  C   UNL A   1      42.582  31.915  34.588  1.00  0.00     0.009 A 
ATOM     64  C   UNL A   1      43.776  32.930  32.748  1.00  0.00     0.009 A 
ATOM     65  C   UNL A   1      42.669  33.112  35.303  1.00  0.00     0.001 A 
ATOM     66  C   UNL A   1      43.891  34.115  33.478  1.00  0.00     0.001 A 
ATOM     67  C   UNL A   1      43.328  34.209  34.749  1.00  0.00     0.000 A 
ENDBRANCH  48  62
BRANCH  49  68
ATOM     68  C   UNL A   1      42.161  23.562  27.737  1.00  0.00    -0.014 A 
ATOM     69  C   UNL A   1      41.564  22.408  28.269  1.00  0.00     0.009 A 
ATOM     70  C   UNL A   1      42.637  23.531  26.417  1.00  0.00     0.009 A 
ATOM     71  C   UNL A   1      41.473  21.241  27.506  1.00  0.00     0.001 A 
ATOM     72  C   UNL A   1      42.517  22.372  25.646  1.00  0.00     0.001 A 
ATOM     73  C   UNL A   1      41.945  21.226  26.194  1.00  0.00     0.000 A 
ENDBRANCH  49  68
BRANCH  61  74
ATOM     74  C   UNL A   1      47.005  25.837  32.191  1.00  0.00    -0.014 A 
ATOM     75  C   UNL A   1      48.216  26.051  31.516  1.00  0.00     0.009 A 
ATOM     76  C   UNL A   1      47.007  25.076  33.370  1.00  0.00     0.009 A 
ATOM     77  C   UNL A   1      49.399  25.481  31.994  1.00  0.00     0.001 A 
ATOM     78  C   UNL A   1      48.196  24.536  33.863  1.00  0.00     0.001 A 
ATOM     79  C   UNL A   1      49.388  24.730  33.168  1.00  0.00     0.000 A 
ENDBRANCH  61  74
ENDBRANCH  35  36
ENDBRANCH  27  30
ENDBRANCH  25  26
ENDBRANCH  24  25
ENDBRANCH   1  24
TORSDOF 13
ENDMDL
MODEL 2
REMARK VINA RESULT:     -11.0      4.750     10.181
REMARK SMILES CNC(=O)[C@H](C)S(=O)(=O)c1cc(C(=O)NCCCNC(=O)c2ccc(-c3c4nc(c(-c5ccccc5)c5ccc([nH]5)c(-c5ccccc5)c5nc(c(-c6ccccc6)c6ccc3[nH]6)C=C5)C=C4)cc2)c(C)cc1C
REMARK SMILES IDX 16 1 15 2 13 3 14 4 12 6 10 7 11 8 73 9 72 10 74 11 70 12
REMARK SMILES IDX 71 13 7 14 8 15 9 16 5 17 6 18 3 19 1 20 2 21 4 23 17 24
REMARK SMILES IDX 18 25 19 26 20 27 21 29 22 30 23 31 69 32 24 33 68 34 25 35
REMARK SMILES IDX 26 36 27 37 62 38 28 39 67 40 61 41 63 42 29 43 66 44 60 45
REMARK SMILES IDX 59 46 30 48 52 49 37 50 51 51 38 52 41 53 50 54 64 55 39 56
REMARK SMILES IDX 40 57 49 59 65 60 42 61 31 62 32 63 36 64 33 65 35 66 34 67
REMARK SMILES IDX 53 68 54 69 58 70 55 71 57 72 56 73 43 74 44 75 48 76 45 77
REMARK SMILES IDX 47 78 46 79
REMARK H PARENT 15 5 2 22 19 28 63 47 41 58
REMARK Flexibility Score: inf
ROOT
ATOM      1  C   UNL A   1      42.865  20.328  26.487  1.00  0.00     0.118 C 
ENDROOT
BRANCH   1   2
ATOM      2  N   UNL A   1      42.926  21.293  25.413  1.00  0.00    -0.352 N 
ATOM      3  C   UNL A   1      43.388  22.579  25.337  1.00  0.00     0.251 C 
ATOM      4  O   UNL A   1      43.128  23.186  24.294  1.00  0.00    -0.269 OA
ATOM      5  H   UNL A   1      42.560  20.958  24.562  1.00  0.00     0.163 HD
BRANCH   3   6
ATOM      6  C   UNL A   1      44.275  23.245  26.346  1.00  0.00     0.044 A 
ATOM      7  C   UNL A   1      46.339  24.596  26.516  1.00  0.00     0.071 A 
ATOM      8  C   UNL A   1      45.403  23.862  25.762  1.00  0.00     0.034 A 
ATOM      9  C   UNL A   1      46.248  24.602  27.910  1.00  0.00    -0.032 A 
ATOM     10  C   UNL A   1      45.107  24.024  28.481  1.00  0.00     0.009 A 
ATOM     11  C   UNL A   1      47.180  25.251  28.888  1.00  0.00     0.046 C 
ATOM     12  C   UNL A   1      44.078  23.431  27.721  1.00  0.00    -0.038 A 
ATOM     13  C   UNL A   1      42.825  23.158  28.489  1.00  0.00     0.045 C 
BRANCH   7  14
ATOM     14  S   UNL A   1      47.587  25.482  25.586  1.00  0.00     0.190 S 
ATOM     15  O   UNL A   1      47.379  25.161  24.187  1.00  0.00    -0.223 OA
ATOM     16  O   UNL A   1      48.888  25.167  26.156  1.00  0.00    -0.223 OA
BRANCH  14  17
ATOM     17  C   UNL A   1      47.270  27.225  25.796  1.00  0.00     0.199 C 
ATOM     18  C   UNL A   1      48.561  28.007  26.052  1.00  0.00     0.036 C 
BRANCH  17  19
ATOM     19  C   UNL A   1      46.555  27.802  24.599  1.00  0.00     0.238 C 
ATOM     20  C   UNL A   1      44.204  27.198  25.378  1.00  0.00     0.142 C 
ATOM     21  N   UNL A   1      45.194  27.822  24.529  1.00  0.00    -0.358 N 
ATOM     22  H   UNL A   1      44.827  28.344  23.779  1.00  0.00     0.163 HD
ATOM     23  O   UNL A   1      47.167  28.319  23.661  1.00  0.00    -0.274 OA
ENDBRANCH  17  19
ENDBRANCH  14  17
ENDBRANCH   7  14
ENDBRANCH   3   6
ENDBRANCH   1   2
BRANCH   1  24
ATOM     24  C   UNL A   1      41.402  20.066  26.845  1.00  0.00     0.042 C 
BRANCH  24  25
ATOM     25  C   UNL A   1      40.631  21.305  27.260  1.00  0.00     0.118 C 
BRANCH  25  26
ATOM     26  N   UNL A   1      39.591  21.629  26.302  1.00  0.00    -0.352 N 
ATOM     27  C   UNL A   1      38.871  22.787  26.146  1.00  0.00     0.251 C 
ATOM     28  H   UNL A   1      39.368  20.910  25.667  1.00  0.00     0.163 HD
ATOM     29  O   UNL A   1      37.847  22.769  25.468  1.00  0.00    -0.269 OA
BRANCH  27  30
ATOM     30  C   UNL A   1      39.303  24.051  26.790  1.00  0.00     0.039 A 
ATOM     31  C   UNL A   1      40.094  24.942  26.058  1.00  0.00     0.014 A 
ATOM     32  C   UNL A   1      38.990  24.342  28.121  1.00  0.00     0.014 A 
ATOM     33  C   UNL A   1      40.534  26.130  26.645  1.00  0.00     0.010 A 
ATOM     34  C   UNL A   1      39.339  25.573  28.670  1.00  0.00     0.010 A 
ATOM     35  C   UNL A   1      40.139  26.468  27.949  1.00  0.00    -0.014 A 
BRANCH  35  36
ATOM     36  C   UNL A   1      40.584  27.733  28.587  1.00  0.00     0.031 A 
ATOM     37  C   UNL A   1      39.612  28.868  28.773  1.00  0.00     0.074 A 
ATOM     38  C   UNL A   1      41.870  27.877  28.961  1.00  0.00     0.049 A 
ATOM     39  N   UNL A   1      39.819  30.061  29.273  1.00  0.00    -0.248 NA
ATOM     40  C   UNL A   1      38.230  28.645  28.315  1.00  0.00     0.031 C 
ATOM     41  C   UNL A   1      42.916  26.864  28.805  1.00  0.00     0.029 A 
ATOM     42  N   UNL A   1      42.516  28.933  29.551  1.00  0.00    -0.354 N 
ATOM     43  C   UNL A   1      38.603  30.728  29.174  1.00  0.00     0.074 A 
ATOM     44  C   UNL A   1      37.681  29.833  28.513  1.00  0.00     0.031 C 
ATOM     45  C   UNL A   1      44.062  27.333  29.323  1.00  0.00     0.029 A 
ATOM     46  C   UNL A   1      43.845  28.693  29.803  1.00  0.00     0.049 A 
ATOM     47  H   UNL A   1      42.070  29.782  29.774  1.00  0.00     0.167 HD
ATOM     48  C   UNL A   1      38.275  31.965  29.616  1.00  0.00     0.031 A 
ATOM     49  C   UNL A   1      44.785  29.482  30.357  1.00  0.00     0.031 A 
ATOM     50  C   UNL A   1      39.193  32.852  30.279  1.00  0.00     0.049 A 
ATOM     51  C   UNL A   1      44.403  30.864  30.812  1.00  0.00     0.074 A 
ATOM     52  C   UNL A   1      38.950  34.109  30.804  1.00  0.00     0.029 A 
ATOM     53  N   UNL A   1      40.532  32.575  30.504  1.00  0.00    -0.354 N 
ATOM     54  N   UNL A   1      43.235  31.456  30.766  1.00  0.00    -0.248 NA
ATOM     55  C   UNL A   1      45.471  31.682  31.404  1.00  0.00     0.031 C 
ATOM     56  C   UNL A   1      40.157  34.615  31.298  1.00  0.00     0.029 A 
ATOM     57  C   UNL A   1      41.136  33.647  31.139  1.00  0.00     0.049 A 
ATOM     58  H   UNL A   1      40.988  31.739  30.251  1.00  0.00     0.167 HD
ATOM     59  C   UNL A   1      43.419  32.702  31.351  1.00  0.00     0.074 A 
ATOM     60  C   UNL A   1      44.807  32.772  31.759  1.00  0.00     0.031 C 
ATOM     61  C   UNL A   1      42.519  33.699  31.535  1.00  0.00     0.031 A 
BRANCH  48  62
ATOM     62  C   UNL A   1      36.863  32.432  29.388  1.00  0.00    -0.014 A 
ATOM     63  C   UNL A   1      35.852  32.189  30.333  1.00  0.00     0.009 A 
ATOM     64  C   UNL A   1      36.543  33.153  28.226  1.00  0.00     0.009 A 
ATOM     65  C   UNL A   1      34.545  32.621  30.100  1.00  0.00     0.001 A 
ATOM     66  C   UNL A   1      35.242  33.613  28.013  1.00  0.00     0.001 A 
ATOM     67  C   UNL A   1      34.242  33.337  28.943  1.00  0.00     0.000 A 
ENDBRANCH  48  62
BRANCH  49  68
ATOM     68  C   UNL A   1      46.175  28.981  30.528  1.00  0.00    -0.014 A 
ATOM     69  C   UNL A   1      47.140  29.203  29.533  1.00  0.00     0.009 A 
ATOM     70  C   UNL A   1      46.544  28.274  31.683  1.00  0.00     0.009 A 
ATOM     71  C   UNL A   1      48.436  28.703  29.678  1.00  0.00     0.001 A 
ATOM     72  C   UNL A   1      47.850  27.802  31.839  1.00  0.00     0.001 A 
ATOM     73  C   UNL A   1      48.791  28.007  30.832  1.00  0.00     0.000 A 
ENDBRANCH  49  68
BRANCH  61  74
ATOM     74  C   UNL A   1      43.000  34.935  32.243  1.00  0.00    -0.014 A 
ATOM     75  C   UNL A   1      42.938  35.049  33.641  1.00  0.00     0.009 A 
ATOM     76  C   UNL A   1      43.562  35.985  31.499  1.00  0.00     0.009 A 
ATOM     77  C   UNL A   1      43.393  36.207  34.274  1.00  0.00     0.001 A 
ATOM     78  C   UNL A   1      44.047  37.127  32.138  1.00  0.00     0.001 A 
ATOM     79  C   UNL A   1      43.952  37.241  33.524  1.00  0.00     0.000 A 
ENDBRANCH  61  74
ENDBRANCH  35  36
ENDBRANCH  27  30
ENDBRANCH  25  26
ENDBRANCH  24  25
ENDBRANCH   1  24
TORSDOF 13
ENDMDL
MODEL 3
REMARK VINA RESULT:     -10.9      2.301      7.389
REMARK SMILES CNC(=O)[C@H](C)S(=O)(=O)c1cc(C(=O)NCCCNC(=O)c2ccc(-c3c4nc(c(-c5ccccc5)c5ccc([nH]5)c(-c5ccccc5)c5nc(c(-c6ccccc6)c6ccc3[nH]6)C=C5)C=C4)cc2)c(C)cc1C
REMARK SMILES IDX 16 1 15 2 13 3 14 4 12 6 10 7 11 8 73 9 72 10 74 11 70 12
REMARK SMILES IDX 71 13 7 14 8 15 9 16 5 17 6 18 3 19 1 20 2 21 4 23 17 24
REMARK SMILES IDX 18 25 19 26 20 27 21 29 22 30 23 31 69 32 24 33 68 34 25 35
REMARK SMILES IDX 26 36 27 37 62 38 28 39 67 40 61 41 63 42 29 43 66 44 60 45
REMARK SMILES IDX 59 46 30 48 52 49 37 50 51 51 38 52 41 53 50 54 64 55 39 56
REMARK SMILES IDX 40 57 49 59 65 60 42 61 31 62 32 63 36 64 33 65 35 66 34 67
REMARK SMILES IDX 53 68 54 69 58 70 55 71 57 72 56 73 43 74 44 75 48 76 45 77
REMARK SMILES IDX 47 78 46 79
REMARK H PARENT 15 5 2 22 19 28 63 47 41 58
REMARK Flexibility Score: inf
ROOT
ATOM      1  C   UNL A   1      36.101  20.499  24.648  1.00  0.00     0.118 C 
ENDROOT
BRANCH   1   2
ATOM      2  N   UNL A   1      35.169  20.528  25.753  1.00  0.00    -0.352 N 
ATOM      3  C   UNL A   1      34.567  21.547  26.440  1.00  0.00     0.251 C 
ATOM      4  O   UNL A   1      33.948  21.221  27.458  1.00  0.00    -0.269 OA
ATOM      5  H   UNL A   1      34.917  19.634  26.077  1.00  0.00     0.163 HD
BRANCH   3   6
ATOM      6  C   UNL A   1      34.496  22.975  25.992  1.00  0.00     0.044 A 
ATOM      7  C   UNL A   1      32.869  24.779  25.528  1.00  0.00     0.071 A 
ATOM      8  C   UNL A   1      33.170  23.449  25.877  1.00  0.00     0.034 A 
ATOM      9  C   UNL A   1      33.898  25.637  25.131  1.00  0.00    -0.032 A 
ATOM     10  C   UNL A   1      35.212  25.176  25.285  1.00  0.00     0.009 A 
ATOM     11  C   UNL A   1      33.780  27.053  24.651  1.00  0.00     0.046 C 
ATOM     12  C   UNL A   1      35.529  23.901  25.794  1.00  0.00    -0.038 A 
ATOM     13  C   UNL A   1      36.967  23.727  26.165  1.00  0.00     0.045 C 
BRANCH   7  14
ATOM     14  S   UNL A   1      31.147  25.257  25.635  1.00  0.00     0.190 S 
ATOM     15  O   UNL A   1      31.093  26.474  26.422  1.00  0.00    -0.223 OA
ATOM     16  O   UNL A   1      30.387  24.115  26.120  1.00  0.00    -0.223 OA
BRANCH  14  17
ATOM     17  C   UNL A   1      30.601  25.654  23.984  1.00  0.00     0.199 C 
ATOM     18  C   UNL A   1      30.243  24.396  23.189  1.00  0.00     0.036 C 
BRANCH  17  19
ATOM     19  C   UNL A   1      29.420  26.594  24.005  1.00  0.00     0.238 C 
ATOM     20  C   UNL A   1      30.775  28.730  23.689  1.00  0.00     0.142 C 
ATOM     21  N   UNL A   1      29.575  27.930  23.788  1.00  0.00    -0.358 N 
ATOM     22  H   UNL A   1      28.734  28.431  23.682  1.00  0.00     0.163 HD
ATOM     23  O   UNL A   1      28.268  26.188  24.175  1.00  0.00    -0.274 OA
ENDBRANCH  17  19
ENDBRANCH  14  17
ENDBRANCH   7  14
ENDBRANCH   3   6
ENDBRANCH   1   2
BRANCH   1  24
ATOM     24  C   UNL A   1      37.261  19.565  24.993  1.00  0.00     0.042 C 
BRANCH  24  25
ATOM     25  C   UNL A   1      38.531  20.279  25.417  1.00  0.00     0.118 C 
BRANCH  25  26
ATOM     26  N   UNL A   1      39.607  19.340  25.675  1.00  0.00    -0.352 N 
ATOM     27  C   UNL A   1      40.906  19.576  26.051  1.00  0.00     0.251 C 
ATOM     28  H   UNL A   1      39.369  18.391  25.566  1.00  0.00     0.163 HD
ATOM     29  O   UNL A   1      41.733  18.674  25.945  1.00  0.00    -0.269 OA
BRANCH  27  30
ATOM     30  C   UNL A   1      41.326  20.901  26.568  1.00  0.00     0.039 A 
ATOM     31  C   UNL A   1      41.161  21.174  27.929  1.00  0.00     0.014 A 
ATOM     32  C   UNL A   1      41.824  21.896  25.722  1.00  0.00     0.014 A 
ATOM     33  C   UNL A   1      41.528  22.420  28.442  1.00  0.00     0.010 A 
ATOM     34  C   UNL A   1      42.287  23.098  26.250  1.00  0.00     0.010 A 
ATOM     35  C   UNL A   1      42.118  23.385  27.610  1.00  0.00    -0.014 A 
BRANCH  35  36
ATOM     36  C   UNL A   1      42.528  24.711  28.138  1.00  0.00     0.031 A 
ATOM     37  C   UNL A   1      41.500  25.795  28.335  1.00  0.00     0.074 A 
ATOM     38  C   UNL A   1      43.826  24.954  28.402  1.00  0.00     0.049 A 
ATOM     39  N   UNL A   1      41.667  27.026  28.749  1.00  0.00    -0.248 NA
ATOM     40  C   UNL A   1      40.106  25.462  28.000  1.00  0.00     0.031 C 
ATOM     41  C   UNL A   1      44.921  23.998  28.223  1.00  0.00     0.029 A 
ATOM     42  N   UNL A   1      44.445  26.081  28.879  1.00  0.00    -0.354 N 
ATOM     43  C   UNL A   1      40.407  27.612  28.708  1.00  0.00     0.074 A 
ATOM     44  C   UNL A   1      39.498  26.625  28.173  1.00  0.00     0.031 C 
ATOM     45  C   UNL A   1      46.069  24.565  28.622  1.00  0.00     0.029 A 
ATOM     46  C   UNL A   1      45.801  25.937  29.039  1.00  0.00     0.049 A 
ATOM     47  H   UNL A   1      43.963  26.914  29.087  1.00  0.00     0.167 HD
ATOM     48  C   UNL A   1      40.034  28.853  29.103  1.00  0.00     0.031 A 
ATOM     49  C   UNL A   1      46.727  26.814  29.472  1.00  0.00     0.031 A 
ATOM     50  C   UNL A   1      40.939  29.832  29.641  1.00  0.00     0.049 A 
ATOM     51  C   UNL A   1      46.292  28.196  29.876  1.00  0.00     0.074 A 
ATOM     52  C   UNL A   1      40.656  31.102  30.111  1.00  0.00     0.029 A 
ATOM     53  N   UNL A   1      42.307  29.650  29.776  1.00  0.00    -0.354 N 
ATOM     54  N   UNL A   1      45.088  28.713  29.889  1.00  0.00    -0.248 NA
ATOM     55  C   UNL A   1      47.346  29.111  30.336  1.00  0.00     0.031 C 
ATOM     56  C   UNL A   1      41.861  31.709  30.479  1.00  0.00     0.029 A 
ATOM     57  C   UNL A   1      42.886  30.793  30.300  1.00  0.00     0.049 A 
ATOM     58  H   UNL A   1      42.795  28.829  29.535  1.00  0.00     0.167 HD
ATOM     59  C   UNL A   1      45.234  30.001  30.386  1.00  0.00     0.074 A 
ATOM     60  C   UNL A   1      46.642  30.179  30.679  1.00  0.00     0.031 C 
ATOM     61  C   UNL A   1      44.289  30.952  30.583  1.00  0.00     0.031 A 
BRANCH  48  62
ATOM     62  C   UNL A   1      38.581  29.219  28.960  1.00  0.00    -0.014 A 
ATOM     63  C   UNL A   1      37.689  29.099  30.038  1.00  0.00     0.009 A 
ATOM     64  C   UNL A   1      38.103  29.722  27.739  1.00  0.00     0.009 A 
ATOM     65  C   UNL A   1      36.342  29.435  29.885  1.00  0.00     0.001 A 
ATOM     66  C   UNL A   1      36.763  30.088  27.599  1.00  0.00     0.001 A 
ATOM     67  C   UNL A   1      35.881  29.934  28.667  1.00  0.00     0.000 A 
ENDBRANCH  48  62
BRANCH  49  68
ATOM     68  C   UNL A   1      48.155  26.409  29.562  1.00  0.00    -0.014 A 
ATOM     69  C   UNL A   1      49.022  26.608  28.476  1.00  0.00     0.009 A 
ATOM     70  C   UNL A   1      48.659  25.815  30.730  1.00  0.00     0.009 A 
ATOM     71  C   UNL A   1      50.355  26.196  28.548  1.00  0.00     0.001 A 
ATOM     72  C   UNL A   1      50.000  25.433  30.811  1.00  0.00     0.001 A 
ATOM     73  C   UNL A   1      50.844  25.613  29.716  1.00  0.00     0.000 A 
ENDBRANCH  49  68
BRANCH  61  74
ATOM     74  C   UNL A   1      44.741  32.256  31.180  1.00  0.00    -0.014 A 
ATOM     75  C   UNL A   1      45.135  33.333  30.371  1.00  0.00     0.009 A 
ATOM     76  C   UNL A   1      44.733  32.419  32.574  1.00  0.00     0.009 A 
ATOM     77  C   UNL A   1      45.548  34.535  30.950  1.00  0.00     0.001 A 
ATOM     78  C   UNL A   1      45.114  33.632  33.149  1.00  0.00     0.001 A 
ATOM     79  C   UNL A   1      45.532  34.684  32.336  1.00  0.00     0.000 A 
ENDBRANCH  61  74
ENDBRANCH  35  36
ENDBRANCH  27  30
ENDBRANCH  25  26
ENDBRANCH  24  25
ENDBRANCH   1  24
TORSDOF 13
ENDMDL
