MODEL 1
REMARK VINA RESULT:     -11.1      0.000      0.000
REMARK SMILES COC1CCN(c2nc(C(C)C)c(C(=O)NCCCNC(=O)c3ccc(-c4c5nc(c(-c6ccccc6)c6ccc([nH]6)c(-c6ccccc6)c6nc(c(-c7ccccc7)c7ccc4[nH]7)C=C6)C=C5)cc3)s2)CC1
REMARK SMILES IDX 18 1 17 2 16 3 14 4 15 5 13 7 7 8 8 9 71 10 9 11 6 12 3 13
REMARK SMILES IDX 4 14 73 15 5 16 72 17 2 18 1 19 10 20 11 21 12 22 19 23
REMARK SMILES IDX 20 24 21 25 22 27 23 28 24 29 70 30 25 31 69 32 26 33 27 34
REMARK SMILES IDX 28 35 63 36 29 37 68 38 62 39 64 40 30 41 67 42 61 43 60 44
REMARK SMILES IDX 31 46 53 47 38 48 52 49 39 50 42 51 51 52 65 53 40 54 41 55
REMARK SMILES IDX 50 57 66 58 43 59 32 60 33 61 37 62 34 63 36 64 35 65 54 66
REMARK SMILES IDX 55 67 59 68 56 69 58 70 57 71 44 72 45 73 49 74 46 75 48 76
REMARK SMILES IDX 47 77
REMARK H PARENT 16 6 20 26 64 45 42 56
REMARK Flexibility Score: inf
ROOT
ATOM      1  C   UNL A   1      37.422  20.416  24.944  1.00  0.00     0.042 C 
ENDROOT
BRANCH   1   2
ATOM      2  C   UNL A   1      36.344  21.483  24.956  1.00  0.00     0.118 C 
BRANCH   2   3
ATOM      3  N   UNL A   1      35.667  21.549  26.214  1.00  0.00    -0.351 N 
ATOM      4  C   UNL A   1      34.407  21.920  26.591  1.00  0.00     0.263 C 
ATOM      5  O   UNL A   1      34.253  21.745  27.810  1.00  0.00    -0.268 OA
ATOM      6  H   UNL A   1      36.230  21.266  26.970  1.00  0.00     0.163 HD
BRANCH   4   7
ATOM      7  C   UNL A   1      33.338  22.445  25.734  1.00  0.00     0.117 A 
ATOM      8  C   UNL A   1      31.949  24.258  24.759  1.00  0.00     0.186 A 
ATOM      9  N   UNL A   1      31.641  23.102  24.244  1.00  0.00    -0.224 NA
ATOM     10  S   UNL A   1      33.070  24.158  26.031  1.00  0.00    -0.091 S 
ATOM     11  C   UNL A   1      32.460  22.072  24.704  1.00  0.00     0.069 A 
BRANCH   8  12
ATOM     12  N   UNL A   1      31.406  25.429  24.341  1.00  0.00    -0.348 N 
ATOM     13  C   UNL A   1      30.214  27.916  23.558  1.00  0.00     0.121 C 
ATOM     14  C   UNL A   1      31.632  27.849  24.136  1.00  0.00     0.053 C 
ATOM     15  C   UNL A   1      29.377  26.662  23.824  1.00  0.00     0.053 C 
ATOM     16  C   UNL A   1      32.307  26.501  23.929  1.00  0.00     0.121 C 
ATOM     17  C   UNL A   1      30.139  25.360  23.623  1.00  0.00     0.121 C 
BRANCH  13  18
ATOM     18  O   UNL A   1      30.115  28.362  22.201  1.00  0.00    -0.381 OA
ATOM     19  C   UNL A   1      29.938  29.744  21.956  1.00  0.00     0.195 C 
ENDBRANCH  13  18
ENDBRANCH   8  12
BRANCH  11  20
ATOM     20  C   UNL A   1      32.224  20.831  23.873  1.00  0.00     0.034 C 
ATOM     21  C   UNL A   1      32.051  21.143  22.387  1.00  0.00     0.014 C 
ATOM     22  C   UNL A   1      33.096  19.630  24.252  1.00  0.00     0.014 C 
ENDBRANCH  11  20
ENDBRANCH   4   7
ENDBRANCH   2   3
ENDBRANCH   1   2
BRANCH   1  23
ATOM     23  C   UNL A   1      38.664  20.865  25.682  1.00  0.00     0.118 C 
BRANCH  23  24
ATOM     24  N   UNL A   1      39.671  19.806  25.730  1.00  0.00    -0.352 N 
ATOM     25  C   UNL A   1      41.020  19.874  25.992  1.00  0.00     0.251 C 
ATOM     26  H   UNL A   1      39.331  18.901  25.544  1.00  0.00     0.163 HD
ATOM     27  O   UNL A   1      41.744  18.915  25.737  1.00  0.00    -0.269 OA
BRANCH  25  28
ATOM     28  C   UNL A   1      41.597  21.110  26.557  1.00  0.00     0.039 A 
ATOM     29  C   UNL A   1      42.061  22.118  25.707  1.00  0.00     0.014 A 
ATOM     30  C   UNL A   1      41.665  21.279  27.939  1.00  0.00     0.014 A 
ATOM     31  C   UNL A   1      42.504  23.329  26.248  1.00  0.00     0.010 A 
ATOM     32  C   UNL A   1      41.962  22.524  28.463  1.00  0.00     0.010 A 
ATOM     33  C   UNL A   1      42.408  23.559  27.629  1.00  0.00    -0.014 A 
BRANCH  33  34
ATOM     34  C   UNL A   1      42.806  24.839  28.267  1.00  0.00     0.031 A 
ATOM     35  C   UNL A   1      41.756  25.894  28.503  1.00  0.00     0.074 A 
ATOM     36  C   UNL A   1      44.104  25.104  28.512  1.00  0.00     0.049 A 
ATOM     37  N   UNL A   1      41.904  27.152  28.830  1.00  0.00    -0.248 NA
ATOM     38  C   UNL A   1      40.355  25.492  28.286  1.00  0.00     0.031 C 
ATOM     39  C   UNL A   1      45.221  24.181  28.301  1.00  0.00     0.029 A 
ATOM     40  N   UNL A   1      44.704  26.249  28.975  1.00  0.00    -0.354 N 
ATOM     41  C   UNL A   1      40.624  27.694  28.810  1.00  0.00     0.074 A 
ATOM     42  C   UNL A   1      39.723  26.650  28.378  1.00  0.00     0.031 C 
ATOM     43  C   UNL A   1      46.365  24.786  28.657  1.00  0.00     0.029 A 
ATOM     44  C   UNL A   1      46.073  26.157  29.062  1.00  0.00     0.049 A 
ATOM     45  H   UNL A   1      44.203  27.059  29.221  1.00  0.00     0.167 HD
ATOM     46  C   UNL A   1      40.230  28.944  29.145  1.00  0.00     0.031 A 
ATOM     47  C   UNL A   1      46.990  27.081  29.409  1.00  0.00     0.031 A 
ATOM     48  C   UNL A   1      41.124  29.965  29.611  1.00  0.00     0.049 A 
ATOM     49  C   UNL A   1      46.528  28.466  29.772  1.00  0.00     0.074 A 
ATOM     50  C   UNL A   1      40.823  31.245  30.039  1.00  0.00     0.029 A 
ATOM     51  N   UNL A   1      42.498  29.815  29.719  1.00  0.00    -0.354 N 
ATOM     52  N   UNL A   1      45.311  28.953  29.794  1.00  0.00    -0.248 NA
ATOM     53  C   UNL A   1      47.567  29.430  30.165  1.00  0.00     0.031 C 
ATOM     54  C   UNL A   1      42.021  31.888  30.358  1.00  0.00     0.029 A 
ATOM     55  C   UNL A   1      43.060  30.986  30.193  1.00  0.00     0.049 A 
ATOM     56  H   UNL A   1      42.998  28.998  29.493  1.00  0.00     0.167 HD
ATOM     57  C   UNL A   1      45.433  30.261  30.245  1.00  0.00     0.074 A 
ATOM     58  C   UNL A   1      46.842  30.493  30.485  1.00  0.00     0.031 C 
ATOM     59  C   UNL A   1      44.463  31.186  30.449  1.00  0.00     0.031 A 
BRANCH  46  60
ATOM     60  C   UNL A   1      38.766  29.269  29.017  1.00  0.00    -0.014 A 
ATOM     61  C   UNL A   1      38.217  29.708  27.801  1.00  0.00     0.009 A 
ATOM     62  C   UNL A   1      37.917  29.108  30.123  1.00  0.00     0.009 A 
ATOM     63  C   UNL A   1      36.860  30.023  27.707  1.00  0.00     0.001 A 
ATOM     64  C   UNL A   1      36.553  29.388  30.017  1.00  0.00     0.001 A 
ATOM     65  C   UNL A   1      36.029  29.857  28.814  1.00  0.00     0.000 A 
ENDBRANCH  46  60
BRANCH  47  66
ATOM     66  C   UNL A   1      48.434  26.726  29.446  1.00  0.00    -0.014 A 
ATOM     67  C   UNL A   1      49.260  27.004  28.345  1.00  0.00     0.009 A 
ATOM     68  C   UNL A   1      48.995  26.107  30.573  1.00  0.00     0.009 A 
ATOM     69  C   UNL A   1      50.609  26.640  28.361  1.00  0.00     0.001 A 
ATOM     70  C   UNL A   1      50.352  25.773  30.599  1.00  0.00     0.001 A 
ATOM     71  C   UNL A   1      51.155  26.029  29.488  1.00  0.00     0.000 A 
ENDBRANCH  47  66
BRANCH  59  72
ATOM     72  C   UNL A   1      44.871  32.510  31.026  1.00  0.00    -0.014 A 
ATOM     73  C   UNL A   1      44.962  32.713  32.411  1.00  0.00     0.009 A 
ATOM     74  C   UNL A   1      45.261  33.544  30.158  1.00  0.00     0.009 A 
ATOM     75  C   UNL A   1      45.420  33.932  32.914  1.00  0.00     0.001 A 
ATOM     76  C   UNL A   1      45.746  34.749  30.663  1.00  0.00     0.001 A 
ATOM     77  C   UNL A   1      45.821  34.944  32.041  1.00  0.00     0.000 A 
ENDBRANCH  59  72
ENDBRANCH  33  34
ENDBRANCH  25  28
ENDBRANCH  23  24
ENDBRANCH   1  23
TORSDOF 13
ENDMDL
MODEL 2
REMARK VINA RESULT:     -11.0      1.247      1.721
REMARK SMILES COC1CCN(c2nc(C(C)C)c(C(=O)NCCCNC(=O)c3ccc(-c4c5nc(c(-c6ccccc6)c6ccc([nH]6)c(-c6ccccc6)c6nc(c(-c7ccccc7)c7ccc4[nH]7)C=C6)C=C5)cc3)s2)CC1
REMARK SMILES IDX 18 1 17 2 16 3 14 4 15 5 13 7 7 8 8 9 71 10 9 11 6 12 3 13
REMARK SMILES IDX 4 14 73 15 5 16 72 17 2 18 1 19 10 20 11 21 12 22 19 23
REMARK SMILES IDX 20 24 21 25 22 27 23 28 24 29 70 30 25 31 69 32 26 33 27 34
REMARK SMILES IDX 28 35 63 36 29 37 68 38 62 39 64 40 30 41 67 42 61 43 60 44
REMARK SMILES IDX 31 46 53 47 38 48 52 49 39 50 42 51 51 52 65 53 40 54 41 55
REMARK SMILES IDX 50 57 66 58 43 59 32 60 33 61 37 62 34 63 36 64 35 65 54 66
REMARK SMILES IDX 55 67 59 68 56 69 58 70 57 71 44 72 45 73 49 74 46 75 48 76
REMARK SMILES IDX 47 77
REMARK H PARENT 16 6 20 26 64 45 42 56
REMARK Flexibility Score: inf
ROOT
ATOM      1  C   UNL A   1      37.561  20.351  24.958  1.00  0.00     0.042 C 
ENDROOT
BRANCH   1   2
ATOM      2  C   UNL A   1      36.413  21.327  25.129  1.00  0.00     0.118 C 
BRANCH   2   3
ATOM      3  N   UNL A   1      35.237  20.689  25.637  1.00  0.00    -0.351 N 
ATOM      4  C   UNL A   1      33.923  21.055  25.716  1.00  0.00     0.263 C 
ATOM      5  O   UNL A   1      33.245  20.128  26.187  1.00  0.00    -0.268 OA
ATOM      6  H   UNL A   1      35.414  19.796  26.010  1.00  0.00     0.163 HD
BRANCH   4   7
ATOM      7  C   UNL A   1      33.327  22.333  25.311  1.00  0.00     0.117 A 
ATOM      8  C   UNL A   1      32.844  24.755  25.583  1.00  0.00     0.186 A 
ATOM      9  N   UNL A   1      32.366  24.304  24.459  1.00  0.00    -0.224 NA
ATOM     10  S   UNL A   1      33.499  23.542  26.577  1.00  0.00    -0.091 S 
ATOM     11  C   UNL A   1      32.693  22.969  24.231  1.00  0.00     0.069 A 
BRANCH   8  12
ATOM     12  N   UNL A   1      32.801  26.062  25.942  1.00  0.00    -0.348 N 
ATOM     13  C   UNL A   1      32.724  28.796  26.804  1.00  0.00     0.121 C 
ATOM     14  C   UNL A   1      34.026  28.133  26.338  1.00  0.00     0.053 C 
ATOM     15  C   UNL A   1      31.616  27.800  27.159  1.00  0.00     0.053 C 
ATOM     16  C   UNL A   1      33.804  26.965  25.389  1.00  0.00     0.121 C 
ATOM     17  C   UNL A   1      31.485  26.648  26.174  1.00  0.00     0.121 C 
BRANCH  13  18
ATOM     18  O   UNL A   1      32.250  29.876  25.994  1.00  0.00    -0.381 OA
ATOM     19  C   UNL A   1      31.740  31.028  26.637  1.00  0.00     0.195 C 
ENDBRANCH  13  18
ENDBRANCH   8  12
BRANCH  11  20
ATOM     20  C   UNL A   1      32.341  22.599  22.808  1.00  0.00     0.034 C 
ATOM     21  C   UNL A   1      33.210  23.324  21.781  1.00  0.00     0.014 C 
ATOM     22  C   UNL A   1      32.063  21.109  22.581  1.00  0.00     0.014 C 
ENDBRANCH  11  20
ENDBRANCH   4   7
ENDBRANCH   2   3
ENDBRANCH   1   2
BRANCH   1  23
ATOM     23  C   UNL A   1      38.798  20.804  25.701  1.00  0.00     0.118 C 
BRANCH  23  24
ATOM     24  N   UNL A   1      39.813  19.751  25.744  1.00  0.00    -0.352 N 
ATOM     25  C   UNL A   1      41.163  19.829  25.996  1.00  0.00     0.251 C 
ATOM     26  H   UNL A   1      39.477  18.844  25.562  1.00  0.00     0.163 HD
ATOM     27  O   UNL A   1      41.891  18.874  25.737  1.00  0.00    -0.269 OA
BRANCH  25  28
ATOM     28  C   UNL A   1      41.736  21.069  26.554  1.00  0.00     0.039 A 
ATOM     29  C   UNL A   1      42.190  22.078  25.700  1.00  0.00     0.014 A 
ATOM     30  C   UNL A   1      41.809  21.243  27.936  1.00  0.00     0.014 A 
ATOM     31  C   UNL A   1      42.628  23.292  26.236  1.00  0.00     0.010 A 
ATOM     32  C   UNL A   1      42.102  22.491  28.455  1.00  0.00     0.010 A 
ATOM     33  C   UNL A   1      42.537  23.526  27.617  1.00  0.00    -0.014 A 
BRANCH  33  34
ATOM     34  C   UNL A   1      42.932  24.810  28.249  1.00  0.00     0.031 A 
ATOM     35  C   UNL A   1      41.874  25.853  28.503  1.00  0.00     0.074 A 
ATOM     36  C   UNL A   1      44.230  25.089  28.473  1.00  0.00     0.049 A 
ATOM     37  N   UNL A   1      42.013  27.112  28.828  1.00  0.00    -0.248 NA
ATOM     38  C   UNL A   1      40.474  25.435  28.308  1.00  0.00     0.031 C 
ATOM     39  C   UNL A   1      45.354  24.179  28.244  1.00  0.00     0.029 A 
ATOM     40  N   UNL A   1      44.825  26.240  28.927  1.00  0.00    -0.354 N 
ATOM     41  C   UNL A   1      40.727  27.639  28.830  1.00  0.00     0.074 A 
ATOM     42  C   UNL A   1      39.830  26.586  28.412  1.00  0.00     0.031 C 
ATOM     43  C   UNL A   1      46.497  24.797  28.581  1.00  0.00     0.029 A 
ATOM     44  C   UNL A   1      46.196  26.164  28.993  1.00  0.00     0.049 A 
ATOM     45  H   UNL A   1      44.318  27.045  29.183  1.00  0.00     0.167 HD
ATOM     46  C   UNL A   1      40.323  28.885  29.172  1.00  0.00     0.031 A 
ATOM     47  C   UNL A   1      47.108  27.098  29.325  1.00  0.00     0.031 A 
ATOM     48  C   UNL A   1      41.214  29.916  29.625  1.00  0.00     0.049 A 
ATOM     49  C   UNL A   1      46.636  28.478  29.697  1.00  0.00     0.074 A 
ATOM     50  C   UNL A   1      40.905  31.192  30.059  1.00  0.00     0.029 A 
ATOM     51  N   UNL A   1      42.591  29.781  29.711  1.00  0.00    -0.354 N 
ATOM     52  N   UNL A   1      45.414  28.951  29.740  1.00  0.00    -0.248 NA
ATOM     53  C   UNL A   1      47.670  29.453  30.074  1.00  0.00     0.031 C 
ATOM     54  C   UNL A   1      42.101  31.848  30.359  1.00  0.00     0.029 A 
ATOM     55  C   UNL A   1      43.147  30.958  30.177  1.00  0.00     0.049 A 
ATOM     56  H   UNL A   1      43.096  28.970  29.475  1.00  0.00     0.167 HD
ATOM     57  C   UNL A   1      45.528  30.259  30.190  1.00  0.00     0.074 A 
ATOM     58  C   UNL A   1      46.939  30.507  30.407  1.00  0.00     0.031 C 
ATOM     59  C   UNL A   1      44.552  31.173  30.410  1.00  0.00     0.031 A 
BRANCH  46  60
ATOM     60  C   UNL A   1      38.854  29.193  29.068  1.00  0.00    -0.014 A 
ATOM     61  C   UNL A   1      37.997  29.051  30.171  1.00  0.00     0.009 A 
ATOM     62  C   UNL A   1      38.324  29.660  27.855  1.00  0.00     0.009 A 
ATOM     63  C   UNL A   1      36.633  29.324  30.049  1.00  0.00     0.001 A 
ATOM     64  C   UNL A   1      36.967  29.967  27.746  1.00  0.00     0.001 A 
ATOM     65  C   UNL A   1      36.121  29.787  28.839  1.00  0.00     0.000 A 
ENDBRANCH  46  60
BRANCH  47  66
ATOM     66  C   UNL A   1      48.556  26.760  29.338  1.00  0.00    -0.014 A 
ATOM     67  C   UNL A   1      49.155  26.254  30.503  1.00  0.00     0.009 A 
ATOM     68  C   UNL A   1      49.349  26.943  28.195  1.00  0.00     0.009 A 
ATOM     69  C   UNL A   1      50.523  25.969  30.531  1.00  0.00     0.001 A 
ATOM     70  C   UNL A   1      50.709  26.626  28.216  1.00  0.00     0.001 A 
ATOM     71  C   UNL A   1      51.298  26.151  29.387  1.00  0.00     0.000 A 
ENDBRANCH  47  66
BRANCH  59  72
ATOM     72  C   UNL A   1      44.954  32.502  30.982  1.00  0.00    -0.014 A 
ATOM     73  C   UNL A   1      45.236  33.602  30.159  1.00  0.00     0.009 A 
ATOM     74  C   UNL A   1      44.957  32.673  32.376  1.00  0.00     0.009 A 
ATOM     75  C   UNL A   1      45.529  34.844  30.724  1.00  0.00     0.001 A 
ATOM     76  C   UNL A   1      45.221  33.922  32.937  1.00  0.00     0.001 A 
ATOM     77  C   UNL A   1      45.513  35.006  32.110  1.00  0.00     0.000 A 
ENDBRANCH  59  72
ENDBRANCH  33  34
ENDBRANCH  25  28
ENDBRANCH  23  24
ENDBRANCH   1  23
TORSDOF 13
ENDMDL
MODEL 3
REMARK VINA RESULT:     -11.0      3.415      8.851
REMARK SMILES COC1CCN(c2nc(C(C)C)c(C(=O)NCCCNC(=O)c3ccc(-c4c5nc(c(-c6ccccc6)c6ccc([nH]6)c(-c6ccccc6)c6nc(c(-c7ccccc7)c7ccc4[nH]7)C=C6)C=C5)cc3)s2)CC1
REMARK SMILES IDX 18 1 17 2 16 3 14 4 15 5 13 7 7 8 8 9 71 10 9 11 6 12 3 13
REMARK SMILES IDX 4 14 73 15 5 16 72 17 2 18 1 19 10 20 11 21 12 22 19 23
REMARK SMILES IDX 20 24 21 25 22 27 23 28 24 29 70 30 25 31 69 32 26 33 27 34
REMARK SMILES IDX 28 35 63 36 29 37 68 38 62 39 64 40 30 41 67 42 61 43 60 44
REMARK SMILES IDX 31 46 53 47 38 48 52 49 39 50 42 51 51 52 65 53 40 54 41 55
REMARK SMILES IDX 50 57 66 58 43 59 32 60 33 61 37 62 34 63 36 64 35 65 54 66
REMARK SMILES IDX 55 67 59 68 56 69 58 70 57 71 44 72 45 73 49 74 46 75 48 76
REMARK SMILES IDX 47 77
REMARK H PARENT 16 6 20 26 64 45 42 56
REMARK Flexibility Score: inf
ROOT
ATOM      1  C   UNL A   1      31.736  31.316  26.301  1.00  0.00     0.042 C 
ENDROOT
BRANCH   1   2
ATOM      2  C   UNL A   1      32.021  29.867  25.957  1.00  0.00     0.118 C 
BRANCH   2   3
ATOM      3  N   UNL A   1      32.920  29.744  24.851  1.00  0.00    -0.351 N 
ATOM      4  C   UNL A   1      33.103  28.799  23.882  1.00  0.00     0.263 C 
ATOM      5  O   UNL A   1      33.978  29.164  23.083  1.00  0.00    -0.268 OA
ATOM      6  H   UNL A   1      33.541  30.504  24.773  1.00  0.00     0.163 HD
BRANCH   4   7
ATOM      7  C   UNL A   1      32.395  27.521  23.738  1.00  0.00     0.117 A 
ATOM      8  C   UNL A   1      32.252  25.042  23.707  1.00  0.00     0.186 A 
ATOM      9  N   UNL A   1      31.077  25.581  23.553  1.00  0.00    -0.224 NA
ATOM     10  S   UNL A   1      33.522  26.170  23.720  1.00  0.00    -0.091 S 
ATOM     11  C   UNL A   1      31.106  26.971  23.652  1.00  0.00     0.069 A 
BRANCH   8  12
ATOM     12  N   UNL A   1      32.449  23.704  23.818  1.00  0.00    -0.348 N 
ATOM     13  C   UNL A   1      32.930  20.881  23.962  1.00  0.00     0.121 C 
ATOM     14  C   UNL A   1      33.811  21.888  24.710  1.00  0.00     0.053 C 
ATOM     15  C   UNL A   1      32.085  21.506  22.848  1.00  0.00     0.053 C 
ATOM     16  C   UNL A   1      33.103  23.199  25.021  1.00  0.00     0.121 C 
ATOM     17  C   UNL A   1      31.440  22.829  23.234  1.00  0.00     0.121 C 
BRANCH  13  18
ATOM     18  O   UNL A   1      32.175  19.983  24.783  1.00  0.00    -0.381 OA
ATOM     19  C   UNL A   1      32.601  18.638  24.879  1.00  0.00     0.195 C 
ENDBRANCH  13  18
ENDBRANCH   8  12
BRANCH  11  20
ATOM     20  C   UNL A   1      29.692  27.501  23.733  1.00  0.00     0.034 C 
ATOM     21  C   UNL A   1      29.459  28.696  22.808  1.00  0.00     0.014 C 
ATOM     22  C   UNL A   1      28.604  26.423  23.792  1.00  0.00     0.014 C 
ENDBRANCH  11  20
ENDBRANCH   4   7
ENDBRANCH   2   3
ENDBRANCH   1   2
BRANCH   1  23
ATOM     23  C   UNL A   1      32.876  31.946  27.070  1.00  0.00     0.118 C 
BRANCH  23  24
ATOM     24  N   UNL A   1      32.572  33.326  27.446  1.00  0.00    -0.352 N 
ATOM     25  C   UNL A   1      33.168  34.145  28.375  1.00  0.00     0.251 C 
ATOM     26  H   UNL A   1      31.819  33.732  26.958  1.00  0.00     0.163 HD
ATOM     27  O   UNL A   1      32.611  35.182  28.727  1.00  0.00    -0.269 OA
BRANCH  25  28
ATOM     28  C   UNL A   1      34.466  33.764  28.966  1.00  0.00     0.039 A 
ATOM     29  C   UNL A   1      34.505  32.995  30.132  1.00  0.00     0.014 A 
ATOM     30  C   UNL A   1      35.654  34.156  28.351  1.00  0.00     0.014 A 
ATOM     31  C   UNL A   1      35.736  32.545  30.623  1.00  0.00     0.010 A 
ATOM     32  C   UNL A   1      36.852  33.591  28.750  1.00  0.00     0.010 A 
ATOM     33  C   UNL A   1      36.914  32.797  29.904  1.00  0.00    -0.014 A 
BRANCH  33  34
ATOM     34  C   UNL A   1      38.247  32.305  30.334  1.00  0.00     0.031 A 
ATOM     35  C   UNL A   1      38.770  31.016  29.753  1.00  0.00     0.074 A 
ATOM     36  C   UNL A   1      38.919  32.928  31.321  1.00  0.00     0.049 A 
ATOM     37  N   UNL A   1      39.784  30.286  30.137  1.00  0.00    -0.248 NA
ATOM     38  C   UNL A   1      38.015  30.446  28.622  1.00  0.00     0.031 C 
ATOM     39  C   UNL A   1      38.508  34.165  31.987  1.00  0.00     0.029 A 
ATOM     40  N   UNL A   1      40.089  32.586  31.952  1.00  0.00    -0.354 N 
ATOM     41  C   UNL A   1      39.756  29.155  29.329  1.00  0.00     0.074 A 
ATOM     42  C   UNL A   1      38.592  29.265  28.479  1.00  0.00     0.031 C 
ATOM     43  C   UNL A   1      39.422  34.491  32.914  1.00  0.00     0.029 A 
ATOM     44  C   UNL A   1      40.452  33.457  32.952  1.00  0.00     0.049 A 
ATOM     45  H   UNL A   1      40.619  31.792  31.712  1.00  0.00     0.167 HD
ATOM     46  C   UNL A   1      40.635  28.128  29.279  1.00  0.00     0.031 A 
ATOM     47  C   UNL A   1      41.485  33.414  33.815  1.00  0.00     0.031 A 
ATOM     48  C   UNL A   1      41.811  28.044  30.098  1.00  0.00     0.049 A 
ATOM     49  C   UNL A   1      42.446  32.259  33.746  1.00  0.00     0.074 A 
ATOM     50  C   UNL A   1      42.803  27.081  30.085  1.00  0.00     0.029 A 
ATOM     51  N   UNL A   1      42.158  28.969  31.071  1.00  0.00    -0.354 N 
ATOM     52  N   UNL A   1      42.434  31.221  32.946  1.00  0.00    -0.248 NA
ATOM     53  C   UNL A   1      43.569  32.273  34.695  1.00  0.00     0.031 C 
ATOM     54  C   UNL A   1      43.725  27.395  31.087  1.00  0.00     0.029 A 
ATOM     55  C   UNL A   1      43.342  28.590  31.676  1.00  0.00     0.049 A 
ATOM     56  H   UNL A   1      41.639  29.774  31.297  1.00  0.00     0.167 HD
ATOM     57  C   UNL A   1      43.567  30.483  33.263  1.00  0.00     0.074 A 
ATOM     58  C   UNL A   1      44.244  31.192  34.329  1.00  0.00     0.031 C 
ATOM     59  C   UNL A   1      44.011  29.325  32.717  1.00  0.00     0.031 A 
BRANCH  46  60
ATOM     60  C   UNL A   1      40.351  27.016  28.307  1.00  0.00    -0.014 A 
ATOM     61  C   UNL A   1      40.876  27.031  27.004  1.00  0.00     0.009 A 
ATOM     62  C   UNL A   1      39.568  25.921  28.708  1.00  0.00     0.009 A 
ATOM     63  C   UNL A   1      40.585  25.998  26.110  1.00  0.00     0.001 A 
ATOM     64  C   UNL A   1      39.309  24.873  27.824  1.00  0.00     0.001 A 
ATOM     65  C   UNL A   1      39.807  24.918  26.523  1.00  0.00     0.000 A 
ENDBRANCH  46  60
BRANCH  47  66
ATOM     66  C   UNL A   1      41.676  34.504  34.809  1.00  0.00    -0.014 A 
ATOM     67  C   UNL A   1      42.438  35.637  34.481  1.00  0.00     0.009 A 
ATOM     68  C   UNL A   1      41.104  34.421  36.088  1.00  0.00     0.009 A 
ATOM     69  C   UNL A   1      42.651  36.646  35.424  1.00  0.00     0.001 A 
ATOM     70  C   UNL A   1      41.291  35.448  37.017  1.00  0.00     0.001 A 
ATOM     71  C   UNL A   1      42.074  36.554  36.689  1.00  0.00     0.000 A 
ENDBRANCH  47  66
BRANCH  59  72
ATOM     72  C   UNL A   1      45.325  28.782  33.200  1.00  0.00    -0.014 A 
ATOM     73  C   UNL A   1      45.395  27.846  34.243  1.00  0.00     0.009 A 
ATOM     74  C   UNL A   1      46.505  29.149  32.531  1.00  0.00     0.009 A 
ATOM     75  C   UNL A   1      46.626  27.303  34.616  1.00  0.00     0.001 A 
ATOM     76  C   UNL A   1      47.727  28.582  32.886  1.00  0.00     0.001 A 
ATOM     77  C   UNL A   1      47.788  27.663  33.932  1.00  0.00     0.000 A 
ENDBRANCH  59  72
ENDBRANCH  33  34
ENDBRANCH  25  28
ENDBRANCH  23  24
ENDBRANCH   1  23
TORSDOF 13
ENDMDL
