MODEL 1
REMARK VINA RESULT:     -13.4      0.000      0.000
REMARK SMILES O=C(NCCCNC(=O)c1[nH]ncc1C[NH+]1CCC([N@H+]2CCC[C@@H](C(=O)N3CCCC3)C2)CC1)c1ccc(-c2c3nc(c(-c4ccccc4)c4ccc([nH]4)c(-c4ccccc4)c4nc(c(-c5ccccc5)c5ccc2[nH]5)C=C4)C=C3)cc1
REMARK SMILES IDX 6 1 5 2 4 3 3 4 1 5 2 6 35 8 36 9 82 10 37 11 81 12 38 13
REMARK SMILES IDX 39 14 40 15 75 16 41 17 80 18 74 19 76 20 42 21 79 22 73 23
REMARK SMILES IDX 72 24 43 26 65 27 50 28 64 29 51 30 54 31 63 32 77 33 52 34
REMARK SMILES IDX 53 35 62 37 78 38 55 39 44 40 45 41 49 42 46 43 48 44 47 45
REMARK SMILES IDX 66 46 67 47 71 48 68 49 70 50 69 51 56 52 57 53 61 54 58 55
REMARK SMILES IDX 60 56 59 57 7 58 8 59 9 61 10 62 11 63 14 64 12 65 13 67
REMARK SMILES IDX 15 68 16 69 17 70 34 71 18 73 33 74 19 75 20 76 21 77 32 78
REMARK SMILES IDX 22 80 24 81 23 82 25 83 26 84 27 85 28 86 31 87 29 88 30 89
REMARK H PARENT 3 7 76 25 54 36 7 60 11 66 16 72 20 79
REMARK Flexibility Score: inf
ROOT
ATOM      1  C   UNL A   1      32.406  30.079  25.583  1.00  0.00     0.118 C 
ENDROOT
BRANCH   1   2
ATOM      2  C   UNL A   1      32.661  29.250  26.838  1.00  0.00     0.042 C 
BRANCH   2   3
ATOM      3  C   UNL A   1      34.061  29.414  27.420  1.00  0.00     0.118 C 
BRANCH   3   4
ATOM      4  N   UNL A   1      34.188  30.559  28.309  1.00  0.00    -0.352 N 
ATOM      5  O   UNL A   1      34.985  31.925  29.892  1.00  0.00    -0.269 OA
ATOM      6  C   UNL A   1      35.214  31.009  29.105  1.00  0.00     0.251 C 
ATOM      7  H   UNL A   1      33.380  31.121  28.349  1.00  0.00     0.163 HD
BRANCH   6   8
ATOM      8  C   UNL A   1      36.571  30.411  29.073  1.00  0.00     0.039 A 
ATOM      9  C   UNL A   1      37.153  29.825  30.193  1.00  0.00     0.014 A 
ATOM     10  C   UNL A   1      37.253  30.355  27.848  1.00  0.00     0.014 A 
ATOM     11  C   UNL A   1      38.458  29.343  30.135  1.00  0.00     0.010 A 
ATOM     12  C   UNL A   1      38.528  29.778  27.766  1.00  0.00     0.010 A 
ATOM     13  C   UNL A   1      39.161  29.302  28.919  1.00  0.00    -0.014 A 
BRANCH  13  14
ATOM     14  C   UNL A   1      40.532  28.723  28.910  1.00  0.00     0.031 A 
ATOM     15  C   UNL A   1      40.783  27.308  28.468  1.00  0.00     0.074 A 
ATOM     16  C   UNL A   1      41.578  29.525  29.196  1.00  0.00     0.049 A 
ATOM     17  N   UNL A   1      41.929  26.711  28.241  1.00  0.00    -0.248 NA
ATOM     18  C   UNL A   1      39.610  26.445  28.263  1.00  0.00     0.031 C 
ATOM     19  C   UNL A   1      41.478  30.909  29.667  1.00  0.00     0.029 A 
ATOM     20  N   UNL A   1      42.929  29.319  29.055  1.00  0.00    -0.354 N 
ATOM     21  C   UNL A   1      41.616  25.399  27.911  1.00  0.00     0.074 A 
ATOM     22  C   UNL A   1      40.175  25.284  27.960  1.00  0.00     0.031 C 
ATOM     23  C   UNL A   1      42.699  31.465  29.653  1.00  0.00     0.029 A 
ATOM     24  C   UNL A   1      43.668  30.468  29.214  1.00  0.00     0.049 A 
ATOM     25  H   UNL A   1      43.327  28.440  28.860  1.00  0.00     0.167 HD
ATOM     26  C   UNL A   1      42.451  24.380  27.598  1.00  0.00     0.031 A 
ATOM     27  C   UNL A   1      44.973  30.707  28.990  1.00  0.00     0.031 A 
ATOM     28  C   UNL A   1      43.882  24.488  27.512  1.00  0.00     0.049 A 
ATOM     29  C   UNL A   1      45.863  29.597  28.527  1.00  0.00     0.074 A 
ATOM     30  C   UNL A   1      44.809  23.500  27.227  1.00  0.00     0.029 A 
ATOM     31  N   UNL A   1      44.591  25.664  27.686  1.00  0.00    -0.354 N 
ATOM     32  N   UNL A   1      45.550  28.357  28.244  1.00  0.00    -0.248 NA
ATOM     33  C   UNL A   1      47.288  29.916  28.364  1.00  0.00     0.031 C 
ATOM     34  C   UNL A   1      46.085  24.080  27.232  1.00  0.00     0.029 A 
ATOM     35  C   UNL A   1      45.944  25.431  27.504  1.00  0.00     0.049 A 
ATOM     36  H   UNL A   1      44.193  26.537  27.906  1.00  0.00     0.167 HD
ATOM     37  C   UNL A   1      46.743  27.739  27.898  1.00  0.00     0.074 A 
ATOM     38  C   UNL A   1      47.778  28.750  27.963  1.00  0.00     0.031 C 
ATOM     39  C   UNL A   1      46.962  26.441  27.582  1.00  0.00     0.031 A 
BRANCH  26  40
ATOM     40  C   UNL A   1      41.828  23.041  27.346  1.00  0.00    -0.014 A 
ATOM     41  C   UNL A   1      41.787  22.063  28.350  1.00  0.00     0.009 A 
ATOM     42  C   UNL A   1      41.249  22.766  26.098  1.00  0.00     0.009 A 
ATOM     43  C   UNL A   1      41.195  20.823  28.100  1.00  0.00     0.001 A 
ATOM     44  C   UNL A   1      40.646  21.531  25.857  1.00  0.00     0.001 A 
ATOM     45  C   UNL A   1      40.623  20.559  26.855  1.00  0.00     0.000 A 
ENDBRANCH  26  40
BRANCH  27  46
ATOM     46  C   UNL A   1      45.502  32.081  29.154  1.00  0.00    -0.014 A 
ATOM     47  C   UNL A   1      46.022  32.489  30.391  1.00  0.00     0.009 A 
ATOM     48  C   UNL A   1      45.517  32.977  28.079  1.00  0.00     0.009 A 
ATOM     49  C   UNL A   1      46.544  33.774  30.547  1.00  0.00     0.001 A 
ATOM     50  C   UNL A   1      46.052  34.256  28.235  1.00  0.00     0.001 A 
ATOM     51  C   UNL A   1      46.562  34.655  29.469  1.00  0.00     0.000 A 
ENDBRANCH  27  46
BRANCH  39  52
ATOM     52  C   UNL A   1      48.381  26.043  27.318  1.00  0.00    -0.014 A 
ATOM     53  C   UNL A   1      49.150  25.459  28.335  1.00  0.00     0.009 A 
ATOM     54  C   UNL A   1      48.947  26.233  26.051  1.00  0.00     0.009 A 
ATOM     55  C   UNL A   1      50.474  25.093  28.093  1.00  0.00     0.001 A 
ATOM     56  C   UNL A   1      50.268  25.856  25.810  1.00  0.00     0.001 A 
ATOM     57  C   UNL A   1      51.031  25.291  26.831  1.00  0.00     0.000 A 
ENDBRANCH  39  52
ENDBRANCH  13  14
ENDBRANCH   6   8
ENDBRANCH   3   4
ENDBRANCH   2   3
ENDBRANCH   1   2
BRANCH   1  58
ATOM     58  N   UNL A   1      33.267  29.697  24.477  1.00  0.00    -0.351 N 
ATOM     59  C   UNL A   1      32.970  29.113  23.276  1.00  0.00     0.269 C 
ATOM     60  H   UNL A   1      34.223  29.892  24.614  1.00  0.00     0.163 HD
ATOM     61  O   UNL A   1      33.902  28.631  22.635  1.00  0.00    -0.268 OA
BRANCH  59  62
ATOM     62  C   UNL A   1      31.616  29.040  22.807  1.00  0.00     0.131 A 
ATOM     63  N   UNL A   1      31.163  29.917  21.856  1.00  0.00    -0.272 N 
ATOM     64  C   UNL A   1      30.494  28.319  23.207  1.00  0.00     0.057 A 
ATOM     65  N   UNL A   1      29.884  29.728  21.504  1.00  0.00    -0.183 NA
ATOM     66  H   UNL A   1      31.727  30.623  21.466  1.00  0.00     0.190 HD
ATOM     67  C   UNL A   1      29.472  28.773  22.336  1.00  0.00     0.145 A 
BRANCH  64  68
ATOM     68  C   UNL A   1      30.337  27.310  24.296  1.00  0.00     0.303 C 
BRANCH  68  69
ATOM     69  N   UNL A   1      31.258  26.174  24.210  1.00  0.00    -0.331 N 
ATOM     70  C   UNL A   1      31.595  25.786  22.842  1.00  0.00     0.268 C 
ATOM     71  C   UNL A   1      32.435  26.288  25.070  1.00  0.00     0.268 C 
ATOM     72  H   UNL A   1      30.719  25.396  24.591  1.00  0.00     0.348 HD
ATOM     73  C   UNL A   1      32.335  24.450  22.819  1.00  0.00     0.126 C 
ATOM     74  C   UNL A   1      33.192  24.957  25.122  1.00  0.00     0.126 C 
ATOM     75  C   UNL A   1      33.594  24.508  23.706  1.00  0.00     0.195 C 
BRANCH  75  76
ATOM     76  N   UNL A   1      34.442  23.288  23.706  1.00  0.00    -0.331 N 
ATOM     77  C   UNL A   1      35.772  23.470  24.293  1.00  0.00     0.262 C 
ATOM     78  C   UNL A   1      33.730  22.170  24.355  1.00  0.00     0.275 C 
ATOM     79  H   UNL A   1      34.611  23.069  22.724  1.00  0.00     0.348 HD
ATOM     80  C   UNL A   1      36.589  22.186  24.157  1.00  0.00     0.062 C 
ATOM     81  C   UNL A   1      34.445  20.825  24.354  1.00  0.00     0.134 C 
ATOM     82  C   UNL A   1      35.898  21.012  24.838  1.00  0.00     0.025 C 
BRANCH  81  83
ATOM     83  C   UNL A   1      33.833  19.714  25.232  1.00  0.00     0.231 C 
ATOM     84  O   UNL A   1      33.204  20.057  26.244  1.00  0.00    -0.274 OA
ATOM     85  N   UNL A   1      33.810  18.392  24.848  1.00  0.00    -0.342 N 
ATOM     86  C   UNL A   1      34.843  17.550  24.264  1.00  0.00     0.119 C 
ATOM     87  C   UNL A   1      32.721  17.545  25.312  1.00  0.00     0.119 C 
ATOM     88  C   UNL A   1      34.045  16.429  23.628  1.00  0.00     0.023 C 
ATOM     89  C   UNL A   1      32.928  16.192  24.636  1.00  0.00     0.023 C 
ENDBRANCH  81  83
ENDBRANCH  75  76
ENDBRANCH  68  69
ENDBRANCH  64  68
ENDBRANCH  59  62
ENDBRANCH   1  58
TORSDOF 14
ENDMDL
MODEL 2
REMARK VINA RESULT:     -12.9      3.791      7.380
REMARK SMILES O=C(NCCCNC(=O)c1[nH]ncc1C[NH+]1CCC([N@H+]2CCC[C@@H](C(=O)N3CCCC3)C2)CC1)c1ccc(-c2c3nc(c(-c4ccccc4)c4ccc([nH]4)c(-c4ccccc4)c4nc(c(-c5ccccc5)c5ccc2[nH]5)C=C4)C=C3)cc1
REMARK SMILES IDX 6 1 5 2 4 3 3 4 1 5 2 6 35 8 36 9 82 10 37 11 81 12 38 13
REMARK SMILES IDX 39 14 40 15 75 16 41 17 80 18 74 19 76 20 42 21 79 22 73 23
REMARK SMILES IDX 72 24 43 26 65 27 50 28 64 29 51 30 54 31 63 32 77 33 52 34
REMARK SMILES IDX 53 35 62 37 78 38 55 39 44 40 45 41 49 42 46 43 48 44 47 45
REMARK SMILES IDX 66 46 67 47 71 48 68 49 70 50 69 51 56 52 57 53 61 54 58 55
REMARK SMILES IDX 60 56 59 57 7 58 8 59 9 61 10 62 11 63 14 64 12 65 13 67
REMARK SMILES IDX 15 68 16 69 17 70 34 71 18 73 33 74 19 75 20 76 21 77 32 78
REMARK SMILES IDX 22 80 24 81 23 82 25 83 26 84 27 85 28 86 31 87 29 88 30 89
REMARK H PARENT 3 7 76 25 54 36 7 60 11 66 16 72 20 79
REMARK Flexibility Score: inf
ROOT
ATOM      1  C   UNL A   1      33.034  26.214  25.279  1.00  0.00     0.118 C 
ENDROOT
BRANCH   1   2
ATOM      2  C   UNL A   1      33.252  27.464  26.126  1.00  0.00     0.042 C 
BRANCH   2   3
ATOM      3  C   UNL A   1      33.522  28.727  25.316  1.00  0.00     0.118 C 
BRANCH   3   4
ATOM      4  N   UNL A   1      32.906  29.919  25.880  1.00  0.00    -0.352 N 
ATOM      5  O   UNL A   1      32.464  31.607  27.281  1.00  0.00    -0.269 OA
ATOM      6  C   UNL A   1      33.271  30.760  26.903  1.00  0.00     0.251 C 
ATOM      7  H   UNL A   1      32.062  30.173  25.441  1.00  0.00     0.163 HD
BRANCH   6   8
ATOM      8  C   UNL A   1      34.582  30.660  27.589  1.00  0.00     0.039 A 
ATOM      9  C   UNL A   1      35.089  29.450  28.055  1.00  0.00     0.014 A 
ATOM     10  C   UNL A   1      35.378  31.811  27.691  1.00  0.00     0.014 A 
ATOM     11  C   UNL A   1      36.290  29.418  28.760  1.00  0.00     0.010 A 
ATOM     12  C   UNL A   1      36.634  31.760  28.311  1.00  0.00     0.010 A 
ATOM     13  C   UNL A   1      37.086  30.568  28.888  1.00  0.00    -0.014 A 
BRANCH  13  14
ATOM     14  C   UNL A   1      38.386  30.457  29.603  1.00  0.00     0.031 A 
ATOM     15  C   UNL A   1      38.518  30.830  31.054  1.00  0.00     0.074 A 
ATOM     16  C   UNL A   1      39.435  29.901  28.962  1.00  0.00     0.049 A 
ATOM     17  N   UNL A   1      39.532  30.632  31.862  1.00  0.00    -0.248 NA
ATOM     18  C   UNL A   1      37.382  31.522  31.681  1.00  0.00     0.031 C 
ATOM     19  C   UNL A   1      39.455  29.521  27.548  1.00  0.00     0.029 A 
ATOM     20  N   UNL A   1      40.656  29.487  29.436  1.00  0.00    -0.354 N 
ATOM     21  C   UNL A   1      39.173  31.210  33.073  1.00  0.00     0.074 A 
ATOM     22  C   UNL A   1      37.847  31.761  32.900  1.00  0.00     0.031 C 
ATOM     23  C   UNL A   1      40.571  28.818  27.300  1.00  0.00     0.029 A 
ATOM     24  C   UNL A   1      41.359  28.735  28.524  1.00  0.00     0.049 A 
ATOM     25  H   UNL A   1      40.992  29.704  30.335  1.00  0.00     0.167 HD
ATOM     26  C   UNL A   1      39.882  31.279  34.225  1.00  0.00     0.031 A 
ATOM     27  C   UNL A   1      42.491  28.022  28.665  1.00  0.00     0.031 A 
ATOM     28  C   UNL A   1      41.185  30.705  34.422  1.00  0.00     0.049 A 
ATOM     29  C   UNL A   1      43.202  28.010  29.982  1.00  0.00     0.074 A 
ATOM     30  C   UNL A   1      41.989  30.749  35.549  1.00  0.00     0.029 A 
ATOM     31  N   UNL A   1      41.865  29.960  33.475  1.00  0.00    -0.354 N 
ATOM     32  N   UNL A   1      42.856  28.583  31.107  1.00  0.00    -0.248 NA
ATOM     33  C   UNL A   1      44.465  27.261  30.044  1.00  0.00     0.031 C 
ATOM     34  C   UNL A   1      43.161  30.030  35.280  1.00  0.00     0.029 A 
ATOM     35  C   UNL A   1      43.074  29.527  33.993  1.00  0.00     0.049 A 
ATOM     36  H   UNL A   1      41.538  29.765  32.567  1.00  0.00     0.167 HD
ATOM     37  C   UNL A   1      43.873  28.290  32.004  1.00  0.00     0.074 A 
ATOM     38  C   UNL A   1      44.826  27.451  31.307  1.00  0.00     0.031 C 
ATOM     39  C   UNL A   1      44.016  28.705  33.285  1.00  0.00     0.031 A 
BRANCH  26  40
ATOM     40  C   UNL A   1      39.261  32.028  35.364  1.00  0.00    -0.014 A 
ATOM     41  C   UNL A   1      38.453  31.375  36.304  1.00  0.00     0.009 A 
ATOM     42  C   UNL A   1      39.512  33.401  35.513  1.00  0.00     0.009 A 
ATOM     43  C   UNL A   1      37.889  32.088  37.364  1.00  0.00     0.001 A 
ATOM     44  C   UNL A   1      38.958  34.107  36.581  1.00  0.00     0.001 A 
ATOM     45  C   UNL A   1      38.144  33.452  37.503  1.00  0.00     0.000 A 
ENDBRANCH  26  40
BRANCH  27  46
ATOM     46  C   UNL A   1      42.992  27.215  27.528  1.00  0.00    -0.014 A 
ATOM     47  C   UNL A   1      43.751  27.822  26.517  1.00  0.00     0.009 A 
ATOM     48  C   UNL A   1      42.742  25.839  27.460  1.00  0.00     0.009 A 
ATOM     49  C   UNL A   1      44.247  27.064  25.456  1.00  0.00     0.001 A 
ATOM     50  C   UNL A   1      43.250  25.082  26.404  1.00  0.00     0.001 A 
ATOM     51  C   UNL A   1      43.999  25.694  25.401  1.00  0.00     0.000 A 
ENDBRANCH  27  46
BRANCH  39  52
ATOM     52  C   UNL A   1      45.264  28.282  33.995  1.00  0.00    -0.014 A 
ATOM     53  C   UNL A   1      45.283  27.093  34.739  1.00  0.00     0.009 A 
ATOM     54  C   UNL A   1      46.427  29.059  33.909  1.00  0.00     0.009 A 
ATOM     55  C   UNL A   1      46.443  26.700  35.405  1.00  0.00     0.001 A 
ATOM     56  C   UNL A   1      47.588  28.656  34.570  1.00  0.00     0.001 A 
ATOM     57  C   UNL A   1      47.594  27.481  35.321  1.00  0.00     0.000 A 
ENDBRANCH  39  52
ENDBRANCH  13  14
ENDBRANCH   6   8
ENDBRANCH   3   4
ENDBRANCH   2   3
ENDBRANCH   1   2
BRANCH   1  58
ATOM     58  N   UNL A   1      31.802  26.267  24.511  1.00  0.00    -0.351 N 
ATOM     59  C   UNL A   1      30.777  25.368  24.409  1.00  0.00     0.269 C 
ATOM     60  H   UNL A   1      31.686  27.086  23.977  1.00  0.00     0.163 HD
ATOM     61  O   UNL A   1      29.987  25.513  23.477  1.00  0.00    -0.268 OA
BRANCH  59  62
ATOM     62  C   UNL A   1      30.655  24.279  25.336  1.00  0.00     0.131 A 
ATOM     63  N   UNL A   1      29.936  24.431  26.492  1.00  0.00    -0.272 N 
ATOM     64  C   UNL A   1      31.250  23.025  25.435  1.00  0.00     0.057 A 
ATOM     65  N   UNL A   1      29.896  23.333  27.260  1.00  0.00    -0.183 NA
ATOM     66  H   UNL A   1      29.487  25.272  26.738  1.00  0.00     0.190 HD
ATOM     67  C   UNL A   1      30.709  22.487  26.630  1.00  0.00     0.145 A 
BRANCH  64  68
ATOM     68  C   UNL A   1      32.242  22.358  24.540  1.00  0.00     0.303 C 
BRANCH  68  69
ATOM     69  N   UNL A   1      33.642  22.625  24.877  1.00  0.00    -0.331 N 
ATOM     70  C   UNL A   1      34.297  21.536  25.598  1.00  0.00     0.268 C 
ATOM     71  C   UNL A   1      34.443  23.124  23.761  1.00  0.00     0.268 C 
ATOM     72  H   UNL A   1      33.588  23.400  25.539  1.00  0.00     0.348 HD
ATOM     73  C   UNL A   1      35.653  21.980  26.144  1.00  0.00     0.126 C 
ATOM     74  C   UNL A   1      35.802  23.629  24.259  1.00  0.00     0.126 C 
ATOM     75  C   UNL A   1      36.550  22.514  25.010  1.00  0.00     0.195 C 
BRANCH  75  76
ATOM     76  N   UNL A   1      37.927  22.907  25.405  1.00  0.00    -0.331 N 
ATOM     77  C   UNL A   1      37.993  23.902  26.479  1.00  0.00     0.262 C 
ATOM     78  C   UNL A   1      38.723  21.712  25.747  1.00  0.00     0.275 C 
ATOM     79  H   UNL A   1      38.328  23.368  24.588  1.00  0.00     0.348 HD
ATOM     80  C   UNL A   1      39.445  24.300  26.739  1.00  0.00     0.062 C 
ATOM     81  C   UNL A   1      40.187  21.952  26.091  1.00  0.00     0.134 C 
ATOM     82  C   UNL A   1      40.294  23.095  27.121  1.00  0.00     0.025 C 
BRANCH  81  83
ATOM     83  C   UNL A   1      40.965  20.759  26.683  1.00  0.00     0.231 C 
ATOM     84  O   UNL A   1      40.390  20.054  27.526  1.00  0.00    -0.274 OA
ATOM     85  N   UNL A   1      42.184  20.350  26.191  1.00  0.00    -0.342 N 
ATOM     86  C   UNL A   1      43.367  21.112  25.819  1.00  0.00     0.119 C 
ATOM     87  C   UNL A   1      42.543  18.943  26.285  1.00  0.00     0.119 C 
ATOM     88  C   UNL A   1      44.109  20.158  24.905  1.00  0.00     0.023 C 
ATOM     89  C   UNL A   1      43.884  18.806  25.569  1.00  0.00     0.023 C 
ENDBRANCH  81  83
ENDBRANCH  75  76
ENDBRANCH  68  69
ENDBRANCH  64  68
ENDBRANCH  59  62
ENDBRANCH   1  58
TORSDOF 14
ENDMDL
MODEL 3
REMARK VINA RESULT:     -12.5      4.995     11.938
REMARK SMILES O=C(NCCCNC(=O)c1[nH]ncc1C[NH+]1CCC([N@H+]2CCC[C@@H](C(=O)N3CCCC3)C2)CC1)c1ccc(-c2c3nc(c(-c4ccccc4)c4ccc([nH]4)c(-c4ccccc4)c4nc(c(-c5ccccc5)c5ccc2[nH]5)C=C4)C=C3)cc1
REMARK SMILES IDX 6 1 5 2 4 3 3 4 1 5 2 6 35 8 36 9 82 10 37 11 81 12 38 13
REMARK SMILES IDX 39 14 40 15 75 16 41 17 80 18 74 19 76 20 42 21 79 22 73 23
REMARK SMILES IDX 72 24 43 26 65 27 50 28 64 29 51 30 54 31 63 32 77 33 52 34
REMARK SMILES IDX 53 35 62 37 78 38 55 39 44 40 45 41 49 42 46 43 48 44 47 45
REMARK SMILES IDX 66 46 67 47 71 48 68 49 70 50 69 51 56 52 57 53 61 54 58 55
REMARK SMILES IDX 60 56 59 57 7 58 8 59 9 61 10 62 11 63 14 64 12 65 13 67
REMARK SMILES IDX 15 68 16 69 17 70 34 71 18 73 33 74 19 75 20 76 21 77 32 78
REMARK SMILES IDX 22 80 24 81 23 82 25 83 26 84 27 85 28 86 31 87 29 88 30 89
REMARK H PARENT 3 7 76 25 54 36 7 60 11 66 16 72 20 79
REMARK Flexibility Score: inf
ROOT
ATOM      1  C   UNL A   1      42.793  20.446  27.719  1.00  0.00     0.118 C 
ENDROOT
BRANCH   1   2
ATOM      2  C   UNL A   1      41.666  21.465  27.586  1.00  0.00     0.042 C 
BRANCH   2   3
ATOM      3  C   UNL A   1      41.345  21.855  26.147  1.00  0.00     0.118 C 
BRANCH   3   4
ATOM      4  N   UNL A   1      39.919  21.989  25.888  1.00  0.00    -0.352 N 
ATOM      5  O   UNL A   1      37.813  22.738  26.000  1.00  0.00    -0.269 OA
ATOM      6  C   UNL A   1      39.005  22.967  26.200  1.00  0.00     0.251 C 
ATOM      7  H   UNL A   1      39.534  21.231  25.391  1.00  0.00     0.163 HD
BRANCH   6   8
ATOM      8  C   UNL A   1      39.398  24.266  26.799  1.00  0.00     0.039 A 
ATOM      9  C   UNL A   1      40.017  25.269  26.059  1.00  0.00     0.014 A 
ATOM     10  C   UNL A   1      39.052  24.524  28.133  1.00  0.00     0.014 A 
ATOM     11  C   UNL A   1      40.435  26.443  26.682  1.00  0.00     0.010 A 
ATOM     12  C   UNL A   1      39.382  25.747  28.734  1.00  0.00     0.010 A 
ATOM     13  C   UNL A   1      40.115  26.704  28.024  1.00  0.00    -0.014 A 
BRANCH  13  14
ATOM     14  C   UNL A   1      40.540  28.002  28.617  1.00  0.00     0.031 A 
ATOM     15  C   UNL A   1      39.552  29.105  28.881  1.00  0.00     0.074 A 
ATOM     16  C   UNL A   1      41.817  28.141  29.028  1.00  0.00     0.049 A 
ATOM     17  N   UNL A   1      39.730  30.222  29.543  1.00  0.00    -0.248 NA
ATOM     18  C   UNL A   1      38.199  28.948  28.326  1.00  0.00     0.031 C 
ATOM     19  C   UNL A   1      42.886  27.163  28.809  1.00  0.00     0.029 A 
ATOM     20  N   UNL A   1      42.412  29.121  29.785  1.00  0.00    -0.354 N 
ATOM     21  C   UNL A   1      38.531  30.916  29.449  1.00  0.00     0.074 A 
ATOM     22  C   UNL A   1      37.629  30.095  28.671  1.00  0.00     0.031 C 
ATOM     23  C   UNL A   1      43.964  27.527  29.521  1.00  0.00     0.029 A 
ATOM     24  C   UNL A   1      43.674  28.779  30.210  1.00  0.00     0.049 A 
ATOM     25  H   UNL A   1      41.979  29.977  30.001  1.00  0.00     0.167 HD
ATOM     26  C   UNL A   1      38.208  32.129  29.960  1.00  0.00     0.031 A 
ATOM     27  C   UNL A   1      44.494  29.382  31.090  1.00  0.00     0.031 A 
ATOM     28  C   UNL A   1      39.082  32.940  30.762  1.00  0.00     0.049 A 
ATOM     29  C   UNL A   1      44.073  30.663  31.740  1.00  0.00     0.074 A 
ATOM     30  C   UNL A   1      38.847  34.194  31.301  1.00  0.00     0.029 A 
ATOM     31  N   UNL A   1      40.352  32.563  31.164  1.00  0.00    -0.354 N 
ATOM     32  N   UNL A   1      42.944  31.314  31.618  1.00  0.00    -0.248 NA
ATOM     33  C   UNL A   1      45.046  31.297  32.642  1.00  0.00     0.031 C 
ATOM     34  C   UNL A   1      39.981  34.578  32.029  1.00  0.00     0.029 A 
ATOM     35  C   UNL A   1      40.911  33.554  31.954  1.00  0.00     0.049 A 
ATOM     36  H   UNL A   1      40.793  31.716  30.925  1.00  0.00     0.167 HD
ATOM     37  C   UNL A   1      43.079  32.450  32.402  1.00  0.00     0.074 A 
ATOM     38  C   UNL A   1      44.382  32.378  33.032  1.00  0.00     0.031 C 
ATOM     39  C   UNL A   1      42.210  33.475  32.562  1.00  0.00     0.031 A 
BRANCH  26  40
ATOM     40  C   UNL A   1      36.846  32.662  29.639  1.00  0.00    -0.014 A 
ATOM     41  C   UNL A   1      36.610  33.379  28.458  1.00  0.00     0.009 A 
ATOM     42  C   UNL A   1      35.779  32.419  30.518  1.00  0.00     0.009 A 
ATOM     43  C   UNL A   1      35.331  33.862  28.172  1.00  0.00     0.001 A 
ATOM     44  C   UNL A   1      34.500  32.892  30.221  1.00  0.00     0.001 A 
ATOM     45  C   UNL A   1      34.278  33.616  29.052  1.00  0.00     0.000 A 
ENDBRANCH  26  40
BRANCH  27  46
ATOM     46  C   UNL A   1      45.783  28.743  31.444  1.00  0.00    -0.014 A 
ATOM     47  C   UNL A   1      46.952  29.091  30.751  1.00  0.00     0.009 A 
ATOM     48  C   UNL A   1      45.859  27.810  32.485  1.00  0.00     0.009 A 
ATOM     49  C   UNL A   1      48.174  28.511  31.094  1.00  0.00     0.001 A 
ATOM     50  C   UNL A   1      47.085  27.242  32.834  1.00  0.00     0.001 A 
ATOM     51  C   UNL A   1      48.240  27.590  32.138  1.00  0.00     0.000 A 
ENDBRANCH  27  46
BRANCH  39  52
ATOM     52  C   UNL A   1      42.660  34.611  33.426  1.00  0.00    -0.014 A 
ATOM     53  C   UNL A   1      43.343  35.699  32.861  1.00  0.00     0.009 A 
ATOM     54  C   UNL A   1      42.391  34.608  34.801  1.00  0.00     0.009 A 
ATOM     55  C   UNL A   1      43.769  36.756  33.665  1.00  0.00     0.001 A 
ATOM     56  C   UNL A   1      42.810  35.673  35.600  1.00  0.00     0.001 A 
ATOM     57  C   UNL A   1      43.502  36.742  35.033  1.00  0.00     0.000 A 
ENDBRANCH  39  52
ENDBRANCH  13  14
ENDBRANCH   6   8
ENDBRANCH   3   4
ENDBRANCH   2   3
ENDBRANCH   1   2
BRANCH   1  58
ATOM     58  N   UNL A   1      42.506  19.200  27.029  1.00  0.00    -0.351 N 
ATOM     59  C   UNL A   1      43.172  18.569  26.015  1.00  0.00     0.269 C 
ATOM     60  H   UNL A   1      41.699  18.733  27.344  1.00  0.00     0.163 HD
ATOM     61  O   UNL A   1      42.574  17.680  25.412  1.00  0.00    -0.268 OA
BRANCH  59  62
ATOM     62  C   UNL A   1      44.504  18.960  25.653  1.00  0.00     0.131 A 
ATOM     63  N   UNL A   1      45.568  18.145  25.940  1.00  0.00    -0.272 N 
ATOM     64  C   UNL A   1      45.064  20.132  25.152  1.00  0.00     0.057 A 
ATOM     65  N   UNL A   1      46.752  18.628  25.537  1.00  0.00    -0.183 NA
ATOM     66  H   UNL A   1      45.473  17.281  26.402  1.00  0.00     0.190 HD
ATOM     67  C   UNL A   1      46.449  19.841  25.077  1.00  0.00     0.145 A 
BRANCH  64  68
ATOM     68  C   UNL A   1      44.416  21.425  24.782  1.00  0.00     0.303 C 
BRANCH  68  69
ATOM     69  N   UNL A   1      45.084  22.615  25.314  1.00  0.00    -0.331 N 
ATOM     70  C   UNL A   1      44.642  23.866  24.702  1.00  0.00     0.268 C 
ATOM     71  C   UNL A   1      45.117  22.683  26.774  1.00  0.00     0.268 C 
ATOM     72  H   UNL A   1      46.055  22.496  25.027  1.00  0.00     0.348 HD
ATOM     73  C   UNL A   1      45.553  25.024  25.107  1.00  0.00     0.126 C 
ATOM     74  C   UNL A   1      46.057  23.801  27.238  1.00  0.00     0.126 C 
ATOM     75  C   UNL A   1      45.626  25.151  26.641  1.00  0.00     0.195 C 
BRANCH  75  76
ATOM     76  N   UNL A   1      46.425  26.292  27.158  1.00  0.00    -0.331 N 
ATOM     77  C   UNL A   1      47.868  26.180  26.930  1.00  0.00     0.262 C 
ATOM     78  C   UNL A   1      45.906  27.565  26.621  1.00  0.00     0.275 C 
ATOM     79  H   UNL A   1      46.312  26.272  28.172  1.00  0.00     0.348 HD
ATOM     80  C   UNL A   1      48.597  27.354  27.581  1.00  0.00     0.062 C 
ATOM     81  C   UNL A   1      46.574  28.835  27.132  1.00  0.00     0.134 C 
ATOM     82  C   UNL A   1      48.107  28.688  27.032  1.00  0.00     0.025 C 
BRANCH  81  83
ATOM     83  C   UNL A   1      46.215  30.148  26.406  1.00  0.00     0.231 C 
ATOM     84  O   UNL A   1      46.342  30.181  25.173  1.00  0.00    -0.274 OA
ATOM     85  N   UNL A   1      45.605  31.205  27.043  1.00  0.00    -0.342 N 
ATOM     86  C   UNL A   1      45.877  31.831  28.328  1.00  0.00     0.119 C 
ATOM     87  C   UNL A   1      44.726  32.074  26.275  1.00  0.00     0.119 C 
ATOM     88  C   UNL A   1      44.575  32.542  28.640  1.00  0.00     0.023 C 
ATOM     89  C   UNL A   1      44.139  33.064  27.277  1.00  0.00     0.023 C 
ENDBRANCH  81  83
ENDBRANCH  75  76
ENDBRANCH  68  69
ENDBRANCH  64  68
ENDBRANCH  59  62
ENDBRANCH   1  58
TORSDOF 14
ENDMDL
