MODEL 1
REMARK VINA RESULT:     -11.4      0.000      0.000
REMARK SMILES CCn1nc(C)c2nc(SCC(=O)NCCCNC(=O)c3ccc(-c4c5nc(c(-c6ccccc6)c6ccc([nH]6)c(-c6ccccc6)c6nc(c(-c7ccccc7)c7ccc4[nH]7)C=C6)C=C5)cc3)n(CC3CC3)c21
REMARK SMILES IDX 15 1 14 2 12 3 13 4 11 6 10 7 9 8 3 9 4 10 74 11 5 12 7 13
REMARK SMILES IDX 69 14 6 15 8 16 2 17 1 18 70 19 71 20 72 21 73 22 16 23
REMARK SMILES IDX 17 24 18 25 19 26 20 28 21 29 22 30 68 31 23 32 67 33 24 34
REMARK SMILES IDX 25 35 26 36 61 37 27 38 66 39 60 40 62 41 28 42 65 43 59 44
REMARK SMILES IDX 58 45 29 47 51 48 36 49 50 50 37 51 40 52 49 53 63 54 38 55
REMARK SMILES IDX 39 56 48 58 64 59 41 60 30 61 31 62 35 63 32 64 34 65 33 66
REMARK SMILES IDX 52 67 53 68 57 69 54 70 56 71 55 72 42 73 43 74 47 75 44 76
REMARK SMILES IDX 46 77 45 78
REMARK H PARENT 14 5 18 27 62 46 40 57
REMARK Flexibility Score: inf
ROOT
ATOM      1  C   UNL A   1      36.180  21.007  25.136  1.00  0.00     0.117 C 
ENDROOT
BRANCH   1   2
ATOM      2  N   UNL A   1      35.617  21.311  26.439  1.00  0.00    -0.355 N 
ATOM      3  C   UNL A   1      34.353  21.680  26.770  1.00  0.00     0.230 C 
ATOM      4  O   UNL A   1      34.092  21.801  27.970  1.00  0.00    -0.274 OA
ATOM      5  H   UNL A   1      36.244  21.238  27.194  1.00  0.00     0.163 HD
BRANCH   3   6
ATOM      6  C   UNL A   1      33.280  21.829  25.717  1.00  0.00     0.178 C 
BRANCH   6   7
ATOM      7  S   UNL A   1      31.748  22.568  26.254  1.00  0.00    -0.078 SA
BRANCH   7   8
ATOM      8  C   UNL A   1      31.532  24.211  25.755  1.00  0.00     0.170 A 
ATOM      9  N   UNL A   1      31.254  27.401  24.216  1.00  0.00    -0.247 N 
ATOM     10  N   UNL A   1      31.259  28.354  25.195  1.00  0.00    -0.174 NA
ATOM     11  C   UNL A   1      31.385  26.147  24.721  1.00  0.00     0.159 A 
ATOM     12  C   UNL A   1      31.393  27.655  26.342  1.00  0.00     0.087 A 
ATOM     13  C   UNL A   1      31.424  26.295  26.056  1.00  0.00     0.132 A 
ATOM     14  N   UNL A   1      31.501  24.797  24.492  1.00  0.00    -0.304 N 
ATOM     15  C   UNL A   1      31.517  28.329  27.651  1.00  0.00     0.071 C 
ATOM     16  N   UNL A   1      31.510  25.133  26.715  1.00  0.00    -0.219 NA
BRANCH   9  17
ATOM     17  C   UNL A   1      31.152  27.829  22.836  1.00  0.00     0.143 C 
ATOM     18  C   UNL A   1      30.716  29.279  22.699  1.00  0.00     0.029 C 
ENDBRANCH   9  17
BRANCH  14  19
ATOM     19  C   UNL A   1      31.440  24.207  23.169  1.00  0.00     0.130 C 
BRANCH  19  20
ATOM     20  C   UNL A   1      32.696  24.113  22.358  1.00  0.00     0.009 C 
ATOM     21  C   UNL A   1      34.074  24.414  22.890  1.00  0.00     0.006 C 
ATOM     22  C   UNL A   1      33.727  23.016  22.468  1.00  0.00     0.006 C 
ENDBRANCH  19  20
ENDBRANCH  14  19
ENDBRANCH   7   8
ENDBRANCH   6   7
ENDBRANCH   3   6
ENDBRANCH   1   2
BRANCH   1  23
ATOM     23  C   UNL A   1      37.112  22.106  24.621  1.00  0.00     0.042 C 
BRANCH  23  24
ATOM     24  C   UNL A   1      37.857  22.817  25.738  1.00  0.00     0.118 C 
BRANCH  24  25
ATOM     25  N   UNL A   1      38.873  21.976  26.374  1.00  0.00    -0.352 N 
ATOM     26  C   UNL A   1      40.057  22.358  26.982  1.00  0.00     0.251 C 
ATOM     27  H   UNL A   1      38.690  21.009  26.370  1.00  0.00     0.163 HD
ATOM     28  O   UNL A   1      40.941  21.554  27.205  1.00  0.00    -0.269 OA
BRANCH  26  29
ATOM     29  C   UNL A   1      40.222  23.774  27.353  1.00  0.00     0.039 A 
ATOM     30  C   UNL A   1      39.163  24.681  27.257  1.00  0.00     0.014 A 
ATOM     31  C   UNL A   1      41.457  24.166  27.857  1.00  0.00     0.014 A 
ATOM     32  C   UNL A   1      39.340  25.971  27.754  1.00  0.00     0.010 A 
ATOM     33  C   UNL A   1      41.565  25.359  28.514  1.00  0.00     0.010 A 
ATOM     34  C   UNL A   1      40.541  26.293  28.399  1.00  0.00    -0.014 A 
BRANCH  34  35
ATOM     35  C   UNL A   1      40.744  27.585  29.038  1.00  0.00     0.031 A 
ATOM     36  C   UNL A   1      41.744  28.466  28.383  1.00  0.00     0.074 A 
ATOM     37  C   UNL A   1      39.895  28.051  29.980  1.00  0.00     0.049 A 
ATOM     38  N   UNL A   1      42.879  28.860  28.857  1.00  0.00    -0.248 NA
ATOM     39  C   UNL A   1      41.507  28.865  26.987  1.00  0.00     0.031 C 
ATOM     40  C   UNL A   1      38.657  27.431  30.473  1.00  0.00     0.029 A 
ATOM     41  N   UNL A   1      39.884  29.263  30.592  1.00  0.00    -0.354 N 
ATOM     42  C   UNL A   1      43.409  29.728  27.906  1.00  0.00     0.074 A 
ATOM     43  C   UNL A   1      42.627  29.537  26.711  1.00  0.00     0.031 C 
ATOM     44  C   UNL A   1      37.901  28.362  31.093  1.00  0.00     0.029 A 
ATOM     45  C   UNL A   1      38.679  29.580  31.206  1.00  0.00     0.049 A 
ATOM     46  H   UNL A   1      40.662  29.865  30.600  1.00  0.00     0.167 HD
ATOM     47  C   UNL A   1      44.269  30.726  28.261  1.00  0.00     0.031 A 
ATOM     48  C   UNL A   1      38.331  30.773  31.744  1.00  0.00     0.031 A 
ATOM     49  C   UNL A   1      44.772  30.535  29.600  1.00  0.00     0.049 A 
ATOM     50  C   UNL A   1      39.582  31.523  31.990  1.00  0.00     0.074 A 
ATOM     51  C   UNL A   1      45.477  29.541  30.249  1.00  0.00     0.029 A 
ATOM     52  N   UNL A   1      44.201  31.300  30.591  1.00  0.00    -0.354 N 
ATOM     53  N   UNL A   1      40.475  31.159  32.867  1.00  0.00    -0.248 NA
ATOM     54  C   UNL A   1      40.059  32.425  30.956  1.00  0.00     0.031 C 
ATOM     55  C   UNL A   1      44.899  29.475  31.553  1.00  0.00     0.029 A 
ATOM     56  C   UNL A   1      43.930  30.475  31.650  1.00  0.00     0.049 A 
ATOM     57  H   UNL A   1      44.020  32.266  30.547  1.00  0.00     0.167 HD
ATOM     58  C   UNL A   1      41.693  31.403  32.251  1.00  0.00     0.074 A 
ATOM     59  C   UNL A   1      41.377  32.293  31.133  1.00  0.00     0.031 C 
ATOM     60  C   UNL A   1      42.789  30.634  32.526  1.00  0.00     0.031 A 
BRANCH  47  61
ATOM     61  C   UNL A   1      44.298  32.088  27.600  1.00  0.00    -0.014 A 
ATOM     62  C   UNL A   1      43.770  33.185  28.309  1.00  0.00     0.009 A 
ATOM     63  C   UNL A   1      44.537  32.289  26.228  1.00  0.00     0.009 A 
ATOM     64  C   UNL A   1      43.397  34.367  27.658  1.00  0.00     0.001 A 
ATOM     65  C   UNL A   1      44.208  33.484  25.582  1.00  0.00     0.001 A 
ATOM     66  C   UNL A   1      43.604  34.510  26.290  1.00  0.00     0.000 A 
ENDBRANCH  47  61
BRANCH  48  67
ATOM     67  C   UNL A   1      36.993  31.390  31.832  1.00  0.00    -0.014 A 
ATOM     68  C   UNL A   1      36.502  31.875  33.053  1.00  0.00     0.009 A 
ATOM     69  C   UNL A   1      36.297  31.739  30.659  1.00  0.00     0.009 A 
ATOM     70  C   UNL A   1      35.378  32.711  33.094  1.00  0.00     0.001 A 
ATOM     71  C   UNL A   1      35.173  32.570  30.700  1.00  0.00     0.001 A 
ATOM     72  C   UNL A   1      34.723  33.070  31.917  1.00  0.00     0.000 A 
ENDBRANCH  48  67
BRANCH  60  73
ATOM     73  C   UNL A   1      42.706  29.671  33.686  1.00  0.00    -0.014 A 
ATOM     74  C   UNL A   1      43.080  30.017  34.997  1.00  0.00     0.009 A 
ATOM     75  C   UNL A   1      42.072  28.438  33.481  1.00  0.00     0.009 A 
ATOM     76  C   UNL A   1      42.845  29.144  36.065  1.00  0.00     0.001 A 
ATOM     77  C   UNL A   1      41.818  27.575  34.549  1.00  0.00     0.001 A 
ATOM     78  C   UNL A   1      42.208  27.926  35.840  1.00  0.00     0.000 A 
ENDBRANCH  60  73
ENDBRANCH  34  35
ENDBRANCH  26  29
ENDBRANCH  24  25
ENDBRANCH  23  24
ENDBRANCH   1  23
TORSDOF 15
ENDMDL
MODEL 2
REMARK VINA RESULT:     -11.3      2.583      7.787
REMARK SMILES CCn1nc(C)c2nc(SCC(=O)NCCCNC(=O)c3ccc(-c4c5nc(c(-c6ccccc6)c6ccc([nH]6)c(-c6ccccc6)c6nc(c(-c7ccccc7)c7ccc4[nH]7)C=C6)C=C5)cc3)n(CC3CC3)c21
REMARK SMILES IDX 15 1 14 2 12 3 13 4 11 6 10 7 9 8 3 9 4 10 74 11 5 12 7 13
REMARK SMILES IDX 69 14 6 15 8 16 2 17 1 18 70 19 71 20 72 21 73 22 16 23
REMARK SMILES IDX 17 24 18 25 19 26 20 28 21 29 22 30 68 31 23 32 67 33 24 34
REMARK SMILES IDX 25 35 26 36 61 37 27 38 66 39 60 40 62 41 28 42 65 43 59 44
REMARK SMILES IDX 58 45 29 47 51 48 36 49 50 50 37 51 40 52 49 53 63 54 38 55
REMARK SMILES IDX 39 56 48 58 64 59 41 60 30 61 31 62 35 63 32 64 34 65 33 66
REMARK SMILES IDX 52 67 53 68 57 69 54 70 56 71 55 72 42 73 43 74 47 75 44 76
REMARK SMILES IDX 46 77 45 78
REMARK H PARENT 14 5 18 27 62 46 40 57
REMARK Flexibility Score: inf
ROOT
ATOM      1  C   UNL A   1      33.314  29.846  26.531  1.00  0.00     0.117 C 
ENDROOT
BRANCH   1   2
ATOM      2  N   UNL A   1      32.395  28.748  26.774  1.00  0.00    -0.355 N 
ATOM      3  C   UNL A   1      32.520  27.431  26.466  1.00  0.00     0.230 C 
ATOM      4  O   UNL A   1      31.631  26.670  26.856  1.00  0.00    -0.274 OA
ATOM      5  H   UNL A   1      31.557  28.995  27.228  1.00  0.00     0.163 HD
BRANCH   3   6
ATOM      6  C   UNL A   1      33.752  26.904  25.770  1.00  0.00     0.178 C 
BRANCH   6   7
ATOM      7  S   UNL A   1      33.472  25.944  24.293  1.00  0.00    -0.078 SA
BRANCH   7   8
ATOM      8  C   UNL A   1      33.882  24.269  24.439  1.00  0.00     0.170 A 
ATOM      9  N   UNL A   1      34.186  20.761  24.917  1.00  0.00    -0.247 N 
ATOM     10  N   UNL A   1      35.514  20.451  25.001  1.00  0.00    -0.174 NA
ATOM     11  C   UNL A   1      33.980  22.095  24.760  1.00  0.00     0.159 A 
ATOM     12  C   UNL A   1      36.144  21.640  24.887  1.00  0.00     0.087 A 
ATOM     13  C   UNL A   1      35.204  22.646  24.692  1.00  0.00     0.132 A 
ATOM     14  N   UNL A   1      33.095  23.139  24.645  1.00  0.00    -0.304 N 
ATOM     15  C   UNL A   1      37.613  21.754  25.002  1.00  0.00     0.071 C 
ATOM     16  N   UNL A   1      35.178  23.970  24.493  1.00  0.00    -0.219 NA
BRANCH   9  17
ATOM     17  C   UNL A   1      33.218  19.691  25.037  1.00  0.00     0.143 C 
ATOM     18  C   UNL A   1      32.528  19.370  23.721  1.00  0.00     0.029 C 
ENDBRANCH   9  17
BRANCH  14  19
ATOM     19  C   UNL A   1      31.657  22.961  24.608  1.00  0.00     0.130 C 
BRANCH  19  20
ATOM     20  C   UNL A   1      30.943  22.561  25.863  1.00  0.00     0.009 C 
ATOM     21  C   UNL A   1      31.382  22.952  27.251  1.00  0.00     0.006 C 
ATOM     22  C   UNL A   1      30.083  23.470  26.707  1.00  0.00     0.006 C 
ENDBRANCH  19  20
ENDBRANCH  14  19
ENDBRANCH   7   8
ENDBRANCH   6   7
ENDBRANCH   3   6
ENDBRANCH   1   2
BRANCH   1  23
ATOM     23  C   UNL A   1      34.410  29.948  27.594  1.00  0.00     0.042 C 
BRANCH  23  24
ATOM     24  C   UNL A   1      35.072  31.316  27.626  1.00  0.00     0.118 C 
BRANCH  24  25
ATOM     25  N   UNL A   1      34.711  32.099  28.809  1.00  0.00    -0.352 N 
ATOM     26  C   UNL A   1      35.153  31.953  30.112  1.00  0.00     0.251 C 
ATOM     27  H   UNL A   1      34.067  32.828  28.657  1.00  0.00     0.163 HD
ATOM     28  O   UNL A   1      34.562  32.468  31.042  1.00  0.00    -0.269 OA
BRANCH  26  29
ATOM     29  C   UNL A   1      36.366  31.151  30.349  1.00  0.00     0.039 A 
ATOM     30  C   UNL A   1      36.290  29.795  30.680  1.00  0.00     0.014 A 
ATOM     31  C   UNL A   1      37.594  31.779  30.178  1.00  0.00     0.014 A 
ATOM     32  C   UNL A   1      37.470  29.057  30.753  1.00  0.00     0.010 A 
ATOM     33  C   UNL A   1      38.724  31.019  30.061  1.00  0.00     0.010 A 
ATOM     34  C   UNL A   1      38.681  29.678  30.422  1.00  0.00    -0.014 A 
BRANCH  34  35
ATOM     35  C   UNL A   1      39.932  28.934  30.370  1.00  0.00     0.031 A 
ATOM     36  C   UNL A   1      40.608  28.739  31.678  1.00  0.00     0.074 A 
ATOM     37  C   UNL A   1      40.302  28.245  29.269  1.00  0.00     0.049 A 
ATOM     38  N   UNL A   1      41.743  29.220  32.059  1.00  0.00    -0.248 NA
ATOM     39  C   UNL A   1      39.881  28.013  32.732  1.00  0.00     0.031 C 
ATOM     40  C   UNL A   1      39.552  28.063  28.017  1.00  0.00     0.029 A 
ATOM     41  N   UNL A   1      41.372  27.427  29.095  1.00  0.00    -0.354 N 
ATOM     42  C   UNL A   1      41.978  28.690  33.325  1.00  0.00     0.074 A 
ATOM     43  C   UNL A   1      40.725  28.125  33.759  1.00  0.00     0.031 C 
ATOM     44  C   UNL A   1      40.054  27.009  27.339  1.00  0.00     0.029 A 
ATOM     45  C   UNL A   1      41.263  26.570  28.007  1.00  0.00     0.049 A 
ATOM     46  H   UNL A   1      42.157  27.441  29.688  1.00  0.00     0.167 HD
ATOM     47  C   UNL A   1      43.247  28.517  33.795  1.00  0.00     0.031 A 
ATOM     48  C   UNL A   1      42.094  25.548  27.693  1.00  0.00     0.031 A 
ATOM     49  C   UNL A   1      44.207  29.234  32.992  1.00  0.00     0.049 A 
ATOM     50  C   UNL A   1      43.367  25.783  28.409  1.00  0.00     0.074 A 
ATOM     51  C   UNL A   1      44.397  30.555  32.637  1.00  0.00     0.029 A 
ATOM     52  N   UNL A   1      44.934  28.493  32.089  1.00  0.00    -0.354 N 
ATOM     53  N   UNL A   1      44.164  26.779  28.145  1.00  0.00    -0.248 NA
ATOM     54  C   UNL A   1      43.542  25.177  29.719  1.00  0.00     0.031 C 
ATOM     55  C   UNL A   1      44.817  30.510  31.274  1.00  0.00     0.029 A 
ATOM     56  C   UNL A   1      44.932  29.170  30.898  1.00  0.00     0.049 A 
ATOM     57  H   UNL A   1      45.376  27.633  32.266  1.00  0.00     0.167 HD
ATOM     58  C   UNL A   1      44.608  27.212  29.385  1.00  0.00     0.074 A 
ATOM     59  C   UNL A   1      44.292  26.116  30.302  1.00  0.00     0.031 C 
ATOM     60  C   UNL A   1      44.921  28.525  29.603  1.00  0.00     0.031 A 
BRANCH  47  61
ATOM     61  C   UNL A   1      43.669  27.358  34.675  1.00  0.00    -0.014 A 
ATOM     62  C   UNL A   1      44.458  27.634  35.808  1.00  0.00     0.009 A 
ATOM     63  C   UNL A   1      43.584  26.008  34.287  1.00  0.00     0.009 A 
ATOM     64  C   UNL A   1      45.208  26.634  36.440  1.00  0.00     0.001 A 
ATOM     65  C   UNL A   1      44.296  25.000  34.943  1.00  0.00     0.001 A 
ATOM     66  C   UNL A   1      45.137  25.319  35.996  1.00  0.00     0.000 A 
ENDBRANCH  47  61
BRANCH  48  67
ATOM     67  C   UNL A   1      41.775  24.276  27.015  1.00  0.00    -0.014 A 
ATOM     68  C   UNL A   1      42.612  23.765  26.013  1.00  0.00     0.009 A 
ATOM     69  C   UNL A   1      40.779  23.428  27.535  1.00  0.00     0.009 A 
ATOM     70  C   UNL A   1      42.481  22.439  25.575  1.00  0.00     0.001 A 
ATOM     71  C   UNL A   1      40.647  22.106  27.097  1.00  0.00     0.001 A 
ATOM     72  C   UNL A   1      41.509  21.607  26.127  1.00  0.00     0.000 A 
ENDBRANCH  48  67
BRANCH  60  73
ATOM     73  C   UNL A   1      45.001  29.443  28.406  1.00  0.00    -0.014 A 
ATOM     74  C   UNL A   1      43.887  30.129  27.889  1.00  0.00     0.009 A 
ATOM     75  C   UNL A   1      46.269  29.755  27.894  1.00  0.00     0.009 A 
ATOM     76  C   UNL A   1      44.038  31.082  26.876  1.00  0.00     0.001 A 
ATOM     77  C   UNL A   1      46.422  30.721  26.898  1.00  0.00     0.001 A 
ATOM     78  C   UNL A   1      45.306  31.382  26.387  1.00  0.00     0.000 A 
ENDBRANCH  60  73
ENDBRANCH  34  35
ENDBRANCH  26  29
ENDBRANCH  24  25
ENDBRANCH  23  24
ENDBRANCH   1  23
TORSDOF 15
ENDMDL
MODEL 3
REMARK VINA RESULT:     -11.1      4.981     10.053
REMARK SMILES CCn1nc(C)c2nc(SCC(=O)NCCCNC(=O)c3ccc(-c4c5nc(c(-c6ccccc6)c6ccc([nH]6)c(-c6ccccc6)c6nc(c(-c7ccccc7)c7ccc4[nH]7)C=C6)C=C5)cc3)n(CC3CC3)c21
REMARK SMILES IDX 15 1 14 2 12 3 13 4 11 6 10 7 9 8 3 9 4 10 74 11 5 12 7 13
REMARK SMILES IDX 69 14 6 15 8 16 2 17 1 18 70 19 71 20 72 21 73 22 16 23
REMARK SMILES IDX 17 24 18 25 19 26 20 28 21 29 22 30 68 31 23 32 67 33 24 34
REMARK SMILES IDX 25 35 26 36 61 37 27 38 66 39 60 40 62 41 28 42 65 43 59 44
REMARK SMILES IDX 58 45 29 47 51 48 36 49 50 50 37 51 40 52 49 53 63 54 38 55
REMARK SMILES IDX 39 56 48 58 64 59 41 60 30 61 31 62 35 63 32 64 34 65 33 66
REMARK SMILES IDX 52 67 53 68 57 69 54 70 56 71 55 72 42 73 43 74 47 75 44 76
REMARK SMILES IDX 46 77 45 78
REMARK H PARENT 14 5 18 27 62 46 40 57
REMARK Flexibility Score: inf
ROOT
ATOM      1  C   UNL A   1      40.336  33.175  35.261  1.00  0.00     0.117 C 
ENDROOT
BRANCH   1   2
ATOM      2  N   UNL A   1      39.701  32.198  36.126  1.00  0.00    -0.355 N 
ATOM      3  C   UNL A   1      38.502  31.573  35.992  1.00  0.00     0.230 C 
ATOM      4  O   UNL A   1      38.216  30.709  36.824  1.00  0.00    -0.274 OA
ATOM      5  H   UNL A   1      40.215  31.951  36.929  1.00  0.00     0.163 HD
BRANCH   3   6
ATOM      6  C   UNL A   1      37.606  31.848  34.808  1.00  0.00     0.178 C 
BRANCH   6   7
ATOM      7  S   UNL A   1      36.758  33.417  34.811  1.00  0.00    -0.078 SA
BRANCH   7   8
ATOM      8  C   UNL A   1      35.747  33.688  33.432  1.00  0.00     0.170 A 
ATOM      9  N   UNL A   1      34.106  34.026  30.299  1.00  0.00    -0.247 N 
ATOM     10  N   UNL A   1      33.097  34.937  30.437  1.00  0.00    -0.174 NA
ATOM     11  C   UNL A   1      34.806  33.858  31.451  1.00  0.00     0.159 A 
ATOM     12  C   UNL A   1      33.180  35.337  31.724  1.00  0.00     0.087 A 
ATOM     13  C   UNL A   1      34.200  34.640  32.361  1.00  0.00     0.132 A 
ATOM     14  N   UNL A   1      35.851  33.259  32.112  1.00  0.00    -0.304 N 
ATOM     15  C   UNL A   1      32.298  36.390  32.267  1.00  0.00     0.071 C 
ATOM     16  N   UNL A   1      34.749  34.556  33.580  1.00  0.00    -0.219 NA
BRANCH   9  17
ATOM     17  C   UNL A   1      34.314  33.417  29.002  1.00  0.00     0.143 C 
ATOM     18  C   UNL A   1      34.603  34.435  27.912  1.00  0.00     0.029 C 
ENDBRANCH   9  17
BRANCH  14  19
ATOM     19  C   UNL A   1      36.725  32.281  31.494  1.00  0.00     0.130 C 
BRANCH  19  20
ATOM     20  C   UNL A   1      36.176  30.928  31.157  1.00  0.00     0.009 C 
ATOM     21  C   UNL A   1      36.346  30.252  29.820  1.00  0.00     0.006 C 
ATOM     22  C   UNL A   1      36.987  29.660  31.041  1.00  0.00     0.006 C 
ENDBRANCH  19  20
ENDBRANCH  14  19
ENDBRANCH   7   8
ENDBRANCH   6   7
ENDBRANCH   3   6
ENDBRANCH   1   2
BRANCH   1  23
ATOM     23  C   UNL A   1      41.151  32.532  34.137  1.00  0.00     0.042 C 
BRANCH  23  24
ATOM     24  C   UNL A   1      41.778  33.555  33.205  1.00  0.00     0.118 C 
BRANCH  24  25
ATOM     25  N   UNL A   1      40.817  34.145  32.271  1.00  0.00    -0.352 N 
ATOM     26  C   UNL A   1      40.551  33.786  30.961  1.00  0.00     0.251 C 
ATOM     27  H   UNL A   1      40.289  34.898  32.622  1.00  0.00     0.163 HD
ATOM     28  O   UNL A   1      39.952  34.532  30.211  1.00  0.00    -0.269 OA
BRANCH  26  29
ATOM     29  C   UNL A   1      41.016  32.469  30.493  1.00  0.00     0.039 A 
ATOM     30  C   UNL A   1      42.302  32.292  29.974  1.00  0.00     0.014 A 
ATOM     31  C   UNL A   1      40.147  31.394  30.636  1.00  0.00     0.014 A 
ATOM     32  C   UNL A   1      42.732  31.000  29.679  1.00  0.00     0.010 A 
ATOM     33  C   UNL A   1      40.634  30.121  30.530  1.00  0.00     0.010 A 
ATOM     34  C   UNL A   1      41.894  29.919  29.980  1.00  0.00    -0.014 A 
BRANCH  34  35
ATOM     35  C   UNL A   1      42.330  28.541  29.801  1.00  0.00     0.031 A 
ATOM     36  C   UNL A   1      43.042  27.946  30.960  1.00  0.00     0.074 A 
ATOM     37  C   UNL A   1      41.880  27.783  28.778  1.00  0.00     0.049 A 
ATOM     38  N   UNL A   1      44.276  27.571  31.020  1.00  0.00    -0.248 NA
ATOM     39  C   UNL A   1      42.328  27.861  32.244  1.00  0.00     0.031 C 
ATOM     40  C   UNL A   1      40.890  28.140  27.750  1.00  0.00     0.029 A 
ATOM     41  N   UNL A   1      42.104  26.467  28.529  1.00  0.00    -0.354 N 
ATOM     42  C   UNL A   1      44.444  27.009  32.283  1.00  0.00     0.074 A 
ATOM     43  C   UNL A   1      43.284  27.392  33.048  1.00  0.00     0.031 C 
ATOM     44  C   UNL A   1      40.419  27.016  27.169  1.00  0.00     0.029 A 
ATOM     45  C   UNL A   1      41.203  25.893  27.643  1.00  0.00     0.049 A 
ATOM     46  H   UNL A   1      42.843  25.964  28.942  1.00  0.00     0.167 HD
ATOM     47  C   UNL A   1      45.387  26.050  32.510  1.00  0.00     0.031 A 
ATOM     48  C   UNL A   1      41.086  24.578  27.341  1.00  0.00     0.031 A 
ATOM     49  C   UNL A   1      46.333  25.974  31.423  1.00  0.00     0.049 A 
ATOM     50  C   UNL A   1      42.353  23.924  27.738  1.00  0.00     0.074 A 
ATOM     51  C   UNL A   1      47.210  26.857  30.823  1.00  0.00     0.029 A 
ATOM     52  N   UNL A   1      46.164  24.944  30.526  1.00  0.00    -0.354 N 
ATOM     53  N   UNL A   1      43.494  24.164  27.157  1.00  0.00    -0.248 NA
ATOM     54  C   UNL A   1      42.441  23.343  29.067  1.00  0.00     0.031 C 
ATOM     55  C   UNL A   1      47.134  26.556  29.430  1.00  0.00     0.029 A 
ATOM     56  C   UNL A   1      46.278  25.466  29.266  1.00  0.00     0.049 A 
ATOM     57  H   UNL A   1      45.992  24.002  30.750  1.00  0.00     0.167 HD
ATOM     58  C   UNL A   1      44.415  24.197  28.194  1.00  0.00     0.074 A 
ATOM     59  C   UNL A   1      43.733  23.566  29.323  1.00  0.00     0.031 C 
ATOM     60  C   UNL A   1      45.526  24.991  28.123  1.00  0.00     0.031 A 
BRANCH  47  61
ATOM     61  C   UNL A   1      45.197  24.891  33.465  1.00  0.00    -0.014 A 
ATOM     62  C   UNL A   1      46.306  24.456  34.217  1.00  0.00     0.009 A 
ATOM     63  C   UNL A   1      44.084  24.030  33.442  1.00  0.00     0.009 A 
ATOM     64  C   UNL A   1      46.339  23.188  34.809  1.00  0.00     0.001 A 
ATOM     65  C   UNL A   1      44.096  22.781  34.070  1.00  0.00     0.001 A 
ATOM     66  C   UNL A   1      45.237  22.344  34.722  1.00  0.00     0.000 A 
ENDBRANCH  47  61
BRANCH  48  67
ATOM     67  C   UNL A   1      39.876  23.823  26.961  1.00  0.00    -0.014 A 
ATOM     68  C   UNL A   1      38.660  24.480  26.730  1.00  0.00     0.009 A 
ATOM     69  C   UNL A   1      39.978  22.474  26.571  1.00  0.00     0.009 A 
ATOM     70  C   UNL A   1      37.596  23.821  26.096  1.00  0.00     0.001 A 
ATOM     71  C   UNL A   1      38.918  21.815  25.941  1.00  0.00     0.001 A 
ATOM     72  C   UNL A   1      37.731  22.496  25.689  1.00  0.00     0.000 A 
ENDBRANCH  48  67
BRANCH  60  73
ATOM     73  C   UNL A   1      45.851  25.642  26.800  1.00  0.00    -0.014 A 
ATOM     74  C   UNL A   1      45.272  26.852  26.379  1.00  0.00     0.009 A 
ATOM     75  C   UNL A   1      46.898  25.106  26.037  1.00  0.00     0.009 A 
ATOM     76  C   UNL A   1      45.714  27.493  25.217  1.00  0.00     0.001 A 
ATOM     77  C   UNL A   1      47.353  25.756  24.888  1.00  0.00     0.001 A 
ATOM     78  C   UNL A   1      46.759  26.947  24.476  1.00  0.00     0.000 A 
ENDBRANCH  60  73
ENDBRANCH  34  35
ENDBRANCH  26  29
ENDBRANCH  24  25
ENDBRANCH  23  24
ENDBRANCH   1  23
TORSDOF 15
ENDMDL
