MODEL 1
REMARK VINA RESULT:     -13.2      0.000      0.000
REMARK SMILES CC1=Nc2nc(NC(=O)CCC(=O)NCCCNC(=O)c3ccc(-c4c5nc(c(-c6ccccc6)c6ccc([nH]6)c(-c6ccccc6)c6nc(c(-c7ccccc7)c7ccc4[nH]7)C=C6)C=C5)cc3)nn2[C@@H](c2ccc(Cl)cc2)C1
REMARK SMILES IDX 15 1 14 2 12 3 13 4 11 6 10 7 8 8 7 9 9 11 6 12 1 13 2 14
REMARK SMILES IDX 3 15 79 16 4 17 71 18 5 19 70 20 69 21 72 22 73 23 78 24
REMARK SMILES IDX 74 25 77 26 75 27 76 28 16 29 17 30 18 31 19 32 20 34 21 35
REMARK SMILES IDX 22 36 68 37 23 38 67 39 24 40 25 41 26 42 61 43 27 44 66 45
REMARK SMILES IDX 60 46 62 47 28 48 65 49 59 50 58 51 29 53 51 54 36 55 50 56
REMARK SMILES IDX 37 57 40 58 49 59 63 60 38 61 39 62 48 64 64 65 41 66 30 67
REMARK SMILES IDX 31 68 35 69 32 70 34 71 33 72 52 73 53 74 57 75 54 76 56 77
REMARK SMILES IDX 55 78 42 79 43 80 47 81 44 82 46 83 45 84
REMARK H PARENT 14 5 7 10 18 33 62 52 40 63
REMARK Flexibility Score: inf
ROOT
ATOM      1  C   UNL A   1      31.293  30.631  25.491  1.00  0.00     0.117 C 
ENDROOT
BRANCH   1   2
ATOM      2  N   UNL A   1      30.572  30.493  24.232  1.00  0.00    -0.356 N 
ATOM      3  C   UNL A   1      30.245  29.362  23.546  1.00  0.00     0.220 C 
ATOM      4  O   UNL A   1      29.288  29.401  22.776  1.00  0.00    -0.275 OA
ATOM      5  H   UNL A   1      30.278  31.337  23.819  1.00  0.00     0.163 HD
BRANCH   3   6
ATOM      6  C   UNL A   1      31.064  28.104  23.676  1.00  0.00     0.110 C 
BRANCH   6   7
ATOM      7  C   UNL A   1      30.460  27.124  24.680  1.00  0.00     0.110 C 
BRANCH   7   8
ATOM      8  C   UNL A   1      29.571  26.107  24.002  1.00  0.00     0.227 C 
ATOM      9  N   UNL A   1      29.996  24.851  23.719  1.00  0.00    -0.293 N 
ATOM     10  H   UNL A   1      29.327  24.274  23.284  1.00  0.00     0.173 HD
ATOM     11  O   UNL A   1      28.381  26.377  23.798  1.00  0.00    -0.275 OA
BRANCH   9  12
ATOM     12  C   UNL A   1      31.203  24.263  23.940  1.00  0.00     0.250 A 
ATOM     13  C   UNL A   1      36.675  22.925  22.953  1.00  0.00     0.062 C 
ATOM     14  C   UNL A   1      35.320  23.107  23.542  1.00  0.00     0.021 C 
ATOM     15  N   UNL A   1      34.432  23.766  22.861  1.00  0.00    -0.221 NA
ATOM     16  C   UNL A   1      35.099  22.636  24.962  1.00  0.00     0.083 C 
ATOM     17  C   UNL A   1      33.213  23.878  23.433  1.00  0.00     0.250 A 
ATOM     18  C   UNL A   1      33.681  22.089  25.091  1.00  0.00     0.147 C 
ATOM     19  N   UNL A   1      32.250  24.740  23.202  1.00  0.00    -0.174 NA
ATOM     20  N   UNL A   1      32.771  22.989  24.385  1.00  0.00    -0.220 N 
ATOM     21  N   UNL A   1      31.501  23.243  24.748  1.00  0.00    -0.130 NA
BRANCH  18  22
ATOM     22  C   UNL A   1      33.652  20.633  24.645  1.00  0.00    -0.023 A 
ATOM     23  C   UNL A   1      32.582  20.054  23.952  1.00  0.00     0.007 A 
ATOM     24  C   UNL A   1      34.783  19.834  24.897  1.00  0.00     0.007 A 
ATOM     25  C   UNL A   1      32.582  18.690  23.640  1.00  0.00     0.021 A 
ATOM     26  C   UNL A   1      34.804  18.481  24.547  1.00  0.00     0.021 A 
ATOM     27  C   UNL A   1      33.687  17.905  23.951  1.00  0.00     0.041 A 
ATOM     28  Cl  UNL A   1      33.671  16.222  23.607  1.00  0.00    -0.084 Cl
ENDBRANCH  18  22
ENDBRANCH   9  12
ENDBRANCH   7   8
ENDBRANCH   6   7
ENDBRANCH   3   6
ENDBRANCH   1   2
BRANCH   1  29
ATOM     29  C   UNL A   1      31.052  31.943  26.239  1.00  0.00     0.042 C 
BRANCH  29  30
ATOM     30  C   UNL A   1      32.265  32.426  27.008  1.00  0.00     0.118 C 
BRANCH  30  31
ATOM     31  N   UNL A   1      32.190  33.825  27.448  1.00  0.00    -0.352 N 
ATOM     32  C   UNL A   1      32.963  34.472  28.397  1.00  0.00     0.251 C 
ATOM     33  H   UNL A   1      31.498  34.374  27.012  1.00  0.00     0.163 HD
ATOM     34  O   UNL A   1      32.613  35.574  28.836  1.00  0.00    -0.269 OA
BRANCH  32  35
ATOM     35  C   UNL A   1      34.218  33.854  28.877  1.00  0.00     0.039 A 
ATOM     36  C   UNL A   1      34.373  33.320  30.164  1.00  0.00     0.014 A 
ATOM     37  C   UNL A   1      35.285  33.815  27.992  1.00  0.00     0.014 A 
ATOM     38  C   UNL A   1      35.615  32.788  30.527  1.00  0.00     0.010 A 
ATOM     39  C   UNL A   1      36.360  33.023  28.238  1.00  0.00     0.010 A 
ATOM     40  C   UNL A   1      36.609  32.681  29.549  1.00  0.00    -0.014 A 
BRANCH  40  41
ATOM     41  C   UNL A   1      37.952  32.180  29.764  1.00  0.00     0.031 A 
ATOM     42  C   UNL A   1      38.137  30.767  29.399  1.00  0.00     0.074 A 
ATOM     43  C   UNL A   1      38.992  33.017  29.993  1.00  0.00     0.049 A 
ATOM     44  N   UNL A   1      38.406  29.814  30.220  1.00  0.00    -0.248 NA
ATOM     45  C   UNL A   1      37.857  30.328  28.026  1.00  0.00     0.031 C 
ATOM     46  C   UNL A   1      38.979  34.473  30.186  1.00  0.00     0.029 A 
ATOM     47  N   UNL A   1      40.324  32.733  30.006  1.00  0.00    -0.354 N 
ATOM     48  C   UNL A   1      38.521  28.670  29.449  1.00  0.00     0.074 A 
ATOM     49  C   UNL A   1      37.983  29.004  28.153  1.00  0.00     0.031 C 
ATOM     50  C   UNL A   1      40.247  34.946  30.147  1.00  0.00     0.029 A 
ATOM     51  C   UNL A   1      41.168  33.842  29.958  1.00  0.00     0.049 A 
ATOM     52  H   UNL A   1      40.667  31.811  30.047  1.00  0.00     0.167 HD
ATOM     53  C   UNL A   1      39.281  27.624  29.873  1.00  0.00     0.031 A 
ATOM     54  C   UNL A   1      42.519  33.836  29.794  1.00  0.00     0.031 A 
ATOM     55  C   UNL A   1      39.659  27.781  31.259  1.00  0.00     0.049 A 
ATOM     56  C   UNL A   1      42.988  32.537  30.319  1.00  0.00     0.074 A 
ATOM     57  C   UNL A   1      38.967  27.863  32.451  1.00  0.00     0.029 A 
ATOM     58  N   UNL A   1      40.900  28.322  31.506  1.00  0.00    -0.354 N 
ATOM     59  N   UNL A   1      42.880  32.229  31.578  1.00  0.00    -0.248 NA
ATOM     60  C   UNL A   1      43.090  31.417  29.399  1.00  0.00     0.031 C 
ATOM     61  C   UNL A   1      39.642  28.872  33.201  1.00  0.00     0.029 A 
ATOM     62  C   UNL A   1      40.757  29.288  32.471  1.00  0.00     0.049 A 
ATOM     63  H   UNL A   1      41.743  28.063  31.068  1.00  0.00     0.167 HD
ATOM     64  C   UNL A   1      42.404  30.928  31.566  1.00  0.00     0.074 A 
ATOM     65  C   UNL A   1      42.663  30.441  30.208  1.00  0.00     0.031 C 
ATOM     66  C   UNL A   1      41.576  30.476  32.554  1.00  0.00     0.031 A 
BRANCH  53  67
ATOM     67  C   UNL A   1      40.010  26.686  28.951  1.00  0.00    -0.014 A 
ATOM     68  C   UNL A   1      39.315  25.573  28.449  1.00  0.00     0.009 A 
ATOM     69  C   UNL A   1      41.404  26.702  28.757  1.00  0.00     0.009 A 
ATOM     70  C   UNL A   1      39.990  24.499  27.857  1.00  0.00     0.001 A 
ATOM     71  C   UNL A   1      42.077  25.651  28.130  1.00  0.00     0.001 A 
ATOM     72  C   UNL A   1      41.371  24.536  27.706  1.00  0.00     0.000 A 
ENDBRANCH  53  67
BRANCH  54  73
ATOM     73  C   UNL A   1      43.396  34.669  28.933  1.00  0.00    -0.014 A 
ATOM     74  C   UNL A   1      44.751  34.879  29.227  1.00  0.00     0.009 A 
ATOM     75  C   UNL A   1      42.966  35.004  27.634  1.00  0.00     0.009 A 
ATOM     76  C   UNL A   1      45.628  35.429  28.272  1.00  0.00     0.001 A 
ATOM     77  C   UNL A   1      43.830  35.573  26.687  1.00  0.00     0.001 A 
ATOM     78  C   UNL A   1      45.166  35.782  27.006  1.00  0.00     0.000 A 
ENDBRANCH  54  73
BRANCH  66  79
ATOM     79  C   UNL A   1      41.307  31.404  33.723  1.00  0.00    -0.014 A 
ATOM     80  C   UNL A   1      42.049  31.370  34.920  1.00  0.00     0.009 A 
ATOM     81  C   UNL A   1      40.390  32.446  33.552  1.00  0.00     0.009 A 
ATOM     82  C   UNL A   1      41.860  32.331  35.921  1.00  0.00     0.001 A 
ATOM     83  C   UNL A   1      40.213  33.418  34.541  1.00  0.00     0.001 A 
ATOM     84  C   UNL A   1      40.942  33.359  35.727  1.00  0.00     0.000 A 
ENDBRANCH  66  79
ENDBRANCH  40  41
ENDBRANCH  32  35
ENDBRANCH  30  31
ENDBRANCH  29  30
ENDBRANCH   1  29
TORSDOF 14
ENDMDL
MODEL 2
REMARK VINA RESULT:     -12.7      3.389      8.112
REMARK SMILES CC1=Nc2nc(NC(=O)CCC(=O)NCCCNC(=O)c3ccc(-c4c5nc(c(-c6ccccc6)c6ccc([nH]6)c(-c6ccccc6)c6nc(c(-c7ccccc7)c7ccc4[nH]7)C=C6)C=C5)cc3)nn2[C@@H](c2ccc(Cl)cc2)C1
REMARK SMILES IDX 15 1 14 2 12 3 13 4 11 6 10 7 8 8 7 9 9 11 6 12 1 13 2 14
REMARK SMILES IDX 3 15 79 16 4 17 71 18 5 19 70 20 69 21 72 22 73 23 78 24
REMARK SMILES IDX 74 25 77 26 75 27 76 28 16 29 17 30 18 31 19 32 20 34 21 35
REMARK SMILES IDX 22 36 68 37 23 38 67 39 24 40 25 41 26 42 61 43 27 44 66 45
REMARK SMILES IDX 60 46 62 47 28 48 65 49 59 50 58 51 29 53 51 54 36 55 50 56
REMARK SMILES IDX 37 57 40 58 49 59 63 60 38 61 39 62 48 64 64 65 41 66 30 67
REMARK SMILES IDX 31 68 35 69 32 70 34 71 33 72 52 73 53 74 57 75 54 76 56 77
REMARK SMILES IDX 55 78 42 79 43 80 47 81 44 82 46 83 45 84
REMARK H PARENT 14 5 7 10 18 33 62 52 40 63
REMARK Flexibility Score: inf
ROOT
ATOM      1  C   UNL A   1      38.158  21.405  25.345  1.00  0.00     0.117 C 
ENDROOT
BRANCH   1   2
ATOM      2  N   UNL A   1      37.202  21.868  24.349  1.00  0.00    -0.356 N 
ATOM      3  C   UNL A   1      35.842  21.784  24.356  1.00  0.00     0.220 C 
ATOM      4  O   UNL A   1      35.202  22.592  23.686  1.00  0.00    -0.275 OA
ATOM      5  H   UNL A   1      37.593  22.304  23.558  1.00  0.00     0.163 HD
BRANCH   3   6
ATOM      6  C   UNL A   1      35.129  20.697  25.118  1.00  0.00     0.110 C 
BRANCH   6   7
ATOM      7  C   UNL A   1      33.916  20.162  24.361  1.00  0.00     0.110 C 
BRANCH   7   8
ATOM      8  C   UNL A   1      32.681  20.132  25.232  1.00  0.00     0.227 C 
ATOM      9  N   UNL A   1      32.002  21.257  25.563  1.00  0.00    -0.293 N 
ATOM     10  H   UNL A   1      31.209  21.113  26.128  1.00  0.00     0.173 HD
ATOM     11  O   UNL A   1      32.198  19.043  25.567  1.00  0.00    -0.275 OA
BRANCH   9  12
ATOM     12  C   UNL A   1      32.246  22.555  25.236  1.00  0.00     0.250 A 
ATOM     13  C   UNL A   1      33.774  28.003  26.068  1.00  0.00     0.062 C 
ATOM     14  C   UNL A   1      33.385  26.689  25.488  1.00  0.00     0.021 C 
ATOM     15  N   UNL A   1      33.224  25.681  26.291  1.00  0.00    -0.221 NA
ATOM     16  C   UNL A   1      33.340  26.568  23.981  1.00  0.00     0.083 C 
ATOM     17  C   UNL A   1      32.846  24.519  25.713  1.00  0.00     0.250 A 
ATOM     18  C   UNL A   1      32.199  25.634  23.589  1.00  0.00     0.147 C 
ATOM     19  N   UNL A   1      32.945  23.287  26.155  1.00  0.00    -0.174 NA
ATOM     20  N   UNL A   1      32.208  24.486  24.495  1.00  0.00    -0.220 N 
ATOM     21  N   UNL A   1      31.850  23.234  24.157  1.00  0.00    -0.130 NA
BRANCH  18  22
ATOM     22  C   UNL A   1      30.896  26.418  23.526  1.00  0.00    -0.023 A 
ATOM     23  C   UNL A   1      29.683  25.954  24.051  1.00  0.00     0.007 A 
ATOM     24  C   UNL A   1      30.916  27.706  22.956  1.00  0.00     0.007 A 
ATOM     25  C   UNL A   1      28.503  26.688  23.890  1.00  0.00     0.021 A 
ATOM     26  C   UNL A   1      29.747  28.461  22.833  1.00  0.00     0.021 A 
ATOM     27  C   UNL A   1      28.536  27.932  23.269  1.00  0.00     0.041 A 
ATOM     28  Cl  UNL A   1      27.081  28.816  23.034  1.00  0.00    -0.084 Cl
ENDBRANCH  18  22
ENDBRANCH   9  12
ENDBRANCH   7   8
ENDBRANCH   6   7
ENDBRANCH   3   6
ENDBRANCH   1   2
BRANCH   1  29
ATOM     29  C   UNL A   1      38.859  22.510  26.137  1.00  0.00     0.042 C 
BRANCH  29  30
ATOM     30  C   UNL A   1      40.131  22.046  26.818  1.00  0.00     0.118 C 
BRANCH  30  31
ATOM     31  N   UNL A   1      41.319  22.048  25.956  1.00  0.00    -0.352 N 
ATOM     32  C   UNL A   1      42.190  23.091  25.692  1.00  0.00     0.251 C 
ATOM     33  H   UNL A   1      41.522  21.196  25.506  1.00  0.00     0.163 HD
ATOM     34  O   UNL A   1      42.991  23.009  24.753  1.00  0.00    -0.269 OA
BRANCH  32  35
ATOM     35  C   UNL A   1      42.176  24.301  26.542  1.00  0.00     0.039 A 
ATOM     36  C   UNL A   1      42.909  24.417  27.732  1.00  0.00     0.014 A 
ATOM     37  C   UNL A   1      41.389  25.363  26.123  1.00  0.00     0.014 A 
ATOM     38  C   UNL A   1      42.798  25.595  28.479  1.00  0.00     0.010 A 
ATOM     39  C   UNL A   1      41.538  26.595  26.672  1.00  0.00     0.010 A 
ATOM     40  C   UNL A   1      42.075  26.664  27.940  1.00  0.00    -0.014 A 
BRANCH  40  41
ATOM     41  C   UNL A   1      41.842  27.938  28.590  1.00  0.00     0.031 A 
ATOM     42  C   UNL A   1      42.789  28.996  28.204  1.00  0.00     0.074 A 
ATOM     43  C   UNL A   1      40.690  28.195  29.253  1.00  0.00     0.049 A 
ATOM     44  N   UNL A   1      43.647  29.550  28.986  1.00  0.00    -0.248 NA
ATOM     45  C   UNL A   1      42.910  29.385  26.793  1.00  0.00     0.031 C 
ATOM     46  C   UNL A   1      39.573  27.289  29.546  1.00  0.00     0.029 A 
ATOM     47  N   UNL A   1      40.232  29.386  29.730  1.00  0.00    -0.354 N 
ATOM     48  C   UNL A   1      44.300  30.501  28.220  1.00  0.00     0.074 A 
ATOM     49  C   UNL A   1      43.950  30.220  26.849  1.00  0.00     0.031 C 
ATOM     50  C   UNL A   1      38.521  28.003  30.013  1.00  0.00     0.029 A 
ATOM     51  C   UNL A   1      38.884  29.405  30.085  1.00  0.00     0.049 A 
ATOM     52  H   UNL A   1      40.812  30.178  29.818  1.00  0.00     0.167 HD
ATOM     53  C   UNL A   1      44.869  31.589  28.806  1.00  0.00     0.031 A 
ATOM     54  C   UNL A   1      38.143  30.493  30.429  1.00  0.00     0.031 A 
ATOM     55  C   UNL A   1      44.930  31.438  30.242  1.00  0.00     0.049 A 
ATOM     56  C   UNL A   1      39.095  31.478  30.981  1.00  0.00     0.074 A 
ATOM     57  C   UNL A   1      45.552  30.552  31.100  1.00  0.00     0.029 A 
ATOM     58  N   UNL A   1      43.916  32.018  30.970  1.00  0.00    -0.354 N 
ATOM     59  N   UNL A   1      39.749  31.254  32.083  1.00  0.00    -0.248 NA
ATOM     60  C   UNL A   1      39.694  32.443  30.074  1.00  0.00     0.031 C 
ATOM     61  C   UNL A   1      44.593  30.295  32.124  1.00  0.00     0.029 A 
ATOM     62  C   UNL A   1      43.477  31.100  31.891  1.00  0.00     0.049 A 
ATOM     63  H   UNL A   1      43.568  32.931  30.852  1.00  0.00     0.167 HD
ATOM     64  C   UNL A   1      41.045  31.647  31.791  1.00  0.00     0.074 A 
ATOM     65  C   UNL A   1      40.929  32.476  30.588  1.00  0.00     0.031 C 
ATOM     66  C   UNL A   1      42.113  31.020  32.365  1.00  0.00     0.031 A 
BRANCH  53  67
ATOM     67  C   UNL A   1      44.994  32.933  28.142  1.00  0.00    -0.014 A 
ATOM     68  C   UNL A   1      46.275  33.501  28.025  1.00  0.00     0.009 A 
ATOM     69  C   UNL A   1      43.901  33.773  27.859  1.00  0.00     0.009 A 
ATOM     70  C   UNL A   1      46.446  34.855  27.719  1.00  0.00     0.001 A 
ATOM     71  C   UNL A   1      44.069  35.116  27.514  1.00  0.00     0.001 A 
ATOM     72  C   UNL A   1      45.342  35.664  27.472  1.00  0.00     0.000 A 
ENDBRANCH  53  67
BRANCH  54  73
ATOM     73  C   UNL A   1      36.776  30.904  30.020  1.00  0.00    -0.014 A 
ATOM     74  C   UNL A   1      35.999  31.785  30.787  1.00  0.00     0.009 A 
ATOM     75  C   UNL A   1      36.354  30.669  28.697  1.00  0.00     0.009 A 
ATOM     76  C   UNL A   1      34.836  32.379  30.261  1.00  0.00     0.001 A 
ATOM     77  C   UNL A   1      35.184  31.241  28.176  1.00  0.00     0.001 A 
ATOM     78  C   UNL A   1      34.425  32.102  28.959  1.00  0.00     0.000 A 
ENDBRANCH  54  73
BRANCH  66  79
ATOM     79  C   UNL A   1      41.826  29.975  33.426  1.00  0.00    -0.014 A 
ATOM     80  C   UNL A   1      41.507  28.636  33.124  1.00  0.00     0.009 A 
ATOM     81  C   UNL A   1      42.040  30.308  34.768  1.00  0.00     0.009 A 
ATOM     82  C   UNL A   1      41.382  27.672  34.132  1.00  0.00     0.001 A 
ATOM     83  C   UNL A   1      41.935  29.344  35.774  1.00  0.00     0.001 A 
ATOM     84  C   UNL A   1      41.601  28.028  35.459  1.00  0.00     0.000 A 
ENDBRANCH  66  79
ENDBRANCH  40  41
ENDBRANCH  32  35
ENDBRANCH  30  31
ENDBRANCH  29  30
ENDBRANCH   1  29
TORSDOF 14
ENDMDL
MODEL 3
REMARK VINA RESULT:     -12.7      2.887      6.436
REMARK SMILES CC1=Nc2nc(NC(=O)CCC(=O)NCCCNC(=O)c3ccc(-c4c5nc(c(-c6ccccc6)c6ccc([nH]6)c(-c6ccccc6)c6nc(c(-c7ccccc7)c7ccc4[nH]7)C=C6)C=C5)cc3)nn2[C@@H](c2ccc(Cl)cc2)C1
REMARK SMILES IDX 15 1 14 2 12 3 13 4 11 6 10 7 8 8 7 9 9 11 6 12 1 13 2 14
REMARK SMILES IDX 3 15 79 16 4 17 71 18 5 19 70 20 69 21 72 22 73 23 78 24
REMARK SMILES IDX 74 25 77 26 75 27 76 28 16 29 17 30 18 31 19 32 20 34 21 35
REMARK SMILES IDX 22 36 68 37 23 38 67 39 24 40 25 41 26 42 61 43 27 44 66 45
REMARK SMILES IDX 60 46 62 47 28 48 65 49 59 50 58 51 29 53 51 54 36 55 50 56
REMARK SMILES IDX 37 57 40 58 49 59 63 60 38 61 39 62 48 64 64 65 41 66 30 67
REMARK SMILES IDX 31 68 35 69 32 70 34 71 33 72 52 73 53 74 57 75 54 76 56 77
REMARK SMILES IDX 55 78 42 79 43 80 47 81 44 82 46 83 45 84
REMARK H PARENT 14 5 7 10 18 33 62 52 40 63
REMARK Flexibility Score: inf
ROOT
ATOM      1  C   UNL A   1      33.650  30.334  26.828  1.00  0.00     0.117 C 
ENDROOT
BRANCH   1   2
ATOM      2  N   UNL A   1      33.902  29.328  25.806  1.00  0.00    -0.356 N 
ATOM      3  C   UNL A   1      33.204  29.065  24.665  1.00  0.00     0.220 C 
ATOM      4  O   UNL A   1      33.788  28.512  23.735  1.00  0.00    -0.275 OA
ATOM      5  H   UNL A   1      34.689  28.756  25.960  1.00  0.00     0.163 HD
BRANCH   3   6
ATOM      6  C   UNL A   1      31.736  29.388  24.555  1.00  0.00     0.110 C 
BRANCH   6   7
ATOM      7  C   UNL A   1      30.919  28.196  24.058  1.00  0.00     0.110 C 
BRANCH   7   8
ATOM      8  C   UNL A   1      30.802  28.189  22.551  1.00  0.00     0.227 C 
ATOM      9  N   UNL A   1      31.141  27.109  21.805  1.00  0.00    -0.293 N 
ATOM     10  H   UNL A   1      31.014  27.218  20.835  1.00  0.00     0.173 HD
ATOM     11  O   UNL A   1      30.273  29.149  21.976  1.00  0.00    -0.275 OA
BRANCH   9  12
ATOM     12  C   UNL A   1      31.631  25.899  22.188  1.00  0.00     0.250 A 
ATOM     13  C   UNL A   1      31.857  20.988  25.110  1.00  0.00     0.062 C 
ATOM     14  C   UNL A   1      32.074  22.103  24.148  1.00  0.00     0.021 C 
ATOM     15  N   UNL A   1      31.302  23.145  24.224  1.00  0.00    -0.221 NA
ATOM     16  C   UNL A   1      33.088  21.897  23.045  1.00  0.00     0.083 C 
ATOM     17  C   UNL A   1      31.560  24.137  23.343  1.00  0.00     0.250 A 
ATOM     18  C   UNL A   1      33.795  23.220  22.764  1.00  0.00     0.147 C 
ATOM     19  N   UNL A   1      30.789  25.114  22.924  1.00  0.00    -0.174 NA
ATOM     20  N   UNL A   1      32.795  24.287  22.757  1.00  0.00    -0.220 N 
ATOM     21  N   UNL A   1      32.847  25.388  21.986  1.00  0.00    -0.130 NA
BRANCH  18  22
ATOM     22  C   UNL A   1      34.950  23.400  23.739  1.00  0.00    -0.023 A 
ATOM     23  C   UNL A   1      34.886  24.211  24.879  1.00  0.00     0.007 A 
ATOM     24  C   UNL A   1      36.134  22.671  23.516  1.00  0.00     0.007 A 
ATOM     25  C   UNL A   1      36.009  24.397  25.692  1.00  0.00     0.021 A 
ATOM     26  C   UNL A   1      37.243  22.821  24.352  1.00  0.00     0.021 A 
ATOM     27  C   UNL A   1      37.188  23.713  25.418  1.00  0.00     0.041 A 
ATOM     28  Cl  UNL A   1      38.580  23.972  26.392  1.00  0.00    -0.084 Cl
ENDBRANCH  18  22
ENDBRANCH   9  12
ENDBRANCH   7   8
ENDBRANCH   6   7
ENDBRANCH   3   6
ENDBRANCH   1   2
BRANCH   1  29
ATOM     29  C   UNL A   1      34.822  30.611  27.771  1.00  0.00     0.042 C 
BRANCH  29  30
ATOM     30  C   UNL A   1      35.099  32.088  27.966  1.00  0.00     0.118 C 
BRANCH  30  31
ATOM     31  N   UNL A   1      34.876  32.574  29.333  1.00  0.00    -0.352 N 
ATOM     32  C   UNL A   1      35.400  32.087  30.518  1.00  0.00     0.251 C 
ATOM     33  H   UNL A   1      34.273  33.348  29.418  1.00  0.00     0.163 HD
ATOM     34  O   UNL A   1      34.920  32.440  31.602  1.00  0.00    -0.269 OA
BRANCH  32  35
ATOM     35  C   UNL A   1      36.546  31.152  30.492  1.00  0.00     0.039 A 
ATOM     36  C   UNL A   1      36.410  29.760  30.594  1.00  0.00     0.014 A 
ATOM     37  C   UNL A   1      37.812  31.703  30.362  1.00  0.00     0.014 A 
ATOM     38  C   UNL A   1      37.563  28.969  30.592  1.00  0.00     0.010 A 
ATOM     39  C   UNL A   1      38.877  30.924  30.041  1.00  0.00     0.010 A 
ATOM     40  C   UNL A   1      38.796  29.583  30.346  1.00  0.00    -0.014 A 
BRANCH  40  41
ATOM     41  C   UNL A   1      40.083  28.916  30.335  1.00  0.00     0.031 A 
ATOM     42  C   UNL A   1      40.679  28.731  31.668  1.00  0.00     0.074 A 
ATOM     43  C   UNL A   1      40.537  28.268  29.236  1.00  0.00     0.049 A 
ATOM     44  N   UNL A   1      41.760  29.290  32.084  1.00  0.00    -0.248 NA
ATOM     45  C   UNL A   1      39.947  27.979  32.695  1.00  0.00     0.031 C 
ATOM     46  C   UNL A   1      39.947  28.207  27.893  1.00  0.00     0.029 A 
ATOM     47  N   UNL A   1      41.604  27.430  29.125  1.00  0.00    -0.354 N 
ATOM     48  C   UNL A   1      41.961  28.816  33.370  1.00  0.00     0.074 A 
ATOM     49  C   UNL A   1      40.726  28.181  33.760  1.00  0.00     0.031 C 
ATOM     50  C   UNL A   1      40.585  27.263  27.161  1.00  0.00     0.029 A 
ATOM     51  C   UNL A   1      41.643  26.671  27.956  1.00  0.00     0.049 A 
ATOM     52  H   UNL A   1      42.300  27.365  29.819  1.00  0.00     0.167 HD
ATOM     53  C   UNL A   1      43.212  28.771  33.902  1.00  0.00     0.031 A 
ATOM     54  C   UNL A   1      42.498  25.650  27.671  1.00  0.00     0.031 A 
ATOM     55  C   UNL A   1      44.153  29.509  33.090  1.00  0.00     0.049 A 
ATOM     56  C   UNL A   1      43.720  25.909  28.459  1.00  0.00     0.074 A 
ATOM     57  C   UNL A   1      44.279  30.829  32.707  1.00  0.00     0.029 A 
ATOM     58  N   UNL A   1      44.895  28.782  32.187  1.00  0.00    -0.354 N 
ATOM     59  N   UNL A   1      44.473  26.946  28.233  1.00  0.00    -0.248 NA
ATOM     60  C   UNL A   1      43.820  25.332  29.788  1.00  0.00     0.031 C 
ATOM     61  C   UNL A   1      44.680  30.780  31.339  1.00  0.00     0.029 A 
ATOM     62  C   UNL A   1      44.864  29.442  30.985  1.00  0.00     0.049 A 
ATOM     63  H   UNL A   1      45.367  27.937  32.372  1.00  0.00     0.167 HD
ATOM     64  C   UNL A   1      44.748  27.444  29.496  1.00  0.00     0.074 A 
ATOM     65  C   UNL A   1      44.421  26.350  30.415  1.00  0.00     0.031 C 
ATOM     66  C   UNL A   1      44.920  28.783  29.699  1.00  0.00     0.031 A 
BRANCH  53  67
ATOM     67  C   UNL A   1      43.661  27.747  34.908  1.00  0.00    -0.014 A 
ATOM     68  C   UNL A   1      43.800  26.414  34.483  1.00  0.00     0.009 A 
ATOM     69  C   UNL A   1      43.708  27.977  36.296  1.00  0.00     0.009 A 
ATOM     70  C   UNL A   1      43.899  25.364  35.402  1.00  0.00     0.001 A 
ATOM     71  C   UNL A   1      43.848  26.935  37.215  1.00  0.00     0.001 A 
ATOM     72  C   UNL A   1      43.915  25.624  36.768  1.00  0.00     0.000 A 
ENDBRANCH  53  67
BRANCH  54  73
ATOM     73  C   UNL A   1      42.249  24.315  27.071  1.00  0.00    -0.014 A 
ATOM     74  C   UNL A   1      42.777  23.945  25.825  1.00  0.00     0.009 A 
ATOM     75  C   UNL A   1      41.743  23.281  27.882  1.00  0.00     0.009 A 
ATOM     76  C   UNL A   1      42.770  22.603  25.400  1.00  0.00     0.001 A 
ATOM     77  C   UNL A   1      41.713  21.945  27.453  1.00  0.00     0.001 A 
ATOM     78  C   UNL A   1      42.232  21.605  26.210  1.00  0.00     0.000 A 
ENDBRANCH  54  73
BRANCH  66  79
ATOM     79  C   UNL A   1      44.930  29.682  28.477  1.00  0.00    -0.014 A 
ATOM     80  C   UNL A   1      43.759  30.205  27.895  1.00  0.00     0.009 A 
ATOM     81  C   UNL A   1      46.160  30.144  27.998  1.00  0.00     0.009 A 
ATOM     82  C   UNL A   1      43.818  31.138  26.852  1.00  0.00     0.001 A 
ATOM     83  C   UNL A   1      46.222  31.091  26.971  1.00  0.00     0.001 A 
ATOM     84  C   UNL A   1      45.053  31.584  26.393  1.00  0.00     0.000 A 
ENDBRANCH  66  79
ENDBRANCH  40  41
ENDBRANCH  32  35
ENDBRANCH  30  31
ENDBRANCH  29  30
ENDBRANCH   1  29
TORSDOF 14
ENDMDL
