MODEL 1
REMARK VINA RESULT:     -10.3      0.000      0.000
REMARK SMILES C[C@@H]1CC[N@@H+]1[C@@H]1CCC[C@@H]1C(=O)NCCCNC(=O)c1ccc(-c2c3nc(c(-c4ccccc4)c4ccc([nH]4)c(-c4ccccc4)c4nc(c(-c5ccccc5)c5ccc2[nH]5)C=C4)C=C3)cc1
REMARK SMILES IDX 15 1 14 2 13 3 11 4 12 5 10 7 6 8 7 9 8 10 9 11 5 12 1 13
REMARK SMILES IDX 2 14 3 15 4 16 16 18 17 19 18 20 19 22 20 23 21 24 67 25
REMARK SMILES IDX 22 26 66 27 23 28 24 29 25 30 60 31 26 32 65 33 59 34 61 35
REMARK SMILES IDX 27 36 64 37 58 38 57 39 28 41 50 42 35 43 49 44 36 45 39 46
REMARK SMILES IDX 48 47 62 48 37 49 38 50 47 52 63 53 40 54 29 55 30 56 34 57
REMARK SMILES IDX 31 58 33 59 32 60 51 61 52 62 56 63 53 64 55 65 54 66 41 67
REMARK SMILES IDX 42 68 46 69 43 70 45 71 44 72
REMARK H PARENT 13 6 5 17 17 21 61 40 39 51
REMARK Flexibility Score: inf
ROOT
ATOM      1  C   UNL A   1      38.227  20.033  24.913  1.00  0.00     0.042 C 
ENDROOT
BRANCH   1   2
ATOM      2  C   UNL A   1      37.676  21.457  24.952  1.00  0.00     0.117 C 
BRANCH   2   3
ATOM      3  N   UNL A   1      36.671  21.696  25.976  1.00  0.00    -0.356 N 
ATOM      4  C   UNL A   1      35.322  21.479  25.974  1.00  0.00     0.229 C 
ATOM      5  O   UNL A   1      34.717  21.622  27.039  1.00  0.00    -0.275 OA
ATOM      6  H   UNL A   1      37.022  22.081  26.812  1.00  0.00     0.163 HD
BRANCH   4   7
ATOM      7  C   UNL A   1      34.615  21.072  24.695  1.00  0.00     0.136 C 
ATOM      8  C   UNL A   1      33.295  21.807  24.389  1.00  0.00     0.196 C 
ATOM      9  C   UNL A   1      32.173  20.947  24.981  1.00  0.00     0.066 C 
ATOM     10  C   UNL A   1      32.714  19.523  25.025  1.00  0.00     0.007 C 
ATOM     11  C   UNL A   1      34.210  19.588  24.728  1.00  0.00     0.020 C 
BRANCH   8  12
ATOM     12  N   UNL A   1      33.303  23.273  24.492  1.00  0.00    -0.329 N 
ATOM     13  C   UNL A   1      30.909  23.701  23.494  1.00  0.00     0.075 C 
ATOM     14  C   UNL A   1      32.334  24.128  23.754  1.00  0.00     0.186 C 
ATOM     15  C   UNL A   1      33.331  24.229  22.589  1.00  0.00     0.126 C 
ATOM     16  C   UNL A   1      34.387  23.846  23.640  1.00  0.00     0.268 C 
ATOM     17  H   UNL A   1      33.242  23.307  25.509  1.00  0.00     0.348 HD
ENDBRANCH   8  12
ENDBRANCH   4   7
ENDBRANCH   2   3
ENDBRANCH   1   2
BRANCH   1  18
ATOM     18  C   UNL A   1      39.069  19.619  26.118  1.00  0.00     0.118 C 
BRANCH  18  19
ATOM     19  N   UNL A   1      40.385  19.128  25.742  1.00  0.00    -0.352 N 
ATOM     20  C   UNL A   1      41.625  19.707  25.791  1.00  0.00     0.251 C 
ATOM     21  H   UNL A   1      40.385  18.208  25.390  1.00  0.00     0.163 HD
ATOM     22  O   UNL A   1      42.567  19.123  25.251  1.00  0.00    -0.269 OA
BRANCH  20  23
ATOM     23  C   UNL A   1      41.874  21.012  26.451  1.00  0.00     0.039 A 
ATOM     24  C   UNL A   1      42.252  22.090  25.642  1.00  0.00     0.014 A 
ATOM     25  C   UNL A   1      41.840  21.178  27.839  1.00  0.00     0.014 A 
ATOM     26  C   UNL A   1      42.555  23.330  26.212  1.00  0.00     0.010 A 
ATOM     27  C   UNL A   1      42.081  22.435  28.404  1.00  0.00     0.010 A 
ATOM     28  C   UNL A   1      42.452  23.522  27.599  1.00  0.00    -0.014 A 
BRANCH  28  29
ATOM     29  C   UNL A   1      42.735  24.856  28.192  1.00  0.00     0.031 A 
ATOM     30  C   UNL A   1      44.130  25.245  28.600  1.00  0.00     0.074 A 
ATOM     31  C   UNL A   1      41.726  25.727  28.378  1.00  0.00     0.049 A 
ATOM     32  N   UNL A   1      44.560  26.389  29.075  1.00  0.00    -0.248 NA
ATOM     33  C   UNL A   1      45.172  24.215  28.479  1.00  0.00     0.031 C 
ATOM     34  C   UNL A   1      40.316  25.464  28.082  1.00  0.00     0.029 A 
ATOM     35  N   UNL A   1      41.732  27.014  28.859  1.00  0.00    -0.354 N 
ATOM     36  C   UNL A   1      45.917  26.213  29.317  1.00  0.00     0.074 A 
ATOM     37  C   UNL A   1      46.228  24.840  28.979  1.00  0.00     0.031 C 
ATOM     38  C   UNL A   1      39.598  26.564  28.360  1.00  0.00     0.029 A 
ATOM     39  C   UNL A   1      40.492  27.602  28.867  1.00  0.00     0.049 A 
ATOM     40  H   UNL A   1      42.547  27.470  29.167  1.00  0.00     0.167 HD
ATOM     41  C   UNL A   1      46.828  27.113  29.761  1.00  0.00     0.031 A 
ATOM     42  C   UNL A   1      40.111  28.842  29.228  1.00  0.00     0.031 A 
ATOM     43  C   UNL A   1      46.533  28.481  30.094  1.00  0.00     0.049 A 
ATOM     44  C   UNL A   1      41.141  29.835  29.681  1.00  0.00     0.074 A 
ATOM     45  C   UNL A   1      47.403  29.479  30.500  1.00  0.00     0.029 A 
ATOM     46  N   UNL A   1      45.268  29.045  30.060  1.00  0.00    -0.354 N 
ATOM     47  N   UNL A   1      42.433  29.674  29.826  1.00  0.00    -0.248 NA
ATOM     48  C   UNL A   1      40.660  31.188  29.995  1.00  0.00     0.031 C 
ATOM     49  C   UNL A   1      46.658  30.638  30.747  1.00  0.00     0.029 A 
ATOM     50  C   UNL A   1      45.331  30.372  30.453  1.00  0.00     0.049 A 
ATOM     51  H   UNL A   1      44.445  28.572  29.798  1.00  0.00     0.167 HD
ATOM     52  C   UNL A   1      42.924  30.909  30.229  1.00  0.00     0.074 A 
ATOM     53  C   UNL A   1      41.793  31.813  30.291  1.00  0.00     0.031 C 
ATOM     54  C   UNL A   1      44.200  31.261  30.521  1.00  0.00     0.031 A 
BRANCH  41  55
ATOM     55  C   UNL A   1      48.243  26.631  29.918  1.00  0.00    -0.014 A 
ATOM     56  C   UNL A   1      49.187  26.810  28.893  1.00  0.00     0.009 A 
ATOM     57  C   UNL A   1      48.645  26.008  31.109  1.00  0.00     0.009 A 
ATOM     58  C   UNL A   1      50.492  26.337  29.042  1.00  0.00     0.001 A 
ATOM     59  C   UNL A   1      49.958  25.559  31.266  1.00  0.00     0.001 A 
ATOM     60  C   UNL A   1      50.877  25.715  30.229  1.00  0.00     0.000 A 
ENDBRANCH  41  55
BRANCH  42  61
ATOM     61  C   UNL A   1      38.680  29.223  29.130  1.00  0.00    -0.014 A 
ATOM     62  C   UNL A   1      37.834  29.094  30.241  1.00  0.00     0.009 A 
ATOM     63  C   UNL A   1      38.164  29.744  27.935  1.00  0.00     0.009 A 
ATOM     64  C   UNL A   1      36.491  29.466  30.151  1.00  0.00     0.001 A 
ATOM     65  C   UNL A   1      36.827  30.136  27.855  1.00  0.00     0.001 A 
ATOM     66  C   UNL A   1      35.991  29.992  28.961  1.00  0.00     0.000 A 
ENDBRANCH  42  61
BRANCH  54  67
ATOM     67  C   UNL A   1      44.443  32.690  30.912  1.00  0.00    -0.014 A 
ATOM     68  C   UNL A   1      44.392  33.095  32.255  1.00  0.00     0.009 A 
ATOM     69  C   UNL A   1      44.752  33.640  29.926  1.00  0.00     0.009 A 
ATOM     70  C   UNL A   1      44.612  34.429  32.599  1.00  0.00     0.001 A 
ATOM     71  C   UNL A   1      44.994  34.970  30.275  1.00  0.00     0.001 A 
ATOM     72  C   UNL A   1      44.915  35.365  31.610  1.00  0.00     0.000 A 
ENDBRANCH  54  67
ENDBRANCH  28  29
ENDBRANCH  20  23
ENDBRANCH  18  19
ENDBRANCH   1  18
TORSDOF 11
ENDMDL
MODEL 2
REMARK VINA RESULT:     -10.3      3.122      6.386
REMARK SMILES C[C@@H]1CC[N@@H+]1[C@@H]1CCC[C@@H]1C(=O)NCCCNC(=O)c1ccc(-c2c3nc(c(-c4ccccc4)c4ccc([nH]4)c(-c4ccccc4)c4nc(c(-c5ccccc5)c5ccc2[nH]5)C=C4)C=C3)cc1
REMARK SMILES IDX 15 1 14 2 13 3 11 4 12 5 10 7 6 8 7 9 8 10 9 11 5 12 1 13
REMARK SMILES IDX 2 14 3 15 4 16 16 18 17 19 18 20 19 22 20 23 21 24 67 25
REMARK SMILES IDX 22 26 66 27 23 28 24 29 25 30 60 31 26 32 65 33 59 34 61 35
REMARK SMILES IDX 27 36 64 37 58 38 57 39 28 41 50 42 35 43 49 44 36 45 39 46
REMARK SMILES IDX 48 47 62 48 37 49 38 50 47 52 63 53 40 54 29 55 30 56 34 57
REMARK SMILES IDX 31 58 33 59 32 60 51 61 52 62 56 63 53 64 55 65 54 66 41 67
REMARK SMILES IDX 42 68 46 69 43 70 45 71 44 72
REMARK H PARENT 13 6 5 17 17 21 61 40 39 51
REMARK Flexibility Score: inf
ROOT
ATOM      1  C   UNL A   1      41.976  21.158  26.130  1.00  0.00     0.042 C 
ENDROOT
BRANCH   1   2
ATOM      2  C   UNL A   1      42.682  22.431  25.670  1.00  0.00     0.117 C 
BRANCH   2   3
ATOM      3  N   UNL A   1      44.130  22.330  25.582  1.00  0.00    -0.356 N 
ATOM      4  C   UNL A   1      45.116  22.963  26.284  1.00  0.00     0.229 C 
ATOM      5  O   UNL A   1      46.276  22.576  26.122  1.00  0.00    -0.275 OA
ATOM      6  H   UNL A   1      44.455  21.698  24.900  1.00  0.00     0.163 HD
BRANCH   4   7
ATOM      7  C   UNL A   1      44.773  24.099  27.229  1.00  0.00     0.136 C 
ATOM      8  C   UNL A   1      45.320  25.488  26.844  1.00  0.00     0.196 C 
ATOM      9  C   UNL A   1      46.665  25.638  27.561  1.00  0.00     0.066 C 
ATOM     10  C   UNL A   1      46.595  24.727  28.781  1.00  0.00     0.007 C 
ATOM     11  C   UNL A   1      45.352  23.853  28.633  1.00  0.00     0.020 C 
BRANCH   8  12
ATOM     12  N   UNL A   1      45.110  25.931  25.458  1.00  0.00    -0.329 N 
ATOM     13  C   UNL A   1      46.053  28.370  25.731  1.00  0.00     0.075 C 
ATOM     14  C   UNL A   1      45.138  27.367  25.069  1.00  0.00     0.186 C 
ATOM     15  C   UNL A   1      43.620  27.443  25.296  1.00  0.00     0.126 C 
ATOM     16  C   UNL A   1      43.656  25.916  25.123  1.00  0.00     0.268 C 
ATOM     17  H   UNL A   1      45.838  25.345  25.050  1.00  0.00     0.348 HD
ENDBRANCH   8  12
ENDBRANCH   4   7
ENDBRANCH   2   3
ENDBRANCH   1   2
BRANCH   1  18
ATOM     18  C   UNL A   1      40.725  21.369  26.980  1.00  0.00     0.118 C 
BRANCH  18  19
ATOM     19  N   UNL A   1      39.555  21.711  26.187  1.00  0.00    -0.352 N 
ATOM     20  C   UNL A   1      38.799  22.850  26.120  1.00  0.00     0.251 C 
ATOM     21  H   UNL A   1      39.252  20.991  25.587  1.00  0.00     0.163 HD
ATOM     22  O   UNL A   1      37.748  22.819  25.475  1.00  0.00    -0.269 OA
BRANCH  20  23
ATOM     23  C   UNL A   1      39.184  24.109  26.801  1.00  0.00     0.039 A 
ATOM     24  C   UNL A   1      39.959  25.029  26.083  1.00  0.00     0.014 A 
ATOM     25  C   UNL A   1      38.891  24.365  28.144  1.00  0.00     0.014 A 
ATOM     26  C   UNL A   1      40.401  26.208  26.690  1.00  0.00     0.010 A 
ATOM     27  C   UNL A   1      39.278  25.575  28.731  1.00  0.00     0.010 A 
ATOM     28  C   UNL A   1      40.047  26.504  28.016  1.00  0.00    -0.014 A 
BRANCH  28  29
ATOM     29  C   UNL A   1      40.486  27.781  28.639  1.00  0.00     0.031 A 
ATOM     30  C   UNL A   1      41.910  27.981  29.080  1.00  0.00     0.074 A 
ATOM     31  C   UNL A   1      39.592  28.771  28.823  1.00  0.00     0.049 A 
ATOM     32  N   UNL A   1      42.473  29.053  29.584  1.00  0.00    -0.248 NA
ATOM     33  C   UNL A   1      42.814  26.828  28.958  1.00  0.00     0.031 C 
ATOM     34  C   UNL A   1      38.167  28.695  28.496  1.00  0.00     0.029 A 
ATOM     35  N   UNL A   1      39.753  30.038  29.328  1.00  0.00    -0.354 N 
ATOM     36  C   UNL A   1      43.791  28.700  29.848  1.00  0.00     0.074 A 
ATOM     37  C   UNL A   1      43.931  27.304  29.490  1.00  0.00     0.031 C 
ATOM     38  C   UNL A   1      37.590  29.874  28.782  1.00  0.00     0.029 A 
ATOM     39  C   UNL A   1      38.598  30.780  29.325  1.00  0.00     0.049 A 
ATOM     40  H   UNL A   1      40.614  30.381  29.660  1.00  0.00     0.167 HD
ATOM     41  C   UNL A   1      44.801  29.468  30.326  1.00  0.00     0.031 A 
ATOM     42  C   UNL A   1      38.372  32.053  29.702  1.00  0.00     0.031 A 
ATOM     43  C   UNL A   1      44.675  30.857  30.679  1.00  0.00     0.049 A 
ATOM     44  C   UNL A   1      39.511  32.898  30.193  1.00  0.00     0.074 A 
ATOM     45  C   UNL A   1      45.658  31.729  31.120  1.00  0.00     0.029 A 
ATOM     46  N   UNL A   1      43.494  31.579  30.633  1.00  0.00    -0.354 N 
ATOM     47  N   UNL A   1      40.769  32.570  30.359  1.00  0.00    -0.248 NA
ATOM     48  C   UNL A   1      39.201  34.296  30.523  1.00  0.00     0.031 C 
ATOM     49  C   UNL A   1      45.062  32.970  31.375  1.00  0.00     0.029 A 
ATOM     50  C   UNL A   1      43.718  32.881  31.052  1.00  0.00     0.049 A 
ATOM     51  H   UNL A   1      42.623  31.220  30.346  1.00  0.00     0.167 HD
ATOM     52  C   UNL A   1      41.405  33.726  30.794  1.00  0.00     0.074 A 
ATOM     53  C   UNL A   1      40.398  34.765  30.852  1.00  0.00     0.031 C 
ATOM     54  C   UNL A   1      42.709  33.906  31.116  1.00  0.00     0.031 A 
BRANCH  41  55
ATOM     55  C   UNL A   1      46.139  28.807  30.499  1.00  0.00    -0.014 A 
ATOM     56  C   UNL A   1      46.456  28.115  31.679  1.00  0.00     0.009 A 
ATOM     57  C   UNL A   1      47.087  28.859  29.467  1.00  0.00     0.009 A 
ATOM     58  C   UNL A   1      47.712  27.525  31.837  1.00  0.00     0.001 A 
ATOM     59  C   UNL A   1      48.332  28.245  29.616  1.00  0.00     0.001 A 
ATOM     60  C   UNL A   1      48.648  27.588  30.806  1.00  0.00     0.000 A 
ENDBRANCH  41  55
BRANCH  42  61
ATOM     61  C   UNL A   1      37.004  32.615  29.586  1.00  0.00    -0.014 A 
ATOM     62  C   UNL A   1      36.116  32.554  30.669  1.00  0.00     0.009 A 
ATOM     63  C   UNL A   1      36.592  33.242  28.400  1.00  0.00     0.009 A 
ATOM     64  C   UNL A   1      34.834  33.097  30.562  1.00  0.00     0.001 A 
ATOM     65  C   UNL A   1      35.318  33.802  28.304  1.00  0.00     0.001 A 
ATOM     66  C   UNL A   1      34.439  33.725  29.382  1.00  0.00     0.000 A 
ENDBRANCH  42  61
BRANCH  54  67
ATOM     67  C   UNL A   1      43.125  35.286  31.538  1.00  0.00    -0.014 A 
ATOM     68  C   UNL A   1      43.629  36.209  30.610  1.00  0.00     0.009 A 
ATOM     69  C   UNL A   1      42.989  35.674  32.880  1.00  0.00     0.009 A 
ATOM     70  C   UNL A   1      44.019  37.484  31.023  1.00  0.00     0.001 A 
ATOM     71  C   UNL A   1      43.360  36.957  33.287  1.00  0.00     0.001 A 
ATOM     72  C   UNL A   1      43.883  37.857  32.360  1.00  0.00     0.000 A 
ENDBRANCH  54  67
ENDBRANCH  28  29
ENDBRANCH  20  23
ENDBRANCH  18  19
ENDBRANCH   1  18
TORSDOF 11
ENDMDL
MODEL 3
REMARK VINA RESULT:     -10.2      2.744      7.657
REMARK SMILES C[C@@H]1CC[N@@H+]1[C@@H]1CCC[C@@H]1C(=O)NCCCNC(=O)c1ccc(-c2c3nc(c(-c4ccccc4)c4ccc([nH]4)c(-c4ccccc4)c4nc(c(-c5ccccc5)c5ccc2[nH]5)C=C4)C=C3)cc1
REMARK SMILES IDX 15 1 14 2 13 3 11 4 12 5 10 7 6 8 7 9 8 10 9 11 5 12 1 13
REMARK SMILES IDX 2 14 3 15 4 16 16 18 17 19 18 20 19 22 20 23 21 24 67 25
REMARK SMILES IDX 22 26 66 27 23 28 24 29 25 30 60 31 26 32 65 33 59 34 61 35
REMARK SMILES IDX 27 36 64 37 58 38 57 39 28 41 50 42 35 43 49 44 36 45 39 46
REMARK SMILES IDX 48 47 62 48 37 49 38 50 47 52 63 53 40 54 29 55 30 56 34 57
REMARK SMILES IDX 31 58 33 59 32 60 51 61 52 62 56 63 53 64 55 65 54 66 41 67
REMARK SMILES IDX 42 68 46 69 43 70 45 71 44 72
REMARK H PARENT 13 6 5 17 17 21 61 40 39 51
REMARK Flexibility Score: inf
ROOT
ATOM      1  C   UNL A   1      35.741  23.867  25.905  1.00  0.00     0.042 C 
ENDROOT
BRANCH   1   2
ATOM      2  C   UNL A   1      34.342  23.891  25.293  1.00  0.00     0.117 C 
BRANCH   2   3
ATOM      3  N   UNL A   1      33.308  24.444  26.153  1.00  0.00    -0.356 N 
ATOM      4  C   UNL A   1      32.657  25.645  26.113  1.00  0.00     0.229 C 
ATOM      5  O   UNL A   1      31.699  25.804  26.873  1.00  0.00    -0.275 OA
ATOM      6  H   UNL A   1      33.029  23.853  26.890  1.00  0.00     0.163 HD
BRANCH   4   7
ATOM      7  C   UNL A   1      33.112  26.729  25.155  1.00  0.00     0.136 C 
ATOM      8  C   UNL A   1      32.640  28.161  25.480  1.00  0.00     0.196 C 
ATOM      9  C   UNL A   1      31.339  28.375  24.701  1.00  0.00     0.066 C 
ATOM     10  C   UNL A   1      31.401  27.427  23.510  1.00  0.00     0.007 C 
ATOM     11  C   UNL A   1      32.578  26.481  23.734  1.00  0.00     0.020 C 
BRANCH   8  12
ATOM     12  N   UNL A   1      32.820  28.629  26.862  1.00  0.00    -0.329 N 
ATOM     13  C   UNL A   1      31.755  31.014  26.557  1.00  0.00     0.075 C 
ATOM     14  C   UNL A   1      32.716  30.066  27.235  1.00  0.00     0.186 C 
ATOM     15  C   UNL A   1      34.230  30.218  27.014  1.00  0.00     0.126 C 
ATOM     16  C   UNL A   1      34.272  28.692  27.203  1.00  0.00     0.268 C 
ATOM     17  H   UNL A   1      32.121  28.011  27.274  1.00  0.00     0.348 HD
ENDBRANCH   8  12
ENDBRANCH   4   7
ENDBRANCH   2   3
ENDBRANCH   1   2
BRANCH   1  18
ATOM     18  C   UNL A   1      36.894  23.770  24.909  1.00  0.00     0.118 C 
BRANCH  18  19
ATOM     19  N   UNL A   1      37.917  22.822  25.322  1.00  0.00    -0.352 N 
ATOM     20  C   UNL A   1      39.051  22.973  26.074  1.00  0.00     0.251 C 
ATOM     21  H   UNL A   1      37.766  21.903  25.002  1.00  0.00     0.163 HD
ATOM     22  O   UNL A   1      39.842  22.029  26.138  1.00  0.00    -0.269 OA
BRANCH  20  23
ATOM     23  C   UNL A   1      39.371  24.227  26.798  1.00  0.00     0.039 A 
ATOM     24  C   UNL A   1      40.134  25.191  26.128  1.00  0.00     0.014 A 
ATOM     25  C   UNL A   1      39.027  24.438  28.137  1.00  0.00     0.014 A 
ATOM     26  C   UNL A   1      40.516  26.369  26.778  1.00  0.00     0.010 A 
ATOM     27  C   UNL A   1      39.353  25.645  28.766  1.00  0.00     0.010 A 
ATOM     28  C   UNL A   1      40.111  26.617  28.098  1.00  0.00    -0.014 A 
BRANCH  28  29
ATOM     29  C   UNL A   1      40.485  27.892  28.767  1.00  0.00     0.031 A 
ATOM     30  C   UNL A   1      39.498  29.019  28.901  1.00  0.00     0.074 A 
ATOM     31  C   UNL A   1      41.733  28.046  29.251  1.00  0.00     0.049 A 
ATOM     32  N   UNL A   1      39.642  30.172  29.508  1.00  0.00    -0.248 NA
ATOM     33  C   UNL A   1      38.190  28.839  28.256  1.00  0.00     0.031 C 
ATOM     34  C   UNL A   1      42.810  27.060  29.142  1.00  0.00     0.029 A 
ATOM     35  N   UNL A   1      42.303  29.091  29.936  1.00  0.00    -0.354 N 
ATOM     36  C   UNL A   1      38.448  30.856  29.310  1.00  0.00     0.074 A 
ATOM     37  C   UNL A   1      37.610  30.008  28.489  1.00  0.00     0.031 C 
ATOM     38  C   UNL A   1      43.901  27.535  29.764  1.00  0.00     0.029 A 
ATOM     39  C   UNL A   1      43.607  28.861  30.300  1.00  0.00     0.049 A 
ATOM     40  H   UNL A   1      41.823  29.924  30.145  1.00  0.00     0.167 HD
ATOM     41  C   UNL A   1      38.073  32.070  29.781  1.00  0.00     0.031 A 
ATOM     42  C   UNL A   1      44.469  29.622  30.999  1.00  0.00     0.031 A 
ATOM     43  C   UNL A   1      38.894  32.920  30.602  1.00  0.00     0.049 A 
ATOM     44  C   UNL A   1      44.022  30.947  31.544  1.00  0.00     0.074 A 
ATOM     45  C   UNL A   1      38.576  34.142  31.171  1.00  0.00     0.029 A 
ATOM     46  N   UNL A   1      40.199  32.636  30.972  1.00  0.00    -0.354 N 
ATOM     47  N   UNL A   1      42.862  31.542  31.415  1.00  0.00    -0.248 NA
ATOM     48  C   UNL A   1      44.997  31.691  32.353  1.00  0.00     0.031 C 
ATOM     49  C   UNL A   1      39.702  34.615  31.855  1.00  0.00     0.029 A 
ATOM     50  C   UNL A   1      40.705  33.666  31.748  1.00  0.00     0.049 A 
ATOM     51  H   UNL A   1      40.693  31.823  30.720  1.00  0.00     0.167 HD
ATOM     52  C   UNL A   1      42.960  32.721  32.142  1.00  0.00     0.074 A 
ATOM     53  C   UNL A   1      44.287  32.750  32.722  1.00  0.00     0.031 C 
ATOM     54  C   UNL A   1      42.030  33.691  32.313  1.00  0.00     0.031 A 
BRANCH  41  55
ATOM     55  C   UNL A   1      36.700  32.554  29.406  1.00  0.00    -0.014 A 
ATOM     56  C   UNL A   1      36.489  33.290  28.229  1.00  0.00     0.009 A 
ATOM     57  C   UNL A   1      35.602  32.256  30.227  1.00  0.00     0.009 A 
ATOM     58  C   UNL A   1      35.212  33.754  27.904  1.00  0.00     0.001 A 
ATOM     59  C   UNL A   1      34.322  32.697  29.886  1.00  0.00     0.001 A 
ATOM     60  C   UNL A   1      34.130  33.455  28.731  1.00  0.00     0.000 A 
ENDBRANCH  41  55
BRANCH  42  61
ATOM     61  C   UNL A   1      45.841  29.119  31.258  1.00  0.00    -0.014 A 
ATOM     62  C   UNL A   1      46.093  28.269  32.344  1.00  0.00     0.009 A 
ATOM     63  C   UNL A   1      46.897  29.463  30.401  1.00  0.00     0.009 A 
ATOM     64  C   UNL A   1      47.382  27.785  32.578  1.00  0.00     0.001 A 
ATOM     65  C   UNL A   1      48.180  28.960  30.624  1.00  0.00     0.001 A 
ATOM     66  C   UNL A   1      48.422  28.126  31.715  1.00  0.00     0.000 A 
ENDBRANCH  42  61
BRANCH  54  67
ATOM     67  C   UNL A   1      42.409  34.858  33.180  1.00  0.00    -0.014 A 
ATOM     68  C   UNL A   1      42.096  34.878  34.548  1.00  0.00     0.009 A 
ATOM     69  C   UNL A   1      43.108  35.940  32.625  1.00  0.00     0.009 A 
ATOM     70  C   UNL A   1      42.449  35.974  35.336  1.00  0.00     0.001 A 
ATOM     71  C   UNL A   1      43.479  37.026  33.421  1.00  0.00     0.001 A 
ATOM     72  C   UNL A   1      43.141  37.046  34.773  1.00  0.00     0.000 A 
ENDBRANCH  54  67
ENDBRANCH  28  29
ENDBRANCH  20  23
ENDBRANCH  18  19
ENDBRANCH   1  18
TORSDOF 11
ENDMDL
