MODEL 1
REMARK VINA RESULT:     -10.5      0.000      0.000
REMARK SMILES C[N@H+]1CCO[C@](C)(C(=O)NCCCNC(=O)c2ccc(-c3c4nc(c(-c5ccccc5)c5ccc([nH]5)c(-c5ccccc5)c5nc(c(-c6ccccc6)c6ccc3[nH]6)C=C5)C=C4)cc2)C1
REMARK SMILES IDX 13 1 12 2 11 3 10 4 8 5 9 6 6 8 1 9 2 10 3 11 65 12 4 14
REMARK SMILES IDX 5 15 7 16 14 17 15 18 16 20 17 21 18 22 64 23 19 24 63 25
REMARK SMILES IDX 20 26 21 27 22 28 57 29 23 30 62 31 56 32 58 33 24 34 61 35
REMARK SMILES IDX 55 36 54 37 25 39 47 40 32 41 46 42 33 43 36 44 45 45 59 46
REMARK SMILES IDX 34 47 35 48 44 50 60 51 37 52 26 53 27 54 31 55 28 56 30 57
REMARK SMILES IDX 29 58 48 59 49 60 53 61 50 62 52 63 51 64 38 65 39 66 43 67
REMARK SMILES IDX 40 68 42 69 41 70
REMARK H PARENT 10 7 2 13 14 19 58 38 36 49
REMARK Flexibility Score: inf
ROOT
ATOM      1  C   UNL A   1      38.706  20.317  25.614  1.00  0.00     0.118 C 
ENDROOT
BRANCH   1   2
ATOM      2  C   UNL A   1      37.550  19.740  24.812  1.00  0.00     0.042 C 
BRANCH   2   3
ATOM      3  C   UNL A   1      36.228  20.454  25.052  1.00  0.00     0.117 C 
BRANCH   3   4
ATOM      4  N   UNL A   1      35.093  19.544  25.021  1.00  0.00    -0.353 N 
ATOM      5  C   UNL A   1      33.742  19.759  25.090  1.00  0.00     0.257 C 
ATOM      6  O   UNL A   1      33.036  18.746  25.050  1.00  0.00    -0.271 OA
ATOM      7  H   UNL A   1      35.343  18.596  24.934  1.00  0.00     0.163 HD
BRANCH   5   8
ATOM      8  C   UNL A   1      33.145  21.196  25.201  1.00  0.00     0.192 C 
ATOM      9  C   UNL A   1      33.679  24.247  26.180  1.00  0.00     0.332 C 
ATOM     10  N   UNL A   1      33.148  23.118  26.927  1.00  0.00    -0.333 N 
ATOM     11  C   UNL A   1      31.678  23.039  26.911  1.00  0.00     0.290 C 
ATOM     12  C   UNL A   1      33.702  21.821  26.507  1.00  0.00     0.308 C 
ATOM     13  H   UNL A   1      33.451  23.305  27.883  1.00  0.00     0.348 HD
ATOM     14  C   UNL A   1      31.081  22.358  25.665  1.00  0.00     0.223 C 
ATOM     15  O   UNL A   1      31.705  21.104  25.352  1.00  0.00    -0.354 OA
ATOM     16  C   UNL A   1      33.413  21.912  23.866  1.00  0.00     0.059 C 
ENDBRANCH   5   8
ENDBRANCH   3   4
ENDBRANCH   2   3
ENDBRANCH   1   2
BRANCH   1  17
ATOM     17  N   UNL A   1      39.819  19.382  25.734  1.00  0.00    -0.352 N 
ATOM     18  C   UNL A   1      41.132  19.605  26.056  1.00  0.00     0.251 C 
ATOM     19  H   UNL A   1      39.590  18.441  25.555  1.00  0.00     0.163 HD
ATOM     20  O   UNL A   1      41.959  18.706  25.891  1.00  0.00    -0.269 OA
BRANCH  18  21
ATOM     21  C   UNL A   1      41.568  20.915  26.580  1.00  0.00     0.039 A 
ATOM     22  C   UNL A   1      42.080  21.864  25.692  1.00  0.00     0.014 A 
ATOM     23  C   UNL A   1      41.492  21.203  27.945  1.00  0.00     0.014 A 
ATOM     24  C   UNL A   1      42.453  23.124  26.165  1.00  0.00     0.010 A 
ATOM     25  C   UNL A   1      41.772  22.487  28.399  1.00  0.00     0.010 A 
ATOM     26  C   UNL A   1      42.265  23.458  27.516  1.00  0.00    -0.014 A 
BRANCH  26  27
ATOM     27  C   UNL A   1      42.580  24.814  28.028  1.00  0.00     0.031 A 
ATOM     28  C   UNL A   1      43.975  25.153  28.471  1.00  0.00     0.074 A 
ATOM     29  C   UNL A   1      41.588  25.714  28.177  1.00  0.00     0.049 A 
ATOM     30  N   UNL A   1      44.427  26.259  29.005  1.00  0.00    -0.248 NA
ATOM     31  C   UNL A   1      44.992  24.098  28.322  1.00  0.00     0.031 C 
ATOM     32  C   UNL A   1      40.182  25.488  27.843  1.00  0.00     0.029 A 
ATOM     33  N   UNL A   1      41.614  26.996  28.663  1.00  0.00    -0.354 N 
ATOM     34  C   UNL A   1      45.767  26.022  29.283  1.00  0.00     0.074 A 
ATOM     35  C   UNL A   1      46.042  24.653  28.907  1.00  0.00     0.031 C 
ATOM     36  C   UNL A   1      39.482  26.601  28.112  1.00  0.00     0.029 A 
ATOM     37  C   UNL A   1      40.383  27.603  28.676  1.00  0.00     0.049 A 
ATOM     38  H   UNL A   1      42.437  27.439  28.973  1.00  0.00     0.167 HD
ATOM     39  C   UNL A   1      46.693  26.873  29.789  1.00  0.00     0.031 A 
ATOM     40  C   UNL A   1      40.013  28.824  29.102  1.00  0.00     0.031 A 
ATOM     41  C   UNL A   1      46.418  28.238  30.154  1.00  0.00     0.049 A 
ATOM     42  C   UNL A   1      41.054  29.757  29.649  1.00  0.00     0.074 A 
ATOM     43  C   UNL A   1      47.302  29.205  30.599  1.00  0.00     0.029 A 
ATOM     44  N   UNL A   1      45.162  28.823  30.127  1.00  0.00    -0.354 N 
ATOM     45  N   UNL A   1      42.338  29.552  29.821  1.00  0.00    -0.248 NA
ATOM     46  C   UNL A   1      40.598  31.095  30.051  1.00  0.00     0.031 C 
ATOM     47  C   UNL A   1      46.569  30.358  30.899  1.00  0.00     0.029 A 
ATOM     48  C   UNL A   1      45.239  30.130  30.581  1.00  0.00     0.049 A 
ATOM     49  H   UNL A   1      44.336  28.377  29.830  1.00  0.00     0.167 HD
ATOM     50  C   UNL A   1      42.848  30.739  30.330  1.00  0.00     0.074 A 
ATOM     51  C   UNL A   1      41.736  31.664  30.424  1.00  0.00     0.031 C 
ATOM     52  C   UNL A   1      44.122  31.034  30.685  1.00  0.00     0.031 A 
BRANCH  39  53
ATOM     53  C   UNL A   1      48.082  26.332  29.995  1.00  0.00    -0.014 A 
ATOM     54  C   UNL A   1      48.480  25.778  31.224  1.00  0.00     0.009 A 
ATOM     55  C   UNL A   1      49.010  26.380  28.944  1.00  0.00     0.009 A 
ATOM     56  C   UNL A   1      49.790  25.336  31.411  1.00  0.00     0.001 A 
ATOM     57  C   UNL A   1      50.311  25.905  29.122  1.00  0.00     0.001 A 
ATOM     58  C   UNL A   1      50.705  25.397  30.360  1.00  0.00     0.000 A 
ENDBRANCH  39  53
BRANCH  40  59
ATOM     59  C   UNL A   1      38.588  29.231  29.004  1.00  0.00    -0.014 A 
ATOM     60  C   UNL A   1      37.738  29.128  30.115  1.00  0.00     0.009 A 
ATOM     61  C   UNL A   1      38.081  29.766  27.808  1.00  0.00     0.009 A 
ATOM     62  C   UNL A   1      36.407  29.542  30.027  1.00  0.00     0.001 A 
ATOM     63  C   UNL A   1      36.758  30.204  27.732  1.00  0.00     0.001 A 
ATOM     64  C   UNL A   1      35.921  30.087  28.840  1.00  0.00     0.000 A 
ENDBRANCH  40  59
BRANCH  52  65
ATOM     65  C   UNL A   1      44.389  32.425  31.193  1.00  0.00    -0.014 A 
ATOM     66  C   UNL A   1      44.345  32.722  32.563  1.00  0.00     0.009 A 
ATOM     67  C   UNL A   1      44.732  33.441  30.286  1.00  0.00     0.009 A 
ATOM     68  C   UNL A   1      44.608  34.018  33.013  1.00  0.00     0.001 A 
ATOM     69  C   UNL A   1      45.025  34.727  30.742  1.00  0.00     0.001 A 
ATOM     70  C   UNL A   1      44.953  35.016  32.103  1.00  0.00     0.000 A 
ENDBRANCH  52  65
ENDBRANCH  26  27
ENDBRANCH  18  21
ENDBRANCH   1  17
TORSDOF 10
ENDMDL
MODEL 2
REMARK VINA RESULT:     -10.5      4.589      9.191
REMARK SMILES C[N@H+]1CCO[C@](C)(C(=O)NCCCNC(=O)c2ccc(-c3c4nc(c(-c5ccccc5)c5ccc([nH]5)c(-c5ccccc5)c5nc(c(-c6ccccc6)c6ccc3[nH]6)C=C5)C=C4)cc2)C1
REMARK SMILES IDX 13 1 12 2 11 3 10 4 8 5 9 6 6 8 1 9 2 10 3 11 65 12 4 14
REMARK SMILES IDX 5 15 7 16 14 17 15 18 16 20 17 21 18 22 64 23 19 24 63 25
REMARK SMILES IDX 20 26 21 27 22 28 57 29 23 30 62 31 56 32 58 33 24 34 61 35
REMARK SMILES IDX 55 36 54 37 25 39 47 40 32 41 46 42 33 43 36 44 45 45 59 46
REMARK SMILES IDX 34 47 35 48 44 50 60 51 37 52 26 53 27 54 31 55 28 56 30 57
REMARK SMILES IDX 29 58 48 59 49 60 53 61 50 62 52 63 51 64 38 65 39 66 43 67
REMARK SMILES IDX 40 68 42 69 41 70
REMARK H PARENT 10 7 2 13 14 19 58 38 36 49
REMARK Flexibility Score: inf
ROOT
ATOM      1  C   UNL A   1      32.058  32.037  26.864  1.00  0.00     0.118 C 
ENDROOT
BRANCH   1   2
ATOM      2  C   UNL A   1      30.929  31.699  25.902  1.00  0.00     0.042 C 
BRANCH   2   3
ATOM      3  C   UNL A   1      31.122  30.373  25.181  1.00  0.00     0.117 C 
BRANCH   3   4
ATOM      4  N   UNL A   1      30.399  30.318  23.919  1.00  0.00    -0.353 N 
ATOM      5  C   UNL A   1      30.345  29.368  22.933  1.00  0.00     0.257 C 
ATOM      6  O   UNL A   1      29.631  29.644  21.963  1.00  0.00    -0.271 OA
ATOM      7  H   UNL A   1      29.846  31.112  23.740  1.00  0.00     0.163 HD
BRANCH   5   8
ATOM      8  C   UNL A   1      31.129  28.025  23.044  1.00  0.00     0.192 C 
ATOM      9  C   UNL A   1      33.733  26.543  24.299  1.00  0.00     0.332 C 
ATOM     10  N   UNL A   1      33.600  27.272  23.047  1.00  0.00    -0.333 N 
ATOM     11  C   UNL A   1      33.265  26.414  21.899  1.00  0.00     0.290 C 
ATOM     12  C   UNL A   1      32.638  28.382  23.112  1.00  0.00     0.308 C 
ATOM     13  H   UNL A   1      34.532  27.659  22.900  1.00  0.00     0.348 HD
ATOM     14  C   UNL A   1      31.767  26.092  21.747  1.00  0.00     0.223 C 
ATOM     15  O   UNL A   1      30.928  27.253  21.832  1.00  0.00    -0.354 OA
ATOM     16  C   UNL A   1      30.508  27.222  24.199  1.00  0.00     0.059 C 
ENDBRANCH   5   8
ENDBRANCH   3   4
ENDBRANCH   2   3
ENDBRANCH   1   2
BRANCH   1  17
ATOM     17  N   UNL A   1      32.058  33.445  27.244  1.00  0.00    -0.352 N 
ATOM     18  C   UNL A   1      32.903  34.137  28.072  1.00  0.00     0.251 C 
ATOM     19  H   UNL A   1      31.338  33.982  26.842  1.00  0.00     0.163 HD
ATOM     20  O   UNL A   1      32.601  35.277  28.431  1.00  0.00    -0.269 OA
BRANCH  18  21
ATOM     21  C   UNL A   1      34.159  33.526  28.550  1.00  0.00     0.039 A 
ATOM     22  C   UNL A   1      35.352  33.821  27.886  1.00  0.00     0.014 A 
ATOM     23  C   UNL A   1      34.162  32.649  29.637  1.00  0.00     0.014 A 
ATOM     24  C   UNL A   1      36.555  33.288  28.354  1.00  0.00     0.010 A 
ATOM     25  C   UNL A   1      35.368  32.198  30.161  1.00  0.00     0.010 A 
ATOM     26  C   UNL A   1      36.577  32.504  29.519  1.00  0.00    -0.014 A 
BRANCH  26  27
ATOM     27  C   UNL A   1      37.849  31.990  30.082  1.00  0.00     0.031 A 
ATOM     28  C   UNL A   1      38.453  30.719  29.556  1.00  0.00     0.074 A 
ATOM     29  C   UNL A   1      38.416  32.623  31.128  1.00  0.00     0.049 A 
ATOM     30  N   UNL A   1      39.521  30.081  29.965  1.00  0.00    -0.248 NA
ATOM     31  C   UNL A   1      37.746  30.060  28.446  1.00  0.00     0.031 C 
ATOM     32  C   UNL A   1      37.896  33.832  31.769  1.00  0.00     0.029 A 
ATOM     33  N   UNL A   1      39.548  32.327  31.842  1.00  0.00    -0.354 N 
ATOM     34  C   UNL A   1      39.595  28.934  29.183  1.00  0.00     0.074 A 
ATOM     35  C   UNL A   1      38.439  28.939  28.315  1.00  0.00     0.031 C 
ATOM     36  C   UNL A   1      38.719  34.186  32.768  1.00  0.00     0.029 A 
ATOM     37  C   UNL A   1      39.799  33.209  32.863  1.00  0.00     0.049 A 
ATOM     38  H   UNL A   1      40.126  31.555  31.642  1.00  0.00     0.167 HD
ATOM     39  C   UNL A   1      40.550  27.973  29.175  1.00  0.00     0.031 A 
ATOM     40  C   UNL A   1      40.782  33.228  33.783  1.00  0.00     0.031 A 
ATOM     41  C   UNL A   1      41.704  27.976  30.035  1.00  0.00     0.049 A 
ATOM     42  C   UNL A   1      41.837  32.160  33.751  1.00  0.00     0.074 A 
ATOM     43  C   UNL A   1      42.769  27.093  30.050  1.00  0.00     0.029 A 
ATOM     44  N   UNL A   1      41.936  28.903  31.040  1.00  0.00    -0.354 N 
ATOM     45  N   UNL A   1      41.945  31.131  32.946  1.00  0.00    -0.248 NA
ATOM     46  C   UNL A   1      42.911  32.262  34.748  1.00  0.00     0.031 C 
ATOM     47  C   UNL A   1      43.615  27.451  31.106  1.00  0.00     0.029 A 
ATOM     48  C   UNL A   1      43.110  28.594  31.706  1.00  0.00     0.049 A 
ATOM     49  H   UNL A   1      41.352  29.668  31.249  1.00  0.00     0.167 HD
ATOM     50  C   UNL A   1      43.109  30.474  33.324  1.00  0.00     0.074 A 
ATOM     51  C   UNL A   1      43.678  31.232  34.420  1.00  0.00     0.031 C 
ATOM     52  C   UNL A   1      43.656  29.348  32.806  1.00  0.00     0.031 A 
BRANCH  39  53
ATOM     53  C   UNL A   1      40.362  26.827  28.217  1.00  0.00    -0.014 A 
ATOM     54  C   UNL A   1      40.915  26.851  26.926  1.00  0.00     0.009 A 
ATOM     55  C   UNL A   1      39.617  25.706  28.612  1.00  0.00     0.009 A 
ATOM     56  C   UNL A   1      40.679  25.803  26.034  1.00  0.00     0.001 A 
ATOM     57  C   UNL A   1      39.411  24.643  27.730  1.00  0.00     0.001 A 
ATOM     58  C   UNL A   1      39.929  24.699  26.437  1.00  0.00     0.000 A 
ENDBRANCH  39  53
BRANCH  40  59
ATOM     59  C   UNL A   1      40.813  34.313  34.795  1.00  0.00    -0.014 A 
ATOM     60  C   UNL A   1      41.471  35.522  34.526  1.00  0.00     0.009 A 
ATOM     61  C   UNL A   1      40.146  34.162  36.022  1.00  0.00     0.009 A 
ATOM     62  C   UNL A   1      41.470  36.553  35.468  1.00  0.00     0.001 A 
ATOM     63  C   UNL A   1      40.123  35.204  36.951  1.00  0.00     0.001 A 
ATOM     64  C   UNL A   1      40.790  36.397  36.675  1.00  0.00     0.000 A 
ENDBRANCH  40  59
BRANCH  52  65
ATOM     65  C   UNL A   1      44.950  28.873  33.409  1.00  0.00    -0.014 A 
ATOM     66  C   UNL A   1      44.967  27.952  34.467  1.00  0.00     0.009 A 
ATOM     67  C   UNL A   1      46.170  29.323  32.878  1.00  0.00     0.009 A 
ATOM     68  C   UNL A   1      46.181  27.515  35.003  1.00  0.00     0.001 A 
ATOM     69  C   UNL A   1      47.381  28.862  33.396  1.00  0.00     0.001 A 
ATOM     70  C   UNL A   1      47.385  27.966  34.463  1.00  0.00     0.000 A 
ENDBRANCH  52  65
ENDBRANCH  26  27
ENDBRANCH  18  21
ENDBRANCH   1  17
TORSDOF 10
ENDMDL
MODEL 3
REMARK VINA RESULT:     -10.5      1.411      6.450
REMARK SMILES C[N@H+]1CCO[C@](C)(C(=O)NCCCNC(=O)c2ccc(-c3c4nc(c(-c5ccccc5)c5ccc([nH]5)c(-c5ccccc5)c5nc(c(-c6ccccc6)c6ccc3[nH]6)C=C5)C=C4)cc2)C1
REMARK SMILES IDX 13 1 12 2 11 3 10 4 8 5 9 6 6 8 1 9 2 10 3 11 65 12 4 14
REMARK SMILES IDX 5 15 7 16 14 17 15 18 16 20 17 21 18 22 64 23 19 24 63 25
REMARK SMILES IDX 20 26 21 27 22 28 57 29 23 30 62 31 56 32 58 33 24 34 61 35
REMARK SMILES IDX 55 36 54 37 25 39 47 40 32 41 46 42 33 43 36 44 45 45 59 46
REMARK SMILES IDX 34 47 35 48 44 50 60 51 37 52 26 53 27 54 31 55 28 56 30 57
REMARK SMILES IDX 29 58 48 59 49 60 53 61 50 62 52 63 51 64 38 65 39 66 43 67
REMARK SMILES IDX 40 68 42 69 41 70
REMARK H PARENT 10 7 2 13 14 19 58 38 36 49
REMARK Flexibility Score: inf
ROOT
ATOM      1  C   UNL A   1      38.799  20.217  25.640  1.00  0.00     0.118 C 
ENDROOT
BRANCH   1   2
ATOM      2  C   UNL A   1      37.675  19.799  24.704  1.00  0.00     0.042 C 
BRANCH   2   3
ATOM      3  C   UNL A   1      36.346  20.470  25.014  1.00  0.00     0.117 C 
BRANCH   3   4
ATOM      4  N   UNL A   1      35.234  19.530  25.001  1.00  0.00    -0.353 N 
ATOM      5  C   UNL A   1      33.878  19.710  25.083  1.00  0.00     0.257 C 
ATOM      6  O   UNL A   1      33.199  18.679  25.058  1.00  0.00    -0.271 OA
ATOM      7  H   UNL A   1      35.508  18.588  24.918  1.00  0.00     0.163 HD
BRANCH   5   8
ATOM      8  C   UNL A   1      33.245  21.131  25.190  1.00  0.00     0.192 C 
ATOM      9  C   UNL A   1      33.716  24.207  26.124  1.00  0.00     0.332 C 
ATOM     10  N   UNL A   1      33.230  23.072  26.894  1.00  0.00    -0.333 N 
ATOM     11  C   UNL A   1      31.762  22.954  26.907  1.00  0.00     0.290 C 
ATOM     12  C   UNL A   1      33.810  21.786  26.478  1.00  0.00     0.308 C 
ATOM     13  H   UNL A   1      33.545  23.279  27.842  1.00  0.00     0.348 HD
ATOM     14  C   UNL A   1      31.160  22.243  25.682  1.00  0.00     0.223 C 
ATOM     15  O   UNL A   1      31.811  21.002  25.370  1.00  0.00    -0.354 OA
ATOM     16  C   UNL A   1      33.468  21.839  23.843  1.00  0.00     0.059 C 
ENDBRANCH   5   8
ENDBRANCH   3   4
ENDBRANCH   2   3
ENDBRANCH   1   2
BRANCH   1  17
ATOM     17  N   UNL A   1      39.824  19.188  25.769  1.00  0.00    -0.352 N 
ATOM     18  C   UNL A   1      41.171  19.304  25.991  1.00  0.00     0.251 C 
ATOM     19  H   UNL A   1      39.496  18.264  25.683  1.00  0.00     0.163 HD
ATOM     20  O   UNL A   1      41.897  18.317  25.852  1.00  0.00    -0.269 OA
BRANCH  18  21
ATOM     21  C   UNL A   1      41.763  20.601  26.377  1.00  0.00     0.039 A 
ATOM     22  C   UNL A   1      42.153  21.493  25.376  1.00  0.00     0.014 A 
ATOM     23  C   UNL A   1      41.954  20.931  27.721  1.00  0.00     0.014 A 
ATOM     24  C   UNL A   1      42.672  22.742  25.725  1.00  0.00     0.010 A 
ATOM     25  C   UNL A   1      42.377  22.208  28.068  1.00  0.00     0.010 A 
ATOM     26  C   UNL A   1      42.751  23.125  27.073  1.00  0.00    -0.014 A 
BRANCH  26  27
ATOM     27  C   UNL A   1      43.224  24.473  27.469  1.00  0.00     0.031 A 
ATOM     28  C   UNL A   1      42.241  25.529  27.890  1.00  0.00     0.074 A 
ATOM     29  C   UNL A   1      44.533  24.775  27.365  1.00  0.00     0.049 A 
ATOM     30  N   UNL A   1      42.458  26.780  28.207  1.00  0.00    -0.248 NA
ATOM     31  C   UNL A   1      40.823  25.135  27.929  1.00  0.00     0.031 C 
ATOM     32  C   UNL A   1      45.580  23.858  26.911  1.00  0.00     0.029 A 
ATOM     33  N   UNL A   1      45.202  25.944  27.622  1.00  0.00    -0.354 N 
ATOM     34  C   UNL A   1      41.205  27.328  28.453  1.00  0.00     0.074 A 
ATOM     35  C   UNL A   1      40.232  26.289  28.199  1.00  0.00     0.031 C 
ATOM     36  C   UNL A   1      46.762  24.492  26.943  1.00  0.00     0.029 A 
ATOM     37  C   UNL A   1      46.550  25.870  27.379  1.00  0.00     0.049 A 
ATOM     38  H   UNL A   1      44.757  26.759  27.951  1.00  0.00     0.167 HD
ATOM     39  C   UNL A   1      40.892  28.578  28.872  1.00  0.00     0.031 A 
ATOM     40  C   UNL A   1      47.512  26.805  27.483  1.00  0.00     0.031 A 
ATOM     41  C   UNL A   1      41.863  29.607  29.132  1.00  0.00     0.049 A 
ATOM     42  C   UNL A   1      47.148  28.182  27.959  1.00  0.00     0.074 A 
ATOM     43  C   UNL A   1      41.657  30.879  29.636  1.00  0.00     0.029 A 
ATOM     44  N   UNL A   1      43.225  29.484  28.898  1.00  0.00    -0.354 N 
ATOM     45  N   UNL A   1      45.970  28.660  28.278  1.00  0.00    -0.248 NA
ATOM     46  C   UNL A   1      48.248  29.145  28.102  1.00  0.00     0.031 C 
ATOM     47  C   UNL A   1      42.887  31.547  29.649  1.00  0.00     0.029 A 
ATOM     48  C   UNL A   1      43.868  30.669  29.214  1.00  0.00     0.049 A 
ATOM     49  H   UNL A   1      43.668  28.673  28.558  1.00  0.00     0.167 HD
ATOM     50  C   UNL A   1      46.187  29.972  28.677  1.00  0.00     0.074 A 
ATOM     51  C   UNL A   1      47.613  30.207  28.577  1.00  0.00     0.031 C 
ATOM     52  C   UNL A   1      45.286  30.895  29.093  1.00  0.00     0.031 A 
BRANCH  39  53
ATOM     53  C   UNL A   1      39.431  28.898  29.047  1.00  0.00    -0.014 A 
ATOM     54  C   UNL A   1      38.668  29.442  28.000  1.00  0.00     0.009 A 
ATOM     55  C   UNL A   1      38.809  28.653  30.280  1.00  0.00     0.009 A 
ATOM     56  C   UNL A   1      37.330  29.785  28.203  1.00  0.00     0.001 A 
ATOM     57  C   UNL A   1      37.461  28.964  30.470  1.00  0.00     0.001 A 
ATOM     58  C   UNL A   1      36.727  29.545  29.436  1.00  0.00     0.000 A 
ENDBRANCH  39  53
BRANCH  40  59
ATOM     59  C   UNL A   1      48.914  26.451  27.146  1.00  0.00    -0.014 A 
ATOM     60  C   UNL A   1      49.778  25.941  28.126  1.00  0.00     0.009 A 
ATOM     61  C   UNL A   1      49.384  26.583  25.828  1.00  0.00     0.009 A 
ATOM     62  C   UNL A   1      51.086  25.578  27.796  1.00  0.00     0.001 A 
ATOM     63  C   UNL A   1      50.683  26.194  25.496  1.00  0.00     0.001 A 
ATOM     64  C   UNL A   1      51.535  25.698  26.481  1.00  0.00     0.000 A 
ENDBRANCH  40  59
BRANCH  52  65
ATOM     65  C   UNL A   1      45.818  32.245  29.489  1.00  0.00    -0.014 A 
ATOM     66  C   UNL A   1      45.901  33.296  28.563  1.00  0.00     0.009 A 
ATOM     67  C   UNL A   1      46.202  32.477  30.819  1.00  0.00     0.009 A 
ATOM     68  C   UNL A   1      46.387  34.546  28.956  1.00  0.00     0.001 A 
ATOM     69  C   UNL A   1      46.658  33.735  31.216  1.00  0.00     0.001 A 
ATOM     70  C   UNL A   1      46.759  34.764  30.282  1.00  0.00     0.000 A 
ENDBRANCH  52  65
ENDBRANCH  26  27
ENDBRANCH  18  21
ENDBRANCH   1  17
TORSDOF 10
ENDMDL
