MODEL 1
REMARK VINA RESULT:     -10.9      0.000      0.000
REMARK SMILES O=C(NCCCNC(=O)c1ccccc1OCC[S@@](=O)c1cccc(F)c1)c1ccc(-c2c3nc(c(-c4ccccc4)c4ccc([nH]4)c(-c4ccccc4)c4nc(c(-c5ccccc5)c5ccc2[nH]5)C=C4)C=C3)cc1
REMARK SMILES IDX 7 1 8 2 9 3 6 5 5 6 4 7 3 8 1 9 2 10 28 12 29 13 75 14 30 15
REMARK SMILES IDX 74 16 31 17 32 18 33 19 68 20 34 21 73 22 67 23 69 24 35 25
REMARK SMILES IDX 72 26 66 27 65 28 36 30 58 31 43 32 57 33 44 34 47 35 56 36
REMARK SMILES IDX 70 37 45 38 46 39 55 41 71 42 48 43 37 44 38 45 42 46 39 47
REMARK SMILES IDX 41 48 40 49 59 50 60 51 64 52 61 53 63 54 62 55 49 56 50 57
REMARK SMILES IDX 54 58 51 59 53 60 52 61 10 62 11 63 15 64 12 65 14 66 13 67
REMARK SMILES IDX 16 68 17 69 18 70 19 71 20 72 21 73 22 74 27 75 23 76 25 77
REMARK SMILES IDX 24 78 26 79
REMARK H PARENT 7 4 3 11 69 29 47 40
REMARK Flexibility Score: inf
ROOT
ATOM      1  N   UNL A   1      31.560  29.293  26.563  1.00  0.00    -0.352 N 
ATOM      2  C   UNL A   1      31.405  27.957  26.801  1.00  0.00     0.255 C 
ATOM      3  O   UNL A   1      31.620  27.774  28.016  1.00  0.00    -0.269 OA
ATOM      4  H   UNL A   1      31.912  29.679  27.397  1.00  0.00     0.163 HD
ENDROOT
BRANCH   1   5
ATOM      5  C   UNL A   1      31.434  30.410  25.619  1.00  0.00     0.118 C 
BRANCH   5   6
ATOM      6  C   UNL A   1      31.259  31.723  26.403  1.00  0.00     0.042 C 
BRANCH   6   7
ATOM      7  C   UNL A   1      32.527  32.171  27.123  1.00  0.00     0.118 C 
BRANCH   7   8
ATOM      8  N   UNL A   1      32.446  33.573  27.510  1.00  0.00    -0.352 N 
ATOM      9  O   UNL A   1      32.720  35.378  28.809  1.00  0.00    -0.269 OA
ATOM     10  C   UNL A   1      33.168  34.300  28.428  1.00  0.00     0.251 C 
ATOM     11  H   UNL A   1      31.757  34.089  27.032  1.00  0.00     0.163 HD
BRANCH  10  12
ATOM     12  C   UNL A   1      34.469  33.821  28.961  1.00  0.00     0.039 A 
ATOM     13  C   UNL A   1      34.535  32.854  29.961  1.00  0.00     0.014 A 
ATOM     14  C   UNL A   1      35.658  34.274  28.372  1.00  0.00     0.014 A 
ATOM     15  C   UNL A   1      35.767  32.450  30.468  1.00  0.00     0.010 A 
ATOM     16  C   UNL A   1      36.896  33.775  28.798  1.00  0.00     0.010 A 
ATOM     17  C   UNL A   1      36.963  32.869  29.864  1.00  0.00    -0.014 A 
BRANCH  17  18
ATOM     18  C   UNL A   1      38.244  32.257  30.317  1.00  0.00     0.031 A 
ATOM     19  C   UNL A   1      39.021  32.818  31.474  1.00  0.00     0.074 A 
ATOM     20  C   UNL A   1      38.676  31.140  29.695  1.00  0.00     0.049 A 
ATOM     21  N   UNL A   1      40.115  32.356  32.030  1.00  0.00    -0.248 NA
ATOM     22  C   UNL A   1      38.521  34.061  32.080  1.00  0.00     0.031 C 
ATOM     23  C   UNL A   1      38.020  30.508  28.545  1.00  0.00     0.029 A 
ATOM     24  N   UNL A   1      39.736  30.311  29.962  1.00  0.00    -0.354 N 
ATOM     25  C   UNL A   1      40.449  33.265  33.027  1.00  0.00     0.074 A 
ATOM     26  C   UNL A   1      39.455  34.316  32.987  1.00  0.00     0.031 C 
ATOM     27  C   UNL A   1      38.630  29.347  28.270  1.00  0.00     0.029 A 
ATOM     28  C   UNL A   1      39.770  29.192  29.164  1.00  0.00     0.049 A 
ATOM     29  H   UNL A   1      40.407  30.499  30.658  1.00  0.00     0.167 HD
ATOM     30  C   UNL A   1      41.488  33.223  33.897  1.00  0.00     0.031 A 
ATOM     31  C   UNL A   1      40.625  28.153  29.144  1.00  0.00     0.031 A 
ATOM     32  C   UNL A   1      42.469  32.168  33.942  1.00  0.00     0.049 A 
ATOM     33  C   UNL A   1      41.765  28.135  30.118  1.00  0.00     0.074 A 
ATOM     34  C   UNL A   1      43.542  32.023  34.804  1.00  0.00     0.029 A 
ATOM     35  N   UNL A   1      42.492  31.075  33.089  1.00  0.00    -0.354 N 
ATOM     36  N   UNL A   1      42.050  28.992  31.068  1.00  0.00    -0.248 NA
ATOM     37  C   UNL A   1      42.700  27.009  30.015  1.00  0.00     0.031 C 
ATOM     38  C   UNL A   1      44.244  30.869  34.441  1.00  0.00     0.029 A 
ATOM     39  C   UNL A   1      43.573  30.262  33.390  1.00  0.00     0.049 A 
ATOM     40  H   UNL A   1      41.837  30.902  32.374  1.00  0.00     0.167 HD
ATOM     41  C   UNL A   1      43.190  28.500  31.688  1.00  0.00     0.074 A 
ATOM     42  C   UNL A   1      43.527  27.258  31.021  1.00  0.00     0.031 C 
ATOM     43  C   UNL A   1      43.895  29.031  32.715  1.00  0.00     0.031 A 
BRANCH  30  44
ATOM     44  C   UNL A   1      41.642  34.379  34.851  1.00  0.00    -0.014 A 
ATOM     45  C   UNL A   1      41.026  34.379  36.113  1.00  0.00     0.009 A 
ATOM     46  C   UNL A   1      42.445  35.472  34.490  1.00  0.00     0.009 A 
ATOM     47  C   UNL A   1      41.182  35.466  36.977  1.00  0.00     0.001 A 
ATOM     48  C   UNL A   1      42.623  36.545  35.367  1.00  0.00     0.001 A 
ATOM     49  C   UNL A   1      41.983  36.545  36.604  1.00  0.00     0.000 A 
ENDBRANCH  30  44
BRANCH  31  50
ATOM     50  C   UNL A   1      40.435  27.049  28.166  1.00  0.00    -0.014 A 
ATOM     51  C   UNL A   1      41.000  27.125  26.883  1.00  0.00     0.009 A 
ATOM     52  C   UNL A   1      39.694  25.908  28.514  1.00  0.00     0.009 A 
ATOM     53  C   UNL A   1      40.810  26.090  25.964  1.00  0.00     0.001 A 
ATOM     54  C   UNL A   1      39.534  24.862  27.604  1.00  0.00     0.001 A 
ATOM     55  C   UNL A   1      40.083  24.957  26.328  1.00  0.00     0.000 A 
ENDBRANCH  31  50
BRANCH  43  56
ATOM     56  C   UNL A   1      45.078  28.244  33.202  1.00  0.00    -0.014 A 
ATOM     57  C   UNL A   1      44.943  27.259  34.193  1.00  0.00     0.009 A 
ATOM     58  C   UNL A   1      46.345  28.485  32.649  1.00  0.00     0.009 A 
ATOM     59  C   UNL A   1      46.063  26.563  34.652  1.00  0.00     0.001 A 
ATOM     60  C   UNL A   1      47.457  27.766  33.087  1.00  0.00     0.001 A 
ATOM     61  C   UNL A   1      47.317  26.815  34.097  1.00  0.00     0.000 A 
ENDBRANCH  43  56
ENDBRANCH  17  18
ENDBRANCH  10  12
ENDBRANCH   7   8
ENDBRANCH   6   7
ENDBRANCH   5   6
ENDBRANCH   1   5
BRANCH   2  62
ATOM     62  C   UNL A   1      31.105  26.696  25.982  1.00  0.00     0.081 A 
ATOM     63  C   UNL A   1      30.925  27.071  24.605  1.00  0.00     0.018 A 
ATOM     64  C   UNL A   1      31.016  25.304  26.202  1.00  0.00     0.132 A 
ATOM     65  C   UNL A   1      30.609  26.196  23.559  1.00  0.00     0.001 A 
ATOM     66  C   UNL A   1      30.589  24.438  25.145  1.00  0.00     0.047 A 
ATOM     67  C   UNL A   1      30.395  24.868  23.840  1.00  0.00     0.004 A 
BRANCH  64  68
ATOM     68  O   UNL A   1      31.384  24.475  27.229  1.00  0.00    -0.492 OA
BRANCH  68  69
ATOM     69  C   UNL A   1      31.471  23.094  27.026  1.00  0.00     0.243 C 
BRANCH  69  70
ATOM     70  C   UNL A   1      32.783  22.414  27.343  1.00  0.00     0.152 C 
BRANCH  70  71
ATOM     71  S   UNL A   1      33.351  21.229  26.058  1.00  0.00     0.056 S 
ATOM     72  O   UNL A   1      32.114  20.711  25.382  1.00  0.00    -0.254 OA
BRANCH  71  73
ATOM     73  C   UNL A   1      33.987  22.521  24.971  1.00  0.00     0.042 A 
ATOM     74  C   UNL A   1      34.515  23.685  25.533  1.00  0.00     0.018 A 
ATOM     75  C   UNL A   1      33.663  22.476  23.614  1.00  0.00     0.057 A 
ATOM     76  C   UNL A   1      34.547  24.858  24.783  1.00  0.00     0.004 A 
ATOM     77  C   UNL A   1      33.674  23.653  22.887  1.00  0.00     0.124 A 
ATOM     78  C   UNL A   1      34.081  24.850  23.468  1.00  0.00     0.039 A 
ATOM     79  F   UNL A   1      33.195  23.652  21.637  1.00  0.00    -0.207 F 
ENDBRANCH  71  73
ENDBRANCH  70  71
ENDBRANCH  69  70
ENDBRANCH  68  69
ENDBRANCH  64  68
ENDBRANCH   2  62
TORSDOF 15
ENDMDL
MODEL 2
REMARK VINA RESULT:     -10.9      0.410      5.943
REMARK SMILES O=C(NCCCNC(=O)c1ccccc1OCC[S@@](=O)c1cccc(F)c1)c1ccc(-c2c3nc(c(-c4ccccc4)c4ccc([nH]4)c(-c4ccccc4)c4nc(c(-c5ccccc5)c5ccc2[nH]5)C=C4)C=C3)cc1
REMARK SMILES IDX 7 1 8 2 9 3 6 5 5 6 4 7 3 8 1 9 2 10 28 12 29 13 75 14 30 15
REMARK SMILES IDX 74 16 31 17 32 18 33 19 68 20 34 21 73 22 67 23 69 24 35 25
REMARK SMILES IDX 72 26 66 27 65 28 36 30 58 31 43 32 57 33 44 34 47 35 56 36
REMARK SMILES IDX 70 37 45 38 46 39 55 41 71 42 48 43 37 44 38 45 42 46 39 47
REMARK SMILES IDX 41 48 40 49 59 50 60 51 64 52 61 53 63 54 62 55 49 56 50 57
REMARK SMILES IDX 54 58 51 59 53 60 52 61 10 62 11 63 15 64 12 65 14 66 13 67
REMARK SMILES IDX 16 68 17 69 18 70 19 71 20 72 21 73 22 74 27 75 23 76 25 77
REMARK SMILES IDX 24 78 26 79
REMARK H PARENT 7 4 3 11 69 29 47 40
REMARK Flexibility Score: inf
ROOT
ATOM      1  N   UNL A   1      31.574  29.280  26.443  1.00  0.00    -0.352 N 
ATOM      2  C   UNL A   1      31.402  27.948  26.695  1.00  0.00     0.255 C 
ATOM      3  O   UNL A   1      31.562  27.784  27.921  1.00  0.00    -0.269 OA
ATOM      4  H   UNL A   1      31.890  29.678  27.285  1.00  0.00     0.163 HD
ENDROOT
BRANCH   1   5
ATOM      5  C   UNL A   1      31.495  30.382  25.475  1.00  0.00     0.118 C 
BRANCH   5   6
ATOM      6  C   UNL A   1      31.267  31.704  26.229  1.00  0.00     0.042 C 
BRANCH   6   7
ATOM      7  C   UNL A   1      32.405  32.063  27.179  1.00  0.00     0.118 C 
BRANCH   7   8
ATOM      8  N   UNL A   1      32.399  33.485  27.496  1.00  0.00    -0.352 N 
ATOM      9  O   UNL A   1      32.759  35.334  28.708  1.00  0.00    -0.269 OA
ATOM     10  C   UNL A   1      33.151  34.215  28.387  1.00  0.00     0.251 C 
ATOM     11  H   UNL A   1      31.745  34.014  26.984  1.00  0.00     0.163 HD
BRANCH  10  12
ATOM     12  C   UNL A   1      34.416  33.692  28.960  1.00  0.00     0.039 A 
ATOM     13  C   UNL A   1      34.418  32.804  30.034  1.00  0.00     0.014 A 
ATOM     14  C   UNL A   1      35.633  34.014  28.341  1.00  0.00     0.014 A 
ATOM     15  C   UNL A   1      35.621  32.358  30.574  1.00  0.00     0.010 A 
ATOM     16  C   UNL A   1      36.835  33.466  28.809  1.00  0.00     0.010 A 
ATOM     17  C   UNL A   1      36.842  32.644  29.944  1.00  0.00    -0.014 A 
BRANCH  17  18
ATOM     18  C   UNL A   1      38.078  31.984  30.448  1.00  0.00     0.031 A 
ATOM     19  C   UNL A   1      38.592  30.706  29.846  1.00  0.00     0.074 A 
ATOM     20  C   UNL A   1      38.770  32.588  31.437  1.00  0.00     0.049 A 
ATOM     21  N   UNL A   1      39.690  30.049  30.129  1.00  0.00    -0.248 NA
ATOM     22  C   UNL A   1      37.769  30.075  28.804  1.00  0.00     0.031 C 
ATOM     23  C   UNL A   1      38.364  33.822  32.118  1.00  0.00     0.029 A 
ATOM     24  N   UNL A   1      39.977  32.280  32.012  1.00  0.00    -0.354 N 
ATOM     25  C   UNL A   1      39.674  28.916  29.325  1.00  0.00     0.074 A 
ATOM     26  C   UNL A   1      38.448  28.963  28.557  1.00  0.00     0.031 C 
ATOM     27  C   UNL A   1      39.344  34.216  32.942  1.00  0.00     0.029 A 
ATOM     28  C   UNL A   1      40.410  33.222  32.914  1.00  0.00     0.049 A 
ATOM     29  H   UNL A   1      40.484  31.463  31.798  1.00  0.00     0.167 HD
ATOM     30  C   UNL A   1      40.599  27.928  29.234  1.00  0.00     0.031 A 
ATOM     31  C   UNL A   1      41.536  33.284  33.647  1.00  0.00     0.031 A 
ATOM     32  C   UNL A   1      41.825  27.891  29.990  1.00  0.00     0.049 A 
ATOM     33  C   UNL A   1      42.540  32.178  33.526  1.00  0.00     0.074 A 
ATOM     34  C   UNL A   1      42.838  26.948  29.948  1.00  0.00     0.029 A 
ATOM     35  N   UNL A   1      42.205  28.843  30.925  1.00  0.00    -0.354 N 
ATOM     36  N   UNL A   1      42.517  31.127  32.743  1.00  0.00    -0.248 NA
ATOM     37  C   UNL A   1      43.723  32.265  34.391  1.00  0.00     0.031 C 
ATOM     38  C   UNL A   1      43.807  27.302  30.893  1.00  0.00     0.029 A 
ATOM     39  C   UNL A   1      43.426  28.499  31.481  1.00  0.00     0.049 A 
ATOM     40  H   UNL A   1      41.684  29.645  31.159  1.00  0.00     0.167 HD
ATOM     41  C   UNL A   1      43.690  30.435  33.008  1.00  0.00     0.074 A 
ATOM     42  C   UNL A   1      44.412  31.200  34.006  1.00  0.00     0.031 C 
ATOM     43  C   UNL A   1      44.129  29.269  32.475  1.00  0.00     0.031 A 
BRANCH  30  44
ATOM     44  C   UNL A   1      40.301  26.780  28.306  1.00  0.00    -0.014 A 
ATOM     45  C   UNL A   1      39.501  25.698  28.706  1.00  0.00     0.009 A 
ATOM     46  C   UNL A   1      40.804  26.801  26.996  1.00  0.00     0.009 A 
ATOM     47  C   UNL A   1      39.243  24.644  27.826  1.00  0.00     0.001 A 
ATOM     48  C   UNL A   1      40.521  25.760  26.108  1.00  0.00     0.001 A 
ATOM     49  C   UNL A   1      39.750  24.678  26.527  1.00  0.00     0.000 A 
ENDBRANCH  30  44
BRANCH  31  50
ATOM     50  C   UNL A   1      41.768  34.433  34.563  1.00  0.00    -0.014 A 
ATOM     51  C   UNL A   1      41.404  34.355  35.916  1.00  0.00     0.009 A 
ATOM     52  C   UNL A   1      42.365  35.612  34.089  1.00  0.00     0.009 A 
ATOM     53  C   UNL A   1      41.615  35.441  36.770  1.00  0.00     0.001 A 
ATOM     54  C   UNL A   1      42.603  36.684  34.951  1.00  0.00     0.001 A 
ATOM     55  C   UNL A   1      42.220  36.602  36.288  1.00  0.00     0.000 A 
ENDBRANCH  31  50
BRANCH  43  56
ATOM     56  C   UNL A   1      45.471  28.778  32.936  1.00  0.00    -0.014 A 
ATOM     57  C   UNL A   1      46.654  29.164  32.287  1.00  0.00     0.009 A 
ATOM     58  C   UNL A   1      45.551  27.923  34.046  1.00  0.00     0.009 A 
ATOM     59  C   UNL A   1      47.887  28.668  32.715  1.00  0.00     0.001 A 
ATOM     60  C   UNL A   1      46.787  27.453  34.491  1.00  0.00     0.001 A 
ATOM     61  C   UNL A   1      47.952  27.816  33.817  1.00  0.00     0.000 A 
ENDBRANCH  43  56
ENDBRANCH  17  18
ENDBRANCH  10  12
ENDBRANCH   7   8
ENDBRANCH   6   7
ENDBRANCH   5   6
ENDBRANCH   1   5
BRANCH   2  62
ATOM     62  C   UNL A   1      31.134  26.675  25.884  1.00  0.00     0.081 A 
ATOM     63  C   UNL A   1      30.999  27.030  24.496  1.00  0.00     0.018 A 
ATOM     64  C   UNL A   1      31.040  25.285  26.119  1.00  0.00     0.132 A 
ATOM     65  C   UNL A   1      30.721  26.140  23.452  1.00  0.00     0.001 A 
ATOM     66  C   UNL A   1      30.652  24.404  25.061  1.00  0.00     0.047 A 
ATOM     67  C   UNL A   1      30.501  24.816  23.744  1.00  0.00     0.004 A 
BRANCH  64  68
ATOM     68  O   UNL A   1      31.376  24.472  27.170  1.00  0.00    -0.492 OA
BRANCH  68  69
ATOM     69  C   UNL A   1      31.631  23.114  26.959  1.00  0.00     0.243 C 
BRANCH  69  70
ATOM     70  C   UNL A   1      32.892  22.530  27.550  1.00  0.00     0.152 C 
BRANCH  70  71
ATOM     71  S   UNL A   1      33.770  21.350  26.448  1.00  0.00     0.056 S 
ATOM     72  O   UNL A   1      32.707  20.563  25.737  1.00  0.00    -0.254 OA
BRANCH  71  73
ATOM     73  C   UNL A   1      34.283  22.627  25.282  1.00  0.00     0.042 A 
ATOM     74  C   UNL A   1      34.653  23.883  25.767  1.00  0.00     0.018 A 
ATOM     75  C   UNL A   1      34.008  22.448  23.925  1.00  0.00     0.057 A 
ATOM     76  C   UNL A   1      34.569  24.995  24.933  1.00  0.00     0.004 A 
ATOM     77  C   UNL A   1      33.904  23.563  23.113  1.00  0.00     0.124 A 
ATOM     78  C   UNL A   1      34.149  24.838  23.612  1.00  0.00     0.039 A 
ATOM     79  F   UNL A   1      33.467  23.415  21.856  1.00  0.00    -0.207 F 
ENDBRANCH  71  73
ENDBRANCH  70  71
ENDBRANCH  69  70
ENDBRANCH  68  69
ENDBRANCH  64  68
ENDBRANCH   2  62
TORSDOF 15
ENDMDL
MODEL 3
REMARK VINA RESULT:     -10.8      3.692      7.662
REMARK SMILES O=C(NCCCNC(=O)c1ccccc1OCC[S@@](=O)c1cccc(F)c1)c1ccc(-c2c3nc(c(-c4ccccc4)c4ccc([nH]4)c(-c4ccccc4)c4nc(c(-c5ccccc5)c5ccc2[nH]5)C=C4)C=C3)cc1
REMARK SMILES IDX 7 1 8 2 9 3 6 5 5 6 4 7 3 8 1 9 2 10 28 12 29 13 75 14 30 15
REMARK SMILES IDX 74 16 31 17 32 18 33 19 68 20 34 21 73 22 67 23 69 24 35 25
REMARK SMILES IDX 72 26 66 27 65 28 36 30 58 31 43 32 57 33 44 34 47 35 56 36
REMARK SMILES IDX 70 37 45 38 46 39 55 41 71 42 48 43 37 44 38 45 42 46 39 47
REMARK SMILES IDX 41 48 40 49 59 50 60 51 64 52 61 53 63 54 62 55 49 56 50 57
REMARK SMILES IDX 54 58 51 59 53 60 52 61 10 62 11 63 15 64 12 65 14 66 13 67
REMARK SMILES IDX 16 68 17 69 18 70 19 71 20 72 21 73 22 74 27 75 23 76 25 77
REMARK SMILES IDX 24 78 26 79
REMARK H PARENT 7 4 3 11 69 29 47 40
REMARK Flexibility Score: inf
ROOT
ATOM      1  N   UNL A   1      31.082  27.096  27.222  1.00  0.00    -0.352 N 
ATOM      2  C   UNL A   1      31.524  25.945  26.634  1.00  0.00     0.255 C 
ATOM      3  O   UNL A   1      30.536  25.194  26.511  1.00  0.00    -0.269 OA
ATOM      4  H   UNL A   1      30.147  26.929  27.478  1.00  0.00     0.163 HD
ENDROOT
BRANCH   1   5
ATOM      5  C   UNL A   1      31.381  28.471  27.641  1.00  0.00     0.118 C 
BRANCH   5   6
ATOM      6  C   UNL A   1      32.390  29.093  26.660  1.00  0.00     0.042 C 
BRANCH   6   7
ATOM      7  C   UNL A   1      33.809  29.167  27.218  1.00  0.00     0.118 C 
BRANCH   7   8
ATOM      8  N   UNL A   1      34.006  30.381  27.998  1.00  0.00    -0.352 N 
ATOM      9  O   UNL A   1      34.846  31.686  29.614  1.00  0.00    -0.269 OA
ATOM     10  C   UNL A   1      35.038  30.769  28.820  1.00  0.00     0.251 C 
ATOM     11  H   UNL A   1      33.276  31.037  27.923  1.00  0.00     0.163 HD
BRANCH  10  12
ATOM     12  C   UNL A   1      36.371  30.115  28.770  1.00  0.00     0.039 A 
ATOM     13  C   UNL A   1      37.188  30.212  27.646  1.00  0.00     0.014 A 
ATOM     14  C   UNL A   1      36.863  29.475  29.917  1.00  0.00     0.014 A 
ATOM     15  C   UNL A   1      38.417  29.558  27.613  1.00  0.00     0.010 A 
ATOM     16  C   UNL A   1      38.151  28.924  29.924  1.00  0.00     0.010 A 
ATOM     17  C   UNL A   1      38.936  28.945  28.764  1.00  0.00    -0.014 A 
BRANCH  17  18
ATOM     18  C   UNL A   1      40.334  28.433  28.732  1.00  0.00     0.031 A 
ATOM     19  C   UNL A   1      40.647  27.019  28.332  1.00  0.00     0.074 A 
ATOM     20  C   UNL A   1      41.337  29.288  29.022  1.00  0.00     0.049 A 
ATOM     21  N   UNL A   1      41.818  26.446  28.188  1.00  0.00    -0.248 NA
ATOM     22  C   UNL A   1      39.508  26.125  28.073  1.00  0.00     0.031 C 
ATOM     23  C   UNL A   1      41.161  30.683  29.443  1.00  0.00     0.029 A 
ATOM     24  N   UNL A   1      42.699  29.134  28.965  1.00  0.00    -0.354 N 
ATOM     25  C   UNL A   1      41.556  25.123  27.853  1.00  0.00     0.074 A 
ATOM     26  C   UNL A   1      40.117  24.972  27.834  1.00  0.00     0.031 C 
ATOM     27  C   UNL A   1      42.359  31.279  29.511  1.00  0.00     0.029 A 
ATOM     28  C   UNL A   1      43.392  30.292  29.223  1.00  0.00     0.049 A 
ATOM     29  H   UNL A   1      43.137  28.276  28.759  1.00  0.00     0.167 HD
ATOM     30  C   UNL A   1      42.437  24.128  27.582  1.00  0.00     0.031 A 
ATOM     31  C   UNL A   1      44.714  30.541  29.233  1.00  0.00     0.031 A 
ATOM     32  C   UNL A   1      43.869  24.286  27.589  1.00  0.00     0.049 A 
ATOM     33  C   UNL A   1      45.664  29.421  28.931  1.00  0.00     0.074 A 
ATOM     34  C   UNL A   1      44.844  23.345  27.302  1.00  0.00     0.029 A 
ATOM     35  N   UNL A   1      44.532  25.465  27.897  1.00  0.00    -0.354 N 
ATOM     36  N   UNL A   1      45.396  28.183  28.593  1.00  0.00    -0.248 NA
ATOM     37  C   UNL A   1      47.096  29.732  29.014  1.00  0.00     0.031 C 
ATOM     38  C   UNL A   1      46.096  23.941  27.485  1.00  0.00     0.029 A 
ATOM     39  C   UNL A   1      45.902  25.270  27.828  1.00  0.00     0.049 A 
ATOM     40  H   UNL A   1      44.093  26.315  28.131  1.00  0.00     0.167 HD
ATOM     41  C   UNL A   1      46.627  27.570  28.406  1.00  0.00     0.074 A 
ATOM     42  C   UNL A   1      47.639  28.580  28.644  1.00  0.00     0.031 C 
ATOM     43  C   UNL A   1      46.895  26.285  28.071  1.00  0.00     0.031 A 
BRANCH  30  44
ATOM     44  C   UNL A   1      41.873  22.762  27.293  1.00  0.00    -0.014 A 
ATOM     45  C   UNL A   1      41.582  22.348  25.983  1.00  0.00     0.009 A 
ATOM     46  C   UNL A   1      41.662  21.862  28.349  1.00  0.00     0.009 A 
ATOM     47  C   UNL A   1      41.056  21.075  25.743  1.00  0.00     0.001 A 
ATOM     48  C   UNL A   1      41.163  20.580  28.104  1.00  0.00     0.001 A 
ATOM     49  C   UNL A   1      40.851  20.193  26.804  1.00  0.00     0.000 A 
ENDBRANCH  30  44
BRANCH  31  50
ATOM     50  C   UNL A   1      45.214  31.907  29.546  1.00  0.00    -0.014 A 
ATOM     51  C   UNL A   1      45.297  32.886  28.544  1.00  0.00     0.009 A 
ATOM     52  C   UNL A   1      45.601  32.241  30.854  1.00  0.00     0.009 A 
ATOM     53  C   UNL A   1      45.777  34.164  28.842  1.00  0.00     0.001 A 
ATOM     54  C   UNL A   1      46.049  33.528  31.155  1.00  0.00     0.001 A 
ATOM     55  C   UNL A   1      46.145  34.486  30.148  1.00  0.00     0.000 A 
ENDBRANCH  31  50
BRANCH  43  56
ATOM     56  C   UNL A   1      48.341  25.918  27.903  1.00  0.00    -0.014 A 
ATOM     57  C   UNL A   1      48.939  25.861  26.635  1.00  0.00     0.009 A 
ATOM     58  C   UNL A   1      49.119  25.635  29.036  1.00  0.00     0.009 A 
ATOM     59  C   UNL A   1      50.277  25.485  26.502  1.00  0.00     0.001 A 
ATOM     60  C   UNL A   1      50.464  25.290  28.903  1.00  0.00     0.001 A 
ATOM     61  C   UNL A   1      51.038  25.203  27.636  1.00  0.00     0.000 A 
ENDBRANCH  43  56
ENDBRANCH  17  18
ENDBRANCH  10  12
ENDBRANCH   7   8
ENDBRANCH   6   7
ENDBRANCH   5   6
ENDBRANCH   1   5
BRANCH   2  62
ATOM     62  C   UNL A   1      32.863  25.362  26.166  1.00  0.00     0.081 A 
ATOM     63  C   UNL A   1      32.979  24.016  26.662  1.00  0.00     0.018 A 
ATOM     64  C   UNL A   1      33.952  25.759  25.360  1.00  0.00     0.132 A 
ATOM     65  C   UNL A   1      34.076  23.169  26.464  1.00  0.00     0.001 A 
ATOM     66  C   UNL A   1      35.109  24.924  25.256  1.00  0.00     0.047 A 
ATOM     67  C   UNL A   1      35.174  23.644  25.790  1.00  0.00     0.004 A 
BRANCH  64  68
ATOM     68  O   UNL A   1      34.156  26.781  24.469  1.00  0.00    -0.492 OA
BRANCH  68  69
ATOM     69  C   UNL A   1      33.132  27.181  23.606  1.00  0.00     0.243 C 
BRANCH  69  70
ATOM     70  C   UNL A   1      33.377  27.072  22.119  1.00  0.00     0.152 C 
BRANCH  70  71
ATOM     71  S   UNL A   1      32.212  25.955  21.240  1.00  0.00     0.056 S 
ATOM     72  O   UNL A   1      32.902  25.534  19.974  1.00  0.00    -0.254 OA
BRANCH  71  73
ATOM     73  C   UNL A   1      32.453  24.591  22.395  1.00  0.00     0.042 A 
ATOM     74  C   UNL A   1      33.491  23.684  22.172  1.00  0.00     0.018 A 
ATOM     75  C   UNL A   1      31.432  24.285  23.297  1.00  0.00     0.057 A 
ATOM     76  C   UNL A   1      33.413  22.401  22.707  1.00  0.00     0.004 A 
ATOM     77  C   UNL A   1      31.351  23.001  23.803  1.00  0.00     0.124 A 
ATOM     78  C   UNL A   1      32.313  22.046  23.489  1.00  0.00     0.039 A 
ATOM     79  F   UNL A   1      30.279  22.650  24.524  1.00  0.00    -0.207 F 
ENDBRANCH  71  73
ENDBRANCH  70  71
ENDBRANCH  69  70
ENDBRANCH  68  69
ENDBRANCH  64  68
ENDBRANCH   2  62
TORSDOF 15
ENDMDL
