MODEL 1
REMARK VINA RESULT:     -13.5      0.000      0.000
REMARK SMILES Cc1ccc(C(=O)NCCCNC(=O)c2ccc(-c3c4nc(c(-c5ccccc5)c5ccc([nH]5)c(-c5ccccc5)c5nc(c(-c6ccccc6)c6ccc3[nH]6)C=C5)C=C4)cc2)c(NC(=O)CN2C(=O)/C(=C/c3ccccc3C)SC2=S)c1
REMARK SMILES IDX 9 1 8 2 6 3 7 4 5 6 1 7 2 8 3 9 83 10 4 11 63 12 64 13 65 14
REMARK SMILES IDX 66 16 67 17 68 18 69 19 81 20 70 21 71 22 80 23 82 24 72 25
REMARK SMILES IDX 73 26 74 27 78 28 75 29 77 30 79 31 76 32 10 33 11 34 12 35
REMARK SMILES IDX 13 36 14 38 15 39 16 40 62 41 17 42 61 43 18 44 19 45 20 46
REMARK SMILES IDX 55 47 21 48 60 49 54 50 56 51 22 52 59 53 53 54 52 55 23 57
REMARK SMILES IDX 45 58 30 59 44 60 31 61 34 62 43 63 57 64 32 65 33 66 42 68
REMARK SMILES IDX 58 69 35 70 24 71 25 72 29 73 26 74 28 75 27 76 46 77 47 78
REMARK SMILES IDX 51 79 48 80 50 81 49 82 36 83 37 84 41 85 38 86 40 87 39 88
REMARK H PARENT 8 5 64 15 12 37 56 56 34 67
REMARK Flexibility Score: inf
ROOT
ATOM      1  C   UNL A   1      33.769  28.050  26.129  1.00  0.00     0.118 C 
ENDROOT
BRANCH   1   2
ATOM      2  N   UNL A   1      34.041  28.828  24.929  1.00  0.00    -0.352 N 
ATOM      3  C   UNL A   1      33.319  29.006  23.769  1.00  0.00     0.253 C 
ATOM      4  O   UNL A   1      33.905  29.334  22.742  1.00  0.00    -0.269 OA
ATOM      5  H   UNL A   1      34.895  29.317  24.950  1.00  0.00     0.163 HD
BRANCH   3   6
ATOM      6  C   UNL A   1      31.884  28.743  23.630  1.00  0.00     0.063 A 
ATOM      7  C   UNL A   1      28.734  31.072  22.178  1.00  0.00     0.044 C 
ATOM      8  C   UNL A   1      29.644  30.031  22.760  1.00  0.00    -0.049 A 
ATOM      9  C   UNL A   1      29.968  30.114  24.111  1.00  0.00     0.004 A 
ATOM     10  C   UNL A   1      30.238  29.019  21.978  1.00  0.00     0.030 A 
ATOM     11  C   UNL A   1      31.105  29.465  24.551  1.00  0.00     0.016 A 
ATOM     12  C   UNL A   1      31.331  28.273  22.463  1.00  0.00     0.054 A 
BRANCH  12  13
ATOM     13  N   UNL A   1      31.845  27.241  21.657  1.00  0.00    -0.324 N 
ATOM     14  C   UNL A   1      32.328  25.980  21.784  1.00  0.00     0.244 C 
ATOM     15  H   UNL A   1      31.857  27.519  20.713  1.00  0.00     0.170 HD
ATOM     16  O   UNL A   1      32.834  25.591  20.706  1.00  0.00    -0.273 OA
BRANCH  14  17
ATOM     17  C   UNL A   1      32.167  24.877  22.874  1.00  0.00     0.227 C 
BRANCH  17  18
ATOM     18  N   UNL A   1      33.081  24.251  23.837  1.00  0.00    -0.283 N 
ATOM     19  C   UNL A   1      34.055  23.371  23.382  1.00  0.00     0.266 C 
ATOM     20  C   UNL A   1      32.856  24.198  25.201  1.00  0.00     0.148 C 
ATOM     21  O   UNL A   1      34.256  23.051  22.215  1.00  0.00    -0.268 OA
ATOM     22  C   UNL A   1      34.906  22.905  24.529  1.00  0.00     0.081 C 
ATOM     23  S   UNL A   1      34.031  23.134  25.980  1.00  0.00    -0.054 SA
ATOM     24  S   UNL A   1      31.655  24.947  26.086  1.00  0.00    -0.052 S 
ATOM     25  C   UNL A   1      36.218  22.668  24.332  1.00  0.00     0.029 C 
BRANCH  25  26
ATOM     26  C   UNL A   1      37.376  22.641  25.272  1.00  0.00    -0.021 A 
ATOM     27  C   UNL A   1      37.836  23.826  25.880  1.00  0.00     0.008 A 
ATOM     28  C   UNL A   1      38.177  21.484  25.425  1.00  0.00    -0.044 A 
ATOM     29  C   UNL A   1      38.974  23.854  26.694  1.00  0.00     0.001 A 
ATOM     30  C   UNL A   1      39.312  21.520  26.267  1.00  0.00     0.004 A 
ATOM     31  C   UNL A   1      37.881  20.173  24.743  1.00  0.00     0.045 C 
ATOM     32  C   UNL A   1      39.703  22.695  26.902  1.00  0.00     0.000 A 
ENDBRANCH  25  26
ENDBRANCH  17  18
ENDBRANCH  14  17
ENDBRANCH  12  13
ENDBRANCH   3   6
ENDBRANCH   1   2
BRANCH   1  33
ATOM     33  C   UNL A   1      33.709  28.893  27.404  1.00  0.00     0.042 C 
BRANCH  33  34
ATOM     34  C   UNL A   1      33.831  30.401  27.147  1.00  0.00     0.118 C 
BRANCH  34  35
ATOM     35  N   UNL A   1      34.115  31.126  28.395  1.00  0.00    -0.352 N 
ATOM     36  C   UNL A   1      35.255  31.205  29.164  1.00  0.00     0.251 C 
ATOM     37  H   UNL A   1      33.356  31.647  28.743  1.00  0.00     0.163 HD
ATOM     38  O   UNL A   1      35.361  32.078  30.021  1.00  0.00    -0.269 OA
BRANCH  36  39
ATOM     39  C   UNL A   1      36.385  30.298  28.898  1.00  0.00     0.039 A 
ATOM     40  C   UNL A   1      36.749  29.363  29.874  1.00  0.00     0.014 A 
ATOM     41  C   UNL A   1      37.164  30.476  27.759  1.00  0.00     0.014 A 
ATOM     42  C   UNL A   1      38.016  28.790  29.825  1.00  0.00     0.010 A 
ATOM     43  C   UNL A   1      38.452  29.977  27.752  1.00  0.00     0.010 A 
ATOM     44  C   UNL A   1      38.897  29.193  28.820  1.00  0.00    -0.014 A 
BRANCH  44  45
ATOM     45  C   UNL A   1      40.328  28.925  28.878  1.00  0.00     0.031 A 
ATOM     46  C   UNL A   1      40.882  27.727  28.228  1.00  0.00     0.074 A 
ATOM     47  C   UNL A   1      41.151  29.756  29.555  1.00  0.00     0.049 A 
ATOM     48  N   UNL A   1      41.861  27.029  28.702  1.00  0.00    -0.248 NA
ATOM     49  C   UNL A   1      40.317  27.189  26.997  1.00  0.00     0.031 C 
ATOM     50  C   UNL A   1      42.610  29.727  29.581  1.00  0.00     0.029 A 
ATOM     51  N   UNL A   1      40.812  30.663  30.561  1.00  0.00    -0.354 N 
ATOM     52  C   UNL A   1      42.238  26.147  27.715  1.00  0.00     0.074 A 
ATOM     53  C   UNL A   1      41.190  26.217  26.720  1.00  0.00     0.031 C 
ATOM     54  C   UNL A   1      43.027  30.310  30.718  1.00  0.00     0.029 A 
ATOM     55  C   UNL A   1      41.845  30.615  31.509  1.00  0.00     0.049 A 
ATOM     56  H   UNL A   1      40.006  31.227  30.597  1.00  0.00     0.167 HD
ATOM     57  C   UNL A   1      43.471  25.568  27.750  1.00  0.00     0.031 A 
ATOM     58  C   UNL A   1      41.657  30.293  32.822  1.00  0.00     0.031 A 
ATOM     59  C   UNL A   1      44.242  25.983  28.920  1.00  0.00     0.049 A 
ATOM     60  C   UNL A   1      42.498  29.120  33.274  1.00  0.00     0.074 A 
ATOM     61  C   UNL A   1      45.226  26.944  29.087  1.00  0.00     0.029 A 
ATOM     62  N   UNL A   1      43.840  25.601  30.193  1.00  0.00    -0.354 N 
ATOM     63  N   UNL A   1      43.076  28.284  32.458  1.00  0.00    -0.248 NA
ATOM     64  C   UNL A   1      42.659  28.738  34.675  1.00  0.00     0.031 C 
ATOM     65  C   UNL A   1      45.370  27.187  30.474  1.00  0.00     0.029 A 
ATOM     66  C   UNL A   1      44.493  26.357  31.149  1.00  0.00     0.049 A 
ATOM     67  H   UNL A   1      43.183  24.895  30.387  1.00  0.00     0.167 HD
ATOM     68  C   UNL A   1      43.620  27.252  33.178  1.00  0.00     0.074 A 
ATOM     69  C   UNL A   1      43.357  27.595  34.563  1.00  0.00     0.031 C 
ATOM     70  C   UNL A   1      44.202  26.182  32.565  1.00  0.00     0.031 A 
BRANCH  57  71
ATOM     71  C   UNL A   1      44.093  24.898  26.546  1.00  0.00    -0.014 A 
ATOM     72  C   UNL A   1      43.382  23.889  25.867  1.00  0.00     0.009 A 
ATOM     73  C   UNL A   1      45.384  25.171  26.065  1.00  0.00     0.009 A 
ATOM     74  C   UNL A   1      43.968  23.119  24.854  1.00  0.00     0.001 A 
ATOM     75  C   UNL A   1      45.993  24.376  25.082  1.00  0.00     0.001 A 
ATOM     76  C   UNL A   1      45.289  23.340  24.486  1.00  0.00     0.000 A 
ENDBRANCH  57  71
BRANCH  58  77
ATOM     77  C   UNL A   1      40.274  30.528  33.316  1.00  0.00    -0.014 A 
ATOM     78  C   UNL A   1      39.810  31.854  33.418  1.00  0.00     0.009 A 
ATOM     79  C   UNL A   1      39.337  29.484  33.297  1.00  0.00     0.009 A 
ATOM     80  C   UNL A   1      38.441  32.131  33.366  1.00  0.00     0.001 A 
ATOM     81  C   UNL A   1      37.968  29.768  33.263  1.00  0.00     0.001 A 
ATOM     82  C   UNL A   1      37.525  31.089  33.254  1.00  0.00     0.000 A 
ENDBRANCH  58  77
BRANCH  70  83
ATOM     83  C   UNL A   1      44.617  24.903  33.243  1.00  0.00    -0.014 A 
ATOM     84  C   UNL A   1      43.801  23.768  33.354  1.00  0.00     0.009 A 
ATOM     85  C   UNL A   1      45.949  24.772  33.696  1.00  0.00     0.009 A 
ATOM     86  C   UNL A   1      44.272  22.585  33.940  1.00  0.00     0.001 A 
ATOM     87  C   UNL A   1      46.436  23.580  34.238  1.00  0.00     0.001 A 
ATOM     88  C   UNL A   1      45.590  22.488  34.374  1.00  0.00     0.000 A 
ENDBRANCH  70  83
ENDBRANCH  44  45
ENDBRANCH  36  39
ENDBRANCH  34  35
ENDBRANCH  33  34
ENDBRANCH   1  33
TORSDOF 14
ENDMDL
MODEL 2
REMARK VINA RESULT:     -13.4      2.216      3.062
REMARK SMILES Cc1ccc(C(=O)NCCCNC(=O)c2ccc(-c3c4nc(c(-c5ccccc5)c5ccc([nH]5)c(-c5ccccc5)c5nc(c(-c6ccccc6)c6ccc3[nH]6)C=C5)C=C4)cc2)c(NC(=O)CN2C(=O)/C(=C/c3ccccc3C)SC2=S)c1
REMARK SMILES IDX 9 1 8 2 6 3 7 4 5 6 1 7 2 8 3 9 83 10 4 11 63 12 64 13 65 14
REMARK SMILES IDX 66 16 67 17 68 18 69 19 81 20 70 21 71 22 80 23 82 24 72 25
REMARK SMILES IDX 73 26 74 27 78 28 75 29 77 30 79 31 76 32 10 33 11 34 12 35
REMARK SMILES IDX 13 36 14 38 15 39 16 40 62 41 17 42 61 43 18 44 19 45 20 46
REMARK SMILES IDX 55 47 21 48 60 49 54 50 56 51 22 52 59 53 53 54 52 55 23 57
REMARK SMILES IDX 45 58 30 59 44 60 31 61 34 62 43 63 57 64 32 65 33 66 42 68
REMARK SMILES IDX 58 69 35 70 24 71 25 72 29 73 26 74 28 75 27 76 46 77 47 78
REMARK SMILES IDX 51 79 48 80 50 81 49 82 36 83 37 84 41 85 38 86 40 87 39 88
REMARK H PARENT 8 5 64 15 12 37 56 56 34 67
REMARK Flexibility Score: inf
ROOT
ATOM      1  C   UNL A   1      33.808  28.371  26.587  1.00  0.00     0.118 C 
ENDROOT
BRANCH   1   2
ATOM      2  N   UNL A   1      34.135  28.900  25.270  1.00  0.00    -0.352 N 
ATOM      3  C   UNL A   1      33.488  28.803  24.058  1.00  0.00     0.253 C 
ATOM      4  O   UNL A   1      34.130  28.941  23.022  1.00  0.00    -0.269 OA
ATOM      5  H   UNL A   1      34.969  29.421  25.241  1.00  0.00     0.163 HD
BRANCH   3   6
ATOM      6  C   UNL A   1      32.075  28.451  23.892  1.00  0.00     0.063 A 
ATOM      7  C   UNL A   1      28.966  30.263  21.768  1.00  0.00     0.044 C 
ATOM      8  C   UNL A   1      29.864  29.416  22.621  1.00  0.00    -0.049 A 
ATOM      9  C   UNL A   1      30.089  29.806  23.937  1.00  0.00     0.004 A 
ATOM     10  C   UNL A   1      30.542  28.285  22.120  1.00  0.00     0.030 A 
ATOM     11  C   UNL A   1      31.211  29.321  24.579  1.00  0.00     0.016 A 
ATOM     12  C   UNL A   1      31.620  27.714  22.824  1.00  0.00     0.054 A 
BRANCH  12  13
ATOM     13  N   UNL A   1      32.221  26.555  22.300  1.00  0.00    -0.324 N 
ATOM     14  C   UNL A   1      32.839  25.429  22.735  1.00  0.00     0.244 C 
ATOM     15  H   UNL A   1      32.180  26.565  21.316  1.00  0.00     0.170 HD
ATOM     16  O   UNL A   1      33.356  24.811  21.777  1.00  0.00    -0.273 OA
BRANCH  14  17
ATOM     17  C   UNL A   1      32.823  24.655  24.088  1.00  0.00     0.227 C 
BRANCH  17  18
ATOM     18  N   UNL A   1      33.207  23.297  24.493  1.00  0.00    -0.283 N 
ATOM     19  C   UNL A   1      32.233  22.419  24.952  1.00  0.00     0.266 C 
ATOM     20  C   UNL A   1      34.504  22.908  24.776  1.00  0.00     0.148 C 
ATOM     21  O   UNL A   1      31.033  22.654  25.050  1.00  0.00    -0.268 OA
ATOM     22  C   UNL A   1      32.844  21.079  25.249  1.00  0.00     0.081 C 
ATOM     23  S   UNL A   1      34.524  21.292  25.486  1.00  0.00    -0.054 SA
ATOM     24  S   UNL A   1      35.917  23.771  24.564  1.00  0.00    -0.052 S 
ATOM     25  C   UNL A   1      32.132  19.957  25.024  1.00  0.00     0.029 C 
BRANCH  25  26
ATOM     26  C   UNL A   1      32.548  18.545  24.785  1.00  0.00    -0.021 A 
ATOM     27  C   UNL A   1      32.914  17.712  25.862  1.00  0.00     0.008 A 
ATOM     28  C   UNL A   1      32.791  18.057  23.479  1.00  0.00    -0.044 A 
ATOM     29  C   UNL A   1      33.397  16.413  25.669  1.00  0.00     0.001 A 
ATOM     30  C   UNL A   1      33.258  16.736  23.298  1.00  0.00     0.004 A 
ATOM     31  C   UNL A   1      32.561  18.872  22.233  1.00  0.00     0.045 C 
ATOM     32  C   UNL A   1      33.552  15.918  24.385  1.00  0.00     0.000 A 
ENDBRANCH  25  26
ENDBRANCH  17  18
ENDBRANCH  14  17
ENDBRANCH  12  13
ENDBRANCH   3   6
ENDBRANCH   1   2
BRANCH   1  33
ATOM     33  C   UNL A   1      33.609  29.456  27.648  1.00  0.00     0.042 C 
BRANCH  33  34
ATOM     34  C   UNL A   1      34.366  30.755  27.345  1.00  0.00     0.118 C 
BRANCH  34  35
ATOM     35  N   UNL A   1      34.909  31.347  28.577  1.00  0.00    -0.352 N 
ATOM     36  C   UNL A   1      36.072  31.097  29.273  1.00  0.00     0.251 C 
ATOM     37  H   UNL A   1      34.341  32.045  28.976  1.00  0.00     0.163 HD
ATOM     38  O   UNL A   1      36.461  31.889  30.128  1.00  0.00    -0.269 OA
BRANCH  36  39
ATOM     39  C   UNL A   1      36.897  29.926  28.929  1.00  0.00     0.039 A 
ATOM     40  C   UNL A   1      37.176  28.979  29.922  1.00  0.00     0.014 A 
ATOM     41  C   UNL A   1      37.505  29.848  27.681  1.00  0.00     0.014 A 
ATOM     42  C   UNL A   1      38.246  28.106  29.744  1.00  0.00     0.010 A 
ATOM     43  C   UNL A   1      38.619  29.044  27.535  1.00  0.00     0.010 A 
ATOM     44  C   UNL A   1      39.028  28.228  28.593  1.00  0.00    -0.014 A 
BRANCH  44  45
ATOM     45  C   UNL A   1      40.344  27.616  28.472  1.00  0.00     0.031 A 
ATOM     46  C   UNL A   1      40.466  26.164  28.262  1.00  0.00     0.074 A 
ATOM     47  C   UNL A   1      41.460  28.370  28.583  1.00  0.00     0.049 A 
ATOM     48  N   UNL A   1      41.400  25.432  28.774  1.00  0.00    -0.248 NA
ATOM     49  C   UNL A   1      39.487  25.414  27.487  1.00  0.00     0.031 C 
ATOM     50  C   UNL A   1      42.836  27.953  28.332  1.00  0.00     0.029 A 
ATOM     51  N   UNL A   1      41.590  29.622  29.186  1.00  0.00    -0.354 N 
ATOM     52  C   UNL A   1      41.316  24.197  28.170  1.00  0.00     0.074 A 
ATOM     53  C   UNL A   1      40.057  24.206  27.458  1.00  0.00     0.031 C 
ATOM     54  C   UNL A   1      43.658  28.752  29.033  1.00  0.00     0.029 A 
ATOM     55  C   UNL A   1      42.825  29.621  29.851  1.00  0.00     0.049 A 
ATOM     56  H   UNL A   1      40.941  30.361  29.150  1.00  0.00     0.167 HD
ATOM     57  C   UNL A   1      42.385  23.352  28.192  1.00  0.00     0.031 A 
ATOM     58  C   UNL A   1      42.967  29.833  31.191  1.00  0.00     0.031 A 
ATOM     59  C   UNL A   1      43.519  23.915  28.921  1.00  0.00     0.049 A 
ATOM     60  C   UNL A   1      43.680  28.704  31.901  1.00  0.00     0.074 A 
ATOM     61  C   UNL A   1      44.664  24.567  28.492  1.00  0.00     0.029 A 
ATOM     62  N   UNL A   1      43.437  24.119  30.292  1.00  0.00    -0.354 N 
ATOM     63  N   UNL A   1      43.842  27.515  31.393  1.00  0.00    -0.248 NA
ATOM     64  C   UNL A   1      44.164  28.796  33.277  1.00  0.00     0.031 C 
ATOM     65  C   UNL A   1      45.239  25.221  29.608  1.00  0.00     0.029 A 
ATOM     66  C   UNL A   1      44.460  24.946  30.716  1.00  0.00     0.049 A 
ATOM     67  H   UNL A   1      42.748  23.730  30.878  1.00  0.00     0.167 HD
ATOM     68  C   UNL A   1      44.376  26.685  32.344  1.00  0.00     0.074 A 
ATOM     69  C   UNL A   1      44.587  27.540  33.498  1.00  0.00     0.031 C 
ATOM     70  C   UNL A   1      44.560  25.354  32.111  1.00  0.00     0.031 A 
BRANCH  57  71
ATOM     71  C   UNL A   1      42.507  22.167  27.261  1.00  0.00    -0.014 A 
ATOM     72  C   UNL A   1      41.734  21.014  27.498  1.00  0.00     0.009 A 
ATOM     73  C   UNL A   1      43.394  22.100  26.175  1.00  0.00     0.009 A 
ATOM     74  C   UNL A   1      41.924  19.829  26.776  1.00  0.00     0.001 A 
ATOM     75  C   UNL A   1      43.622  20.906  25.475  1.00  0.00     0.001 A 
ATOM     76  C   UNL A   1      42.896  19.765  25.786  1.00  0.00     0.000 A 
ENDBRANCH  57  71
BRANCH  58  77
ATOM     77  C   UNL A   1      41.847  30.592  31.811  1.00  0.00    -0.014 A 
ATOM     78  C   UNL A   1      41.800  31.988  31.634  1.00  0.00     0.009 A 
ATOM     79  C   UNL A   1      40.681  29.920  32.206  1.00  0.00     0.009 A 
ATOM     80  C   UNL A   1      40.583  32.672  31.719  1.00  0.00     0.001 A 
ATOM     81  C   UNL A   1      39.470  30.614  32.307  1.00  0.00     0.001 A 
ATOM     82  C   UNL A   1      39.416  31.977  32.022  1.00  0.00     0.000 A 
ENDBRANCH  58  77
BRANCH  70  83
ATOM     83  C   UNL A   1      44.918  24.323  33.149  1.00  0.00    -0.014 A 
ATOM     84  C   UNL A   1      46.152  24.267  33.811  1.00  0.00     0.009 A 
ATOM     85  C   UNL A   1      43.922  23.422  33.587  1.00  0.00     0.009 A 
ATOM     86  C   UNL A   1      46.398  23.322  34.817  1.00  0.00     0.001 A 
ATOM     87  C   UNL A   1      44.148  22.510  34.620  1.00  0.00     0.001 A 
ATOM     88  C   UNL A   1      45.395  22.450  35.226  1.00  0.00     0.000 A 
ENDBRANCH  70  83
ENDBRANCH  44  45
ENDBRANCH  36  39
ENDBRANCH  34  35
ENDBRANCH  33  34
ENDBRANCH   1  33
TORSDOF 14
ENDMDL
MODEL 3
REMARK VINA RESULT:     -13.2      2.974      8.758
REMARK SMILES Cc1ccc(C(=O)NCCCNC(=O)c2ccc(-c3c4nc(c(-c5ccccc5)c5ccc([nH]5)c(-c5ccccc5)c5nc(c(-c6ccccc6)c6ccc3[nH]6)C=C5)C=C4)cc2)c(NC(=O)CN2C(=O)/C(=C/c3ccccc3C)SC2=S)c1
REMARK SMILES IDX 9 1 8 2 6 3 7 4 5 6 1 7 2 8 3 9 83 10 4 11 63 12 64 13 65 14
REMARK SMILES IDX 66 16 67 17 68 18 69 19 81 20 70 21 71 22 80 23 82 24 72 25
REMARK SMILES IDX 73 26 74 27 78 28 75 29 77 30 79 31 76 32 10 33 11 34 12 35
REMARK SMILES IDX 13 36 14 38 15 39 16 40 62 41 17 42 61 43 18 44 19 45 20 46
REMARK SMILES IDX 55 47 21 48 60 49 54 50 56 51 22 52 59 53 53 54 52 55 23 57
REMARK SMILES IDX 45 58 30 59 44 60 31 61 34 62 43 63 57 64 32 65 33 66 42 68
REMARK SMILES IDX 58 69 35 70 24 71 25 72 29 73 26 74 28 75 27 76 46 77 47 78
REMARK SMILES IDX 51 79 48 80 50 81 49 82 36 83 37 84 41 85 38 86 40 87 39 88
REMARK H PARENT 8 5 64 15 12 37 56 56 34 67
REMARK Flexibility Score: inf
ROOT
ATOM      1  C   UNL A   1      36.676  23.681  25.467  1.00  0.00     0.118 C 
ENDROOT
BRANCH   1   2
ATOM      2  N   UNL A   1      35.979  22.877  26.460  1.00  0.00    -0.352 N 
ATOM      3  C   UNL A   1      35.142  21.790  26.336  1.00  0.00     0.253 C 
ATOM      4  O   UNL A   1      34.341  21.543  27.232  1.00  0.00    -0.269 OA
ATOM      5  H   UNL A   1      36.134  23.162  27.390  1.00  0.00     0.163 HD
BRANCH   3   6
ATOM      6  C   UNL A   1      35.062  20.930  25.153  1.00  0.00     0.063 A 
ATOM      7  C   UNL A   1      34.540  16.807  24.713  1.00  0.00     0.044 C 
ATOM      8  C   UNL A   1      34.751  18.285  24.565  1.00  0.00    -0.049 A 
ATOM      9  C   UNL A   1      36.044  18.786  24.682  1.00  0.00     0.004 A 
ATOM     10  C   UNL A   1      33.684  19.190  24.383  1.00  0.00     0.030 A 
ATOM     11  C   UNL A   1      36.201  20.124  24.985  1.00  0.00     0.016 A 
ATOM     12  C   UNL A   1      33.863  20.573  24.581  1.00  0.00     0.054 A 
BRANCH  12  13
ATOM     13  N   UNL A   1      32.775  21.430  24.332  1.00  0.00    -0.324 N 
ATOM     14  C   UNL A   1      32.514  22.756  24.218  1.00  0.00     0.244 C 
ATOM     15  H   UNL A   1      31.953  20.906  24.199  1.00  0.00     0.170 HD
ATOM     16  O   UNL A   1      31.280  22.959  24.171  1.00  0.00    -0.273 OA
BRANCH  14  17
ATOM     17  C   UNL A   1      33.401  23.997  23.899  1.00  0.00     0.227 C 
BRANCH  17  18
ATOM     18  N   UNL A   1      33.332  25.420  24.251  1.00  0.00    -0.283 N 
ATOM     19  C   UNL A   1      33.104  25.788  25.572  1.00  0.00     0.266 C 
ATOM     20  C   UNL A   1      33.143  26.440  23.335  1.00  0.00     0.148 C 
ATOM     21  O   UNL A   1      32.960  25.025  26.521  1.00  0.00    -0.268 OA
ATOM     22  C   UNL A   1      33.134  27.284  25.704  1.00  0.00     0.081 C 
ATOM     23  S   UNL A   1      32.842  27.969  24.164  1.00  0.00    -0.054 SA
ATOM     24  S   UNL A   1      33.131  26.350  21.668  1.00  0.00    -0.052 S 
ATOM     25  C   UNL A   1      33.627  27.843  26.826  1.00  0.00     0.029 C 
BRANCH  25  26
ATOM     26  C   UNL A   1      34.196  29.196  27.097  1.00  0.00    -0.021 A 
ATOM     27  C   UNL A   1      35.555  29.348  27.437  1.00  0.00     0.008 A 
ATOM     28  C   UNL A   1      33.365  30.334  27.228  1.00  0.00    -0.044 A 
ATOM     29  C   UNL A   1      36.102  30.588  27.786  1.00  0.00     0.001 A 
ATOM     30  C   UNL A   1      33.934  31.585  27.561  1.00  0.00     0.004 A 
ATOM     31  C   UNL A   1      31.874  30.303  27.013  1.00  0.00     0.045 C 
ATOM     32  C   UNL A   1      35.293  31.711  27.831  1.00  0.00     0.000 A 
ENDBRANCH  25  26
ENDBRANCH  17  18
ENDBRANCH  14  17
ENDBRANCH  12  13
ENDBRANCH   3   6
ENDBRANCH   1   2
BRANCH   1  33
ATOM     33  C   UNL A   1      38.197  23.682  25.638  1.00  0.00     0.042 C 
BRANCH  33  34
ATOM     34  C   UNL A   1      38.705  22.593  26.592  1.00  0.00     0.118 C 
BRANCH  34  35
ATOM     35  N   UNL A   1      39.660  21.704  25.914  1.00  0.00    -0.352 N 
ATOM     36  C   UNL A   1      41.029  21.583  26.021  1.00  0.00     0.251 C 
ATOM     37  H   UNL A   1      39.249  21.085  25.268  1.00  0.00     0.163 HD
ATOM     38  O   UNL A   1      41.598  20.596  25.563  1.00  0.00    -0.269 OA
BRANCH  36  39
ATOM     39  C   UNL A   1      41.799  22.595  26.765  1.00  0.00     0.039 A 
ATOM     40  C   UNL A   1      42.021  22.407  28.134  1.00  0.00     0.014 A 
ATOM     41  C   UNL A   1      42.166  23.783  26.142  1.00  0.00     0.014 A 
ATOM     42  C   UNL A   1      42.380  23.499  28.919  1.00  0.00     0.010 A 
ATOM     43  C   UNL A   1      42.439  24.886  26.927  1.00  0.00     0.010 A 
ATOM     44  C   UNL A   1      42.475  24.756  28.317  1.00  0.00    -0.014 A 
BRANCH  44  45
ATOM     45  C   UNL A   1      42.502  25.993  29.087  1.00  0.00     0.031 A 
ATOM     46  C   UNL A   1      41.335  26.888  29.087  1.00  0.00     0.074 A 
ATOM     47  C   UNL A   1      43.610  26.341  29.779  1.00  0.00     0.049 A 
ATOM     48  N   UNL A   1      41.408  28.178  29.110  1.00  0.00    -0.248 NA
ATOM     49  C   UNL A   1      39.973  26.377  29.001  1.00  0.00     0.031 C 
ATOM     50  C   UNL A   1      43.752  27.449  30.719  1.00  0.00     0.029 A 
ATOM     51  N   UNL A   1      44.917  25.892  29.584  1.00  0.00    -0.354 N 
ATOM     52  C   UNL A   1      40.134  28.647  29.336  1.00  0.00     0.074 A 
ATOM     53  C   UNL A   1      39.269  27.501  29.161  1.00  0.00     0.031 C 
ATOM     54  C   UNL A   1      45.049  27.793  30.777  1.00  0.00     0.029 A 
ATOM     55  C   UNL A   1      45.755  26.999  29.783  1.00  0.00     0.049 A 
ATOM     56  H   UNL A   1      45.196  24.977  29.352  1.00  0.00     0.167 HD
ATOM     57  C   UNL A   1      39.944  29.912  29.808  1.00  0.00     0.031 A 
ATOM     58  C   UNL A   1      46.615  27.481  28.839  1.00  0.00     0.031 A 
ATOM     59  C   UNL A   1      41.205  30.627  29.990  1.00  0.00     0.049 A 
ATOM     60  C   UNL A   1      46.382  28.940  28.511  1.00  0.00     0.074 A 
ATOM     61  C   UNL A   1      41.990  30.850  31.110  1.00  0.00     0.029 A 
ATOM     62  N   UNL A   1      41.978  30.972  28.889  1.00  0.00    -0.354 N 
ATOM     63  N   UNL A   1      45.293  29.587  28.814  1.00  0.00    -0.248 NA
ATOM     64  C   UNL A   1      47.312  29.745  27.721  1.00  0.00     0.031 C 
ATOM     65  C   UNL A   1      43.268  31.273  30.673  1.00  0.00     0.029 A 
ATOM     66  C   UNL A   1      43.251  31.331  29.291  1.00  0.00     0.049 A 
ATOM     67  H   UNL A   1      41.665  30.961  27.956  1.00  0.00     0.167 HD
ATOM     68  C   UNL A   1      45.330  30.831  28.238  1.00  0.00     0.074 A 
ATOM     69  C   UNL A   1      46.626  30.893  27.588  1.00  0.00     0.031 C 
ATOM     70  C   UNL A   1      44.270  31.685  28.313  1.00  0.00     0.031 A 
BRANCH  57  71
ATOM     71  C   UNL A   1      38.640  30.366  30.423  1.00  0.00    -0.014 A 
ATOM     72  C   UNL A   1      38.270  31.723  30.345  1.00  0.00     0.009 A 
ATOM     73  C   UNL A   1      37.764  29.530  31.134  1.00  0.00     0.009 A 
ATOM     74  C   UNL A   1      37.164  32.233  31.036  1.00  0.00     0.001 A 
ATOM     75  C   UNL A   1      36.680  30.039  31.864  1.00  0.00     0.001 A 
ATOM     76  C   UNL A   1      36.389  31.395  31.827  1.00  0.00     0.000 A 
ENDBRANCH  57  71
BRANCH  58  77
ATOM     77  C   UNL A   1      47.020  26.482  27.815  1.00  0.00    -0.014 A 
ATOM     78  C   UNL A   1      46.229  26.342  26.659  1.00  0.00     0.009 A 
ATOM     79  C   UNL A   1      48.334  25.989  27.800  1.00  0.00     0.009 A 
ATOM     80  C   UNL A   1      46.785  25.845  25.477  1.00  0.00     0.001 A 
ATOM     81  C   UNL A   1      48.878  25.477  26.617  1.00  0.00     0.001 A 
ATOM     82  C   UNL A   1      48.118  25.445  25.450  1.00  0.00     0.000 A 
ENDBRANCH  58  77
BRANCH  70  83
ATOM     83  C   UNL A   1      44.119  32.964  27.531  1.00  0.00    -0.014 A 
ATOM     84  C   UNL A   1      44.172  33.044  26.132  1.00  0.00     0.009 A 
ATOM     85  C   UNL A   1      43.781  34.149  28.221  1.00  0.00     0.009 A 
ATOM     86  C   UNL A   1      43.957  34.256  25.462  1.00  0.00     0.001 A 
ATOM     87  C   UNL A   1      43.521  35.349  27.555  1.00  0.00     0.001 A 
ATOM     88  C   UNL A   1      43.624  35.406  26.172  1.00  0.00     0.000 A 
ENDBRANCH  70  83
ENDBRANCH  44  45
ENDBRANCH  36  39
ENDBRANCH  34  35
ENDBRANCH  33  34
ENDBRANCH   1  33
TORSDOF 14
ENDMDL
