MODEL 1
REMARK VINA RESULT:     -11.9      0.000      0.000
REMARK SMILES CCOC(=O)c1cccc(Nc2c(-c3ccc(C(=O)NCCCNC(=O)c4ccc(-c5c6nc(c(-c7ccccc7)c7ccc([nH]7)c(-c7ccccc7)c7nc(c(-c8ccccc8)c8ccc5[nH]8)C=C7)C=C6)cc4)cc3)nc3cnccn23)c1
REMARK SMILES IDX 18 1 19 2 20 3 17 5 14 6 15 7 76 8 16 9 75 10 13 11 12 12
REMARK SMILES IDX 83 13 77 14 78 15 82 16 79 17 81 18 80 19 11 20 10 22 6 23
REMARK SMILES IDX 7 24 84 25 8 26 9 27 4 28 5 29 3 30 2 31 1 32 21 33 22 34
REMARK SMILES IDX 23 35 24 36 25 37 26 39 27 40 28 41 74 42 29 43 73 44 30 45
REMARK SMILES IDX 31 46 32 47 67 48 33 49 72 50 66 51 68 52 34 53 71 54 65 55
REMARK SMILES IDX 64 56 35 58 57 59 42 60 56 61 43 62 46 63 55 64 69 65 44 66
REMARK SMILES IDX 45 67 54 69 70 70 47 71 36 72 37 73 41 74 38 75 40 76 39 77
REMARK SMILES IDX 58 78 59 79 63 80 60 81 62 82 61 83 48 84 49 85 53 86 50 87
REMARK SMILES IDX 52 88 51 89
REMARK H PARENT 20 4 11 21 24 38 68 57 46 68
REMARK Flexibility Score: inf
ROOT
ATOM      1  C   UNL A   1      30.318  25.329  26.366  1.00  0.00     0.251 C 
ATOM      2  O   UNL A   1      29.148  25.346  26.750  1.00  0.00    -0.269 OA
ATOM      3  N   UNL A   1      30.993  26.521  26.319  1.00  0.00    -0.352 N 
ATOM      4  H   UNL A   1      30.438  27.306  26.535  1.00  0.00     0.163 HD
ENDROOT
BRANCH   1   5
ATOM      5  C   UNL A   1      30.940  24.025  26.012  1.00  0.00     0.039 A 
ATOM      6  C   UNL A   1      32.133  21.526  25.516  1.00  0.00     0.004 A 
ATOM      7  C   UNL A   1      32.276  22.134  26.766  1.00  0.00     0.011 A 
ATOM      8  C   UNL A   1      31.386  22.160  24.522  1.00  0.00     0.011 A 
ATOM      9  C   UNL A   1      31.685  23.377  27.010  1.00  0.00     0.014 A 
ATOM     10  C   UNL A   1      30.769  23.388  24.780  1.00  0.00     0.014 A 
BRANCH   6  11
ATOM     11  C   UNL A   1      32.730  20.240  25.239  1.00  0.00     0.114 A 
ATOM     12  C   UNL A   1      34.035  20.044  24.805  1.00  0.00     0.143 A 
ATOM     13  N   UNL A   1      34.165  18.670  24.746  1.00  0.00    -0.283 N 
ATOM     14  N   UNL A   1      32.049  19.053  25.382  1.00  0.00    -0.225 NA
ATOM     15  C   UNL A   1      32.935  18.142  25.050  1.00  0.00     0.157 A 
ATOM     16  C   UNL A   1      35.230  17.822  24.486  1.00  0.00     0.115 A 
ATOM     17  C   UNL A   1      32.773  16.715  25.012  1.00  0.00     0.158 A 
ATOM     18  C   UNL A   1      35.006  16.496  24.495  1.00  0.00     0.129 A 
ATOM     19  N   UNL A   1      33.771  15.916  24.740  1.00  0.00    -0.259 NA
BRANCH  12  20
ATOM     20  N   UNL A   1      35.045  20.924  24.563  1.00  0.00    -0.339 N 
ATOM     21  H   UNL A   1      35.945  20.551  24.412  1.00  0.00     0.168 HD
BRANCH  20  22
ATOM     22  C   UNL A   1      34.907  22.334  24.509  1.00  0.00     0.040 A 
ATOM     23  C   UNL A   1      34.213  24.305  23.257  1.00  0.00     0.062 A 
ATOM     24  C   UNL A   1      34.667  25.136  24.285  1.00  0.00     0.016 A 
ATOM     25  C   UNL A   1      34.308  22.912  23.378  1.00  0.00     0.041 A 
ATOM     26  C   UNL A   1      35.207  24.573  25.435  1.00  0.00     0.003 A 
ATOM     27  C   UNL A   1      35.331  23.186  25.542  1.00  0.00     0.026 A 
BRANCH  23  28
ATOM     28  C   UNL A   1      33.730  24.943  22.014  1.00  0.00     0.338 C 
ATOM     29  O   UNL A   1      33.128  24.333  21.148  1.00  0.00    -0.246 OA
BRANCH  28  30
ATOM     30  O   UNL A   1      34.099  26.247  21.985  1.00  0.00    -0.462 OA
BRANCH  30  31
ATOM     31  C   UNL A   1      33.051  27.180  22.295  1.00  0.00     0.230 C 
ATOM     32  C   UNL A   1      33.605  28.532  22.716  1.00  0.00     0.049 C 
ENDBRANCH  30  31
ENDBRANCH  28  30
ENDBRANCH  23  28
ENDBRANCH  20  22
ENDBRANCH  12  20
ENDBRANCH   6  11
ENDBRANCH   1   5
BRANCH   3  33
ATOM     33  C   UNL A   1      32.374  26.842  26.009  1.00  0.00     0.118 C 
BRANCH  33  34
ATOM     34  C   UNL A   1      32.929  27.902  26.960  1.00  0.00     0.042 C 
BRANCH  34  35
ATOM     35  C   UNL A   1      33.929  28.850  26.306  1.00  0.00     0.118 C 
BRANCH  35  36
ATOM     36  N   UNL A   1      33.794  30.213  26.796  1.00  0.00    -0.352 N 
ATOM     37  C   UNL A   1      34.555  30.902  27.706  1.00  0.00     0.251 C 
ATOM     38  H   UNL A   1      33.040  30.719  26.415  1.00  0.00     0.163 HD
ATOM     39  O   UNL A   1      34.154  31.979  28.136  1.00  0.00    -0.269 OA
BRANCH  37  40
ATOM     40  C   UNL A   1      35.846  30.359  28.185  1.00  0.00     0.039 A 
ATOM     41  C   UNL A   1      36.973  30.494  27.367  1.00  0.00     0.014 A 
ATOM     42  C   UNL A   1      35.945  29.665  29.395  1.00  0.00     0.014 A 
ATOM     43  C   UNL A   1      38.203  29.974  27.778  1.00  0.00     0.010 A 
ATOM     44  C   UNL A   1      37.184  29.196  29.832  1.00  0.00     0.010 A 
ATOM     45  C   UNL A   1      38.322  29.339  29.025  1.00  0.00    -0.014 A 
BRANCH  45  46
ATOM     46  C   UNL A   1      39.627  28.809  29.493  1.00  0.00     0.031 A 
ATOM     47  C   UNL A   1      40.476  29.610  30.441  1.00  0.00     0.074 A 
ATOM     48  C   UNL A   1      40.076  27.629  29.023  1.00  0.00     0.049 A 
ATOM     49  N   UNL A   1      41.670  29.345  30.906  1.00  0.00    -0.248 NA
ATOM     50  C   UNL A   1      39.917  30.888  30.911  1.00  0.00     0.031 C 
ATOM     51  C   UNL A   1      39.364  26.767  28.078  1.00  0.00     0.029 A 
ATOM     52  N   UNL A   1      41.246  26.958  29.270  1.00  0.00    -0.354 N 
ATOM     53  C   UNL A   1      42.015  30.429  31.703  1.00  0.00     0.074 A 
ATOM     54  C   UNL A   1      40.918  31.370  31.633  1.00  0.00     0.031 C 
ATOM     55  C   UNL A   1      40.104  25.673  27.840  1.00  0.00     0.029 A 
ATOM     56  C   UNL A   1      41.355  25.772  28.587  1.00  0.00     0.049 A 
ATOM     57  H   UNL A   1      41.942  27.294  29.880  1.00  0.00     0.167 HD
ATOM     58  C   UNL A   1      43.136  30.619  32.438  1.00  0.00     0.031 A 
ATOM     59  C   UNL A   1      42.351  24.868  28.558  1.00  0.00     0.031 A 
ATOM     60  C   UNL A   1      44.221  29.677  32.526  1.00  0.00     0.049 A 
ATOM     61  C   UNL A   1      43.585  25.101  29.383  1.00  0.00     0.074 A 
ATOM     62  C   UNL A   1      45.375  29.759  33.287  1.00  0.00     0.029 A 
ATOM     63  N   UNL A   1      44.284  28.482  31.828  1.00  0.00    -0.354 N 
ATOM     64  N   UNL A   1      43.871  26.108  30.171  1.00  0.00    -0.248 NA
ATOM     65  C   UNL A   1      44.627  24.067  29.321  1.00  0.00     0.031 C 
ATOM     66  C   UNL A   1      46.153  28.626  33.023  1.00  0.00     0.029 A 
ATOM     67  C   UNL A   1      45.464  27.823  32.129  1.00  0.00     0.049 A 
ATOM     68  H   UNL A   1      43.593  28.150  31.211  1.00  0.00     0.167 HD
ATOM     69  C   UNL A   1      45.116  25.818  30.715  1.00  0.00     0.074 A 
ATOM     70  C   UNL A   1      45.522  24.537  30.178  1.00  0.00     0.031 C 
ATOM     71  C   UNL A   1      45.854  26.550  31.585  1.00  0.00     0.031 A 
BRANCH  58  72
ATOM     72  C   UNL A   1      43.248  31.905  33.205  1.00  0.00    -0.014 A 
ATOM     73  C   UNL A   1      42.839  31.991  34.545  1.00  0.00     0.009 A 
ATOM     74  C   UNL A   1      43.799  33.041  32.588  1.00  0.00     0.009 A 
ATOM     75  C   UNL A   1      42.949  33.196  35.242  1.00  0.00     0.001 A 
ATOM     76  C   UNL A   1      43.928  34.237  33.294  1.00  0.00     0.001 A 
ATOM     77  C   UNL A   1      43.496  34.317  34.618  1.00  0.00     0.000 A 
ENDBRANCH  58  72
BRANCH  59  78
ATOM     78  C   UNL A   1      42.218  23.645  27.728  1.00  0.00    -0.014 A 
ATOM     79  C   UNL A   1      42.687  23.631  26.406  1.00  0.00     0.009 A 
ATOM     80  C   UNL A   1      41.625  22.487  28.253  1.00  0.00     0.009 A 
ATOM     81  C   UNL A   1      42.545  22.487  25.619  1.00  0.00     0.001 A 
ATOM     82  C   UNL A   1      41.506  21.336  27.470  1.00  0.00     0.001 A 
ATOM     83  C   UNL A   1      41.959  21.339  26.152  1.00  0.00     0.000 A 
ENDBRANCH  59  78
BRANCH  71  84
ATOM     84  C   UNL A   1      47.163  25.965  32.029  1.00  0.00    -0.014 A 
ATOM     85  C   UNL A   1      47.262  25.226  33.217  1.00  0.00     0.009 A 
ATOM     86  C   UNL A   1      48.305  26.129  31.229  1.00  0.00     0.009 A 
ATOM     87  C   UNL A   1      48.488  24.684  33.609  1.00  0.00     0.001 A 
ATOM     88  C   UNL A   1      49.522  25.568  31.613  1.00  0.00     0.001 A 
ATOM     89  C   UNL A   1      49.615  24.852  32.806  1.00  0.00     0.000 A 
ENDBRANCH  71  84
ENDBRANCH  45  46
ENDBRANCH  37  40
ENDBRANCH  35  36
ENDBRANCH  34  35
ENDBRANCH  33  34
ENDBRANCH   3  33
TORSDOF 16
ENDMDL
MODEL 2
REMARK VINA RESULT:     -11.9      1.921      2.862
REMARK SMILES CCOC(=O)c1cccc(Nc2c(-c3ccc(C(=O)NCCCNC(=O)c4ccc(-c5c6nc(c(-c7ccccc7)c7ccc([nH]7)c(-c7ccccc7)c7nc(c(-c8ccccc8)c8ccc5[nH]8)C=C7)C=C6)cc4)cc3)nc3cnccn23)c1
REMARK SMILES IDX 18 1 19 2 20 3 17 5 14 6 15 7 76 8 16 9 75 10 13 11 12 12
REMARK SMILES IDX 83 13 77 14 78 15 82 16 79 17 81 18 80 19 11 20 10 22 6 23
REMARK SMILES IDX 7 24 84 25 8 26 9 27 4 28 5 29 3 30 2 31 1 32 21 33 22 34
REMARK SMILES IDX 23 35 24 36 25 37 26 39 27 40 28 41 74 42 29 43 73 44 30 45
REMARK SMILES IDX 31 46 32 47 67 48 33 49 72 50 66 51 68 52 34 53 71 54 65 55
REMARK SMILES IDX 64 56 35 58 57 59 42 60 56 61 43 62 46 63 55 64 69 65 44 66
REMARK SMILES IDX 45 67 54 69 70 70 47 71 36 72 37 73 41 74 38 75 40 76 39 77
REMARK SMILES IDX 58 78 59 79 63 80 60 81 62 82 61 83 48 84 49 85 53 86 50 87
REMARK SMILES IDX 52 88 51 89
REMARK H PARENT 20 4 11 21 24 38 68 57 46 68
REMARK Flexibility Score: inf
ROOT
ATOM      1  C   UNL A   1      30.967  27.426  23.004  1.00  0.00     0.251 C 
ATOM      2  O   UNL A   1      30.455  27.908  21.994  1.00  0.00    -0.269 OA
ATOM      3  N   UNL A   1      31.249  28.274  24.044  1.00  0.00    -0.352 N 
ATOM      4  H   UNL A   1      31.076  29.224  23.848  1.00  0.00     0.163 HD
ENDROOT
BRANCH   1   5
ATOM      5  C   UNL A   1      31.215  25.961  23.056  1.00  0.00     0.039 A 
ATOM      6  C   UNL A   1      31.859  23.223  23.125  1.00  0.00     0.004 A 
ATOM      7  C   UNL A   1      32.743  24.135  22.542  1.00  0.00     0.011 A 
ATOM      8  C   UNL A   1      30.664  23.681  23.683  1.00  0.00     0.011 A 
ATOM      9  C   UNL A   1      32.420  25.495  22.506  1.00  0.00     0.014 A 
ATOM     10  C   UNL A   1      30.360  25.045  23.674  1.00  0.00     0.014 A 
BRANCH   6  11
ATOM     11  C   UNL A   1      32.170  21.813  23.180  1.00  0.00     0.114 A 
ATOM     12  C   UNL A   1      32.828  21.182  24.228  1.00  0.00     0.143 A 
ATOM     13  N   UNL A   1      32.834  19.850  23.866  1.00  0.00    -0.283 N 
ATOM     14  N   UNL A   1      31.836  20.935  22.175  1.00  0.00    -0.225 NA
ATOM     15  C   UNL A   1      32.276  19.777  22.613  1.00  0.00     0.157 A 
ATOM     16  C   UNL A   1      33.240  18.689  24.504  1.00  0.00     0.115 A 
ATOM     17  C   UNL A   1      32.204  18.495  21.968  1.00  0.00     0.158 A 
ATOM     18  C   UNL A   1      33.115  17.522  23.845  1.00  0.00     0.129 A 
ATOM     19  N   UNL A   1      32.613  17.403  22.559  1.00  0.00    -0.259 NA
BRANCH  12  20
ATOM     20  N   UNL A   1      33.303  21.661  25.410  1.00  0.00    -0.339 N 
ATOM     21  H   UNL A   1      32.831  21.389  26.231  1.00  0.00     0.168 HD
BRANCH  20  22
ATOM     22  C   UNL A   1      34.423  22.519  25.556  1.00  0.00     0.040 A 
ATOM     23  C   UNL A   1      36.842  22.766  25.704  1.00  0.00     0.062 A 
ATOM     24  C   UNL A   1      36.702  24.140  25.918  1.00  0.00     0.016 A 
ATOM     25  C   UNL A   1      35.712  21.963  25.498  1.00  0.00     0.041 A 
ATOM     26  C   UNL A   1      35.435  24.710  25.919  1.00  0.00     0.003 A 
ATOM     27  C   UNL A   1      34.307  23.905  25.745  1.00  0.00     0.026 A 
BRANCH  23  28
ATOM     28  C   UNL A   1      38.196  22.184  25.802  1.00  0.00     0.338 C 
ATOM     29  O   UNL A   1      39.013  22.542  26.633  1.00  0.00    -0.246 OA
BRANCH  28  30
ATOM     30  O   UNL A   1      38.381  21.263  24.824  1.00  0.00    -0.462 OA
BRANCH  30  31
ATOM     31  C   UNL A   1      38.678  19.937  25.290  1.00  0.00     0.230 C 
ATOM     32  C   UNL A   1      37.546  18.966  24.989  1.00  0.00     0.049 C 
ENDBRANCH  30  31
ENDBRANCH  28  30
ENDBRANCH  23  28
ENDBRANCH  20  22
ENDBRANCH  12  20
ENDBRANCH   6  11
ENDBRANCH   1   5
BRANCH   3  33
ATOM     33  C   UNL A   1      31.758  28.032  25.383  1.00  0.00     0.118 C 
BRANCH  33  34
ATOM     34  C   UNL A   1      33.284  28.087  25.419  1.00  0.00     0.042 C 
BRANCH  34  35
ATOM     35  C   UNL A   1      33.857  28.313  26.815  1.00  0.00     0.118 C 
BRANCH  35  36
ATOM     36  N   UNL A   1      33.699  29.689  27.257  1.00  0.00    -0.352 N 
ATOM     37  C   UNL A   1      34.534  30.473  28.012  1.00  0.00     0.251 C 
ATOM     38  H   UNL A   1      32.864  30.125  26.971  1.00  0.00     0.163 HD
ATOM     39  O   UNL A   1      34.125  31.546  28.448  1.00  0.00    -0.269 OA
BRANCH  37  40
ATOM     40  C   UNL A   1      35.916  30.039  28.318  1.00  0.00     0.039 A 
ATOM     41  C   UNL A   1      36.888  30.149  27.317  1.00  0.00     0.014 A 
ATOM     42  C   UNL A   1      36.249  29.469  29.550  1.00  0.00     0.014 A 
ATOM     43  C   UNL A   1      38.198  29.730  27.564  1.00  0.00     0.010 A 
ATOM     44  C   UNL A   1      37.568  29.103  29.817  1.00  0.00     0.010 A 
ATOM     45  C   UNL A   1      38.553  29.222  28.824  1.00  0.00    -0.014 A 
BRANCH  45  46
ATOM     46  C   UNL A   1      39.946  28.801  29.115  1.00  0.00     0.031 A 
ATOM     47  C   UNL A   1      40.897  29.745  29.798  1.00  0.00     0.074 A 
ATOM     48  C   UNL A   1      40.374  27.588  28.717  1.00  0.00     0.049 A 
ATOM     49  N   UNL A   1      42.166  29.581  30.074  1.00  0.00    -0.248 NA
ATOM     50  C   UNL A   1      40.355  31.052  30.205  1.00  0.00     0.031 C 
ATOM     51  C   UNL A   1      39.561  26.589  28.020  1.00  0.00     0.029 A 
ATOM     52  N   UNL A   1      41.605  26.994  28.833  1.00  0.00    -0.354 N 
ATOM     53  C   UNL A   1      42.580  30.769  30.665  1.00  0.00     0.074 A 
ATOM     54  C   UNL A   1      41.436  31.655  30.678  1.00  0.00     0.031 C 
ATOM     55  C   UNL A   1      40.310  25.500  27.788  1.00  0.00     0.029 A 
ATOM     56  C   UNL A   1      41.662  25.735  28.286  1.00  0.00     0.049 A 
ATOM     57  H   UNL A   1      42.375  27.428  29.267  1.00  0.00     0.167 HD
ATOM     58  C   UNL A   1      43.797  31.089  31.164  1.00  0.00     0.031 A 
ATOM     59  C   UNL A   1      42.688  24.870  28.190  1.00  0.00     0.031 A 
ATOM     60  C   UNL A   1      44.932  30.204  31.171  1.00  0.00     0.049 A 
ATOM     61  C   UNL A   1      44.029  25.248  28.752  1.00  0.00     0.074 A 
ATOM     62  C   UNL A   1      46.192  30.421  31.703  1.00  0.00     0.029 A 
ATOM     63  N   UNL A   1      44.942  28.933  30.619  1.00  0.00    -0.354 N 
ATOM     64  N   UNL A   1      44.388  26.356  29.353  1.00  0.00    -0.248 NA
ATOM     65  C   UNL A   1      45.101  24.251  28.631  1.00  0.00     0.031 C 
ATOM     66  C   UNL A   1      46.976  29.292  31.442  1.00  0.00     0.029 A 
ATOM     67  C   UNL A   1      46.192  28.359  30.784  1.00  0.00     0.049 A 
ATOM     68  H   UNL A   1      44.176  28.502  30.177  1.00  0.00     0.167 HD
ATOM     69  C   UNL A   1      45.721  26.180  29.701  1.00  0.00     0.074 A 
ATOM     70  C   UNL A   1      46.102  24.856  29.256  1.00  0.00     0.031 C 
ATOM     71  C   UNL A   1      46.554  27.041  30.335  1.00  0.00     0.031 A 
BRANCH  58  72
ATOM     72  C   UNL A   1      43.966  32.465  31.741  1.00  0.00    -0.014 A 
ATOM     73  C   UNL A   1      43.768  32.708  33.110  1.00  0.00     0.009 A 
ATOM     74  C   UNL A   1      44.357  33.528  30.911  1.00  0.00     0.009 A 
ATOM     75  C   UNL A   1      43.926  33.995  33.629  1.00  0.00     0.001 A 
ATOM     76  C   UNL A   1      44.538  34.807  31.438  1.00  0.00     0.001 A 
ATOM     77  C   UNL A   1      44.314  35.042  32.794  1.00  0.00     0.000 A 
ENDBRANCH  58  72
BRANCH  59  78
ATOM     78  C   UNL A   1      42.485  23.548  27.547  1.00  0.00    -0.014 A 
ATOM     79  C   UNL A   1      42.634  23.404  26.160  1.00  0.00     0.009 A 
ATOM     80  C   UNL A   1      42.145  22.425  28.316  1.00  0.00     0.009 A 
ATOM     81  C   UNL A   1      42.424  22.165  25.552  1.00  0.00     0.001 A 
ATOM     82  C   UNL A   1      41.958  21.182  27.707  1.00  0.00     0.001 A 
ATOM     83  C   UNL A   1      42.091  21.054  26.326  1.00  0.00     0.000 A 
ENDBRANCH  59  78
BRANCH  71  84
ATOM     84  C   UNL A   1      47.950  26.563  30.609  1.00  0.00    -0.014 A 
ATOM     85  C   UNL A   1      48.255  25.840  31.771  1.00  0.00     0.009 A 
ATOM     86  C   UNL A   1      48.966  26.812  29.673  1.00  0.00     0.009 A 
ATOM     87  C   UNL A   1      49.559  25.397  32.004  1.00  0.00     0.001 A 
ATOM     88  C   UNL A   1      50.263  26.349  29.898  1.00  0.00     0.001 A 
ATOM     89  C   UNL A   1      50.560  25.649  31.066  1.00  0.00     0.000 A 
ENDBRANCH  71  84
ENDBRANCH  45  46
ENDBRANCH  37  40
ENDBRANCH  35  36
ENDBRANCH  34  35
ENDBRANCH  33  34
ENDBRANCH   3  33
TORSDOF 16
ENDMDL
MODEL 3
REMARK VINA RESULT:     -11.4      2.672      4.163
REMARK SMILES CCOC(=O)c1cccc(Nc2c(-c3ccc(C(=O)NCCCNC(=O)c4ccc(-c5c6nc(c(-c7ccccc7)c7ccc([nH]7)c(-c7ccccc7)c7nc(c(-c8ccccc8)c8ccc5[nH]8)C=C7)C=C6)cc4)cc3)nc3cnccn23)c1
REMARK SMILES IDX 18 1 19 2 20 3 17 5 14 6 15 7 76 8 16 9 75 10 13 11 12 12
REMARK SMILES IDX 83 13 77 14 78 15 82 16 79 17 81 18 80 19 11 20 10 22 6 23
REMARK SMILES IDX 7 24 84 25 8 26 9 27 4 28 5 29 3 30 2 31 1 32 21 33 22 34
REMARK SMILES IDX 23 35 24 36 25 37 26 39 27 40 28 41 74 42 29 43 73 44 30 45
REMARK SMILES IDX 31 46 32 47 67 48 33 49 72 50 66 51 68 52 34 53 71 54 65 55
REMARK SMILES IDX 64 56 35 58 57 59 42 60 56 61 43 62 46 63 55 64 69 65 44 66
REMARK SMILES IDX 45 67 54 69 70 70 47 71 36 72 37 73 41 74 38 75 40 76 39 77
REMARK SMILES IDX 58 78 59 79 63 80 60 81 62 82 61 83 48 84 49 85 53 86 50 87
REMARK SMILES IDX 52 88 51 89
REMARK H PARENT 20 4 11 21 24 38 68 57 46 68
REMARK Flexibility Score: inf
ROOT
ATOM      1  C   UNL A   1      31.024  27.405  22.922  1.00  0.00     0.251 C 
ATOM      2  O   UNL A   1      30.380  27.850  21.971  1.00  0.00    -0.269 OA
ATOM      3  N   UNL A   1      31.436  28.290  23.884  1.00  0.00    -0.352 N 
ATOM      4  H   UNL A   1      31.233  29.232  23.678  1.00  0.00     0.163 HD
ENDROOT
BRANCH   1   5
ATOM      5  C   UNL A   1      31.286  25.943  22.993  1.00  0.00     0.039 A 
ATOM      6  C   UNL A   1      31.956  23.213  23.106  1.00  0.00     0.004 A 
ATOM      7  C   UNL A   1      32.858  24.133  22.564  1.00  0.00     0.011 A 
ATOM      8  C   UNL A   1      30.729  23.659  23.601  1.00  0.00     0.011 A 
ATOM      9  C   UNL A   1      32.522  25.489  22.506  1.00  0.00     0.014 A 
ATOM     10  C   UNL A   1      30.411  25.020  23.570  1.00  0.00     0.014 A 
BRANCH   6  11
ATOM     11  C   UNL A   1      32.279  21.807  23.182  1.00  0.00     0.114 A 
ATOM     12  C   UNL A   1      33.005  21.211  24.206  1.00  0.00     0.143 A 
ATOM     13  N   UNL A   1      32.998  19.868  23.883  1.00  0.00    -0.283 N 
ATOM     14  N   UNL A   1      31.891  20.897  22.226  1.00  0.00    -0.225 NA
ATOM     15  C   UNL A   1      32.365  19.756  22.670  1.00  0.00     0.157 A 
ATOM     16  C   UNL A   1      33.450  18.729  24.529  1.00  0.00     0.115 A 
ATOM     17  C   UNL A   1      32.263  18.455  22.069  1.00  0.00     0.158 A 
ATOM     18  C   UNL A   1      33.294  17.543  23.914  1.00  0.00     0.129 A 
ATOM     19  N   UNL A   1      32.714  17.383  22.664  1.00  0.00    -0.259 NA
BRANCH  12  20
ATOM     20  N   UNL A   1      33.548  21.727  25.343  1.00  0.00    -0.339 N 
ATOM     21  H   UNL A   1      33.013  21.666  26.168  1.00  0.00     0.168 HD
BRANCH  20  22
ATOM     22  C   UNL A   1      34.822  22.344  25.435  1.00  0.00     0.040 A 
ATOM     23  C   UNL A   1      37.245  22.102  25.490  1.00  0.00     0.062 A 
ATOM     24  C   UNL A   1      37.392  23.477  25.690  1.00  0.00     0.016 A 
ATOM     25  C   UNL A   1      35.970  21.541  25.338  1.00  0.00     0.041 A 
ATOM     26  C   UNL A   1      36.265  24.290  25.729  1.00  0.00     0.003 A 
ATOM     27  C   UNL A   1      34.993  23.726  25.609  1.00  0.00     0.026 A 
BRANCH  23  28
ATOM     28  C   UNL A   1      38.459  21.261  25.547  1.00  0.00     0.338 C 
ATOM     29  O   UNL A   1      38.490  20.113  25.138  1.00  0.00    -0.246 OA
BRANCH  28  30
ATOM     30  O   UNL A   1      39.468  21.938  26.149  1.00  0.00    -0.462 OA
BRANCH  30  31
ATOM     31  C   UNL A   1      40.533  21.115  26.653  1.00  0.00     0.230 C 
ATOM     32  C   UNL A   1      41.890  21.576  26.146  1.00  0.00     0.049 C 
ENDBRANCH  30  31
ENDBRANCH  28  30
ENDBRANCH  23  28
ENDBRANCH  20  22
ENDBRANCH  12  20
ENDBRANCH   6  11
ENDBRANCH   1   5
BRANCH   3  33
ATOM     33  C   UNL A   1      32.118  28.097  25.151  1.00  0.00     0.118 C 
BRANCH  33  34
ATOM     34  C   UNL A   1      33.632  28.237  24.998  1.00  0.00     0.042 C 
BRANCH  34  35
ATOM     35  C   UNL A   1      34.319  28.850  26.215  1.00  0.00     0.118 C 
BRANCH  35  36
ATOM     36  N   UNL A   1      33.899  30.222  26.448  1.00  0.00    -0.352 N 
ATOM     37  C   UNL A   1      34.310  31.119  27.402  1.00  0.00     0.251 C 
ATOM     38  H   UNL A   1      33.214  30.560  25.827  1.00  0.00     0.163 HD
ATOM     39  O   UNL A   1      33.685  32.165  27.557  1.00  0.00    -0.269 OA
BRANCH  37  40
ATOM     40  C   UNL A   1      35.488  30.839  28.254  1.00  0.00     0.039 A 
ATOM     41  C   UNL A   1      35.439  29.742  29.121  1.00  0.00     0.014 A 
ATOM     42  C   UNL A   1      36.607  31.677  28.254  1.00  0.00     0.014 A 
ATOM     43  C   UNL A   1      36.525  29.461  29.955  1.00  0.00     0.010 A 
ATOM     44  C   UNL A   1      37.713  31.364  29.045  1.00  0.00     0.010 A 
ATOM     45  C   UNL A   1      37.679  30.258  29.908  1.00  0.00    -0.014 A 
BRANCH  45  46
ATOM     46  C   UNL A   1      38.855  29.956  30.763  1.00  0.00     0.031 A 
ATOM     47  C   UNL A   1      39.007  30.619  32.104  1.00  0.00     0.074 A 
ATOM     48  C   UNL A   1      39.814  29.126  30.310  1.00  0.00     0.049 A 
ATOM     49  N   UNL A   1      39.995  30.534  32.959  1.00  0.00    -0.248 NA
ATOM     50  C   UNL A   1      37.917  31.512  32.529  1.00  0.00     0.031 C 
ATOM     51  C   UNL A   1      39.800  28.441  29.017  1.00  0.00     0.029 A 
ATOM     52  N   UNL A   1      40.993  28.728  30.887  1.00  0.00    -0.354 N 
ATOM     53  C   UNL A   1      39.657  31.376  34.011  1.00  0.00     0.074 A 
ATOM     54  C   UNL A   1      38.390  31.987  33.672  1.00  0.00     0.031 C 
ATOM     55  C   UNL A   1      40.909  27.692  28.907  1.00  0.00     0.029 A 
ATOM     56  C   UNL A   1      41.726  27.871  30.103  1.00  0.00     0.049 A 
ATOM     57  H   UNL A   1      41.286  29.027  31.778  1.00  0.00     0.167 HD
ATOM     58  C   UNL A   1      40.332  31.609  35.161  1.00  0.00     0.031 A 
ATOM     59  C   UNL A   1      42.924  27.299  30.319  1.00  0.00     0.031 A 
ATOM     60  C   UNL A   1      41.583  30.989  35.510  1.00  0.00     0.049 A 
ATOM     61  C   UNL A   1      43.654  27.572  31.604  1.00  0.00     0.074 A 
ATOM     62  C   UNL A   1      42.316  31.124  36.678  1.00  0.00     0.029 A 
ATOM     63  N   UNL A   1      42.284  30.117  34.694  1.00  0.00    -0.354 N 
ATOM     64  N   UNL A   1      43.295  28.332  32.610  1.00  0.00    -0.248 NA
ATOM     65  C   UNL A   1      44.948  26.902  31.785  1.00  0.00     0.031 C 
ATOM     66  C   UNL A   1      43.480  30.357  36.552  1.00  0.00     0.029 A 
ATOM     67  C   UNL A   1      43.450  29.717  35.325  1.00  0.00     0.049 A 
ATOM     68  H   UNL A   1      41.996  29.825  33.799  1.00  0.00     0.167 HD
ATOM     69  C   UNL A   1      44.308  28.213  33.552  1.00  0.00     0.074 A 
ATOM     70  C   UNL A   1      45.288  27.299  33.003  1.00  0.00     0.031 C 
ATOM     71  C   UNL A   1      44.415  28.808  34.765  1.00  0.00     0.031 A 
BRANCH  58  72
ATOM     72  C   UNL A   1      39.730  32.589  36.128  1.00  0.00    -0.014 A 
ATOM     73  C   UNL A   1      40.113  33.940  36.126  1.00  0.00     0.009 A 
ATOM     74  C   UNL A   1      38.745  32.162  37.032  1.00  0.00     0.009 A 
ATOM     75  C   UNL A   1      39.545  34.836  37.033  1.00  0.00     0.001 A 
ATOM     76  C   UNL A   1      38.162  33.066  37.922  1.00  0.00     0.001 A 
ATOM     77  C   UNL A   1      38.567  34.400  37.928  1.00  0.00     0.000 A 
ENDBRANCH  58  72
BRANCH  59  78
ATOM     78  C   UNL A   1      43.507  26.392  29.299  1.00  0.00    -0.014 A 
ATOM     79  C   UNL A   1      43.205  25.022  29.313  1.00  0.00     0.009 A 
ATOM     80  C   UNL A   1      44.363  26.890  28.306  1.00  0.00     0.009 A 
ATOM     81  C   UNL A   1      43.767  24.165  28.366  1.00  0.00     0.001 A 
ATOM     82  C   UNL A   1      44.905  26.034  27.345  1.00  0.00     0.001 A 
ATOM     83  C   UNL A   1      44.613  24.672  27.380  1.00  0.00     0.000 A 
ENDBRANCH  59  78
BRANCH  71  84
ATOM     84  C   UNL A   1      45.620  28.464  35.590  1.00  0.00    -0.014 A 
ATOM     85  C   UNL A   1      46.794  29.229  35.514  1.00  0.00     0.009 A 
ATOM     86  C   UNL A   1      45.566  27.382  36.482  1.00  0.00     0.009 A 
ATOM     87  C   UNL A   1      47.902  28.897  36.296  1.00  0.00     0.001 A 
ATOM     88  C   UNL A   1      46.667  27.067  37.278  1.00  0.00     0.001 A 
ATOM     89  C   UNL A   1      47.837  27.820  37.179  1.00  0.00     0.000 A 
ENDBRANCH  71  84
ENDBRANCH  45  46
ENDBRANCH  37  40
ENDBRANCH  35  36
ENDBRANCH  34  35
ENDBRANCH  33  34
ENDBRANCH   3  33
TORSDOF 16
ENDMDL
