MODEL 1
REMARK VINA RESULT:     -11.4      0.000      0.000
REMARK SMILES O=C(NCCCNC(=O)c1ccc(Br)c(NC(=S)NC(=O)c2cccs2)c1)c1ccc(-c2c3nc(c(-c4ccccc4)c4ccc([nH]4)c(-c4ccccc4)c4nc(c(-c5ccccc5)c5ccc2[nH]5)C=C4)C=C3)cc1
REMARK SMILES IDX 6 1 5 2 4 3 3 4 1 5 2 6 28 8 29 9 75 10 30 11 74 12 31 13
REMARK SMILES IDX 32 14 33 15 68 16 34 17 73 18 67 19 69 20 35 21 72 22 66 23
REMARK SMILES IDX 65 24 36 26 58 27 43 28 57 29 44 30 47 31 56 32 70 33 45 34
REMARK SMILES IDX 46 35 55 37 71 38 48 39 37 40 38 41 42 42 39 43 41 44 40 45
REMARK SMILES IDX 59 46 60 47 64 48 61 49 63 50 62 51 49 52 50 53 54 54 51 55
REMARK SMILES IDX 53 56 52 57 7 58 8 59 9 61 10 62 11 63 27 64 12 65 15 66
REMARK SMILES IDX 13 67 14 68 16 69 17 71 18 72 19 73 20 74 21 76 22 77 23 78
REMARK SMILES IDX 26 79 24 80 25 81
REMARK H PARENT 3 7 69 25 47 36 7 60 16 70 19 75
REMARK Flexibility Score: inf
ROOT
ATOM      1  C   UNL A   1      36.985  20.753  25.003  1.00  0.00     0.118 C 
ENDROOT
BRANCH   1   2
ATOM      2  C   UNL A   1      38.260  19.942  24.851  1.00  0.00     0.042 C 
BRANCH   2   3
ATOM      3  C   UNL A   1      39.257  20.141  25.980  1.00  0.00     0.118 C 
BRANCH   3   4
ATOM      4  N   UNL A   1      40.410  19.248  25.890  1.00  0.00    -0.352 N 
ATOM      5  O   UNL A   1      42.584  18.665  25.710  1.00  0.00    -0.269 OA
ATOM      6  C   UNL A   1      41.752  19.518  26.004  1.00  0.00     0.251 C 
ATOM      7  H   UNL A   1      40.189  18.304  25.722  1.00  0.00     0.163 HD
BRANCH   6   8
ATOM      8  C   UNL A   1      42.185  20.853  26.454  1.00  0.00     0.039 A 
ATOM      9  C   UNL A   1      42.132  21.179  27.808  1.00  0.00     0.014 A 
ATOM     10  C   UNL A   1      42.621  21.795  25.520  1.00  0.00     0.014 A 
ATOM     11  C   UNL A   1      42.300  22.494  28.203  1.00  0.00     0.010 A 
ATOM     12  C   UNL A   1      42.937  23.088  25.943  1.00  0.00     0.010 A 
ATOM     13  C   UNL A   1      42.744  23.456  27.283  1.00  0.00    -0.014 A 
BRANCH  13  14
ATOM     14  C   UNL A   1      43.091  24.808  27.785  1.00  0.00     0.031 A 
ATOM     15  C   UNL A   1      42.035  25.832  28.084  1.00  0.00     0.074 A 
ATOM     16  C   UNL A   1      44.392  25.089  27.998  1.00  0.00     0.049 A 
ATOM     17  N   UNL A   1      42.183  27.050  28.542  1.00  0.00    -0.248 NA
ATOM     18  C   UNL A   1      40.636  25.452  27.832  1.00  0.00     0.031 C 
ATOM     19  C   UNL A   1      45.507  24.170  27.746  1.00  0.00     0.029 A 
ATOM     20  N   UNL A   1      44.999  26.212  28.495  1.00  0.00    -0.354 N 
ATOM     21  C   UNL A   1      40.906  27.589  28.614  1.00  0.00     0.074 A 
ATOM     22  C   UNL A   1      39.995  26.576  28.123  1.00  0.00     0.031 C 
ATOM     23  C   UNL A   1      46.650  24.740  28.146  1.00  0.00     0.029 A 
ATOM     24  C   UNL A   1      46.364  26.097  28.588  1.00  0.00     0.049 A 
ATOM     25  H   UNL A   1      44.505  27.021  28.759  1.00  0.00     0.167 HD
ATOM     26  C   UNL A   1      40.530  28.815  29.051  1.00  0.00     0.031 A 
ATOM     27  C   UNL A   1      47.297  26.993  28.954  1.00  0.00     0.031 A 
ATOM     28  C   UNL A   1      41.449  29.822  29.519  1.00  0.00     0.049 A 
ATOM     29  C   UNL A   1      46.853  28.365  29.364  1.00  0.00     0.074 A 
ATOM     30  C   UNL A   1      41.165  31.086  30.007  1.00  0.00     0.029 A 
ATOM     31  N   UNL A   1      42.830  29.688  29.544  1.00  0.00    -0.354 N 
ATOM     32  N   UNL A   1      45.638  28.845  29.464  1.00  0.00    -0.248 NA
ATOM     33  C   UNL A   1      47.912  29.318  29.718  1.00  0.00     0.031 C 
ATOM     34  C   UNL A   1      42.373  31.746  30.247  1.00  0.00     0.029 A 
ATOM     35  C   UNL A   1      43.411  30.861  30.001  1.00  0.00     0.049 A 
ATOM     36  H   UNL A   1      43.324  28.879  29.276  1.00  0.00     0.167 HD
ATOM     37  C   UNL A   1      45.784  30.147  29.921  1.00  0.00     0.074 A 
ATOM     38  C   UNL A   1      47.204  30.369  30.102  1.00  0.00     0.031 C 
ATOM     39  C   UNL A   1      44.826  31.074  30.169  1.00  0.00     0.031 A 
BRANCH  26  40
ATOM     40  C   UNL A   1      39.065  29.158  29.004  1.00  0.00    -0.014 A 
ATOM     41  C   UNL A   1      38.464  29.679  27.847  1.00  0.00     0.009 A 
ATOM     42  C   UNL A   1      38.257  28.904  30.126  1.00  0.00     0.009 A 
ATOM     43  C   UNL A   1      37.099  29.974  27.827  1.00  0.00     0.001 A 
ATOM     44  C   UNL A   1      36.886  29.164  30.091  1.00  0.00     0.001 A 
ATOM     45  C   UNL A   1      36.310  29.709  28.946  1.00  0.00     0.000 A 
ENDBRANCH  26  40
BRANCH  27  46
ATOM     46  C   UNL A   1      48.737  26.628  28.909  1.00  0.00    -0.014 A 
ATOM     47  C   UNL A   1      49.380  26.095  30.036  1.00  0.00     0.009 A 
ATOM     48  C   UNL A   1      49.480  26.817  27.732  1.00  0.00     0.009 A 
ATOM     49  C   UNL A   1      50.743  25.797  29.995  1.00  0.00     0.001 A 
ATOM     50  C   UNL A   1      50.831  26.477  27.681  1.00  0.00     0.001 A 
ATOM     51  C   UNL A   1      51.466  25.982  28.817  1.00  0.00     0.000 A 
ENDBRANCH  27  46
BRANCH  39  52
ATOM     52  C   UNL A   1      45.283  32.400  30.715  1.00  0.00    -0.014 A 
ATOM     53  C   UNL A   1      45.581  33.484  29.873  1.00  0.00     0.009 A 
ATOM     54  C   UNL A   1      45.394  32.572  32.105  1.00  0.00     0.009 A 
ATOM     55  C   UNL A   1      46.024  34.694  30.409  1.00  0.00     0.001 A 
ATOM     56  C   UNL A   1      45.796  33.796  32.640  1.00  0.00     0.001 A 
ATOM     57  C   UNL A   1      46.125  34.851  31.791  1.00  0.00     0.000 A 
ENDBRANCH  39  52
ENDBRANCH  13  14
ENDBRANCH   6   8
ENDBRANCH   3   4
ENDBRANCH   2   3
ENDBRANCH   1   2
BRANCH   1  58
ATOM     58  N   UNL A   1      36.884  21.805  24.011  1.00  0.00    -0.352 N 
ATOM     59  C   UNL A   1      35.867  22.641  23.627  1.00  0.00     0.251 C 
ATOM     60  H   UNL A   1      37.718  21.950  23.509  1.00  0.00     0.163 HD
ATOM     61  O   UNL A   1      36.069  23.233  22.570  1.00  0.00    -0.269 OA
BRANCH  59  62
ATOM     62  C   UNL A   1      34.587  22.783  24.537  1.00  0.00     0.041 A 
ATOM     63  C   UNL A   1      33.507  21.342  24.279  1.00  0.00     0.015 A 
ATOM     64  C   UNL A   1      33.814  24.160  25.858  1.00  0.00     0.041 A 
ATOM     65  C   UNL A   1      31.946  21.337  25.136  1.00  0.00     0.018 A 
ATOM     66  C   UNL A   1      32.305  24.102  26.518  1.00  0.00     0.055 A 
ATOM     67  C   UNL A   1      31.389  22.674  26.189  1.00  0.00     0.041 A 
ATOM     68  Br  UNL A   1      29.612  22.577  26.842  1.00  0.00    -0.049 Br
BRANCH  66  69
ATOM     69  N   UNL A   1      31.986  25.398  26.976  1.00  0.00    -0.331 N 
ATOM     70  H   UNL A   1      32.264  25.595  27.901  1.00  0.00     0.169 HD
BRANCH  69  71
ATOM     71  C   UNL A   1      31.334  26.445  26.317  1.00  0.00     0.177 C 
ATOM     72  S   UNL A   1      31.872  27.997  26.678  1.00  0.00    -0.040 S 
BRANCH  71  73
ATOM     73  N   UNL A   1      30.260  26.373  25.336  1.00  0.00    -0.298 N 
ATOM     74  C   UNL A   1      29.656  26.550  23.932  1.00  0.00     0.267 C 
ATOM     75  H   UNL A   1      29.506  26.016  25.858  1.00  0.00     0.172 HD
ATOM     76  O   UNL A   1      28.434  26.460  23.826  1.00  0.00    -0.268 OA
BRANCH  74  77
ATOM     77  C   UNL A   1      30.589  26.789  22.733  1.00  0.00     0.092 A 
ATOM     78  C   UNL A   1      31.677  25.497  22.483  1.00  0.00     0.025 A 
ATOM     79  S   UNL A   1      31.580  28.874  22.897  1.00  0.00    -0.139 S 
ATOM     80  C   UNL A   1      33.499  25.959  22.832  1.00  0.00     0.012 A 
ATOM     81  C   UNL A   1      33.694  27.912  23.141  1.00  0.00     0.065 A 
ENDBRANCH  74  77
ENDBRANCH  71  73
ENDBRANCH  69  71
ENDBRANCH  66  69
ENDBRANCH  59  62
ENDBRANCH   1  58
TORSDOF 14
ENDMDL
MODEL 2
REMARK VINA RESULT:     -11.4      1.454      6.237
REMARK SMILES O=C(NCCCNC(=O)c1ccc(Br)c(NC(=S)NC(=O)c2cccs2)c1)c1ccc(-c2c3nc(c(-c4ccccc4)c4ccc([nH]4)c(-c4ccccc4)c4nc(c(-c5ccccc5)c5ccc2[nH]5)C=C4)C=C3)cc1
REMARK SMILES IDX 6 1 5 2 4 3 3 4 1 5 2 6 28 8 29 9 75 10 30 11 74 12 31 13
REMARK SMILES IDX 32 14 33 15 68 16 34 17 73 18 67 19 69 20 35 21 72 22 66 23
REMARK SMILES IDX 65 24 36 26 58 27 43 28 57 29 44 30 47 31 56 32 70 33 45 34
REMARK SMILES IDX 46 35 55 37 71 38 48 39 37 40 38 41 42 42 39 43 41 44 40 45
REMARK SMILES IDX 59 46 60 47 64 48 61 49 63 50 62 51 49 52 50 53 54 54 51 55
REMARK SMILES IDX 53 56 52 57 7 58 8 59 9 61 10 62 11 63 27 64 12 65 15 66
REMARK SMILES IDX 13 67 14 68 16 69 17 71 18 72 19 73 20 74 21 76 22 77 23 78
REMARK SMILES IDX 26 79 24 80 25 81
REMARK H PARENT 3 7 69 25 47 36 7 60 16 70 19 75
REMARK Flexibility Score: inf
ROOT
ATOM      1  C   UNL A   1      36.458  20.479  25.071  1.00  0.00     0.118 C 
ENDROOT
BRANCH   1   2
ATOM      2  C   UNL A   1      37.794  19.814  24.789  1.00  0.00     0.042 C 
BRANCH   2   3
ATOM      3  C   UNL A   1      38.932  20.320  25.660  1.00  0.00     0.118 C 
BRANCH   3   4
ATOM      4  N   UNL A   1      40.017  19.353  25.804  1.00  0.00    -0.352 N 
ATOM      5  O   UNL A   1      42.145  18.623  26.002  1.00  0.00    -0.269 OA
ATOM      6  C   UNL A   1      41.342  19.544  26.112  1.00  0.00     0.251 C 
ATOM      7  H   UNL A   1      39.757  18.414  25.658  1.00  0.00     0.163 HD
BRANCH   6   8
ATOM      8  C   UNL A   1      41.798  20.877  26.547  1.00  0.00     0.039 A 
ATOM      9  C   UNL A   1      41.788  21.204  27.902  1.00  0.00     0.014 A 
ATOM     10  C   UNL A   1      42.211  21.815  25.599  1.00  0.00     0.014 A 
ATOM     11  C   UNL A   1      41.976  22.518  28.289  1.00  0.00     0.010 A 
ATOM     12  C   UNL A   1      42.548  23.106  26.011  1.00  0.00     0.010 A 
ATOM     13  C   UNL A   1      42.398  23.477  27.355  1.00  0.00    -0.014 A 
BRANCH  13  14
ATOM     14  C   UNL A   1      42.769  24.827  27.845  1.00  0.00     0.031 A 
ATOM     15  C   UNL A   1      44.202  25.221  28.057  1.00  0.00     0.074 A 
ATOM     16  C   UNL A   1      41.779  25.713  28.069  1.00  0.00     0.049 A 
ATOM     17  N   UNL A   1      44.682  26.369  28.466  1.00  0.00    -0.248 NA
ATOM     18  C   UNL A   1      45.230  24.204  27.786  1.00  0.00     0.031 C 
ATOM     19  C   UNL A   1      40.347  25.442  27.895  1.00  0.00     0.029 A 
ATOM     20  N   UNL A   1      41.818  27.022  28.467  1.00  0.00    -0.354 N 
ATOM     21  C   UNL A   1      46.060  26.208  28.522  1.00  0.00     0.074 A 
ATOM     22  C   UNL A   1      46.339  24.841  28.135  1.00  0.00     0.031 C 
ATOM     23  C   UNL A   1      39.653  26.563  28.123  1.00  0.00     0.029 A 
ATOM     24  C   UNL A   1      40.576  27.603  28.556  1.00  0.00     0.049 A 
ATOM     25  H   UNL A   1      42.653  27.501  28.671  1.00  0.00     0.167 HD
ATOM     26  C   UNL A   1      47.003  27.119  28.864  1.00  0.00     0.031 A 
ATOM     27  C   UNL A   1      40.207  28.826  28.973  1.00  0.00     0.031 A 
ATOM     28  C   UNL A   1      46.711  28.471  29.267  1.00  0.00     0.049 A 
ATOM     29  C   UNL A   1      41.271  29.786  29.413  1.00  0.00     0.074 A 
ATOM     30  C   UNL A   1      47.598  29.478  29.608  1.00  0.00     0.029 A 
ATOM     31  N   UNL A   1      45.437  29.003  29.399  1.00  0.00    -0.354 N 
ATOM     32  N   UNL A   1      42.572  29.631  29.423  1.00  0.00    -0.248 NA
ATOM     33  C   UNL A   1      40.813  31.095  29.895  1.00  0.00     0.031 C 
ATOM     34  C   UNL A   1      46.861  30.589  30.025  1.00  0.00     0.029 A 
ATOM     35  C   UNL A   1      45.515  30.311  29.854  1.00  0.00     0.049 A 
ATOM     36  H   UNL A   1      44.601  28.524  29.198  1.00  0.00     0.167 HD
ATOM     37  C   UNL A   1      43.091  30.832  29.883  1.00  0.00     0.074 A 
ATOM     38  C   UNL A   1      41.964  31.712  30.117  1.00  0.00     0.031 C 
ATOM     39  C   UNL A   1      44.386  31.175  30.091  1.00  0.00     0.031 A 
BRANCH  26  40
ATOM     40  C   UNL A   1      48.442  26.673  28.862  1.00  0.00    -0.014 A 
ATOM     41  C   UNL A   1      49.040  26.100  29.996  1.00  0.00     0.009 A 
ATOM     42  C   UNL A   1      49.198  26.781  27.683  1.00  0.00     0.009 A 
ATOM     43  C   UNL A   1      50.372  25.682  29.960  1.00  0.00     0.001 A 
ATOM     44  C   UNL A   1      50.519  26.328  27.638  1.00  0.00     0.001 A 
ATOM     45  C   UNL A   1      51.107  25.789  28.780  1.00  0.00     0.000 A 
ENDBRANCH  26  40
BRANCH  27  46
ATOM     46  C   UNL A   1      38.767  29.189  29.029  1.00  0.00    -0.014 A 
ATOM     47  C   UNL A   1      38.030  29.029  30.212  1.00  0.00     0.009 A 
ATOM     48  C   UNL A   1      38.119  29.697  27.891  1.00  0.00     0.009 A 
ATOM     49  C   UNL A   1      36.668  29.333  30.241  1.00  0.00     0.001 A 
ATOM     50  C   UNL A   1      36.768  30.041  27.935  1.00  0.00     0.001 A 
ATOM     51  C   UNL A   1      36.039  29.844  29.106  1.00  0.00     0.000 A 
ENDBRANCH  27  46
BRANCH  39  52
ATOM     52  C   UNL A   1      44.655  32.583  30.550  1.00  0.00    -0.014 A 
ATOM     53  C   UNL A   1      44.780  32.906  31.911  1.00  0.00     0.009 A 
ATOM     54  C   UNL A   1      44.811  33.601  29.594  1.00  0.00     0.009 A 
ATOM     55  C   UNL A   1      45.008  34.226  32.305  1.00  0.00     0.001 A 
ATOM     56  C   UNL A   1      45.080  34.911  29.989  1.00  0.00     0.001 A 
ATOM     57  C   UNL A   1      45.164  35.226  31.344  1.00  0.00     0.000 A 
ENDBRANCH  39  52
ENDBRANCH  13  14
ENDBRANCH   6   8
ENDBRANCH   3   4
ENDBRANCH   2   3
ENDBRANCH   1   2
BRANCH   1  58
ATOM     58  N   UNL A   1      35.345  19.568  24.889  1.00  0.00    -0.352 N 
ATOM     59  C   UNL A   1      33.984  19.719  24.964  1.00  0.00     0.251 C 
ATOM     60  H   UNL A   1      35.624  18.650  24.666  1.00  0.00     0.163 HD
ATOM     61  O   UNL A   1      33.359  18.663  25.006  1.00  0.00    -0.269 OA
BRANCH  59  62
ATOM     62  C   UNL A   1      33.358  21.167  24.973  1.00  0.00     0.041 A 
ATOM     63  C   UNL A   1      32.939  21.625  26.683  1.00  0.00     0.015 A 
ATOM     64  C   UNL A   1      32.855  22.607  23.591  1.00  0.00     0.041 A 
ATOM     65  C   UNL A   1      32.122  23.190  26.924  1.00  0.00     0.018 A 
ATOM     66  C   UNL A   1      32.005  23.981  23.917  1.00  0.00     0.055 A 
ATOM     67  C   UNL A   1      31.675  24.291  25.584  1.00  0.00     0.041 A 
ATOM     68  Br  UNL A   1      30.627  25.807  26.026  1.00  0.00    -0.049 Br
BRANCH  66  69
ATOM     69  N   UNL A   1      31.475  24.457  22.698  1.00  0.00    -0.331 N 
ATOM     70  H   UNL A   1      30.912  23.815  22.208  1.00  0.00     0.169 HD
BRANCH  69  71
ATOM     71  C   UNL A   1      31.630  25.703  22.082  1.00  0.00     0.177 C 
ATOM     72  S   UNL A   1      32.528  25.719  20.660  1.00  0.00    -0.040 S 
BRANCH  71  73
ATOM     73  N   UNL A   1      31.096  26.994  22.493  1.00  0.00    -0.298 N 
ATOM     74  C   UNL A   1      31.144  28.331  23.252  1.00  0.00     0.267 C 
ATOM     75  H   UNL A   1      30.226  27.031  22.033  1.00  0.00     0.172 HD
ATOM     76  O   UNL A   1      30.101  28.979  23.323  1.00  0.00    -0.268 OA
BRANCH  74  77
ATOM     77  C   UNL A   1      32.477  28.815  23.846  1.00  0.00     0.092 A 
ATOM     78  C   UNL A   1      33.603  27.547  24.047  1.00  0.00     0.025 A 
ATOM     79  S   UNL A   1      32.090  30.080  25.745  1.00  0.00    -0.139 S 
ATOM     80  C   UNL A   1      33.977  27.145  25.877  1.00  0.00     0.012 A 
ATOM     81  C   UNL A   1      33.157  28.493  27.086  1.00  0.00     0.065 A 
ENDBRANCH  74  77
ENDBRANCH  71  73
ENDBRANCH  69  71
ENDBRANCH  66  69
ENDBRANCH  59  62
ENDBRANCH   1  58
TORSDOF 14
ENDMDL
MODEL 3
REMARK VINA RESULT:     -11.4      0.838      5.993
REMARK SMILES O=C(NCCCNC(=O)c1ccc(Br)c(NC(=S)NC(=O)c2cccs2)c1)c1ccc(-c2c3nc(c(-c4ccccc4)c4ccc([nH]4)c(-c4ccccc4)c4nc(c(-c5ccccc5)c5ccc2[nH]5)C=C4)C=C3)cc1
REMARK SMILES IDX 6 1 5 2 4 3 3 4 1 5 2 6 28 8 29 9 75 10 30 11 74 12 31 13
REMARK SMILES IDX 32 14 33 15 68 16 34 17 73 18 67 19 69 20 35 21 72 22 66 23
REMARK SMILES IDX 65 24 36 26 58 27 43 28 57 29 44 30 47 31 56 32 70 33 45 34
REMARK SMILES IDX 46 35 55 37 71 38 48 39 37 40 38 41 42 42 39 43 41 44 40 45
REMARK SMILES IDX 59 46 60 47 64 48 61 49 63 50 62 51 49 52 50 53 54 54 51 55
REMARK SMILES IDX 53 56 52 57 7 58 8 59 9 61 10 62 11 63 27 64 12 65 15 66
REMARK SMILES IDX 13 67 14 68 16 69 17 71 18 72 19 73 20 74 21 76 22 77 23 78
REMARK SMILES IDX 26 79 24 80 25 81
REMARK H PARENT 3 7 69 25 47 36 7 60 16 70 19 75
REMARK Flexibility Score: inf
ROOT
ATOM      1  C   UNL A   1      36.885  20.710  25.064  1.00  0.00     0.118 C 
ENDROOT
BRANCH   1   2
ATOM      2  C   UNL A   1      38.141  19.865  24.935  1.00  0.00     0.042 C 
BRANCH   2   3
ATOM      3  C   UNL A   1      39.168  20.113  26.027  1.00  0.00     0.118 C 
BRANCH   3   4
ATOM      4  N   UNL A   1      40.253  19.136  26.026  1.00  0.00    -0.352 N 
ATOM      5  O   UNL A   1      42.378  18.382  25.900  1.00  0.00    -0.269 OA
ATOM      6  C   UNL A   1      41.612  19.318  26.106  1.00  0.00     0.251 C 
ATOM      7  H   UNL A   1      39.964  18.197  25.958  1.00  0.00     0.163 HD
BRANCH   6   8
ATOM      8  C   UNL A   1      42.145  20.658  26.413  1.00  0.00     0.039 A 
ATOM      9  C   UNL A   1      42.243  21.077  27.739  1.00  0.00     0.014 A 
ATOM     10  C   UNL A   1      42.522  21.512  25.375  1.00  0.00     0.014 A 
ATOM     11  C   UNL A   1      42.505  22.406  28.019  1.00  0.00     0.010 A 
ATOM     12  C   UNL A   1      42.933  22.814  25.670  1.00  0.00     0.010 A 
ATOM     13  C   UNL A   1      42.893  23.281  26.992  1.00  0.00    -0.014 A 
BRANCH  13  14
ATOM     14  C   UNL A   1      43.346  24.646  27.358  1.00  0.00     0.031 A 
ATOM     15  C   UNL A   1      44.793  25.039  27.293  1.00  0.00     0.074 A 
ATOM     16  C   UNL A   1      42.411  25.545  27.726  1.00  0.00     0.049 A 
ATOM     17  N   UNL A   1      45.338  26.198  27.567  1.00  0.00    -0.248 NA
ATOM     18  C   UNL A   1      45.755  24.006  26.877  1.00  0.00     0.031 C 
ATOM     19  C   UNL A   1      40.972  25.276  27.823  1.00  0.00     0.029 A 
ATOM     20  N   UNL A   1      42.521  26.867  28.064  1.00  0.00    -0.354 N 
ATOM     21  C   UNL A   1      46.704  26.031  27.379  1.00  0.00     0.074 A 
ATOM     22  C   UNL A   1      46.909  24.650  26.997  1.00  0.00     0.031 C 
ATOM     23  C   UNL A   1      40.330  26.408  28.133  1.00  0.00     0.029 A 
ATOM     24  C   UNL A   1      41.315  27.457  28.355  1.00  0.00     0.049 A 
ATOM     25  H   UNL A   1      43.379  27.348  28.096  1.00  0.00     0.167 HD
ATOM     26  C   UNL A   1      47.693  26.947  27.512  1.00  0.00     0.031 A 
ATOM     27  C   UNL A   1      41.027  28.696  28.788  1.00  0.00     0.031 A 
ATOM     28  C   UNL A   1      47.477  28.315  27.913  1.00  0.00     0.049 A 
ATOM     29  C   UNL A   1      42.152  29.666  28.993  1.00  0.00     0.074 A 
ATOM     30  C   UNL A   1      48.411  29.328  28.051  1.00  0.00     0.029 A 
ATOM     31  N   UNL A   1      46.247  28.859  28.254  1.00  0.00    -0.354 N 
ATOM     32  N   UNL A   1      43.433  29.503  28.773  1.00  0.00    -0.248 NA
ATOM     33  C   UNL A   1      41.789  30.993  29.504  1.00  0.00     0.031 C 
ATOM     34  C   UNL A   1      47.761  30.458  28.555  1.00  0.00     0.029 A 
ATOM     35  C   UNL A   1      46.406  30.181  28.640  1.00  0.00     0.049 A 
ATOM     36  H   UNL A   1      45.389  28.377  28.225  1.00  0.00     0.167 HD
ATOM     37  C   UNL A   1      44.026  30.717  29.089  1.00  0.00     0.074 A 
ATOM     38  C   UNL A   1      42.959  31.611  29.491  1.00  0.00     0.031 C 
ATOM     39  C   UNL A   1      45.338  31.059  29.047  1.00  0.00     0.031 A 
BRANCH  26  40
ATOM     40  C   UNL A   1      49.107  26.494  27.265  1.00  0.00    -0.014 A 
ATOM     41  C   UNL A   1      49.928  26.034  28.307  1.00  0.00     0.009 A 
ATOM     42  C   UNL A   1      49.610  26.477  25.954  1.00  0.00     0.009 A 
ATOM     43  C   UNL A   1      51.232  25.605  28.047  1.00  0.00     0.001 A 
ATOM     44  C   UNL A   1      50.901  26.012  25.690  1.00  0.00     0.001 A 
ATOM     45  C   UNL A   1      51.714  25.588  26.738  1.00  0.00     0.000 A 
ENDBRANCH  26  40
BRANCH  27  46
ATOM     46  C   UNL A   1      39.621  29.070  29.091  1.00  0.00    -0.014 A 
ATOM     47  C   UNL A   1      38.801  29.643  28.107  1.00  0.00     0.009 A 
ATOM     48  C   UNL A   1      39.091  28.856  30.374  1.00  0.00     0.009 A 
ATOM     49  C   UNL A   1      37.495  30.030  28.415  1.00  0.00     0.001 A 
ATOM     50  C   UNL A   1      37.772  29.203  30.666  1.00  0.00     0.001 A 
ATOM     51  C   UNL A   1      36.980  29.804  29.691  1.00  0.00     0.000 A 
ENDBRANCH  27  46
BRANCH  39  52
ATOM     52  C   UNL A   1      45.684  32.481  29.399  1.00  0.00    -0.014 A 
ATOM     53  C   UNL A   1      46.014  32.859  30.711  1.00  0.00     0.009 A 
ATOM     54  C   UNL A   1      45.704  33.456  28.388  1.00  0.00     0.009 A 
ATOM     55  C   UNL A   1      46.309  34.191  31.009  1.00  0.00     0.001 A 
ATOM     56  C   UNL A   1      46.041  34.777  28.681  1.00  0.00     0.001 A 
ATOM     57  C   UNL A   1      46.329  35.146  29.993  1.00  0.00     0.000 A 
ENDBRANCH  39  52
ENDBRANCH  13  14
ENDBRANCH   6   8
ENDBRANCH   3   4
ENDBRANCH   2   3
ENDBRANCH   1   2
BRANCH   1  58
ATOM     58  N   UNL A   1      36.824  21.755  24.061  1.00  0.00    -0.352 N 
ATOM     59  C   UNL A   1      35.838  22.622  23.665  1.00  0.00     0.251 C 
ATOM     60  H   UNL A   1      37.664  21.865  23.559  1.00  0.00     0.163 HD
ATOM     61  O   UNL A   1      36.063  23.194  22.603  1.00  0.00    -0.269 OA
BRANCH  59  62
ATOM     62  C   UNL A   1      34.561  22.818  24.570  1.00  0.00     0.041 A 
ATOM     63  C   UNL A   1      33.443  21.401  24.341  1.00  0.00     0.015 A 
ATOM     64  C   UNL A   1      33.825  24.244  25.860  1.00  0.00     0.041 A 
ATOM     65  C   UNL A   1      31.881  21.457  25.196  1.00  0.00     0.018 A 
ATOM     66  C   UNL A   1      32.314  24.241  26.519  1.00  0.00     0.055 A 
ATOM     67  C   UNL A   1      31.360  22.831  26.219  1.00  0.00     0.041 A 
ATOM     68  Br  UNL A   1      29.581  22.796  26.872  1.00  0.00    -0.049 Br
BRANCH  66  69
ATOM     69  N   UNL A   1      32.031  25.554  26.949  1.00  0.00    -0.331 N 
ATOM     70  H   UNL A   1      32.350  25.776  27.854  1.00  0.00     0.169 HD
BRANCH  69  71
ATOM     71  C   UNL A   1      31.364  26.589  26.284  1.00  0.00     0.177 C 
ATOM     72  S   UNL A   1      31.908  28.148  26.607  1.00  0.00    -0.040 S 
BRANCH  71  73
ATOM     73  N   UNL A   1      30.270  26.499  25.327  1.00  0.00    -0.298 N 
ATOM     74  C   UNL A   1      29.638  26.650  23.933  1.00  0.00     0.267 C 
ATOM     75  H   UNL A   1      29.527  26.150  25.871  1.00  0.00     0.172 HD
ATOM     76  O   UNL A   1      28.414  26.557  23.854  1.00  0.00    -0.268 OA
BRANCH  74  77
ATOM     77  C   UNL A   1      30.545  26.867  22.711  1.00  0.00     0.092 A 
ATOM     78  C   UNL A   1      31.634  25.575  22.466  1.00  0.00     0.025 A 
ATOM     79  S   UNL A   1      31.530  28.960  22.812  1.00  0.00    -0.139 S 
ATOM     80  C   UNL A   1      33.460  26.051  22.769  1.00  0.00     0.012 A 
ATOM     81  C   UNL A   1      33.653  28.011  23.034  1.00  0.00     0.065 A 
ENDBRANCH  74  77
ENDBRANCH  71  73
ENDBRANCH  69  71
ENDBRANCH  66  69
ENDBRANCH  59  62
ENDBRANCH   1  58
TORSDOF 14
ENDMDL
