MODEL 1
REMARK VINA RESULT:     -13.3      0.000      0.000
REMARK SMILES O=C(CCN1C(=O)[C@@H]2[C@@H](C1=O)[C@H]1c3ccccc3[C@]2(Br)c2ccccc21)NCCCNC(=O)c1ccc(-c2c3nc(c(-c4ccccc4)c4ccc([nH]4)c(-c4ccccc4)c4nc(c(-c5ccccc5)c5ccc2[nH]5)C=C4)C=C3)cc1
REMARK SMILES IDX 29 1 28 2 27 3 1 4 2 5 3 7 4 8 5 9 6 10 10 11 7 12 8 13 9 14
REMARK SMILES IDX 11 15 19 16 12 17 21 18 20 19 18 20 26 21 13 22 22 23 17 24
REMARK SMILES IDX 25 25 14 26 23 27 16 28 24 29 15 30 30 31 31 32 32 33 33 35
REMARK SMILES IDX 34 36 35 37 81 38 36 39 80 40 37 41 38 42 39 43 74 44 40 45
REMARK SMILES IDX 79 46 73 47 75 48 41 49 78 50 72 51 71 52 42 54 64 55 49 56
REMARK SMILES IDX 63 57 50 58 53 59 62 60 76 61 51 62 52 63 61 65 77 66 54 67
REMARK SMILES IDX 43 68 44 69 48 70 45 71 47 72 46 73 65 74 66 75 70 76 67 77
REMARK SMILES IDX 69 78 68 79 55 80 56 81 60 82 57 83 59 84 58 85
REMARK H PARENT 27 6 31 34 75 53 53 64
REMARK Flexibility Score: inf
ROOT
ATOM      1  C   UNL A   1      37.631  21.260  24.633  1.00  0.00     0.042 C 
ENDROOT
BRANCH   1   2
ATOM      2  C   UNL A   1      36.658  20.095  24.734  1.00  0.00     0.117 C 
BRANCH   2   3
ATOM      3  N   UNL A   1      35.550  20.414  25.607  1.00  0.00    -0.356 N 
ATOM      4  O   UNL A   1      33.870  19.700  24.215  1.00  0.00    -0.275 OA
ATOM      5  C   UNL A   1      34.242  20.147  25.292  1.00  0.00     0.221 C 
ATOM      6  H   UNL A   1      35.745  20.845  26.471  1.00  0.00     0.163 HD
BRANCH   5   7
ATOM      7  C   UNL A   1      33.288  20.454  26.420  1.00  0.00     0.122 C 
BRANCH   7   8
ATOM      8  C   UNL A   1      33.796  21.605  27.286  1.00  0.00     0.138 C 
BRANCH   8   9
ATOM      9  N   UNL A   1      33.552  22.960  26.791  1.00  0.00    -0.281 N 
ATOM     10  C   UNL A   1      32.316  23.603  26.939  1.00  0.00     0.235 C 
ATOM     11  C   UNL A   1      34.426  23.719  26.020  1.00  0.00     0.234 C 
ATOM     12  O   UNL A   1      31.395  23.294  27.662  1.00  0.00    -0.274 OA
ATOM     13  C   UNL A   1      32.333  24.651  25.862  1.00  0.00     0.118 C 
ATOM     14  C   UNL A   1      33.799  25.074  25.999  1.00  0.00     0.105 C 
ATOM     15  O   UNL A   1      35.541  23.435  25.627  1.00  0.00    -0.274 OA
ATOM     16  C   UNL A   1      31.494  25.906  25.586  1.00  0.00     0.088 C 
ATOM     17  C   UNL A   1      34.091  26.258  25.074  1.00  0.00     0.063 C 
ATOM     18  C   UNL A   1      31.831  26.105  24.057  1.00  0.00    -0.022 A 
ATOM     19  Br  UNL A   1      29.627  25.592  25.913  1.00  0.00    -0.074 Br
ATOM     20  C   UNL A   1      32.083  27.162  26.262  1.00  0.00    -0.022 A 
ATOM     21  C   UNL A   1      33.248  26.181  23.810  1.00  0.00    -0.035 A 
ATOM     22  C   UNL A   1      33.438  27.423  25.856  1.00  0.00    -0.035 A 
ATOM     23  C   UNL A   1      30.956  26.240  22.987  1.00  0.00     0.006 A 
ATOM     24  C   UNL A   1      31.421  28.102  27.046  1.00  0.00     0.006 A 
ATOM     25  C   UNL A   1      33.762  26.328  22.530  1.00  0.00     0.005 A 
ATOM     26  C   UNL A   1      34.022  28.663  26.066  1.00  0.00     0.005 A 
ATOM     27  C   UNL A   1      31.482  26.403  21.699  1.00  0.00     0.000 A 
ATOM     28  C   UNL A   1      32.053  29.317  27.327  1.00  0.00     0.000 A 
ATOM     29  C   UNL A   1      32.866  26.431  21.471  1.00  0.00     0.000 A 
ATOM     30  C   UNL A   1      33.317  29.612  26.801  1.00  0.00     0.000 A 
ENDBRANCH   8   9
ENDBRANCH   7   8
ENDBRANCH   5   7
ENDBRANCH   2   3
ENDBRANCH   1   2
BRANCH   1  31
ATOM     31  C   UNL A   1      38.665  21.301  25.751  1.00  0.00     0.118 C 
BRANCH  31  32
ATOM     32  N   UNL A   1      39.440  20.073  25.844  1.00  0.00    -0.352 N 
ATOM     33  C   UNL A   1      40.786  19.906  26.069  1.00  0.00     0.251 C 
ATOM     34  H   UNL A   1      38.926  19.241  25.729  1.00  0.00     0.163 HD
ATOM     35  O   UNL A   1      41.322  18.846  25.761  1.00  0.00    -0.269 OA
BRANCH  33  36
ATOM     36  C   UNL A   1      41.601  21.009  26.633  1.00  0.00     0.039 A 
ATOM     37  C   UNL A   1      41.702  21.233  28.010  1.00  0.00     0.014 A 
ATOM     38  C   UNL A   1      42.250  21.870  25.744  1.00  0.00     0.014 A 
ATOM     39  C   UNL A   1      42.206  22.437  28.479  1.00  0.00     0.010 A 
ATOM     40  C   UNL A   1      42.839  23.039  26.220  1.00  0.00     0.010 A 
ATOM     41  C   UNL A   1      42.722  23.376  27.576  1.00  0.00    -0.014 A 
BRANCH  41  42
ATOM     42  C   UNL A   1      42.978  24.762  28.025  1.00  0.00     0.031 A 
ATOM     43  C   UNL A   1      44.404  25.211  28.219  1.00  0.00     0.074 A 
ATOM     44  C   UNL A   1      41.961  25.625  28.183  1.00  0.00     0.049 A 
ATOM     45  N   UNL A   1      44.856  26.358  28.654  1.00  0.00    -0.248 NA
ATOM     46  C   UNL A   1      45.464  24.243  27.881  1.00  0.00     0.031 C 
ATOM     47  C   UNL A   1      40.550  25.319  27.941  1.00  0.00     0.029 A 
ATOM     48  N   UNL A   1      41.958  26.940  28.570  1.00  0.00    -0.354 N 
ATOM     49  C   UNL A   1      46.240  26.237  28.667  1.00  0.00     0.074 A 
ATOM     50  C   UNL A   1      46.560  24.900  28.229  1.00  0.00     0.031 C 
ATOM     51  C   UNL A   1      39.822  26.424  28.157  1.00  0.00     0.029 A 
ATOM     52  C   UNL A   1      40.702  27.492  28.624  1.00  0.00     0.049 A 
ATOM     53  H   UNL A   1      42.777  27.441  28.786  1.00  0.00     0.167 HD
ATOM     54  C   UNL A   1      47.162  27.168  29.002  1.00  0.00     0.031 A 
ATOM     55  C   UNL A   1      40.301  28.713  29.031  1.00  0.00     0.031 A 
ATOM     56  C   UNL A   1      46.829  28.505  29.413  1.00  0.00     0.049 A 
ATOM     57  C   UNL A   1      41.338  29.701  29.488  1.00  0.00     0.074 A 
ATOM     58  C   UNL A   1      47.687  29.530  29.764  1.00  0.00     0.029 A 
ATOM     59  N   UNL A   1      45.539  28.999  29.524  1.00  0.00    -0.354 N 
ATOM     60  N   UNL A   1      42.644  29.574  29.505  1.00  0.00    -0.248 NA
ATOM     61  C   UNL A   1      40.855  30.997  29.983  1.00  0.00     0.031 C 
ATOM     62  C   UNL A   1      46.915  30.621  30.163  1.00  0.00     0.029 A 
ATOM     63  C   UNL A   1      45.577  30.306  29.977  1.00  0.00     0.049 A 
ATOM     64  H   UNL A   1      44.719  28.497  29.314  1.00  0.00     0.167 HD
ATOM     65  C   UNL A   1      43.138  30.777  29.991  1.00  0.00     0.074 A 
ATOM     66  C   UNL A   1      41.993  31.628  30.241  1.00  0.00     0.031 C 
ATOM     67  C   UNL A   1      44.425  31.140  30.213  1.00  0.00     0.031 A 
BRANCH  54  68
ATOM     68  C   UNL A   1      48.618  26.787  28.960  1.00  0.00    -0.014 A 
ATOM     69  C   UNL A   1      49.334  26.924  27.758  1.00  0.00     0.009 A 
ATOM     70  C   UNL A   1      49.255  26.201  30.064  1.00  0.00     0.009 A 
ATOM     71  C   UNL A   1      50.646  26.459  27.655  1.00  0.00     0.001 A 
ATOM     72  C   UNL A   1      50.580  25.768  29.968  1.00  0.00     0.001 A 
ATOM     73  C   UNL A   1      51.269  25.885  28.760  1.00  0.00     0.000 A 
ENDBRANCH  54  68
BRANCH  55  74
ATOM     74  C   UNL A   1      38.850  29.041  29.024  1.00  0.00    -0.014 A 
ATOM     75  C   UNL A   1      38.243  29.567  27.871  1.00  0.00     0.009 A 
ATOM     76  C   UNL A   1      38.079  28.899  30.186  1.00  0.00     0.009 A 
ATOM     77  C   UNL A   1      36.910  29.983  27.892  1.00  0.00     0.001 A 
ATOM     78  C   UNL A   1      36.735  29.284  30.195  1.00  0.00     0.001 A 
ATOM     79  C   UNL A   1      36.156  29.838  29.054  1.00  0.00     0.000 A 
ENDBRANCH  55  74
BRANCH  67  80
ATOM     80  C   UNL A   1      44.695  32.521  30.743  1.00  0.00    -0.014 A 
ATOM     81  C   UNL A   1      44.947  33.572  29.845  1.00  0.00     0.009 A 
ATOM     82  C   UNL A   1      44.856  32.748  32.117  1.00  0.00     0.009 A 
ATOM     83  C   UNL A   1      45.392  34.810  30.310  1.00  0.00     0.001 A 
ATOM     84  C   UNL A   1      45.266  33.998  32.582  1.00  0.00     0.001 A 
ATOM     85  C   UNL A   1      45.550  35.022  31.678  1.00  0.00     0.000 A 
ENDBRANCH  67  80
ENDBRANCH  41  42
ENDBRANCH  33  36
ENDBRANCH  31  32
ENDBRANCH   1  31
TORSDOF 12
ENDMDL
MODEL 2
REMARK VINA RESULT:     -13.1      3.760      8.758
REMARK SMILES O=C(CCN1C(=O)[C@@H]2[C@@H](C1=O)[C@H]1c3ccccc3[C@]2(Br)c2ccccc21)NCCCNC(=O)c1ccc(-c2c3nc(c(-c4ccccc4)c4ccc([nH]4)c(-c4ccccc4)c4nc(c(-c5ccccc5)c5ccc2[nH]5)C=C4)C=C3)cc1
REMARK SMILES IDX 29 1 28 2 27 3 1 4 2 5 3 7 4 8 5 9 6 10 10 11 7 12 8 13 9 14
REMARK SMILES IDX 11 15 19 16 12 17 21 18 20 19 18 20 26 21 13 22 22 23 17 24
REMARK SMILES IDX 25 25 14 26 23 27 16 28 24 29 15 30 30 31 31 32 32 33 33 35
REMARK SMILES IDX 34 36 35 37 81 38 36 39 80 40 37 41 38 42 39 43 74 44 40 45
REMARK SMILES IDX 79 46 73 47 75 48 41 49 78 50 72 51 71 52 42 54 64 55 49 56
REMARK SMILES IDX 63 57 50 58 53 59 62 60 76 61 51 62 52 63 61 65 77 66 54 67
REMARK SMILES IDX 43 68 44 69 48 70 45 71 47 72 46 73 65 74 66 75 70 76 67 77
REMARK SMILES IDX 69 78 68 79 55 80 56 81 60 82 57 83 59 84 58 85
REMARK H PARENT 27 6 31 34 75 53 53 64
REMARK Flexibility Score: inf
ROOT
ATOM      1  C   UNL A   1      32.028  30.528  27.035  1.00  0.00     0.042 C 
ENDROOT
BRANCH   1   2
ATOM      2  C   UNL A   1      31.193  30.884  25.815  1.00  0.00     0.117 C 
BRANCH   2   3
ATOM      3  N   UNL A   1      31.634  30.150  24.649  1.00  0.00    -0.356 N 
ATOM      4  O   UNL A   1      29.568  29.873  23.684  1.00  0.00    -0.275 OA
ATOM      5  C   UNL A   1      30.785  29.741  23.651  1.00  0.00     0.221 C 
ATOM      6  H   UNL A   1      32.591  29.932  24.567  1.00  0.00     0.163 HD
BRANCH   5   7
ATOM      7  C   UNL A   1      31.505  29.111  22.484  1.00  0.00     0.122 C 
BRANCH   7   8
ATOM      8  C   UNL A   1      32.985  28.891  22.792  1.00  0.00     0.138 C 
BRANCH   8   9
ATOM      9  N   UNL A   1      33.357  27.587  23.343  1.00  0.00    -0.281 N 
ATOM     10  C   UNL A   1      33.491  26.443  22.545  1.00  0.00     0.235 C 
ATOM     11  C   UNL A   1      33.492  27.278  24.693  1.00  0.00     0.234 C 
ATOM     12  O   UNL A   1      33.576  26.381  21.339  1.00  0.00    -0.274 OA
ATOM     13  C   UNL A   1      33.321  25.312  23.518  1.00  0.00     0.118 C 
ATOM     14  C   UNL A   1      34.105  25.917  24.687  1.00  0.00     0.105 C 
ATOM     15  O   UNL A   1      33.355  28.004  25.659  1.00  0.00    -0.274 OA
ATOM     16  C   UNL A   1      33.623  23.809  23.464  1.00  0.00     0.088 C 
ATOM     17  C   UNL A   1      34.211  24.902  25.829  1.00  0.00     0.063 C 
ATOM     18  C   UNL A   1      32.700  23.322  24.649  1.00  0.00    -0.022 A 
ATOM     19  Br  UNL A   1      33.133  23.051  21.768  1.00  0.00    -0.074 Br
ATOM     20  C   UNL A   1      35.052  23.481  23.948  1.00  0.00    -0.022 A 
ATOM     21  C   UNL A   1      32.976  24.015  25.882  1.00  0.00    -0.035 A 
ATOM     22  C   UNL A   1      35.301  23.947  25.286  1.00  0.00    -0.035 A 
ATOM     23  C   UNL A   1      31.728  22.331  24.641  1.00  0.00     0.006 A 
ATOM     24  C   UNL A   1      36.005  22.685  23.322  1.00  0.00     0.006 A 
ATOM     25  C   UNL A   1      32.260  23.759  27.043  1.00  0.00     0.005 A 
ATOM     26  C   UNL A   1      36.371  23.464  26.024  1.00  0.00     0.005 A 
ATOM     27  C   UNL A   1      31.020  22.067  25.819  1.00  0.00     0.000 A 
ATOM     28  C   UNL A   1      37.127  22.274  24.046  1.00  0.00     0.000 A 
ATOM     29  C   UNL A   1      31.271  22.782  27.001  1.00  0.00     0.000 A 
ATOM     30  C   UNL A   1      37.282  22.619  25.396  1.00  0.00     0.000 A 
ENDBRANCH   8   9
ENDBRANCH   7   8
ENDBRANCH   5   7
ENDBRANCH   2   3
ENDBRANCH   1   2
BRANCH   1  31
ATOM     31  C   UNL A   1      33.191  31.480  27.289  1.00  0.00     0.118 C 
BRANCH  31  32
ATOM     32  N   UNL A   1      32.764  32.865  27.415  1.00  0.00    -0.352 N 
ATOM     33  C   UNL A   1      33.207  33.838  28.280  1.00  0.00     0.251 C 
ATOM     34  H   UNL A   1      32.056  33.146  26.792  1.00  0.00     0.163 HD
ATOM     35  O   UNL A   1      32.503  34.821  28.493  1.00  0.00    -0.269 OA
BRANCH  33  36
ATOM     36  C   UNL A   1      34.499  33.687  28.992  1.00  0.00     0.039 A 
ATOM     37  C   UNL A   1      35.703  34.160  28.460  1.00  0.00     0.014 A 
ATOM     38  C   UNL A   1      34.503  33.011  30.215  1.00  0.00     0.014 A 
ATOM     39  C   UNL A   1      36.910  33.731  28.993  1.00  0.00     0.010 A 
ATOM     40  C   UNL A   1      35.713  32.656  30.804  1.00  0.00     0.010 A 
ATOM     41  C   UNL A   1      36.917  32.921  30.136  1.00  0.00    -0.014 A 
BRANCH  41  42
ATOM     42  C   UNL A   1      38.159  32.220  30.531  1.00  0.00     0.031 A 
ATOM     43  C   UNL A   1      39.003  32.803  31.636  1.00  0.00     0.074 A 
ATOM     44  C   UNL A   1      38.487  31.047  29.965  1.00  0.00     0.049 A 
ATOM     45  N   UNL A   1      40.150  32.386  32.105  1.00  0.00    -0.248 NA
ATOM     46  C   UNL A   1      38.492  34.014  32.303  1.00  0.00     0.031 C 
ATOM     47  C   UNL A   1      37.699  30.352  28.946  1.00  0.00     0.029 A 
ATOM     48  N   UNL A   1      39.562  30.223  30.178  1.00  0.00    -0.354 N 
ATOM     49  C   UNL A   1      40.505  33.296  33.095  1.00  0.00     0.074 A 
ATOM     50  C   UNL A   1      39.474  34.305  33.141  1.00  0.00     0.031 C 
ATOM     51  C   UNL A   1      38.302  29.194  28.644  1.00  0.00     0.029 A 
ATOM     52  C   UNL A   1      39.554  29.099  29.389  1.00  0.00     0.049 A 
ATOM     53  H   UNL A   1      40.270  30.418  30.833  1.00  0.00     0.167 HD
ATOM     54  C   UNL A   1      41.590  33.279  33.902  1.00  0.00     0.031 A 
ATOM     55  C   UNL A   1      40.467  28.116  29.260  1.00  0.00     0.031 A 
ATOM     56  C   UNL A   1      42.596  32.253  33.860  1.00  0.00     0.049 A 
ATOM     57  C   UNL A   1      41.712  28.168  30.102  1.00  0.00     0.074 A 
ATOM     58  C   UNL A   1      43.730  32.136  34.641  1.00  0.00     0.029 A 
ATOM     59  N   UNL A   1      42.585  31.171  32.994  1.00  0.00    -0.354 N 
ATOM     60  N   UNL A   1      42.042  29.037  31.028  1.00  0.00    -0.248 NA
ATOM     61  C   UNL A   1      42.710  27.112  29.886  1.00  0.00     0.031 C 
ATOM     62  C   UNL A   1      44.447  31.025  34.195  1.00  0.00     0.029 A 
ATOM     63  C   UNL A   1      43.717  30.401  33.196  1.00  0.00     0.049 A 
ATOM     64  H   UNL A   1      41.881  30.979  32.334  1.00  0.00     0.167 HD
ATOM     65  C   UNL A   1      43.273  28.623  31.519  1.00  0.00     0.074 A 
ATOM     66  C   UNL A   1      43.623  27.415  30.800  1.00  0.00     0.031 C 
ATOM     67  C   UNL A   1      44.044  29.196  32.475  1.00  0.00     0.031 A 
BRANCH  54  68
ATOM     68  C   UNL A   1      41.769  34.401  34.889  1.00  0.00    -0.014 A 
ATOM     69  C   UNL A   1      41.195  34.295  36.167  1.00  0.00     0.009 A 
ATOM     70  C   UNL A   1      42.410  35.598  34.532  1.00  0.00     0.009 A 
ATOM     71  C   UNL A   1      41.235  35.371  37.056  1.00  0.00     0.001 A 
ATOM     72  C   UNL A   1      42.479  36.659  35.437  1.00  0.00     0.001 A 
ATOM     73  C   UNL A   1      41.879  36.550  36.692  1.00  0.00     0.000 A 
ENDBRANCH  54  68
BRANCH  55  74
ATOM     74  C   UNL A   1      40.221  27.018  28.286  1.00  0.00    -0.014 A 
ATOM     75  C   UNL A   1      39.512  25.867  28.673  1.00  0.00     0.009 A 
ATOM     76  C   UNL A   1      40.751  27.079  26.990  1.00  0.00     0.009 A 
ATOM     77  C   UNL A   1      39.376  24.786  27.800  1.00  0.00     0.001 A 
ATOM     78  C   UNL A   1      40.583  26.010  26.106  1.00  0.00     0.001 A 
ATOM     79  C   UNL A   1      39.909  24.860  26.515  1.00  0.00     0.000 A 
ENDBRANCH  55  74
BRANCH  67  80
ATOM     80  C   UNL A   1      45.346  28.534  32.831  1.00  0.00    -0.014 A 
ATOM     81  C   UNL A   1      46.506  28.843  32.100  1.00  0.00     0.009 A 
ATOM     82  C   UNL A   1      45.394  27.498  33.775  1.00  0.00     0.009 A 
ATOM     83  C   UNL A   1      47.675  28.104  32.279  1.00  0.00     0.001 A 
ATOM     84  C   UNL A   1      46.576  26.783  33.977  1.00  0.00     0.001 A 
ATOM     85  C   UNL A   1      47.710  27.075  33.218  1.00  0.00     0.000 A 
ENDBRANCH  67  80
ENDBRANCH  41  42
ENDBRANCH  33  36
ENDBRANCH  31  32
ENDBRANCH   1  31
TORSDOF 12
ENDMDL
MODEL 3
REMARK VINA RESULT:     -13.0      1.737      2.851
REMARK SMILES O=C(CCN1C(=O)[C@@H]2[C@@H](C1=O)[C@H]1c3ccccc3[C@]2(Br)c2ccccc21)NCCCNC(=O)c1ccc(-c2c3nc(c(-c4ccccc4)c4ccc([nH]4)c(-c4ccccc4)c4nc(c(-c5ccccc5)c5ccc2[nH]5)C=C4)C=C3)cc1
REMARK SMILES IDX 29 1 28 2 27 3 1 4 2 5 3 7 4 8 5 9 6 10 10 11 7 12 8 13 9 14
REMARK SMILES IDX 11 15 19 16 12 17 21 18 20 19 18 20 26 21 13 22 22 23 17 24
REMARK SMILES IDX 25 25 14 26 23 27 16 28 24 29 15 30 30 31 31 32 32 33 33 35
REMARK SMILES IDX 34 36 35 37 81 38 36 39 80 40 37 41 38 42 39 43 74 44 40 45
REMARK SMILES IDX 79 46 73 47 75 48 41 49 78 50 72 51 71 52 42 54 64 55 49 56
REMARK SMILES IDX 63 57 50 58 53 59 62 60 76 61 51 62 52 63 61 65 77 66 54 67
REMARK SMILES IDX 43 68 44 69 48 70 45 71 47 72 46 73 65 74 66 75 70 76 67 77
REMARK SMILES IDX 69 78 68 79 55 80 56 81 60 82 57 83 59 84 58 85
REMARK H PARENT 27 6 31 34 75 53 53 64
REMARK Flexibility Score: inf
ROOT
ATOM      1  C   UNL A   1      37.317  21.116  25.286  1.00  0.00     0.042 C 
ENDROOT
BRANCH   1   2
ATOM      2  C   UNL A   1      36.347  22.235  25.631  1.00  0.00     0.117 C 
BRANCH   2   3
ATOM      3  N   UNL A   1      35.059  22.019  25.009  1.00  0.00    -0.356 N 
ATOM      4  O   UNL A   1      35.486  23.150  23.057  1.00  0.00    -0.275 OA
ATOM      5  C   UNL A   1      34.748  22.458  23.747  1.00  0.00     0.221 C 
ATOM      6  H   UNL A   1      34.370  21.531  25.517  1.00  0.00     0.163 HD
BRANCH   5   7
ATOM      7  C   UNL A   1      33.392  21.994  23.276  1.00  0.00     0.122 C 
BRANCH   7   8
ATOM      8  C   UNL A   1      32.834  22.909  22.187  1.00  0.00     0.138 C 
BRANCH   8   9
ATOM      9  N   UNL A   1      32.297  24.199  22.621  1.00  0.00    -0.281 N 
ATOM     10  C   UNL A   1      32.834  25.420  22.191  1.00  0.00     0.235 C 
ATOM     11  C   UNL A   1      31.311  24.394  23.583  1.00  0.00     0.234 C 
ATOM     12  O   UNL A   1      33.594  25.618  21.269  1.00  0.00    -0.274 OA
ATOM     13  C   UNL A   1      32.395  26.391  23.249  1.00  0.00     0.118 C 
ATOM     14  C   UNL A   1      30.980  25.845  23.465  1.00  0.00     0.105 C 
ATOM     15  O   UNL A   1      30.697  23.564  24.225  1.00  0.00    -0.274 OA
ATOM     16  C   UNL A   1      32.335  27.922  23.328  1.00  0.00     0.088 C 
ATOM     17  C   UNL A   1      30.214  26.742  24.442  1.00  0.00     0.063 C 
ATOM     18  C   UNL A   1      32.249  28.092  24.896  1.00  0.00    -0.022 A 
ATOM     19  Br  UNL A   1      33.905  28.729  22.568  1.00  0.00    -0.074 Br
ATOM     20  C   UNL A   1      30.990  28.483  22.820  1.00  0.00    -0.022 A 
ATOM     21  C   UNL A   1      31.156  27.350  25.471  1.00  0.00    -0.035 A 
ATOM     22  C   UNL A   1      29.864  27.947  23.537  1.00  0.00    -0.035 A 
ATOM     23  C   UNL A   1      33.049  28.861  25.730  1.00  0.00     0.006 A 
ATOM     24  C   UNL A   1      30.782  29.514  21.910  1.00  0.00     0.006 A 
ATOM     25  C   UNL A   1      30.916  27.340  26.837  1.00  0.00     0.005 A 
ATOM     26  C   UNL A   1      28.622  28.561  23.480  1.00  0.00     0.005 A 
ATOM     27  C   UNL A   1      32.792  28.858  27.106  1.00  0.00     0.000 A 
ATOM     28  C   UNL A   1      29.505  30.070  21.794  1.00  0.00     0.000 A 
ATOM     29  C   UNL A   1      31.750  28.095  27.655  1.00  0.00     0.000 A 
ATOM     30  C   UNL A   1      28.450  29.631  22.606  1.00  0.00     0.000 A 
ENDBRANCH   8   9
ENDBRANCH   7   8
ENDBRANCH   5   7
ENDBRANCH   2   3
ENDBRANCH   1   2
BRANCH   1  31
ATOM     31  C   UNL A   1      38.755  21.392  25.707  1.00  0.00     0.118 C 
BRANCH  31  32
ATOM     32  N   UNL A   1      39.562  20.183  25.775  1.00  0.00    -0.352 N 
ATOM     33  C   UNL A   1      40.908  20.046  26.018  1.00  0.00     0.251 C 
ATOM     34  H   UNL A   1      39.074  19.342  25.625  1.00  0.00     0.163 HD
ATOM     35  O   UNL A   1      41.479  19.011  25.686  1.00  0.00    -0.269 OA
BRANCH  33  36
ATOM     36  C   UNL A   1      41.683  21.153  26.631  1.00  0.00     0.039 A 
ATOM     37  C   UNL A   1      41.776  21.320  28.016  1.00  0.00     0.014 A 
ATOM     38  C   UNL A   1      42.302  22.073  25.781  1.00  0.00     0.014 A 
ATOM     39  C   UNL A   1      42.236  22.520  28.537  1.00  0.00     0.010 A 
ATOM     40  C   UNL A   1      42.848  23.241  26.307  1.00  0.00     0.010 A 
ATOM     41  C   UNL A   1      42.718  23.515  27.677  1.00  0.00    -0.014 A 
BRANCH  41  42
ATOM     42  C   UNL A   1      42.924  24.889  28.185  1.00  0.00     0.031 A 
ATOM     43  C   UNL A   1      44.324  25.337  28.521  1.00  0.00     0.074 A 
ATOM     44  C   UNL A   1      41.891  25.744  28.274  1.00  0.00     0.049 A 
ATOM     45  N   UNL A   1      44.727  26.473  29.027  1.00  0.00    -0.248 NA
ATOM     46  C   UNL A   1      45.415  24.383  28.254  1.00  0.00     0.031 C 
ATOM     47  C   UNL A   1      40.511  25.440  27.896  1.00  0.00     0.029 A 
ATOM     48  N   UNL A   1      41.846  27.047  28.695  1.00  0.00    -0.354 N 
ATOM     49  C   UNL A   1      46.105  26.356  29.163  1.00  0.00     0.074 A 
ATOM     50  C   UNL A   1      46.471  25.033  28.719  1.00  0.00     0.031 C 
ATOM     51  C   UNL A   1      39.759  26.536  28.076  1.00  0.00     0.029 A 
ATOM     52  C   UNL A   1      40.587  27.593  28.650  1.00  0.00     0.049 A 
ATOM     53  H   UNL A   1      42.639  27.545  28.999  1.00  0.00     0.167 HD
ATOM     54  C   UNL A   1      46.987  27.281  29.606  1.00  0.00     0.031 A 
ATOM     55  C   UNL A   1      40.143  28.800  29.053  1.00  0.00     0.031 A 
ATOM     56  C   UNL A   1      46.610  28.604  30.022  1.00  0.00     0.049 A 
ATOM     57  C   UNL A   1      41.128  29.779  29.630  1.00  0.00     0.074 A 
ATOM     58  C   UNL A   1      47.427  29.622  30.478  1.00  0.00     0.029 A 
ATOM     59  N   UNL A   1      45.312  29.091  30.029  1.00  0.00    -0.354 N 
ATOM     60  N   UNL A   1      42.428  29.656  29.762  1.00  0.00    -0.248 NA
ATOM     61  C   UNL A   1      40.594  31.059  30.114  1.00  0.00     0.031 C 
ATOM     62  C   UNL A   1      46.615  30.698  30.835  1.00  0.00     0.029 A 
ATOM     63  C   UNL A   1      45.302  30.384  30.520  1.00  0.00     0.049 A 
ATOM     64  H   UNL A   1      44.518  28.592  29.731  1.00  0.00     0.167 HD
ATOM     65  C   UNL A   1      42.869  30.846  30.324  1.00  0.00     0.074 A 
ATOM     66  C   UNL A   1      41.701  31.686  30.492  1.00  0.00     0.031 C 
ATOM     67  C   UNL A   1      44.128  31.207  30.673  1.00  0.00     0.031 A 
BRANCH  54  68
ATOM     68  C   UNL A   1      48.443  26.906  29.687  1.00  0.00    -0.014 A 
ATOM     69  C   UNL A   1      49.279  27.138  28.580  1.00  0.00     0.009 A 
ATOM     70  C   UNL A   1      48.968  26.235  30.802  1.00  0.00     0.009 A 
ATOM     71  C   UNL A   1      50.599  26.684  28.579  1.00  0.00     0.001 A 
ATOM     72  C   UNL A   1      50.300  25.813  30.811  1.00  0.00     0.001 A 
ATOM     73  C   UNL A   1      51.109  26.025  29.695  1.00  0.00     0.000 A 
ENDBRANCH  54  68
BRANCH  55  74
ATOM     74  C   UNL A   1      38.696  29.124  28.922  1.00  0.00    -0.014 A 
ATOM     75  C   UNL A   1      38.189  29.656  27.724  1.00  0.00     0.009 A 
ATOM     76  C   UNL A   1      37.828  28.971  30.012  1.00  0.00     0.009 A 
ATOM     77  C   UNL A   1      36.858  30.068  27.633  1.00  0.00     0.001 A 
ATOM     78  C   UNL A   1      36.487  29.351  29.907  1.00  0.00     0.001 A 
ATOM     79  C   UNL A   1      36.007  29.911  28.724  1.00  0.00     0.000 A 
ENDBRANCH  55  74
BRANCH  67  80
ATOM     80  C   UNL A   1      44.340  32.574  31.262  1.00  0.00    -0.014 A 
ATOM     81  C   UNL A   1      44.264  32.749  32.655  1.00  0.00     0.009 A 
ATOM     82  C   UNL A   1      44.454  33.704  30.440  1.00  0.00     0.009 A 
ATOM     83  C   UNL A   1      44.260  34.029  33.209  1.00  0.00     0.001 A 
ATOM     84  C   UNL A   1      44.486  34.983  31.000  1.00  0.00     0.001 A 
ATOM     85  C   UNL A   1      44.373  35.145  32.381  1.00  0.00     0.000 A 
ENDBRANCH  67  80
ENDBRANCH  41  42
ENDBRANCH  33  36
ENDBRANCH  31  32
ENDBRANCH   1  31
TORSDOF 12
ENDMDL
