MODEL 1
REMARK VINA RESULT:     -10.4      0.000      0.000
REMARK SMILES O=C(CC1CN(C(=O)C[C@H]2CCCCO2)C1)NCCCNC(=O)c1ccc(-c2c3nc(c(-c4ccccc4)c4ccc([nH]4)c(-c4ccccc4)c4nc(c(-c5ccccc5)c5ccc2[nH]5)C=C4)C=C3)cc1
REMARK SMILES IDX 18 1 17 2 1 3 2 4 3 6 4 7 5 8 16 9 6 10 7 11 8 12 9 13 10 14
REMARK SMILES IDX 11 15 15 16 12 17 14 18 13 19 19 20 20 21 21 22 22 23 23 25
REMARK SMILES IDX 24 26 25 27 71 28 26 29 70 30 27 31 28 32 29 33 64 34 30 35
REMARK SMILES IDX 69 36 63 37 65 38 31 39 68 40 62 41 61 42 32 44 54 45 39 46
REMARK SMILES IDX 53 47 40 48 43 49 52 50 66 51 41 52 42 53 51 55 67 56 44 57
REMARK SMILES IDX 33 58 34 59 38 60 35 61 37 62 36 63 55 64 56 65 60 66 57 67
REMARK SMILES IDX 59 68 58 69 45 70 46 71 50 72 47 73 49 74 48 75
REMARK H PARENT 17 5 21 24 65 43 43 54
REMARK Flexibility Score: inf
ROOT
ATOM      1  C   UNL A   1      32.439  28.883  24.824  1.00  0.00     0.117 C 
ENDROOT
BRANCH   1   2
ATOM      2  N   UNL A   1      31.694  27.689  25.182  1.00  0.00    -0.356 N 
ATOM      3  O   UNL A   1      30.076  27.938  23.577  1.00  0.00    -0.275 OA
ATOM      4  C   UNL A   1      30.595  27.272  24.466  1.00  0.00     0.220 C 
ATOM      5  H   UNL A   1      31.985  27.162  25.961  1.00  0.00     0.163 HD
BRANCH   4   6
ATOM      6  C   UNL A   1      30.046  25.916  24.868  1.00  0.00     0.107 C 
BRANCH   6   7
ATOM      7  C   UNL A   1      30.744  24.713  24.236  1.00  0.00     0.037 C 
ATOM      8  C   UNL A   1      31.678  24.988  23.027  1.00  0.00     0.125 C 
ATOM      9  C   UNL A   1      31.991  24.157  24.954  1.00  0.00     0.125 C 
ATOM     10  N   UNL A   1      32.581  24.037  23.643  1.00  0.00    -0.342 N 
ATOM     11  C   UNL A   1      33.654  23.362  23.143  1.00  0.00     0.225 C 
ATOM     12  O   UNL A   1      34.044  23.519  21.985  1.00  0.00    -0.275 OA
BRANCH  11  13
ATOM     13  C   UNL A   1      34.322  22.350  24.061  1.00  0.00     0.132 C 
BRANCH  13  14
ATOM     14  C   UNL A   1      35.816  22.575  24.307  1.00  0.00     0.127 C 
ATOM     15  C   UNL A   1      36.092  23.694  25.316  1.00  0.00     0.033 C 
ATOM     16  O   UNL A   1      36.413  21.339  24.702  1.00  0.00    -0.378 OA
ATOM     17  C   UNL A   1      37.582  23.792  25.626  1.00  0.00     0.005 C 
ATOM     18  C   UNL A   1      37.810  21.406  24.957  1.00  0.00     0.160 C 
ATOM     19  C   UNL A   1      38.118  22.428  26.039  1.00  0.00     0.029 C 
ENDBRANCH  13  14
ENDBRANCH  11  13
ENDBRANCH   6   7
ENDBRANCH   4   6
ENDBRANCH   1   2
BRANCH   1  20
ATOM     20  C   UNL A   1      33.719  29.037  25.631  1.00  0.00     0.042 C 
BRANCH  20  21
ATOM     21  C   UNL A   1      33.509  29.050  27.141  1.00  0.00     0.118 C 
BRANCH  21  22
ATOM     22  N   UNL A   1      33.568  30.386  27.723  1.00  0.00    -0.352 N 
ATOM     23  C   UNL A   1      34.586  30.988  28.425  1.00  0.00     0.251 C 
ATOM     24  H   UNL A   1      32.763  30.937  27.595  1.00  0.00     0.163 HD
ATOM     25  O   UNL A   1      34.411  32.088  28.942  1.00  0.00    -0.269 OA
BRANCH  23  26
ATOM     26  C   UNL A   1      35.883  30.296  28.589  1.00  0.00     0.039 A 
ATOM     27  C   UNL A   1      36.789  30.295  27.525  1.00  0.00     0.014 A 
ATOM     28  C   UNL A   1      36.211  29.667  29.792  1.00  0.00     0.014 A 
ATOM     29  C   UNL A   1      38.061  29.742  27.697  1.00  0.00     0.010 A 
ATOM     30  C   UNL A   1      37.501  29.180  29.984  1.00  0.00     0.010 A 
ATOM     31  C   UNL A   1      38.443  29.223  28.944  1.00  0.00    -0.014 A 
BRANCH  31  32
ATOM     32  C   UNL A   1      39.821  28.733  29.204  1.00  0.00     0.031 A 
ATOM     33  C   UNL A   1      40.857  29.666  29.765  1.00  0.00     0.074 A 
ATOM     34  C   UNL A   1      40.169  27.483  28.838  1.00  0.00     0.049 A 
ATOM     35  N   UNL A   1      42.144  29.481  29.909  1.00  0.00    -0.248 NA
ATOM     36  C   UNL A   1      40.386  30.992  30.196  1.00  0.00     0.031 C 
ATOM     37  C   UNL A   1      39.268  26.482  28.263  1.00  0.00     0.029 A 
ATOM     38  N   UNL A   1      41.386  26.850  28.874  1.00  0.00    -0.354 N 
ATOM     39  C   UNL A   1      42.641  30.675  30.417  1.00  0.00     0.074 A 
ATOM     40  C   UNL A   1      41.523  31.588  30.523  1.00  0.00     0.031 C 
ATOM     41  C   UNL A   1      39.961  25.361  28.011  1.00  0.00     0.029 A 
ATOM     42  C   UNL A   1      41.362  25.578  28.357  1.00  0.00     0.049 A 
ATOM     43  H   UNL A   1      42.202  27.269  29.237  1.00  0.00     0.167 HD
ATOM     44  C   UNL A   1      43.911  30.981  30.774  1.00  0.00     0.031 A 
ATOM     45  C   UNL A   1      42.356  24.690  28.162  1.00  0.00     0.031 A 
ATOM     46  C   UNL A   1      45.020  30.071  30.683  1.00  0.00     0.049 A 
ATOM     47  C   UNL A   1      43.762  25.062  28.544  1.00  0.00     0.074 A 
ATOM     48  C   UNL A   1      46.335  30.274  31.066  1.00  0.00     0.029 A 
ATOM     49  N   UNL A   1      44.945  28.783  30.174  1.00  0.00    -0.354 N 
ATOM     50  N   UNL A   1      44.208  26.180  29.064  1.00  0.00    -0.248 NA
ATOM     51  C   UNL A   1      44.800  24.046  28.319  1.00  0.00     0.031 C 
ATOM     52  C   UNL A   1      47.065  29.125  30.747  1.00  0.00     0.029 A 
ATOM     53  C   UNL A   1      46.194  28.187  30.218  1.00  0.00     0.049 A 
ATOM     54  H   UNL A   1      44.125  28.357  29.833  1.00  0.00     0.167 HD
ATOM     55  C   UNL A   1      45.569  25.988  29.263  1.00  0.00     0.074 A 
ATOM     56  C   UNL A   1      45.876  24.647  28.811  1.00  0.00     0.031 C 
ATOM     57  C   UNL A   1      46.481  26.846  29.780  1.00  0.00     0.031 A 
BRANCH  44  58
ATOM     58  C   UNL A   1      44.170  32.370  31.286  1.00  0.00    -0.014 A 
ATOM     59  C   UNL A   1      44.496  33.421  30.412  1.00  0.00     0.009 A 
ATOM     60  C   UNL A   1      44.049  32.642  32.657  1.00  0.00     0.009 A 
ATOM     61  C   UNL A   1      44.734  34.704  30.907  1.00  0.00     0.001 A 
ATOM     62  C   UNL A   1      44.257  33.933  33.145  1.00  0.00     0.001 A 
ATOM     63  C   UNL A   1      44.609  34.960  32.271  1.00  0.00     0.000 A 
ENDBRANCH  44  58
BRANCH  45  64
ATOM     64  C   UNL A   1      42.060  23.356  27.578  1.00  0.00    -0.014 A 
ATOM     65  C   UNL A   1      42.237  23.128  26.205  1.00  0.00     0.009 A 
ATOM     66  C   UNL A   1      41.591  22.309  28.385  1.00  0.00     0.009 A 
ATOM     67  C   UNL A   1      41.928  21.885  25.647  1.00  0.00     0.001 A 
ATOM     68  C   UNL A   1      41.309  21.058  27.830  1.00  0.00     0.001 A 
ATOM     69  C   UNL A   1      41.468  20.851  26.461  1.00  0.00     0.000 A 
ENDBRANCH  45  64
BRANCH  57  70
ATOM     70  C   UNL A   1      47.889  26.347  29.944  1.00  0.00    -0.014 A 
ATOM     71  C   UNL A   1      48.340  25.813  31.160  1.00  0.00     0.009 A 
ATOM     72  C   UNL A   1      48.754  26.355  28.838  1.00  0.00     0.009 A 
ATOM     73  C   UNL A   1      49.641  25.317  31.270  1.00  0.00     0.001 A 
ATOM     74  C   UNL A   1      50.045  25.834  28.945  1.00  0.00     0.001 A 
ATOM     75  C   UNL A   1      50.489  25.321  30.162  1.00  0.00     0.000 A 
ENDBRANCH  57  70
ENDBRANCH  31  32
ENDBRANCH  23  26
ENDBRANCH  21  22
ENDBRANCH  20  21
ENDBRANCH   1  20
TORSDOF 13
ENDMDL
MODEL 2
REMARK VINA RESULT:     -10.2      3.692      7.712
REMARK SMILES O=C(CC1CN(C(=O)C[C@H]2CCCCO2)C1)NCCCNC(=O)c1ccc(-c2c3nc(c(-c4ccccc4)c4ccc([nH]4)c(-c4ccccc4)c4nc(c(-c5ccccc5)c5ccc2[nH]5)C=C4)C=C3)cc1
REMARK SMILES IDX 18 1 17 2 1 3 2 4 3 6 4 7 5 8 16 9 6 10 7 11 8 12 9 13 10 14
REMARK SMILES IDX 11 15 15 16 12 17 14 18 13 19 19 20 20 21 21 22 22 23 23 25
REMARK SMILES IDX 24 26 25 27 71 28 26 29 70 30 27 31 28 32 29 33 64 34 30 35
REMARK SMILES IDX 69 36 63 37 65 38 31 39 68 40 62 41 61 42 32 44 54 45 39 46
REMARK SMILES IDX 53 47 40 48 43 49 52 50 66 51 41 52 42 53 51 55 67 56 44 57
REMARK SMILES IDX 33 58 34 59 38 60 35 61 37 62 36 63 55 64 56 65 60 66 57 67
REMARK SMILES IDX 59 68 58 69 45 70 46 71 50 72 47 73 49 74 48 75
REMARK H PARENT 17 5 21 24 65 43 43 54
REMARK Flexibility Score: inf
ROOT
ATOM      1  C   UNL A   1      31.815  30.384  26.657  1.00  0.00     0.117 C 
ENDROOT
BRANCH   1   2
ATOM      2  N   UNL A   1      32.114  29.885  25.328  1.00  0.00    -0.356 N 
ATOM      3  O   UNL A   1      34.183  29.051  25.854  1.00  0.00    -0.275 OA
ATOM      4  C   UNL A   1      33.265  29.182  25.052  1.00  0.00     0.220 C 
ATOM      5  H   UNL A   1      31.472  30.054  24.600  1.00  0.00     0.163 HD
BRANCH   4   6
ATOM      6  C   UNL A   1      33.333  28.585  23.659  1.00  0.00     0.107 C 
BRANCH   6   7
ATOM      7  C   UNL A   1      32.933  27.115  23.557  1.00  0.00     0.037 C 
ATOM      8  C   UNL A   1      33.222  26.391  22.214  1.00  0.00     0.125 C 
ATOM      9  C   UNL A   1      33.868  26.077  24.211  1.00  0.00     0.125 C 
ATOM     10  N   UNL A   1      33.656  25.275  23.031  1.00  0.00    -0.342 N 
ATOM     11  C   UNL A   1      33.864  23.964  22.724  1.00  0.00     0.225 C 
ATOM     12  O   UNL A   1      33.718  23.528  21.582  1.00  0.00    -0.275 OA
BRANCH  11  13
ATOM     13  C   UNL A   1      34.227  23.035  23.873  1.00  0.00     0.132 C 
BRANCH  13  14
ATOM     14  C   UNL A   1      35.727  22.868  24.132  1.00  0.00     0.127 C 
ATOM     15  C   UNL A   1      36.243  23.779  25.250  1.00  0.00     0.033 C 
ATOM     16  O   UNL A   1      36.003  21.491  24.392  1.00  0.00    -0.378 OA
ATOM     17  C   UNL A   1      37.707  23.485  25.559  1.00  0.00     0.005 C 
ATOM     18  C   UNL A   1      37.371  21.195  24.644  1.00  0.00     0.160 C 
ATOM     19  C   UNL A   1      37.893  21.997  25.824  1.00  0.00     0.029 C 
ENDBRANCH  13  14
ENDBRANCH  11  13
ENDBRANCH   6   7
ENDBRANCH   4   6
ENDBRANCH   1   2
BRANCH   1  20
ATOM     20  C   UNL A   1      31.603  31.890  26.683  1.00  0.00     0.042 C 
BRANCH  20  21
ATOM     21  C   UNL A   1      32.743  32.672  27.325  1.00  0.00     0.118 C 
BRANCH  21  22
ATOM     22  N   UNL A   1      32.392  34.049  27.648  1.00  0.00    -0.352 N 
ATOM     23  C   UNL A   1      32.978  34.912  28.544  1.00  0.00     0.251 C 
ATOM     24  H   UNL A   1      31.624  34.415  27.153  1.00  0.00     0.163 HD
ATOM     25  O   UNL A   1      32.469  36.007  28.768  1.00  0.00    -0.269 OA
BRANCH  23  26
ATOM     26  C   UNL A   1      34.203  34.509  29.268  1.00  0.00     0.039 A 
ATOM     27  C   UNL A   1      34.082  33.947  30.543  1.00  0.00     0.014 A 
ATOM     28  C   UNL A   1      35.462  34.667  28.687  1.00  0.00     0.014 A 
ATOM     29  C   UNL A   1      35.217  33.461  31.197  1.00  0.00     0.010 A 
ATOM     30  C   UNL A   1      36.581  34.118  29.308  1.00  0.00     0.010 A 
ATOM     31  C   UNL A   1      36.469  33.500  30.563  1.00  0.00    -0.014 A 
BRANCH  31  32
ATOM     32  C   UNL A   1      37.678  32.889  31.172  1.00  0.00     0.031 A 
ATOM     33  C   UNL A   1      38.306  31.678  30.541  1.00  0.00     0.074 A 
ATOM     34  C   UNL A   1      38.147  33.356  32.346  1.00  0.00     0.049 A 
ATOM     35  N   UNL A   1      39.257  30.906  31.003  1.00  0.00    -0.248 NA
ATOM     36  C   UNL A   1      37.776  31.265  29.233  1.00  0.00     0.031 C 
ATOM     37  C   UNL A   1      37.619  34.511  33.075  1.00  0.00     0.029 A 
ATOM     38  N   UNL A   1      39.166  32.899  33.145  1.00  0.00    -0.354 N 
ATOM     39  C   UNL A   1      39.418  29.901  30.057  1.00  0.00     0.074 A 
ATOM     40  C   UNL A   1      38.442  30.142  29.014  1.00  0.00     0.031 C 
ATOM     41  C   UNL A   1      38.323  34.676  34.206  1.00  0.00     0.029 A 
ATOM     42  C   UNL A   1      39.316  33.612  34.309  1.00  0.00     0.049 A 
ATOM     43  H   UNL A   1      39.735  32.130  32.906  1.00  0.00     0.167 HD
ATOM     44  C   UNL A   1      40.303  28.876  30.050  1.00  0.00     0.031 A 
ATOM     45  C   UNL A   1      40.145  33.422  35.354  1.00  0.00     0.031 A 
ATOM     46  C   UNL A   1      41.282  28.644  31.077  1.00  0.00     0.049 A 
ATOM     47  C   UNL A   1      41.103  32.263  35.334  1.00  0.00     0.074 A 
ATOM     48  C   UNL A   1      42.254  27.661  31.135  1.00  0.00     0.029 A 
ATOM     49  N   UNL A   1      41.413  29.406  32.229  1.00  0.00    -0.354 N 
ATOM     50  N   UNL A   1      41.271  31.347  34.412  1.00  0.00    -0.248 NA
ATOM     51  C   UNL A   1      41.990  32.117  36.497  1.00  0.00     0.031 C 
ATOM     52  C   UNL A   1      42.946  27.799  32.342  1.00  0.00     0.029 A 
ATOM     53  C   UNL A   1      42.440  28.903  33.010  1.00  0.00     0.049 A 
ATOM     54  H   UNL A   1      40.860  30.187  32.455  1.00  0.00     0.167 HD
ATOM     55  C   UNL A   1      42.307  30.540  34.864  1.00  0.00     0.074 A 
ATOM     56  C   UNL A   1      42.731  31.076  36.142  1.00  0.00     0.031 C 
ATOM     57  C   UNL A   1      42.861  29.456  34.271  1.00  0.00     0.031 A 
BRANCH  44  58
ATOM     58  C   UNL A   1      40.243  27.917  28.895  1.00  0.00    -0.014 A 
ATOM     59  C   UNL A   1      40.938  28.170  27.700  1.00  0.00     0.009 A 
ATOM     60  C   UNL A   1      39.512  26.725  29.016  1.00  0.00     0.009 A 
ATOM     61  C   UNL A   1      40.868  27.267  26.637  1.00  0.00     0.001 A 
ATOM     62  C   UNL A   1      39.470  25.809  27.962  1.00  0.00     0.001 A 
ATOM     63  C   UNL A   1      40.140  26.086  26.772  1.00  0.00     0.000 A 
ENDBRANCH  44  58
BRANCH  45  64
ATOM     64  C   UNL A   1      40.110  34.354  36.511  1.00  0.00    -0.014 A 
ATOM     65  C   UNL A   1      39.300  34.076  37.621  1.00  0.00     0.009 A 
ATOM     66  C   UNL A   1      40.879  35.528  36.508  1.00  0.00     0.009 A 
ATOM     67  C   UNL A   1      39.240  34.967  38.696  1.00  0.00     0.001 A 
ATOM     68  C   UNL A   1      40.839  36.403  37.596  1.00  0.00     0.001 A 
ATOM     69  C   UNL A   1      40.013  36.127  38.683  1.00  0.00     0.000 A 
ENDBRANCH  45  64
BRANCH  57  70
ATOM     70  C   UNL A   1      44.027  28.806  34.961  1.00  0.00    -0.014 A 
ATOM     71  C   UNL A   1      45.340  29.256  34.762  1.00  0.00     0.009 A 
ATOM     72  C   UNL A   1      43.792  27.766  35.876  1.00  0.00     0.009 A 
ATOM     73  C   UNL A   1      46.400  28.659  35.451  1.00  0.00     0.001 A 
ATOM     74  C   UNL A   1      44.849  27.192  36.582  1.00  0.00     0.001 A 
ATOM     75  C   UNL A   1      46.153  27.634  36.364  1.00  0.00     0.000 A 
ENDBRANCH  57  70
ENDBRANCH  31  32
ENDBRANCH  23  26
ENDBRANCH  21  22
ENDBRANCH  20  21
ENDBRANCH   1  20
TORSDOF 13
ENDMDL
MODEL 3
REMARK VINA RESULT:     -10.1      2.005      7.764
REMARK SMILES O=C(CC1CN(C(=O)C[C@H]2CCCCO2)C1)NCCCNC(=O)c1ccc(-c2c3nc(c(-c4ccccc4)c4ccc([nH]4)c(-c4ccccc4)c4nc(c(-c5ccccc5)c5ccc2[nH]5)C=C4)C=C3)cc1
REMARK SMILES IDX 18 1 17 2 1 3 2 4 3 6 4 7 5 8 16 9 6 10 7 11 8 12 9 13 10 14
REMARK SMILES IDX 11 15 15 16 12 17 14 18 13 19 19 20 20 21 21 22 22 23 23 25
REMARK SMILES IDX 24 26 25 27 71 28 26 29 70 30 27 31 28 32 29 33 64 34 30 35
REMARK SMILES IDX 69 36 63 37 65 38 31 39 68 40 62 41 61 42 32 44 54 45 39 46
REMARK SMILES IDX 53 47 40 48 43 49 52 50 66 51 41 52 42 53 51 55 67 56 44 57
REMARK SMILES IDX 33 58 34 59 38 60 35 61 37 62 36 63 55 64 56 65 60 66 57 67
REMARK SMILES IDX 59 68 58 69 45 70 46 71 50 72 47 73 49 74 48 75
REMARK H PARENT 17 5 21 24 65 43 43 54
REMARK Flexibility Score: inf
ROOT
ATOM      1  C   UNL A   1      36.161  20.516  25.360  1.00  0.00     0.117 C 
ENDROOT
BRANCH   1   2
ATOM      2  N   UNL A   1      35.099  21.210  24.655  1.00  0.00    -0.356 N 
ATOM      3  O   UNL A   1      33.514  19.584  24.969  1.00  0.00    -0.275 OA
ATOM      4  C   UNL A   1      33.821  20.707  24.581  1.00  0.00     0.220 C 
ATOM      5  H   UNL A   1      35.301  22.068  24.215  1.00  0.00     0.163 HD
BRANCH   4   6
ATOM      6  C   UNL A   1      32.799  21.641  23.960  1.00  0.00     0.107 C 
BRANCH   6   7
ATOM      7  C   UNL A   1      33.339  23.001  23.520  1.00  0.00     0.037 C 
ATOM      8  C   UNL A   1      33.232  23.354  22.012  1.00  0.00     0.125 C 
ATOM      9  C   UNL A   1      32.450  24.234  23.777  1.00  0.00     0.125 C 
ATOM     10  N   UNL A   1      32.834  24.674  22.458  1.00  0.00    -0.342 N 
ATOM     11  C   UNL A   1      32.773  25.865  21.799  1.00  0.00     0.225 C 
ATOM     12  O   UNL A   1      33.055  25.967  20.604  1.00  0.00    -0.275 OA
BRANCH  11  13
ATOM     13  C   UNL A   1      32.399  27.090  22.619  1.00  0.00     0.132 C 
BRANCH  13  14
ATOM     14  C   UNL A   1      31.006  27.662  22.345  1.00  0.00     0.127 C 
ATOM     15  C   UNL A   1      29.973  27.243  23.395  1.00  0.00     0.033 C 
ATOM     16  O   UNL A   1      31.103  29.082  22.225  1.00  0.00    -0.378 OA
ATOM     17  C   UNL A   1      28.638  27.940  23.153  1.00  0.00     0.005 C 
ATOM     18  C   UNL A   1      29.872  29.743  21.961  1.00  0.00     0.160 C 
ATOM     19  C   UNL A   1      28.849  29.444  23.045  1.00  0.00     0.029 C 
ENDBRANCH  13  14
ENDBRANCH  11  13
ENDBRANCH   6   7
ENDBRANCH   4   6
ENDBRANCH   1   2
BRANCH   1  20
ATOM     20  C   UNL A   1      37.522  20.711  24.708  1.00  0.00     0.042 C 
BRANCH  20  21
ATOM     21  C   UNL A   1      38.667  20.903  25.696  1.00  0.00     0.118 C 
BRANCH  21  22
ATOM     22  N   UNL A   1      39.633  19.811  25.683  1.00  0.00    -0.352 N 
ATOM     23  C   UNL A   1      40.962  19.817  26.034  1.00  0.00     0.251 C 
ATOM     24  H   UNL A   1      39.282  18.942  25.381  1.00  0.00     0.163 HD
ATOM     25  O   UNL A   1      41.653  18.818  25.848  1.00  0.00    -0.269 OA
BRANCH  23  26
ATOM     26  C   UNL A   1      41.573  21.038  26.602  1.00  0.00     0.039 A 
ATOM     27  C   UNL A   1      42.088  22.005  25.733  1.00  0.00     0.014 A 
ATOM     28  C   UNL A   1      41.621  21.238  27.983  1.00  0.00     0.014 A 
ATOM     29  C   UNL A   1      42.569  23.213  26.245  1.00  0.00     0.010 A 
ATOM     30  C   UNL A   1      42.035  22.468  28.486  1.00  0.00     0.010 A 
ATOM     31  C   UNL A   1      42.503  23.472  27.623  1.00  0.00    -0.014 A 
BRANCH  31  32
ATOM     32  C   UNL A   1      42.894  24.785  28.196  1.00  0.00     0.031 A 
ATOM     33  C   UNL A   1      41.850  25.837  28.445  1.00  0.00     0.074 A 
ATOM     34  C   UNL A   1      44.197  25.070  28.392  1.00  0.00     0.049 A 
ATOM     35  N   UNL A   1      42.006  27.092  28.782  1.00  0.00    -0.248 NA
ATOM     36  C   UNL A   1      40.448  25.431  28.265  1.00  0.00     0.031 C 
ATOM     37  C   UNL A   1      45.312  24.149  28.171  1.00  0.00     0.029 A 
ATOM     38  N   UNL A   1      44.803  26.232  28.802  1.00  0.00    -0.354 N 
ATOM     39  C   UNL A   1      40.726  27.632  28.825  1.00  0.00     0.074 A 
ATOM     40  C   UNL A   1      39.810  26.577  28.445  1.00  0.00     0.031 C 
ATOM     41  C   UNL A   1      46.464  24.776  28.456  1.00  0.00     0.029 A 
ATOM     42  C   UNL A   1      46.175  26.157  28.831  1.00  0.00     0.049 A 
ATOM     43  H   UNL A   1      44.302  27.043  29.050  1.00  0.00     0.167 HD
ATOM     44  C   UNL A   1      40.346  28.888  29.160  1.00  0.00     0.031 A 
ATOM     45  C   UNL A   1      47.099  27.097  29.106  1.00  0.00     0.031 A 
ATOM     46  C   UNL A   1      41.254  29.931  29.552  1.00  0.00     0.049 A 
ATOM     47  C   UNL A   1      46.653  28.491  29.453  1.00  0.00     0.074 A 
ATOM     48  C   UNL A   1      40.960  31.222  29.956  1.00  0.00     0.029 A 
ATOM     49  N   UNL A   1      42.634  29.804  29.589  1.00  0.00    -0.354 N 
ATOM     50  N   UNL A   1      45.437  28.973  29.530  1.00  0.00    -0.248 NA
ATOM     51  C   UNL A   1      47.709  29.467  29.756  1.00  0.00     0.031 C 
ATOM     52  C   UNL A   1      42.164  31.891  30.195  1.00  0.00     0.029 A 
ATOM     53  C   UNL A   1      43.205  30.999  29.993  1.00  0.00     0.049 A 
ATOM     54  H   UNL A   1      43.132  28.986  29.362  1.00  0.00     0.167 HD
ATOM     55  C   UNL A   1      45.579  30.296  29.928  1.00  0.00     0.074 A 
ATOM     56  C   UNL A   1      46.999  30.540  30.078  1.00  0.00     0.031 C 
ATOM     57  C   UNL A   1      44.618  31.223  30.154  1.00  0.00     0.031 A 
BRANCH  44  58
ATOM     58  C   UNL A   1      38.878  29.205  29.104  1.00  0.00    -0.014 A 
ATOM     59  C   UNL A   1      38.053  29.041  30.230  1.00  0.00     0.009 A 
ATOM     60  C   UNL A   1      38.319  29.710  27.921  1.00  0.00     0.009 A 
ATOM     61  C   UNL A   1      36.691  29.340  30.157  1.00  0.00     0.001 A 
ATOM     62  C   UNL A   1      36.962  30.038  27.861  1.00  0.00     0.001 A 
ATOM     63  C   UNL A   1      36.149  29.843  28.976  1.00  0.00     0.000 A 
ENDBRANCH  44  58
BRANCH  45  64
ATOM     64  C   UNL A   1      48.544  26.753  29.070  1.00  0.00    -0.014 A 
ATOM     65  C   UNL A   1      49.283  26.918  27.889  1.00  0.00     0.009 A 
ATOM     66  C   UNL A   1      49.190  26.250  30.210  1.00  0.00     0.009 A 
ATOM     67  C   UNL A   1      50.634  26.564  27.844  1.00  0.00     0.001 A 
ATOM     68  C   UNL A   1      50.548  25.924  30.170  1.00  0.00     0.001 A 
ATOM     69  C   UNL A   1      51.266  26.072  28.985  1.00  0.00     0.000 A 
ENDBRANCH  45  64
BRANCH  57  70
ATOM     70  C   UNL A   1      45.057  32.573  30.647  1.00  0.00    -0.014 A 
ATOM     71  C   UNL A   1      45.225  32.836  32.014  1.00  0.00     0.009 A 
ATOM     72  C   UNL A   1      45.369  33.577  29.715  1.00  0.00     0.009 A 
ATOM     73  C   UNL A   1      45.676  34.087  32.440  1.00  0.00     0.001 A 
ATOM     74  C   UNL A   1      45.845  34.817  30.143  1.00  0.00     0.001 A 
ATOM     75  C   UNL A   1      45.992  35.073  31.504  1.00  0.00     0.000 A 
ENDBRANCH  57  70
ENDBRANCH  31  32
ENDBRANCH  23  26
ENDBRANCH  21  22
ENDBRANCH  20  21
ENDBRANCH   1  20
TORSDOF 13
ENDMDL
