MODEL 1
REMARK VINA RESULT:      -9.5      0.000      0.000
REMARK SMILES C=CCN(CC(=O)NCCCNC(=O)c1ccc(-c2c3nc(c(-c4ccccc4)c4ccc([nH]4)c(-c4ccccc4)c4nc(c(-c5ccccc5)c5ccc2[nH]5)C=C4)C=C3)cc1)C(=O)NCC(C)C
REMARK SMILES IDX 9 1 8 2 6 3 7 4 5 6 4 7 3 8 2 9 1 10 63 11 64 12 65 13 66 15
REMARK SMILES IDX 67 16 68 17 69 18 10 19 11 20 12 21 13 22 14 24 15 25 16 26
REMARK SMILES IDX 62 27 17 28 61 29 18 30 19 31 20 32 55 33 21 34 60 35 54 36
REMARK SMILES IDX 56 37 22 38 59 39 53 40 52 41 23 43 45 44 30 45 44 46 31 47
REMARK SMILES IDX 34 48 43 49 57 50 32 51 33 52 42 54 58 55 35 56 24 57 25 58
REMARK SMILES IDX 29 59 26 60 28 61 27 62 46 63 47 64 51 65 48 66 50 67 49 68
REMARK SMILES IDX 36 69 37 70 41 71 38 72 40 73 39 74
REMARK H PARENT 8 5 65 14 12 23 56 42 34 53
REMARK Flexibility Score: inf
ROOT
ATOM      1  C   UNL A   1      35.898  20.437  24.793  1.00  0.00     0.117 C 
ENDROOT
BRANCH   1   2
ATOM      2  N   UNL A   1      34.690  19.922  25.399  1.00  0.00    -0.354 N 
ATOM      3  C   UNL A   1      33.403  20.343  25.246  1.00  0.00     0.239 C 
ATOM      4  O   UNL A   1      32.519  19.504  25.451  1.00  0.00    -0.273 OA
ATOM      5  H   UNL A   1      34.816  19.158  26.008  1.00  0.00     0.163 HD
BRANCH   3   6
ATOM      6  C   UNL A   1      33.048  21.728  24.680  1.00  0.00     0.221 C 
BRANCH   6   7
ATOM      7  N   UNL A   1      32.301  22.605  25.579  1.00  0.00    -0.312 N 
BRANCH   7   8
ATOM      8  C   UNL A   1      33.095  23.396  26.522  1.00  0.00     0.149 C 
BRANCH   8   9
ATOM      9  C   UNL A   1      34.320  23.954  25.859  1.00  0.00    -0.013 C 
ATOM     10  C   UNL A   1      34.397  25.215  25.411  1.00  0.00     0.006 C 
ENDBRANCH   8   9
ENDBRANCH   7   8
BRANCH   7  11
ATOM     11  C   UNL A   1      30.952  22.818  25.588  1.00  0.00     0.318 C 
ATOM     12  O   UNL A   1      30.183  22.037  26.161  1.00  0.00    -0.249 OA
ATOM     13  N   UNL A   1      30.338  23.849  24.991  1.00  0.00    -0.338 N 
ATOM     14  H   UNL A   1      29.368  23.801  25.151  1.00  0.00     0.165 HD
BRANCH  13  15
ATOM     15  C   UNL A   1      30.653  25.023  24.181  1.00  0.00     0.120 C 
BRANCH  15  16
ATOM     16  C   UNL A   1      30.192  26.317  24.877  1.00  0.00     0.002 C 
ATOM     17  C   UNL A   1      31.007  26.591  26.146  1.00  0.00     0.009 C 
ATOM     18  C   UNL A   1      30.314  27.519  23.938  1.00  0.00     0.009 C 
ENDBRANCH  15  16
ENDBRANCH  13  15
ENDBRANCH   7  11
ENDBRANCH   6   7
ENDBRANCH   3   6
ENDBRANCH   1   2
BRANCH   1  19
ATOM     19  C   UNL A   1      37.121  19.553  25.000  1.00  0.00     0.042 C 
BRANCH  19  20
ATOM     20  C   UNL A   1      38.373  20.290  25.469  1.00  0.00     0.118 C 
BRANCH  20  21
ATOM     21  N   UNL A   1      39.518  19.407  25.647  1.00  0.00    -0.352 N 
ATOM     22  C   UNL A   1      40.803  19.655  26.050  1.00  0.00     0.251 C 
ATOM     23  H   UNL A   1      39.335  18.462  25.440  1.00  0.00     0.163 HD
ATOM     24  O   UNL A   1      41.641  18.759  25.935  1.00  0.00    -0.269 OA
BRANCH  22  25
ATOM     25  C   UNL A   1      41.213  20.961  26.613  1.00  0.00     0.039 A 
ATOM     26  C   UNL A   1      41.698  21.940  25.736  1.00  0.00     0.014 A 
ATOM     27  C   UNL A   1      41.213  21.209  27.987  1.00  0.00     0.014 A 
ATOM     28  C   UNL A   1      42.135  23.171  26.230  1.00  0.00     0.010 A 
ATOM     29  C   UNL A   1      41.578  22.464  28.474  1.00  0.00     0.010 A 
ATOM     30  C   UNL A   1      42.058  23.453  27.602  1.00  0.00    -0.014 A 
BRANCH  30  31
ATOM     31  C   UNL A   1      42.495  24.767  28.139  1.00  0.00     0.031 A 
ATOM     32  C   UNL A   1      41.492  25.862  28.383  1.00  0.00     0.074 A 
ATOM     33  C   UNL A   1      43.803  24.993  28.366  1.00  0.00     0.049 A 
ATOM     34  N   UNL A   1      41.690  27.081  28.819  1.00  0.00    -0.248 NA
ATOM     35  C   UNL A   1      40.085  25.555  28.078  1.00  0.00     0.031 C 
ATOM     36  C   UNL A   1      44.882  24.031  28.138  1.00  0.00     0.029 A 
ATOM     37  N   UNL A   1      44.446  26.108  28.843  1.00  0.00    -0.354 N 
ATOM     38  C   UNL A   1      40.440  27.690  28.820  1.00  0.00     0.074 A 
ATOM     39  C   UNL A   1      39.499  26.722  28.299  1.00  0.00     0.031 C 
ATOM     40  C   UNL A   1      46.050  24.585  28.503  1.00  0.00     0.029 A 
ATOM     41  C   UNL A   1      45.806  25.950  28.957  1.00  0.00     0.049 A 
ATOM     42  H   UNL A   1      43.978  26.941  29.080  1.00  0.00     0.167 HD
ATOM     43  C   UNL A   1      40.100  28.934  29.233  1.00  0.00     0.031 A 
ATOM     44  C   UNL A   1      46.752  26.808  29.384  1.00  0.00     0.031 A 
ATOM     45  C   UNL A   1      41.030  29.894  29.766  1.00  0.00     0.049 A 
ATOM     46  C   UNL A   1      46.351  28.182  29.841  1.00  0.00     0.074 A 
ATOM     47  C   UNL A   1      40.774  31.160  30.262  1.00  0.00     0.029 A 
ATOM     48  N   UNL A   1      42.397  29.689  29.875  1.00  0.00    -0.354 N 
ATOM     49  N   UNL A   1      45.156  28.719  29.892  1.00  0.00    -0.248 NA
ATOM     50  C   UNL A   1      47.430  29.062  30.312  1.00  0.00     0.031 C 
ATOM     51  C   UNL A   1      41.992  31.739  30.634  1.00  0.00     0.029 A 
ATOM     52  C   UNL A   1      43.000  30.814  30.415  1.00  0.00     0.049 A 
ATOM     53  H   UNL A   1      42.868  28.868  29.609  1.00  0.00     0.167 HD
ATOM     54  C   UNL A   1      45.336  29.987  30.427  1.00  0.00     0.074 A 
ATOM     55  C   UNL A   1      46.752  30.135  30.695  1.00  0.00     0.031 C 
ATOM     56  C   UNL A   1      44.408  30.943  30.678  1.00  0.00     0.031 A 
BRANCH  43  57
ATOM     57  C   UNL A   1      38.654  29.329  29.117  1.00  0.00    -0.014 A 
ATOM     58  C   UNL A   1      37.782  29.224  30.213  1.00  0.00     0.009 A 
ATOM     59  C   UNL A   1      38.163  29.837  27.904  1.00  0.00     0.009 A 
ATOM     60  C   UNL A   1      36.439  29.582  30.084  1.00  0.00     0.001 A 
ATOM     61  C   UNL A   1      36.824  30.220  27.787  1.00  0.00     0.001 A 
ATOM     62  C   UNL A   1      35.962  30.083  28.874  1.00  0.00     0.000 A 
ENDBRANCH  43  57
BRANCH  44  63
ATOM     63  C   UNL A   1      48.173  26.378  29.431  1.00  0.00    -0.014 A 
ATOM     64  C   UNL A   1      49.016  26.600  28.331  1.00  0.00     0.009 A 
ATOM     65  C   UNL A   1      48.695  25.750  30.572  1.00  0.00     0.009 A 
ATOM     66  C   UNL A   1      50.348  26.183  28.365  1.00  0.00     0.001 A 
ATOM     67  C   UNL A   1      50.034  25.357  30.614  1.00  0.00     0.001 A 
ATOM     68  C   UNL A   1      50.856  25.566  29.507  1.00  0.00     0.000 A 
ENDBRANCH  44  63
BRANCH  56  69
ATOM     69  C   UNL A   1      44.891  32.219  31.306  1.00  0.00    -0.014 A 
ATOM     70  C   UNL A   1      44.968  32.363  32.699  1.00  0.00     0.009 A 
ATOM     71  C   UNL A   1      45.311  33.279  30.487  1.00  0.00     0.009 A 
ATOM     72  C   UNL A   1      45.427  33.556  33.261  1.00  0.00     0.001 A 
ATOM     73  C   UNL A   1      45.793  34.461  31.050  1.00  0.00     0.001 A 
ATOM     74  C   UNL A   1      45.843  34.601  32.436  1.00  0.00     0.000 A 
ENDBRANCH  56  69
ENDBRANCH  30  31
ENDBRANCH  22  25
ENDBRANCH  20  21
ENDBRANCH  19  20
ENDBRANCH   1  19
TORSDOF 16
ENDMDL
MODEL 2
REMARK VINA RESULT:      -9.4      2.303      7.428
REMARK SMILES C=CCN(CC(=O)NCCCNC(=O)c1ccc(-c2c3nc(c(-c4ccccc4)c4ccc([nH]4)c(-c4ccccc4)c4nc(c(-c5ccccc5)c5ccc2[nH]5)C=C4)C=C3)cc1)C(=O)NCC(C)C
REMARK SMILES IDX 9 1 8 2 6 3 7 4 5 6 4 7 3 8 2 9 1 10 63 11 64 12 65 13 66 15
REMARK SMILES IDX 67 16 68 17 69 18 10 19 11 20 12 21 13 22 14 24 15 25 16 26
REMARK SMILES IDX 62 27 17 28 61 29 18 30 19 31 20 32 55 33 21 34 60 35 54 36
REMARK SMILES IDX 56 37 22 38 59 39 53 40 52 41 23 43 45 44 30 45 44 46 31 47
REMARK SMILES IDX 34 48 43 49 57 50 32 51 33 52 42 54 58 55 35 56 24 57 25 58
REMARK SMILES IDX 29 59 26 60 28 61 27 62 46 63 47 64 51 65 48 66 50 67 49 68
REMARK SMILES IDX 36 69 37 70 41 71 38 72 40 73 39 74
REMARK H PARENT 8 5 65 14 12 23 56 42 34 53
REMARK Flexibility Score: inf
ROOT
ATOM      1  C   UNL A   1      33.083  27.509  24.938  1.00  0.00     0.117 C 
ENDROOT
BRANCH   1   2
ATOM      2  N   UNL A   1      33.708  26.998  23.737  1.00  0.00    -0.354 N 
ATOM      3  C   UNL A   1      33.434  25.857  23.044  1.00  0.00     0.239 C 
ATOM      4  O   UNL A   1      33.726  25.856  21.844  1.00  0.00    -0.273 OA
ATOM      5  H   UNL A   1      34.432  27.555  23.368  1.00  0.00     0.163 HD
BRANCH   3   6
ATOM      6  C   UNL A   1      32.648  24.686  23.657  1.00  0.00     0.221 C 
BRANCH   6   7
ATOM      7  N   UNL A   1      33.442  23.711  24.402  1.00  0.00    -0.312 N 
BRANCH   7   8
ATOM      8  C   UNL A   1      33.673  24.009  25.817  1.00  0.00     0.149 C 
BRANCH   8   9
ATOM      9  C   UNL A   1      33.236  22.868  26.686  1.00  0.00    -0.013 C 
ATOM     10  C   UNL A   1      34.028  22.313  27.615  1.00  0.00     0.006 C 
ENDBRANCH   8   9
ENDBRANCH   7   8
BRANCH   7  11
ATOM     11  C   UNL A   1      33.932  22.524  23.939  1.00  0.00     0.318 C 
ATOM     12  O   UNL A   1      33.177  21.595  23.628  1.00  0.00    -0.249 OA
ATOM     13  N   UNL A   1      35.234  22.242  23.787  1.00  0.00    -0.338 N 
ATOM     14  H   UNL A   1      35.341  21.335  23.422  1.00  0.00     0.165 HD
BRANCH  13  15
ATOM     15  C   UNL A   1      36.543  22.856  23.991  1.00  0.00     0.120 C 
BRANCH  15  16
ATOM     16  C   UNL A   1      37.115  22.498  25.375  1.00  0.00     0.002 C 
ATOM     17  C   UNL A   1      38.094  21.323  25.290  1.00  0.00     0.009 C 
ATOM     18  C   UNL A   1      37.830  23.698  26.001  1.00  0.00     0.009 C 
ENDBRANCH  15  16
ENDBRANCH  13  15
ENDBRANCH   7  11
ENDBRANCH   6   7
ENDBRANCH   3   6
ENDBRANCH   1   2
BRANCH   1  19
ATOM     19  C   UNL A   1      33.994  28.391  25.783  1.00  0.00     0.042 C 
BRANCH  19  20
ATOM     20  C   UNL A   1      33.534  28.591  27.225  1.00  0.00     0.118 C 
BRANCH  20  21
ATOM     21  N   UNL A   1      33.547  29.989  27.635  1.00  0.00    -0.352 N 
ATOM     22  C   UNL A   1      34.501  30.744  28.263  1.00  0.00     0.251 C 
ATOM     23  H   UNL A   1      32.720  30.480  27.422  1.00  0.00     0.163 HD
ATOM     24  O   UNL A   1      34.192  31.863  28.674  1.00  0.00    -0.269 OA
BRANCH  22  25
ATOM     25  C   UNL A   1      35.883  30.255  28.467  1.00  0.00     0.039 A 
ATOM     26  C   UNL A   1      36.220  29.713  29.714  1.00  0.00     0.014 A 
ATOM     27  C   UNL A   1      36.871  30.397  27.490  1.00  0.00     0.014 A 
ATOM     28  C   UNL A   1      37.524  29.278  29.962  1.00  0.00     0.010 A 
ATOM     29  C   UNL A   1      38.153  29.894  27.711  1.00  0.00     0.010 A 
ATOM     30  C   UNL A   1      38.498  29.345  28.955  1.00  0.00    -0.014 A 
BRANCH  30  31
ATOM     31  C   UNL A   1      39.881  28.862  29.196  1.00  0.00     0.031 A 
ATOM     32  C   UNL A   1      40.892  29.753  29.867  1.00  0.00     0.074 A 
ATOM     33  C   UNL A   1      40.244  27.637  28.772  1.00  0.00     0.049 A 
ATOM     34  N   UNL A   1      42.152  29.516  30.135  1.00  0.00    -0.248 NA
ATOM     35  C   UNL A   1      40.434  31.092  30.271  1.00  0.00     0.031 C 
ATOM     36  C   UNL A   1      39.374  26.688  28.077  1.00  0.00     0.029 A 
ATOM     37  N   UNL A   1      41.446  26.979  28.867  1.00  0.00    -0.354 N 
ATOM     38  C   UNL A   1      42.640  30.681  30.717  1.00  0.00     0.074 A 
ATOM     39  C   UNL A   1      41.554  31.637  30.722  1.00  0.00     0.031 C 
ATOM     40  C   UNL A   1      40.059  25.558  27.834  1.00  0.00     0.029 A 
ATOM     41  C   UNL A   1      41.424  25.717  28.325  1.00  0.00     0.049 A 
ATOM     42  H   UNL A   1      42.246  27.375  29.282  1.00  0.00     0.167 HD
ATOM     43  C   UNL A   1      43.874  30.928  31.219  1.00  0.00     0.031 A 
ATOM     44  C   UNL A   1      42.394  24.788  28.237  1.00  0.00     0.031 A 
ATOM     45  C   UNL A   1      44.951  29.975  31.230  1.00  0.00     0.049 A 
ATOM     46  C   UNL A   1      43.753  25.084  28.804  1.00  0.00     0.074 A 
ATOM     47  C   UNL A   1      46.220  30.114  31.765  1.00  0.00     0.029 A 
ATOM     48  N   UNL A   1      44.884  28.704  30.681  1.00  0.00    -0.354 N 
ATOM     49  N   UNL A   1      44.179  26.168  29.406  1.00  0.00    -0.248 NA
ATOM     50  C   UNL A   1      44.762  24.020  28.691  1.00  0.00     0.031 C 
ATOM     51  C   UNL A   1      46.935  28.940  31.504  1.00  0.00     0.029 A 
ATOM     52  C   UNL A   1      46.095  28.053  30.851  1.00  0.00     0.049 A 
ATOM     53  H   UNL A   1      44.093  28.321  30.238  1.00  0.00     0.167 HD
ATOM     54  C   UNL A   1      45.493  25.907  29.769  1.00  0.00     0.074 A 
ATOM     55  C   UNL A   1      45.791  24.558  29.330  1.00  0.00     0.031 C 
ATOM     56  C   UNL A   1      46.374  26.712  30.411  1.00  0.00     0.031 A 
BRANCH  43  57
ATOM     57  C   UNL A   1      44.123  32.294  31.795  1.00  0.00    -0.014 A 
ATOM     58  C   UNL A   1      43.889  32.564  33.154  1.00  0.00     0.009 A 
ATOM     59  C   UNL A   1      44.621  33.319  30.976  1.00  0.00     0.009 A 
ATOM     60  C   UNL A   1      44.112  33.842  33.670  1.00  0.00     0.001 A 
ATOM     61  C   UNL A   1      44.869  34.589  31.502  1.00  0.00     0.001 A 
ATOM     62  C   UNL A   1      44.605  34.852  32.845  1.00  0.00     0.000 A 
ENDBRANCH  43  57
BRANCH  44  63
ATOM     63  C   UNL A   1      42.103  23.472  27.612  1.00  0.00    -0.014 A 
ATOM     64  C   UNL A   1      41.468  22.462  28.352  1.00  0.00     0.009 A 
ATOM     65  C   UNL A   1      42.454  23.219  26.278  1.00  0.00     0.009 A 
ATOM     66  C   UNL A   1      41.208  21.219  27.773  1.00  0.00     0.001 A 
ATOM     67  C   UNL A   1      42.170  21.983  25.693  1.00  0.00     0.001 A 
ATOM     68  C   UNL A   1      41.555  20.982  26.444  1.00  0.00     0.000 A 
ENDBRANCH  44  63
BRANCH  56  69
ATOM     69  C   UNL A   1      47.730  26.142  30.713  1.00  0.00    -0.014 A 
ATOM     70  C   UNL A   1      48.744  26.117  29.743  1.00  0.00     0.009 A 
ATOM     71  C   UNL A   1      48.007  25.657  32.001  1.00  0.00     0.009 A 
ATOM     72  C   UNL A   1      49.999  25.589  30.049  1.00  0.00     0.001 A 
ATOM     73  C   UNL A   1      49.270  25.153  32.311  1.00  0.00     0.001 A 
ATOM     74  C   UNL A   1      50.262  25.112  31.333  1.00  0.00     0.000 A 
ENDBRANCH  56  69
ENDBRANCH  30  31
ENDBRANCH  22  25
ENDBRANCH  20  21
ENDBRANCH  19  20
ENDBRANCH   1  19
TORSDOF 16
ENDMDL
MODEL 3
REMARK VINA RESULT:      -9.4      0.956      1.858
REMARK SMILES C=CCN(CC(=O)NCCCNC(=O)c1ccc(-c2c3nc(c(-c4ccccc4)c4ccc([nH]4)c(-c4ccccc4)c4nc(c(-c5ccccc5)c5ccc2[nH]5)C=C4)C=C3)cc1)C(=O)NCC(C)C
REMARK SMILES IDX 9 1 8 2 6 3 7 4 5 6 4 7 3 8 2 9 1 10 63 11 64 12 65 13 66 15
REMARK SMILES IDX 67 16 68 17 69 18 10 19 11 20 12 21 13 22 14 24 15 25 16 26
REMARK SMILES IDX 62 27 17 28 61 29 18 30 19 31 20 32 55 33 21 34 60 35 54 36
REMARK SMILES IDX 56 37 22 38 59 39 53 40 52 41 23 43 45 44 30 45 44 46 31 47
REMARK SMILES IDX 34 48 43 49 57 50 32 51 33 52 42 54 58 55 35 56 24 57 25 58
REMARK SMILES IDX 29 59 26 60 28 61 27 62 46 63 47 64 51 65 48 66 50 67 49 68
REMARK SMILES IDX 36 69 37 70 41 71 38 72 40 73 39 74
REMARK H PARENT 8 5 65 14 12 23 56 42 34 53
REMARK Flexibility Score: inf
ROOT
ATOM      1  C   UNL A   1      36.098  20.353  24.740  1.00  0.00     0.117 C 
ENDROOT
BRANCH   1   2
ATOM      2  N   UNL A   1      34.866  19.847  25.305  1.00  0.00    -0.354 N 
ATOM      3  C   UNL A   1      33.612  20.378  25.251  1.00  0.00     0.239 C 
ATOM      4  O   UNL A   1      32.672  19.585  25.364  1.00  0.00    -0.273 OA
ATOM      5  H   UNL A   1      34.946  18.997  25.798  1.00  0.00     0.163 HD
BRANCH   3   6
ATOM      6  C   UNL A   1      33.353  21.851  24.895  1.00  0.00     0.221 C 
BRANCH   6   7
ATOM      7  N   UNL A   1      33.696  22.822  25.933  1.00  0.00    -0.312 N 
BRANCH   7   8
ATOM      8  C   UNL A   1      32.879  22.788  27.148  1.00  0.00     0.149 C 
BRANCH   8   9
ATOM      9  C   UNL A   1      31.564  23.477  26.933  1.00  0.00    -0.013 C 
ATOM     10  C   UNL A   1      30.432  22.817  26.652  1.00  0.00     0.006 C 
ENDBRANCH   8   9
ENDBRANCH   7   8
BRANCH   7  11
ATOM     11  C   UNL A   1      34.736  23.706  25.919  1.00  0.00     0.318 C 
ATOM     12  O   UNL A   1      35.871  23.368  26.273  1.00  0.00    -0.249 OA
ATOM     13  N   UNL A   1      34.641  24.990  25.545  1.00  0.00    -0.338 N 
ATOM     14  H   UNL A   1      35.523  25.423  25.600  1.00  0.00     0.165 HD
BRANCH  13  15
ATOM     15  C   UNL A   1      33.643  25.950  25.080  1.00  0.00     0.120 C 
BRANCH  15  16
ATOM     16  C   UNL A   1      33.140  26.833  26.238  1.00  0.00     0.002 C 
ATOM     17  C   UNL A   1      33.848  28.192  26.253  1.00  0.00     0.009 C 
ATOM     18  C   UNL A   1      31.630  27.058  26.140  1.00  0.00     0.009 C 
ENDBRANCH  15  16
ENDBRANCH  13  15
ENDBRANCH   7  11
ENDBRANCH   6   7
ENDBRANCH   3   6
ENDBRANCH   1   2
BRANCH   1  19
ATOM     19  C   UNL A   1      37.306  19.458  24.982  1.00  0.00     0.042 C 
BRANCH  19  20
ATOM     20  C   UNL A   1      38.564  20.188  25.442  1.00  0.00     0.118 C 
BRANCH  20  21
ATOM     21  N   UNL A   1      39.684  19.290  25.688  1.00  0.00    -0.352 N 
ATOM     22  C   UNL A   1      40.969  19.529  26.097  1.00  0.00     0.251 C 
ATOM     23  H   UNL A   1      39.481  18.339  25.533  1.00  0.00     0.163 HD
ATOM     24  O   UNL A   1      41.786  18.608  26.046  1.00  0.00    -0.269 OA
BRANCH  22  25
ATOM     25  C   UNL A   1      41.404  20.855  26.590  1.00  0.00     0.039 A 
ATOM     26  C   UNL A   1      41.260  21.137  27.954  1.00  0.00     0.014 A 
ATOM     27  C   UNL A   1      41.869  21.851  25.728  1.00  0.00     0.014 A 
ATOM     28  C   UNL A   1      41.619  22.391  28.454  1.00  0.00     0.010 A 
ATOM     29  C   UNL A   1      42.299  23.076  26.238  1.00  0.00     0.010 A 
ATOM     30  C   UNL A   1      42.163  23.365  27.604  1.00  0.00    -0.014 A 
BRANCH  30  31
ATOM     31  C   UNL A   1      42.574  24.693  28.126  1.00  0.00     0.031 A 
ATOM     32  C   UNL A   1      41.552  25.778  28.334  1.00  0.00     0.074 A 
ATOM     33  C   UNL A   1      43.874  24.940  28.373  1.00  0.00     0.049 A 
ATOM     34  N   UNL A   1      41.727  27.007  28.753  1.00  0.00    -0.248 NA
ATOM     35  C   UNL A   1      40.156  25.448  28.010  1.00  0.00     0.031 C 
ATOM     36  C   UNL A   1      44.970  23.989  28.179  1.00  0.00     0.029 A 
ATOM     37  N   UNL A   1      44.495  26.071  28.842  1.00  0.00    -0.354 N 
ATOM     38  C   UNL A   1      40.469  27.600  28.722  1.00  0.00     0.074 A 
ATOM     39  C   UNL A   1      39.550  26.611  28.201  1.00  0.00     0.031 C 
ATOM     40  C   UNL A   1      46.124  24.564  28.555  1.00  0.00     0.029 A 
ATOM     41  C   UNL A   1      45.854  25.933  28.982  1.00  0.00     0.049 A 
ATOM     42  H   UNL A   1      44.011  26.902  29.056  1.00  0.00     0.167 HD
ATOM     43  C   UNL A   1      40.107  28.846  29.108  1.00  0.00     0.031 A 
ATOM     44  C   UNL A   1      46.781  26.809  29.411  1.00  0.00     0.031 A 
ATOM     45  C   UNL A   1      41.014  29.827  29.642  1.00  0.00     0.049 A 
ATOM     46  C   UNL A   1      46.355  28.185  29.838  1.00  0.00     0.074 A 
ATOM     47  C   UNL A   1      40.733  31.098  30.112  1.00  0.00     0.029 A 
ATOM     48  N   UNL A   1      42.382  29.642  29.777  1.00  0.00    -0.354 N 
ATOM     49  N   UNL A   1      45.153  28.708  29.859  1.00  0.00    -0.248 NA
ATOM     50  C   UNL A   1      47.414  29.087  30.313  1.00  0.00     0.031 C 
ATOM     51  C   UNL A   1      41.938  31.698  30.495  1.00  0.00     0.029 A 
ATOM     52  C   UNL A   1      42.961  30.782  30.309  1.00  0.00     0.049 A 
ATOM     53  H   UNL A   1      42.869  28.822  29.533  1.00  0.00     0.167 HD
ATOM     54  C   UNL A   1      45.306  29.987  30.376  1.00  0.00     0.074 A 
ATOM     55  C   UNL A   1      46.716  30.158  30.666  1.00  0.00     0.031 C 
ATOM     56  C   UNL A   1      44.363  30.935  30.594  1.00  0.00     0.031 A 
BRANCH  43  57
ATOM     57  C   UNL A   1      38.658  29.220  28.960  1.00  0.00    -0.014 A 
ATOM     58  C   UNL A   1      38.161  29.737  27.753  1.00  0.00     0.009 A 
ATOM     59  C   UNL A   1      37.774  29.031  30.033  1.00  0.00     0.009 A 
ATOM     60  C   UNL A   1      36.816  30.092  27.636  1.00  0.00     0.001 A 
ATOM     61  C   UNL A   1      36.423  29.362  29.905  1.00  0.00     0.001 A 
ATOM     62  C   UNL A   1      35.947  29.901  28.710  1.00  0.00     0.000 A 
ENDBRANCH  43  57
BRANCH  44  63
ATOM     63  C   UNL A   1      48.207  26.399  29.490  1.00  0.00    -0.014 A 
ATOM     64  C   UNL A   1      48.722  25.854  30.677  1.00  0.00     0.009 A 
ATOM     65  C   UNL A   1      49.057  26.545  28.384  1.00  0.00     0.009 A 
ATOM     66  C   UNL A   1      50.065  25.483  30.760  1.00  0.00     0.001 A 
ATOM     67  C   UNL A   1      50.394  26.149  28.461  1.00  0.00     0.001 A 
ATOM     68  C   UNL A   1      50.898  25.627  29.652  1.00  0.00     0.000 A 
ENDBRANCH  44  63
BRANCH  56  69
ATOM     69  C   UNL A   1      44.818  32.227  31.210  1.00  0.00    -0.014 A 
ATOM     70  C   UNL A   1      45.211  33.315  30.417  1.00  0.00     0.009 A 
ATOM     71  C   UNL A   1      44.817  32.367  32.607  1.00  0.00     0.009 A 
ATOM     72  C   UNL A   1      45.623  34.509  31.012  1.00  0.00     0.001 A 
ATOM     73  C   UNL A   1      45.205  33.569  33.199  1.00  0.00     0.001 A 
ATOM     74  C   UNL A   1      45.616  34.636  32.401  1.00  0.00     0.000 A 
ENDBRANCH  56  69
ENDBRANCH  30  31
ENDBRANCH  22  25
ENDBRANCH  20  21
ENDBRANCH  19  20
ENDBRANCH   1  19
TORSDOF 16
ENDMDL
