MODEL 1
REMARK VINA RESULT:     -10.8      0.000      0.000
REMARK SMILES CCC[C@@](C)(NC(=O)N1CCN(C)C(=O)C1(C)C)C(=O)NCCCNC(=O)c1ccc(-c2c3nc(c(-c4ccccc4)c4ccc([nH]4)c(-c4ccccc4)c4nc(c(-c5ccccc5)c5ccc2[nH]5)C=C4)C=C3)cc1
REMARK SMILES IDX 23 1 22 2 21 3 19 4 20 5 4 7 5 8 3 9 2 10 1 11 6 12 7 13
REMARK SMILES IDX 8 15 9 16 10 17 16 18 11 19 14 20 17 21 18 22 12 23 15 24
REMARK SMILES IDX 13 25 24 26 25 27 26 28 27 30 28 31 29 32 75 33 30 34 74 35
REMARK SMILES IDX 31 36 32 37 33 38 68 39 34 40 73 41 67 42 69 43 35 44 72 45
REMARK SMILES IDX 66 46 65 47 36 49 58 50 43 51 57 52 44 53 47 54 56 55 70 56
REMARK SMILES IDX 45 57 46 58 55 60 71 61 48 62 37 63 38 64 42 65 39 66 41 67
REMARK SMILES IDX 40 68 59 69 60 70 64 71 61 72 63 73 62 74 49 75 50 76 54 77
REMARK SMILES IDX 51 78 53 79 52 80
REMARK H PARENT 21 6 6 14 25 29 69 48 47 59
REMARK Flexibility Score: inf
ROOT
ATOM      1  C   UNL A   1      37.815  19.940  24.673  1.00  0.00     0.042 C 
ENDROOT
BRANCH   1   2
ATOM      2  C   UNL A   1      36.327  19.487  24.927  1.00  0.00     0.117 C 
BRANCH   2   3
ATOM      3  N   UNL A   1      35.071  20.329  25.107  1.00  0.00    -0.354 N 
ATOM      4  C   UNL A   1      34.431  21.531  24.903  1.00  0.00     0.245 C 
ATOM      5  O   UNL A   1      33.514  21.373  24.069  1.00  0.00    -0.272 OA
ATOM      6  H   UNL A   1      34.428  19.757  25.584  1.00  0.00     0.163 HD
BRANCH   4   7
ATOM      7  C   UNL A   1      34.635  23.079  25.435  1.00  0.00     0.117 C 
ATOM      8  C   UNL A   1      33.500  23.228  26.478  1.00  0.00     0.045 C 
BRANCH   7   9
ATOM      9  C   UNL A   1      36.034  23.229  26.182  1.00  0.00     0.038 C 
BRANCH   9  10
ATOM     10  C   UNL A   1      37.335  23.618  25.457  1.00  0.00    -0.000 C 
ATOM     11  C   UNL A   1      38.563  23.596  26.365  1.00  0.00     0.004 C 
ENDBRANCH   9  10
ENDBRANCH   7   9
BRANCH   7  12
ATOM     12  N   UNL A   1      34.593  24.395  24.626  1.00  0.00    -0.324 N 
ATOM     13  C   UNL A   1      33.691  24.931  23.729  1.00  0.00     0.319 C 
ATOM     14  H   UNL A   1      35.374  24.973  24.783  1.00  0.00     0.166 HD
ATOM     15  O   UNL A   1      34.040  25.049  22.555  1.00  0.00    -0.249 OA
BRANCH  13  16
ATOM     16  N   UNL A   1      32.532  25.520  24.203  1.00  0.00    -0.309 N 
ATOM     17  C   UNL A   1      32.582  26.585  25.175  1.00  0.00     0.144 C 
ATOM     18  C   UNL A   1      31.274  25.406  23.498  1.00  0.00     0.118 C 
ATOM     19  C   UNL A   1      32.552  27.904  24.408  1.00  0.00     0.140 C 
ATOM     20  C   UNL A   1      31.401  26.643  22.496  1.00  0.00     0.247 C 
ATOM     21  C   UNL A   1      31.068  23.887  23.395  1.00  0.00     0.045 C 
ATOM     22  C   UNL A   1      29.929  25.872  24.125  1.00  0.00     0.045 C 
ATOM     23  N   UNL A   1      31.785  27.856  23.146  1.00  0.00    -0.342 N 
ATOM     24  O   UNL A   1      30.856  26.706  21.395  1.00  0.00    -0.272 OA
ATOM     25  C   UNL A   1      31.277  29.119  22.641  1.00  0.00     0.146 C 
ENDBRANCH  13  16
ENDBRANCH   7  12
ENDBRANCH   4   7
ENDBRANCH   2   3
ENDBRANCH   1   2
BRANCH   1  26
ATOM     26  C   UNL A   1      38.880  20.114  25.802  1.00  0.00     0.118 C 
BRANCH  26  27
ATOM     27  N   UNL A   1      40.028  19.222  25.772  1.00  0.00    -0.352 N 
ATOM     28  C   UNL A   1      41.343  19.505  26.085  1.00  0.00     0.251 C 
ATOM     29  H   UNL A   1      39.844  18.297  25.491  1.00  0.00     0.163 HD
ATOM     30  O   UNL A   1      42.215  18.649  25.921  1.00  0.00    -0.269 OA
BRANCH  28  31
ATOM     31  C   UNL A   1      41.751  20.842  26.579  1.00  0.00     0.039 A 
ATOM     32  C   UNL A   1      41.702  21.092  27.954  1.00  0.00     0.014 A 
ATOM     33  C   UNL A   1      42.075  21.880  25.700  1.00  0.00     0.014 A 
ATOM     34  C   UNL A   1      42.023  22.360  28.451  1.00  0.00     0.010 A 
ATOM     35  C   UNL A   1      42.427  23.144  26.202  1.00  0.00     0.010 A 
ATOM     36  C   UNL A   1      42.403  23.400  27.583  1.00  0.00    -0.014 A 
BRANCH  36  37
ATOM     37  C   UNL A   1      42.762  24.730  28.156  1.00  0.00     0.031 A 
ATOM     38  C   UNL A   1      44.199  25.130  28.359  1.00  0.00     0.074 A 
ATOM     39  C   UNL A   1      41.784  25.605  28.460  1.00  0.00     0.049 A 
ATOM     40  N   UNL A   1      44.694  26.302  28.678  1.00  0.00    -0.248 NA
ATOM     41  C   UNL A   1      45.210  24.076  28.201  1.00  0.00     0.031 C 
ATOM     42  C   UNL A   1      40.349  25.324  28.369  1.00  0.00     0.029 A 
ATOM     43  N   UNL A   1      41.841  26.912  28.880  1.00  0.00    -0.354 N 
ATOM     44  C   UNL A   1      46.071  26.125  28.757  1.00  0.00     0.074 A 
ATOM     45  C   UNL A   1      46.325  24.722  28.509  1.00  0.00     0.031 C 
ATOM     46  C   UNL A   1      39.664  26.437  28.677  1.00  0.00     0.029 A 
ATOM     47  C   UNL A   1      40.606  27.504  29.004  1.00  0.00     0.049 A 
ATOM     48  H   UNL A   1      42.685  27.378  29.076  1.00  0.00     0.167 HD
ATOM     49  C   UNL A   1      47.038  27.046  28.997  1.00  0.00     0.031 A 
ATOM     50  C   UNL A   1      40.266  28.768  29.321  1.00  0.00     0.031 A 
ATOM     51  C   UNL A   1      46.781  28.439  29.258  1.00  0.00     0.049 A 
ATOM     52  C   UNL A   1      41.350  29.782  29.554  1.00  0.00     0.074 A 
ATOM     53  C   UNL A   1      47.688  29.467  29.449  1.00  0.00     0.029 A 
ATOM     54  N   UNL A   1      45.516  28.997  29.382  1.00  0.00    -0.354 N 
ATOM     55  N   UNL A   1      42.651  29.623  29.515  1.00  0.00    -0.248 NA
ATOM     56  C   UNL A   1      40.918  31.154  29.853  1.00  0.00     0.031 C 
ATOM     57  C   UNL A   1      46.973  30.632  29.751  1.00  0.00     0.029 A 
ATOM     58  C   UNL A   1      45.619  30.345  29.685  1.00  0.00     0.049 A 
ATOM     59  H   UNL A   1      44.670  28.506  29.271  1.00  0.00     0.167 HD
ATOM     60  C   UNL A   1      43.195  30.874  29.776  1.00  0.00     0.074 A 
ATOM     61  C   UNL A   1      42.081  31.787  29.937  1.00  0.00     0.031 C 
ATOM     62  C   UNL A   1      44.499  31.234  29.878  1.00  0.00     0.031 A 
BRANCH  49  63
ATOM     63  C   UNL A   1      48.463  26.557  29.016  1.00  0.00    -0.014 A 
ATOM     64  C   UNL A   1      49.067  26.099  30.200  1.00  0.00     0.009 A 
ATOM     65  C   UNL A   1      49.217  26.556  27.832  1.00  0.00     0.009 A 
ATOM     66  C   UNL A   1      50.411  25.711  30.208  1.00  0.00     0.001 A 
ATOM     67  C   UNL A   1      50.550  26.136  27.836  1.00  0.00     0.001 A 
ATOM     68  C   UNL A   1      51.150  25.729  29.027  1.00  0.00     0.000 A 
ENDBRANCH  49  63
BRANCH  50  69
ATOM     69  C   UNL A   1      38.828  29.144  29.404  1.00  0.00    -0.014 A 
ATOM     70  C   UNL A   1      38.123  29.045  30.614  1.00  0.00     0.009 A 
ATOM     71  C   UNL A   1      38.161  29.638  28.272  1.00  0.00     0.009 A 
ATOM     72  C   UNL A   1      36.779  29.423  30.683  1.00  0.00     0.001 A 
ATOM     73  C   UNL A   1      36.827  30.043  28.351  1.00  0.00     0.001 A 
ATOM     74  C   UNL A   1      36.135  29.929  29.555  1.00  0.00     0.000 A 
ENDBRANCH  50  69
BRANCH  62  75
ATOM     75  C   UNL A   1      44.782  32.679  30.187  1.00  0.00    -0.014 A 
ATOM     76  C   UNL A   1      44.915  33.629  29.161  1.00  0.00     0.009 A 
ATOM     77  C   UNL A   1      44.905  33.098  31.521  1.00  0.00     0.009 A 
ATOM     78  C   UNL A   1      45.209  34.960  29.463  1.00  0.00     0.001 A 
ATOM     79  C   UNL A   1      45.167  34.436  31.821  1.00  0.00     0.001 A 
ATOM     80  C   UNL A   1      45.332  35.363  30.792  1.00  0.00     0.000 A 
ENDBRANCH  62  75
ENDBRANCH  36  37
ENDBRANCH  28  31
ENDBRANCH  26  27
ENDBRANCH   1  26
TORSDOF 14
ENDMDL
MODEL 2
REMARK VINA RESULT:     -10.7      1.228      6.104
REMARK SMILES CCC[C@@](C)(NC(=O)N1CCN(C)C(=O)C1(C)C)C(=O)NCCCNC(=O)c1ccc(-c2c3nc(c(-c4ccccc4)c4ccc([nH]4)c(-c4ccccc4)c4nc(c(-c5ccccc5)c5ccc2[nH]5)C=C4)C=C3)cc1
REMARK SMILES IDX 23 1 22 2 21 3 19 4 20 5 4 7 5 8 3 9 2 10 1 11 6 12 7 13
REMARK SMILES IDX 8 15 9 16 10 17 16 18 11 19 14 20 17 21 18 22 12 23 15 24
REMARK SMILES IDX 13 25 24 26 25 27 26 28 27 30 28 31 29 32 75 33 30 34 74 35
REMARK SMILES IDX 31 36 32 37 33 38 68 39 34 40 73 41 67 42 69 43 35 44 72 45
REMARK SMILES IDX 66 46 65 47 36 49 58 50 43 51 57 52 44 53 47 54 56 55 70 56
REMARK SMILES IDX 45 57 46 58 55 60 71 61 48 62 37 63 38 64 42 65 39 66 41 67
REMARK SMILES IDX 40 68 59 69 60 70 64 71 61 72 63 73 62 74 49 75 50 76 54 77
REMARK SMILES IDX 51 78 53 79 52 80
REMARK H PARENT 21 6 6 14 25 29 69 48 47 59
REMARK Flexibility Score: inf
ROOT
ATOM      1  C   UNL A   1      37.440  20.044  24.636  1.00  0.00     0.042 C 
ENDROOT
BRANCH   1   2
ATOM      2  C   UNL A   1      35.932  19.787  25.018  1.00  0.00     0.117 C 
BRANCH   2   3
ATOM      3  N   UNL A   1      34.727  20.709  24.891  1.00  0.00    -0.354 N 
ATOM      4  C   UNL A   1      34.240  21.995  24.834  1.00  0.00     0.245 C 
ATOM      5  O   UNL A   1      33.817  22.225  23.680  1.00  0.00    -0.272 OA
ATOM      6  H   UNL A   1      33.942  20.118  24.816  1.00  0.00     0.163 HD
BRANCH   4   7
ATOM      7  C   UNL A   1      34.155  23.270  25.878  1.00  0.00     0.117 C 
ATOM      8  C   UNL A   1      34.282  22.582  27.259  1.00  0.00     0.045 C 
BRANCH   7   9
ATOM      9  C   UNL A   1      35.406  24.235  25.675  1.00  0.00     0.038 C 
BRANCH   9  10
ATOM     10  C   UNL A   1      36.729  23.773  25.038  1.00  0.00    -0.000 C 
ATOM     11  C   UNL A   1      37.905  23.786  26.013  1.00  0.00     0.004 C 
ENDBRANCH   9  10
ENDBRANCH   7   9
BRANCH   7  12
ATOM     12  N   UNL A   1      33.018  24.299  26.060  1.00  0.00    -0.324 N 
ATOM     13  C   UNL A   1      32.668  25.457  25.393  1.00  0.00     0.319 C 
ATOM     14  H   UNL A   1      32.415  24.086  26.808  1.00  0.00     0.166 HD
ATOM     15  O   UNL A   1      32.773  26.526  25.993  1.00  0.00    -0.249 OA
BRANCH  13  16
ATOM     16  N   UNL A   1      32.007  25.368  24.181  1.00  0.00    -0.309 N 
ATOM     17  C   UNL A   1      30.663  24.849  24.103  1.00  0.00     0.144 C 
ATOM     18  C   UNL A   1      32.428  26.127  23.024  1.00  0.00     0.118 C 
ATOM     19  C   UNL A   1      29.710  26.039  24.165  1.00  0.00     0.140 C 
ATOM     20  C   UNL A   1      31.628  27.486  23.273  1.00  0.00     0.247 C 
ATOM     21  C   UNL A   1      33.891  25.696  22.839  1.00  0.00     0.045 C 
ATOM     22  C   UNL A   1      31.837  25.873  21.608  1.00  0.00     0.045 C 
ATOM     23  N   UNL A   1      30.245  27.279  23.566  1.00  0.00    -0.342 N 
ATOM     24  O   UNL A   1      31.992  28.591  22.873  1.00  0.00    -0.272 OA
ATOM     25  C   UNL A   1      29.274  28.263  23.122  1.00  0.00     0.146 C 
ENDBRANCH  13  16
ENDBRANCH   7  12
ENDBRANCH   4   7
ENDBRANCH   2   3
ENDBRANCH   1   2
BRANCH   1  26
ATOM     26  C   UNL A   1      38.570  20.318  25.678  1.00  0.00     0.118 C 
BRANCH  26  27
ATOM     27  N   UNL A   1      39.678  19.377  25.716  1.00  0.00    -0.352 N 
ATOM     28  C   UNL A   1      40.990  19.611  26.077  1.00  0.00     0.251 C 
ATOM     29  H   UNL A   1      39.465  18.455  25.449  1.00  0.00     0.163 HD
ATOM     30  O   UNL A   1      41.830  18.715  25.969  1.00  0.00    -0.269 OA
BRANCH  28  31
ATOM     31  C   UNL A   1      41.436  20.941  26.558  1.00  0.00     0.039 A 
ATOM     32  C   UNL A   1      41.269  21.255  27.910  1.00  0.00     0.014 A 
ATOM     33  C   UNL A   1      41.913  21.916  25.676  1.00  0.00     0.014 A 
ATOM     34  C   UNL A   1      41.624  22.521  28.388  1.00  0.00     0.010 A 
ATOM     35  C   UNL A   1      42.298  23.177  26.162  1.00  0.00     0.010 A 
ATOM     36  C   UNL A   1      42.155  23.496  27.523  1.00  0.00    -0.014 A 
BRANCH  36  37
ATOM     37  C   UNL A   1      42.545  24.825  28.077  1.00  0.00     0.031 A 
ATOM     38  C   UNL A   1      41.520  25.901  28.318  1.00  0.00     0.074 A 
ATOM     39  C   UNL A   1      43.832  25.053  28.406  1.00  0.00     0.049 A 
ATOM     40  N   UNL A   1      41.652  27.042  28.951  1.00  0.00    -0.248 NA
ATOM     41  C   UNL A   1      40.179  25.675  27.764  1.00  0.00     0.031 C 
ATOM     42  C   UNL A   1      44.936  24.121  28.169  1.00  0.00     0.029 A 
ATOM     43  N   UNL A   1      44.427  26.123  29.029  1.00  0.00    -0.354 N 
ATOM     44  C   UNL A   1      40.413  27.667  28.870  1.00  0.00     0.074 A 
ATOM     45  C   UNL A   1      39.561  26.804  28.080  1.00  0.00     0.031 C 
ATOM     46  C   UNL A   1      46.064  24.637  28.681  1.00  0.00     0.029 A 
ATOM     47  C   UNL A   1      45.769  25.942  29.267  1.00  0.00     0.049 A 
ATOM     48  H   UNL A   1      43.940  26.941  29.279  1.00  0.00     0.167 HD
ATOM     49  C   UNL A   1      40.013  28.844  29.417  1.00  0.00     0.031 A 
ATOM     50  C   UNL A   1      46.662  26.724  29.905  1.00  0.00     0.031 A 
ATOM     51  C   UNL A   1      40.867  29.707  30.191  1.00  0.00     0.049 A 
ATOM     52  C   UNL A   1      46.195  28.009  30.530  1.00  0.00     0.074 A 
ATOM     53  C   UNL A   1      40.546  30.886  30.843  1.00  0.00     0.029 A 
ATOM     54  N   UNL A   1      42.221  29.491  30.403  1.00  0.00    -0.354 N 
ATOM     55  N   UNL A   1      44.992  28.532  30.541  1.00  0.00    -0.248 NA
ATOM     56  C   UNL A   1      47.203  28.798  31.250  1.00  0.00     0.031 C 
ATOM     57  C   UNL A   1      41.719  31.415  31.395  1.00  0.00     0.029 A 
ATOM     58  C   UNL A   1      42.758  30.534  31.143  1.00  0.00     0.049 A 
ATOM     59  H   UNL A   1      42.726  28.713  30.076  1.00  0.00     0.167 HD
ATOM     60  C   UNL A   1      45.096  29.708  31.273  1.00  0.00     0.074 A 
ATOM     61  C   UNL A   1      46.472  29.801  31.719  1.00  0.00     0.031 C 
ATOM     62  C   UNL A   1      44.139  30.630  31.549  1.00  0.00     0.031 A 
BRANCH  49  63
ATOM     63  C   UNL A   1      38.590  29.270  29.163  1.00  0.00    -0.014 A 
ATOM     64  C   UNL A   1      37.604  29.171  30.161  1.00  0.00     0.009 A 
ATOM     65  C   UNL A   1      38.226  29.777  27.906  1.00  0.00     0.009 A 
ATOM     66  C   UNL A   1      36.277  29.511  29.884  1.00  0.00     0.001 A 
ATOM     67  C   UNL A   1      36.905  30.147  27.642  1.00  0.00     0.001 A 
ATOM     68  C   UNL A   1      35.929  29.999  28.627  1.00  0.00     0.000 A 
ENDBRANCH  49  63
BRANCH  50  69
ATOM     69  C   UNL A   1      48.081  26.290  30.005  1.00  0.00    -0.014 A 
ATOM     70  C   UNL A   1      48.987  26.527  28.959  1.00  0.00     0.009 A 
ATOM     71  C   UNL A   1      48.546  25.662  31.171  1.00  0.00     0.009 A 
ATOM     72  C   UNL A   1      50.323  26.134  29.076  1.00  0.00     0.001 A 
ATOM     73  C   UNL A   1      49.888  25.296  31.298  1.00  0.00     0.001 A 
ATOM     74  C   UNL A   1      50.775  25.527  30.248  1.00  0.00     0.000 A 
ENDBRANCH  50  69
BRANCH  62  75
ATOM     75  C   UNL A   1      44.560  31.822  32.364  1.00  0.00    -0.014 A 
ATOM     76  C   UNL A   1      44.469  31.813  33.765  1.00  0.00     0.009 A 
ATOM     77  C   UNL A   1      45.067  32.964  31.724  1.00  0.00     0.009 A 
ATOM     78  C   UNL A   1      44.834  32.939  34.506  1.00  0.00     0.001 A 
ATOM     79  C   UNL A   1      45.461  34.076  32.469  1.00  0.00     0.001 A 
ATOM     80  C   UNL A   1      45.332  34.068  33.858  1.00  0.00     0.000 A 
ENDBRANCH  62  75
ENDBRANCH  36  37
ENDBRANCH  28  31
ENDBRANCH  26  27
ENDBRANCH   1  26
TORSDOF 14
ENDMDL
MODEL 3
REMARK VINA RESULT:     -10.6      4.527      9.633
REMARK SMILES CCC[C@@](C)(NC(=O)N1CCN(C)C(=O)C1(C)C)C(=O)NCCCNC(=O)c1ccc(-c2c3nc(c(-c4ccccc4)c4ccc([nH]4)c(-c4ccccc4)c4nc(c(-c5ccccc5)c5ccc2[nH]5)C=C4)C=C3)cc1
REMARK SMILES IDX 23 1 22 2 21 3 19 4 20 5 4 7 5 8 3 9 2 10 1 11 6 12 7 13
REMARK SMILES IDX 8 15 9 16 10 17 16 18 11 19 14 20 17 21 18 22 12 23 15 24
REMARK SMILES IDX 13 25 24 26 25 27 26 28 27 30 28 31 29 32 75 33 30 34 74 35
REMARK SMILES IDX 31 36 32 37 33 38 68 39 34 40 73 41 67 42 69 43 35 44 72 45
REMARK SMILES IDX 66 46 65 47 36 49 58 50 43 51 57 52 44 53 47 54 56 55 70 56
REMARK SMILES IDX 45 57 46 58 55 60 71 61 48 62 37 63 38 64 42 65 39 66 41 67
REMARK SMILES IDX 40 68 59 69 60 70 64 71 61 72 63 73 62 74 49 75 50 76 54 77
REMARK SMILES IDX 51 78 53 79 52 80
REMARK H PARENT 21 6 6 14 25 29 69 48 47 59
REMARK Flexibility Score: inf
ROOT
ATOM      1  C   UNL A   1      31.400  32.035  26.537  1.00  0.00     0.042 C 
ENDROOT
BRANCH   1   2
ATOM      2  C   UNL A   1      31.512  30.547  26.027  1.00  0.00     0.117 C 
BRANCH   2   3
ATOM      3  N   UNL A   1      32.317  29.384  26.592  1.00  0.00    -0.354 N 
ATOM      4  C   UNL A   1      33.131  28.300  26.352  1.00  0.00     0.245 C 
ATOM      5  O   UNL A   1      34.284  28.552  26.763  1.00  0.00    -0.272 OA
ATOM      6  H   UNL A   1      32.204  29.427  27.569  1.00  0.00     0.163 HD
BRANCH   4   7
ATOM      7  C   UNL A   1      32.954  26.835  25.614  1.00  0.00     0.117 C 
ATOM      8  C   UNL A   1      31.421  26.737  25.426  1.00  0.00     0.045 C 
BRANCH   7   9
ATOM      9  C   UNL A   1      33.642  26.853  24.177  1.00  0.00     0.038 C 
BRANCH   9  10
ATOM     10  C   UNL A   1      32.849  27.030  22.869  1.00  0.00    -0.000 C 
ATOM     11  C   UNL A   1      33.078  25.901  21.866  1.00  0.00     0.004 C 
ENDBRANCH   9  10
ENDBRANCH   7   9
BRANCH   7  12
ATOM     12  N   UNL A   1      33.374  25.437  26.122  1.00  0.00    -0.324 N 
ATOM     13  C   UNL A   1      32.888  24.164  25.907  1.00  0.00     0.319 C 
ATOM     14  H   UNL A   1      34.151  25.460  26.725  1.00  0.00     0.166 HD
ATOM     15  O   UNL A   1      32.371  23.572  26.856  1.00  0.00    -0.249 OA
BRANCH  13  16
ATOM     16  N   UNL A   1      33.193  23.511  24.726  1.00  0.00    -0.309 N 
ATOM     17  C   UNL A   1      34.560  23.351  24.296  1.00  0.00     0.144 C 
ATOM     18  C   UNL A   1      32.249  22.627  24.076  1.00  0.00     0.118 C 
ATOM     19  C   UNL A   1      35.039  21.991  24.792  1.00  0.00     0.140 C 
ATOM     20  C   UNL A   1      32.583  21.258  24.829  1.00  0.00     0.247 C 
ATOM     21  C   UNL A   1      31.022  23.526  23.860  1.00  0.00     0.045 C 
ATOM     22  C   UNL A   1      32.493  22.064  22.647  1.00  0.00     0.045 C 
ATOM     23  N   UNL A   1      33.980  20.962  24.864  1.00  0.00    -0.342 N 
ATOM     24  O   UNL A   1      31.777  20.345  25.001  1.00  0.00    -0.272 OA
ATOM     25  C   UNL A   1      34.409  19.576  24.815  1.00  0.00     0.146 C 
ENDBRANCH  13  16
ENDBRANCH   7  12
ENDBRANCH   4   7
ENDBRANCH   2   3
ENDBRANCH   1   2
BRANCH   1  26
ATOM     26  C   UNL A   1      32.614  32.880  27.038  1.00  0.00     0.118 C 
BRANCH  26  27
ATOM     27  N   UNL A   1      32.320  34.178  27.623  1.00  0.00    -0.352 N 
ATOM     28  C   UNL A   1      32.966  34.817  28.663  1.00  0.00     0.251 C 
ATOM     29  H   UNL A   1      31.562  34.664  27.226  1.00  0.00     0.163 HD
ATOM     30  O   UNL A   1      32.530  35.886  29.097  1.00  0.00    -0.269 OA
BRANCH  28  31
ATOM     31  C   UNL A   1      34.160  34.226  29.312  1.00  0.00     0.039 A 
ATOM     32  C   UNL A   1      35.426  34.577  28.833  1.00  0.00     0.014 A 
ATOM     33  C   UNL A   1      34.046  33.254  30.310  1.00  0.00     0.014 A 
ATOM     34  C   UNL A   1      36.574  33.995  29.383  1.00  0.00     0.010 A 
ATOM     35  C   UNL A   1      35.199  32.692  30.882  1.00  0.00     0.010 A 
ATOM     36  C   UNL A   1      36.477  33.054  30.424  1.00  0.00    -0.014 A 
BRANCH  36  37
ATOM     37  C   UNL A   1      37.726  32.476  30.999  1.00  0.00     0.031 A 
ATOM     38  C   UNL A   1      38.287  32.971  32.305  1.00  0.00     0.074 A 
ATOM     39  C   UNL A   1      38.342  31.463  30.358  1.00  0.00     0.049 A 
ATOM     40  N   UNL A   1      39.255  32.470  33.033  1.00  0.00    -0.248 NA
ATOM     41  C   UNL A   1      37.696  34.198  32.857  1.00  0.00     0.031 C 
ATOM     42  C   UNL A   1      37.940  30.927  29.056  1.00  0.00     0.029 A 
ATOM     43  N   UNL A   1      39.416  30.687  30.720  1.00  0.00    -0.354 N 
ATOM     44  C   UNL A   1      39.387  33.318  34.127  1.00  0.00     0.074 A 
ATOM     45  C   UNL A   1      38.439  34.395  33.936  1.00  0.00     0.031 C 
ATOM     46  C   UNL A   1      38.726  29.882  28.750  1.00  0.00     0.029 A 
ATOM     47  C   UNL A   1      39.697  29.684  29.824  1.00  0.00     0.049 A 
ATOM     48  H   UNL A   1      39.936  30.837  31.543  1.00  0.00     0.167 HD
ATOM     49  C   UNL A   1      40.209  33.205  35.201  1.00  0.00     0.031 A 
ATOM     50  C   UNL A   1      40.615  28.699  29.865  1.00  0.00     0.031 A 
ATOM     51  C   UNL A   1      41.162  32.140  35.381  1.00  0.00     0.049 A 
ATOM     52  C   UNL A   1      41.497  28.570  31.076  1.00  0.00     0.074 A 
ATOM     53  C   UNL A   1      41.995  31.894  36.460  1.00  0.00     0.029 A 
ATOM     54  N   UNL A   1      41.420  31.147  34.446  1.00  0.00    -0.354 N 
ATOM     55  N   UNL A   1      41.532  29.316  32.154  1.00  0.00    -0.248 NA
ATOM     56  C   UNL A   1      42.448  27.451  31.085  1.00  0.00     0.031 C 
ATOM     57  C   UNL A   1      42.801  30.793  36.149  1.00  0.00     0.029 A 
ATOM     58  C   UNL A   1      42.426  30.311  34.905  1.00  0.00     0.049 A 
ATOM     59  H   UNL A   1      40.957  31.051  33.583  1.00  0.00     0.167 HD
ATOM     60  C   UNL A   1      42.502  28.754  32.973  1.00  0.00     0.074 A 
ATOM     61  C   UNL A   1      43.006  27.584  32.281  1.00  0.00     0.031 C 
ATOM     62  C   UNL A   1      42.941  29.171  34.188  1.00  0.00     0.031 A 
BRANCH  49  63
ATOM     63  C   UNL A   1      40.126  34.286  36.247  1.00  0.00    -0.014 A 
ATOM     64  C   UNL A   1      40.839  35.490  36.118  1.00  0.00     0.009 A 
ATOM     65  C   UNL A   1      39.323  34.099  37.383  1.00  0.00     0.009 A 
ATOM     66  C   UNL A   1      40.799  36.453  37.131  1.00  0.00     0.001 A 
ATOM     67  C   UNL A   1      39.258  35.076  38.379  1.00  0.00     0.001 A 
ATOM     68  C   UNL A   1      40.008  36.246  38.259  1.00  0.00     0.000 A 
ENDBRANCH  49  63
BRANCH  50  69
ATOM     69  C   UNL A   1      40.719  27.741  28.731  1.00  0.00    -0.014 A 
ATOM     70  C   UNL A   1      41.578  27.990  27.650  1.00  0.00     0.009 A 
ATOM     71  C   UNL A   1      39.977  26.549  28.744  1.00  0.00     0.009 A 
ATOM     72  C   UNL A   1      41.683  27.071  26.602  1.00  0.00     0.001 A 
ATOM     73  C   UNL A   1      40.105  25.619  27.711  1.00  0.00     0.001 A 
ATOM     74  C   UNL A   1      40.954  25.883  26.637  1.00  0.00     0.000 A 
ENDBRANCH  50  69
BRANCH  62  75
ATOM     75  C   UNL A   1      44.027  28.354  34.834  1.00  0.00    -0.014 A 
ATOM     76  C   UNL A   1      45.383  28.658  34.630  1.00  0.00     0.009 A 
ATOM     77  C   UNL A   1      43.690  27.277  35.669  1.00  0.00     0.009 A 
ATOM     78  C   UNL A   1      46.380  27.871  35.212  1.00  0.00     0.001 A 
ATOM     79  C   UNL A   1      44.688  26.513  36.274  1.00  0.00     0.001 A 
ATOM     80  C   UNL A   1      46.031  26.802  36.035  1.00  0.00     0.000 A 
ENDBRANCH  62  75
ENDBRANCH  36  37
ENDBRANCH  28  31
ENDBRANCH  26  27
ENDBRANCH   1  26
TORSDOF 14
ENDMDL
