MODEL 1
REMARK VINA RESULT:     -11.2      0.000      0.000
REMARK SMILES Cc1nc(C)c(C(=O)N[C@@H](Cc2ccccc2)C(=O)NCCCNC(=O)c2ccc(-c3c4nc(c(-c5ccccc5)c5ccc([nH]5)c(-c5ccccc5)c5nc(c(-c6ccccc6)c6ccc3[nH]6)C=C5)C=C4)cc2)s1
REMARK SMILES IDX 22 1 21 2 20 3 18 4 19 5 10 7 9 8 7 9 8 10 6 12 1 13 2 14
REMARK SMILES IDX 3 15 75 16 4 17 5 18 11 19 12 20 13 21 17 22 14 23 16 24
REMARK SMILES IDX 15 25 23 26 24 27 25 28 26 30 27 31 28 32 74 33 29 34 73 35
REMARK SMILES IDX 30 36 31 37 32 38 67 39 33 40 72 41 66 42 68 43 34 44 71 45
REMARK SMILES IDX 65 46 64 47 35 49 57 50 42 51 56 52 43 53 46 54 55 55 69 56
REMARK SMILES IDX 44 57 45 58 54 60 70 61 47 62 36 63 37 64 41 65 38 66 40 67
REMARK SMILES IDX 39 68 58 69 59 70 63 71 60 72 62 73 61 74 48 75 49 76 53 77
REMARK SMILES IDX 50 78 52 79 51 80
REMARK H PARENT 20 6 9 11 24 29 68 48 46 59
REMARK Flexibility Score: inf
ROOT
ATOM      1  C   UNL A   1      32.113  28.958  27.130  1.00  0.00     0.042 C 
ENDROOT
BRANCH   1   2
ATOM      2  C   UNL A   1      31.597  29.131  25.719  1.00  0.00     0.117 C 
BRANCH   2   3
ATOM      3  N   UNL A   1      32.589  29.543  24.749  1.00  0.00    -0.354 N 
ATOM      4  C   UNL A   1      33.170  28.807  23.757  1.00  0.00     0.242 C 
ATOM      5  O   UNL A   1      33.606  29.436  22.787  1.00  0.00    -0.273 OA
ATOM      6  H   UNL A   1      32.884  30.480  24.813  1.00  0.00     0.163 HD
BRANCH   4   7
ATOM      7  C   UNL A   1      33.237  27.260  23.773  1.00  0.00     0.176 C 
BRANCH   7   8
ATOM      8  N   UNL A   1      33.385  26.693  22.428  1.00  0.00    -0.339 N 
ATOM      9  C   UNL A   1      33.041  25.510  21.818  1.00  0.00     0.263 C 
ATOM     10  O   UNL A   1      33.174  25.571  20.589  1.00  0.00    -0.268 OA
ATOM     11  H   UNL A   1      33.842  27.310  21.812  1.00  0.00     0.164 HD
BRANCH   9  12
ATOM     12  C   UNL A   1      32.620  24.282  22.484  1.00  0.00     0.115 A 
ATOM     13  C   UNL A   1      32.429  20.596  23.763  1.00  0.00     0.079 C 
ATOM     14  C   UNL A   1      32.292  22.031  23.395  1.00  0.00     0.091 A 
ATOM     15  N   UNL A   1      31.228  22.757  23.631  1.00  0.00    -0.246 NA
ATOM     16  S   UNL A   1      33.553  22.849  22.602  1.00  0.00    -0.113 S 
ATOM     17  C   UNL A   1      31.400  24.045  23.129  1.00  0.00     0.061 A 
ATOM     18  C   UNL A   1      30.244  24.964  23.329  1.00  0.00     0.068 C 
ENDBRANCH   9  12
ENDBRANCH   7   8
BRANCH   7  19
ATOM     19  C   UNL A   1      34.165  26.630  24.835  1.00  0.00     0.070 C 
BRANCH  19  20
ATOM     20  C   UNL A   1      33.664  25.453  25.634  1.00  0.00    -0.045 A 
ATOM     21  C   UNL A   1      32.383  25.453  26.203  1.00  0.00     0.004 A 
ATOM     22  C   UNL A   1      34.477  24.319  25.795  1.00  0.00     0.004 A 
ATOM     23  C   UNL A   1      31.896  24.313  26.849  1.00  0.00     0.000 A 
ATOM     24  C   UNL A   1      33.994  23.187  26.454  1.00  0.00     0.000 A 
ATOM     25  C   UNL A   1      32.697  23.178  26.963  1.00  0.00     0.000 A 
ENDBRANCH  19  20
ENDBRANCH   7  19
ENDBRANCH   4   7
ENDBRANCH   2   3
ENDBRANCH   1   2
BRANCH   1  26
ATOM     26  C   UNL A   1      33.562  29.382  27.301  1.00  0.00     0.118 C 
BRANCH  26  27
ATOM     27  N   UNL A   1      33.720  30.662  27.990  1.00  0.00    -0.352 N 
ATOM     28  C   UNL A   1      34.766  31.178  28.719  1.00  0.00     0.251 C 
ATOM     29  H   UNL A   1      32.942  31.260  27.919  1.00  0.00     0.163 HD
ATOM     30  O   UNL A   1      34.619  32.228  29.337  1.00  0.00    -0.269 OA
BRANCH  28  31
ATOM     31  C   UNL A   1      36.053  30.455  28.797  1.00  0.00     0.039 A 
ATOM     32  C   UNL A   1      36.933  30.502  27.711  1.00  0.00     0.014 A 
ATOM     33  C   UNL A   1      36.406  29.746  29.943  1.00  0.00     0.014 A 
ATOM     34  C   UNL A   1      38.204  29.935  27.824  1.00  0.00     0.010 A 
ATOM     35  C   UNL A   1      37.710  29.299  30.103  1.00  0.00     0.010 A 
ATOM     36  C   UNL A   1      38.625  29.383  29.044  1.00  0.00    -0.014 A 
BRANCH  36  37
ATOM     37  C   UNL A   1      40.005  28.874  29.249  1.00  0.00     0.031 A 
ATOM     38  C   UNL A   1      41.057  29.780  29.835  1.00  0.00     0.074 A 
ATOM     39  C   UNL A   1      40.339  27.640  28.821  1.00  0.00     0.049 A 
ATOM     40  N   UNL A   1      42.344  29.577  29.963  1.00  0.00    -0.248 NA
ATOM     41  C   UNL A   1      40.610  31.104  30.301  1.00  0.00     0.031 C 
ATOM     42  C   UNL A   1      39.430  26.681  28.187  1.00  0.00     0.029 A 
ATOM     43  N   UNL A   1      41.544  26.983  28.846  1.00  0.00    -0.354 N 
ATOM     44  C   UNL A   1      42.859  30.758  30.485  1.00  0.00     0.074 A 
ATOM     45  C   UNL A   1      41.759  31.689  30.599  1.00  0.00     0.031 C 
ATOM     46  C   UNL A   1      40.101  25.549  27.917  1.00  0.00     0.029 A 
ATOM     47  C   UNL A   1      41.494  25.718  28.313  1.00  0.00     0.049 A 
ATOM     48  H   UNL A   1      42.366  27.382  29.210  1.00  0.00     0.167 HD
ATOM     49  C   UNL A   1      44.129  31.036  30.864  1.00  0.00     0.031 A 
ATOM     50  C   UNL A   1      42.464  24.798  28.156  1.00  0.00     0.031 A 
ATOM     51  C   UNL A   1      45.213  30.097  30.794  1.00  0.00     0.049 A 
ATOM     52  C   UNL A   1      43.861  25.123  28.606  1.00  0.00     0.074 A 
ATOM     53  C   UNL A   1      46.523  30.259  31.211  1.00  0.00     0.029 A 
ATOM     54  N   UNL A   1      45.109  28.813  30.284  1.00  0.00    -0.354 N 
ATOM     55  N   UNL A   1      44.319  26.226  29.148  1.00  0.00    -0.248 NA
ATOM     56  C   UNL A   1      44.873  24.072  28.430  1.00  0.00     0.031 C 
ATOM     57  C   UNL A   1      47.220  29.082  30.925  1.00  0.00     0.029 A 
ATOM     58  C   UNL A   1      46.333  28.173  30.370  1.00  0.00     0.049 A 
ATOM     59  H   UNL A   1      44.287  28.415  29.917  1.00  0.00     0.167 HD
ATOM     60  C   UNL A   1      45.663  25.990  29.405  1.00  0.00     0.074 A 
ATOM     61  C   UNL A   1      45.942  24.636  28.974  1.00  0.00     0.031 C 
ATOM     62  C   UNL A   1      46.585  26.821  29.948  1.00  0.00     0.031 A 
BRANCH  49  63
ATOM     63  C   UNL A   1      44.403  32.410  31.406  1.00  0.00    -0.014 A 
ATOM     64  C   UNL A   1      44.293  32.684  32.779  1.00  0.00     0.009 A 
ATOM     65  C   UNL A   1      44.806  33.438  30.539  1.00  0.00     0.009 A 
ATOM     66  C   UNL A   1      44.545  33.967  33.268  1.00  0.00     0.001 A 
ATOM     67  C   UNL A   1      45.087  34.712  31.034  1.00  0.00     0.001 A 
ATOM     68  C   UNL A   1      44.946  34.978  32.396  1.00  0.00     0.000 A 
ENDBRANCH  49  63
BRANCH  50  69
ATOM     69  C   UNL A   1      42.153  23.469  27.569  1.00  0.00    -0.014 A 
ATOM     70  C   UNL A   1      41.660  22.434  28.380  1.00  0.00     0.009 A 
ATOM     71  C   UNL A   1      42.365  23.218  26.205  1.00  0.00     0.009 A 
ATOM     72  C   UNL A   1      41.419  21.167  27.844  1.00  0.00     0.001 A 
ATOM     73  C   UNL A   1      42.096  21.957  25.666  1.00  0.00     0.001 A 
ATOM     74  C   UNL A   1      41.634  20.930  26.488  1.00  0.00     0.000 A 
ENDBRANCH  50  69
BRANCH  62  75
ATOM     75  C   UNL A   1      47.968  26.273  30.148  1.00  0.00    -0.014 A 
ATOM     76  C   UNL A   1      48.373  25.753  31.386  1.00  0.00     0.009 A 
ATOM     77  C   UNL A   1      48.861  26.237  29.066  1.00  0.00     0.009 A 
ATOM     78  C   UNL A   1      49.658  25.235  31.544  1.00  0.00     0.001 A 
ATOM     79  C   UNL A   1      50.136  25.694  29.220  1.00  0.00     0.001 A 
ATOM     80  C   UNL A   1      50.536  25.201  30.460  1.00  0.00     0.000 A 
ENDBRANCH  62  75
ENDBRANCH  36  37
ENDBRANCH  28  31
ENDBRANCH  26  27
ENDBRANCH   1  26
TORSDOF 14
ENDMDL
MODEL 2
REMARK VINA RESULT:     -11.0      2.543      7.367
REMARK SMILES Cc1nc(C)c(C(=O)N[C@@H](Cc2ccccc2)C(=O)NCCCNC(=O)c2ccc(-c3c4nc(c(-c5ccccc5)c5ccc([nH]5)c(-c5ccccc5)c5nc(c(-c6ccccc6)c6ccc3[nH]6)C=C5)C=C4)cc2)s1
REMARK SMILES IDX 22 1 21 2 20 3 18 4 19 5 10 7 9 8 7 9 8 10 6 12 1 13 2 14
REMARK SMILES IDX 3 15 75 16 4 17 5 18 11 19 12 20 13 21 17 22 14 23 16 24
REMARK SMILES IDX 15 25 23 26 24 27 25 28 26 30 27 31 28 32 74 33 29 34 73 35
REMARK SMILES IDX 30 36 31 37 32 38 67 39 33 40 72 41 66 42 68 43 34 44 71 45
REMARK SMILES IDX 65 46 64 47 35 49 57 50 42 51 56 52 43 53 46 54 55 55 69 56
REMARK SMILES IDX 44 57 45 58 54 60 70 61 47 62 36 63 37 64 41 65 38 66 40 67
REMARK SMILES IDX 39 68 58 69 59 70 63 71 60 72 62 73 61 74 48 75 49 76 53 77
REMARK SMILES IDX 50 78 52 79 51 80
REMARK H PARENT 20 6 9 11 24 29 68 48 46 59
REMARK Flexibility Score: inf
ROOT
ATOM      1  C   UNL A   1      37.414  21.125  24.456  1.00  0.00     0.042 C 
ENDROOT
BRANCH   1   2
ATOM      2  C   UNL A   1      36.016  21.634  24.727  1.00  0.00     0.117 C 
BRANCH   2   3
ATOM      3  N   UNL A   1      35.441  21.205  25.984  1.00  0.00    -0.354 N 
ATOM      4  C   UNL A   1      34.262  21.584  26.557  1.00  0.00     0.242 C 
ATOM      5  O   UNL A   1      33.751  20.785  27.350  1.00  0.00    -0.273 OA
ATOM      6  H   UNL A   1      35.972  20.550  26.493  1.00  0.00     0.163 HD
BRANCH   4   7
ATOM      7  C   UNL A   1      33.533  22.905  26.207  1.00  0.00     0.176 C 
BRANCH   7   8
ATOM      8  N   UNL A   1      32.245  23.033  26.900  1.00  0.00    -0.339 N 
ATOM      9  C   UNL A   1      31.017  23.572  26.598  1.00  0.00     0.263 C 
ATOM     10  O   UNL A   1      30.154  23.241  27.420  1.00  0.00    -0.268 OA
ATOM     11  H   UNL A   1      32.265  22.635  27.800  1.00  0.00     0.164 HD
BRANCH   9  12
ATOM     12  C   UNL A   1      30.716  24.476  25.492  1.00  0.00     0.115 A 
ATOM     13  C   UNL A   1      29.531  27.544  23.386  1.00  0.00     0.079 C 
ATOM     14  C   UNL A   1      30.038  26.275  23.973  1.00  0.00     0.091 A 
ATOM     15  N   UNL A   1      30.367  25.216  23.277  1.00  0.00    -0.246 NA
ATOM     16  S   UNL A   1      30.221  26.109  25.655  1.00  0.00    -0.113 S 
ATOM     17  C   UNL A   1      30.765  24.185  24.124  1.00  0.00     0.061 A 
ATOM     18  C   UNL A   1      31.153  22.918  23.441  1.00  0.00     0.068 C 
ENDBRANCH   9  12
ENDBRANCH   7   8
BRANCH   7  19
ATOM     19  C   UNL A   1      34.396  24.185  26.229  1.00  0.00     0.070 C 
BRANCH  19  20
ATOM     20  C   UNL A   1      34.169  25.235  25.171  1.00  0.00    -0.045 A 
ATOM     21  C   UNL A   1      34.182  24.908  23.807  1.00  0.00     0.004 A 
ATOM     22  C   UNL A   1      33.911  26.564  25.546  1.00  0.00     0.004 A 
ATOM     23  C   UNL A   1      33.865  25.871  22.846  1.00  0.00     0.000 A 
ATOM     24  C   UNL A   1      33.609  27.528  24.582  1.00  0.00     0.000 A 
ATOM     25  C   UNL A   1      33.567  27.177  23.234  1.00  0.00     0.000 A 
ENDBRANCH  19  20
ENDBRANCH   7  19
ENDBRANCH   4   7
ENDBRANCH   2   3
ENDBRANCH   1   2
BRANCH   1  26
ATOM     26  C   UNL A   1      38.278  21.031  25.702  1.00  0.00     0.118 C 
BRANCH  26  27
ATOM     27  N   UNL A   1      39.265  19.954  25.651  1.00  0.00    -0.352 N 
ATOM     28  C   UNL A   1      40.605  19.935  25.959  1.00  0.00     0.251 C 
ATOM     29  H   UNL A   1      38.908  19.090  25.342  1.00  0.00     0.163 HD
ATOM     30  O   UNL A   1      41.278  18.942  25.696  1.00  0.00    -0.269 OA
BRANCH  28  31
ATOM     31  C   UNL A   1      41.251  21.119  26.565  1.00  0.00     0.039 A 
ATOM     32  C   UNL A   1      41.836  22.081  25.735  1.00  0.00     0.014 A 
ATOM     33  C   UNL A   1      41.265  21.295  27.947  1.00  0.00     0.014 A 
ATOM     34  C   UNL A   1      42.329  23.265  26.289  1.00  0.00     0.010 A 
ATOM     35  C   UNL A   1      41.634  22.521  28.482  1.00  0.00     0.010 A 
ATOM     36  C   UNL A   1      42.176  23.521  27.661  1.00  0.00    -0.014 A 
BRANCH  36  37
ATOM     37  C   UNL A   1      42.578  24.811  28.275  1.00  0.00     0.031 A 
ATOM     38  C   UNL A   1      41.550  25.892  28.487  1.00  0.00     0.074 A 
ATOM     39  C   UNL A   1      43.876  25.051  28.550  1.00  0.00     0.049 A 
ATOM     40  N   UNL A   1      41.720  27.131  28.873  1.00  0.00    -0.248 NA
ATOM     41  C   UNL A   1      40.150  25.546  28.185  1.00  0.00     0.031 C 
ATOM     42  C   UNL A   1      44.981  24.111  28.343  1.00  0.00     0.029 A 
ATOM     43  N   UNL A   1      44.488  26.171  29.057  1.00  0.00    -0.354 N 
ATOM     44  C   UNL A   1      40.461  27.716  28.822  1.00  0.00     0.074 A 
ATOM     45  C   UNL A   1      39.546  26.717  28.316  1.00  0.00     0.031 C 
ATOM     46  C   UNL A   1      46.127  24.679  28.753  1.00  0.00     0.029 A 
ATOM     47  C   UNL A   1      45.848  26.037  29.205  1.00  0.00     0.049 A 
ATOM     48  H   UNL A   1      43.999  26.991  29.291  1.00  0.00     0.167 HD
ATOM     49  C   UNL A   1      40.089  28.965  29.190  1.00  0.00     0.031 A 
ATOM     50  C   UNL A   1      46.767  26.914  29.650  1.00  0.00     0.031 A 
ATOM     51  C   UNL A   1      40.987  29.944  29.734  1.00  0.00     0.049 A 
ATOM     52  C   UNL A   1      46.325  28.287  30.074  1.00  0.00     0.074 A 
ATOM     53  C   UNL A   1      40.699  31.217  30.197  1.00  0.00     0.029 A 
ATOM     54  N   UNL A   1      42.349  29.753  29.904  1.00  0.00    -0.354 N 
ATOM     55  N   UNL A   1      45.121  28.805  30.069  1.00  0.00    -0.248 NA
ATOM     56  C   UNL A   1      47.370  29.193  30.572  1.00  0.00     0.031 C 
ATOM     57  C   UNL A   1      41.894  31.808  30.617  1.00  0.00     0.029 A 
ATOM     58  C   UNL A   1      42.916  30.887  30.457  1.00  0.00     0.049 A 
ATOM     59  H   UNL A   1      42.839  28.933  29.666  1.00  0.00     0.167 HD
ATOM     60  C   UNL A   1      45.258  30.084  30.591  1.00  0.00     0.074 A 
ATOM     61  C   UNL A   1      46.660  30.258  30.915  1.00  0.00     0.031 C 
ATOM     62  C   UNL A   1      44.310  31.033  30.784  1.00  0.00     0.031 A 
BRANCH  49  63
ATOM     63  C   UNL A   1      38.640  29.331  29.028  1.00  0.00    -0.014 A 
ATOM     64  C   UNL A   1      38.136  29.765  27.791  1.00  0.00     0.009 A 
ATOM     65  C   UNL A   1      37.762  29.212  30.115  1.00  0.00     0.009 A 
ATOM     66  C   UNL A   1      36.790  30.108  27.656  1.00  0.00     0.001 A 
ATOM     67  C   UNL A   1      36.410  29.527  29.970  1.00  0.00     0.001 A 
ATOM     68  C   UNL A   1      35.927  29.984  28.744  1.00  0.00     0.000 A 
ENDBRANCH  49  63
BRANCH  50  69
ATOM     69  C   UNL A   1      48.197  26.521  29.745  1.00  0.00    -0.014 A 
ATOM     70  C   UNL A   1      49.076  26.783  28.683  1.00  0.00     0.009 A 
ATOM     71  C   UNL A   1      48.688  25.865  30.884  1.00  0.00     0.009 A 
ATOM     72  C   UNL A   1      50.407  26.365  28.744  1.00  0.00     0.001 A 
ATOM     73  C   UNL A   1      50.027  25.474  30.955  1.00  0.00     0.001 A 
ATOM     74  C   UNL A   1      50.882  25.714  29.881  1.00  0.00     0.000 A 
ENDBRANCH  50  69
BRANCH  62  75
ATOM     75  C   UNL A   1      44.749  32.322  31.413  1.00  0.00    -0.014 A 
ATOM     76  C   UNL A   1      45.162  33.411  30.631  1.00  0.00     0.009 A 
ATOM     77  C   UNL A   1      44.705  32.460  32.810  1.00  0.00     0.009 A 
ATOM     78  C   UNL A   1      45.552  34.605  31.239  1.00  0.00     0.001 A 
ATOM     79  C   UNL A   1      45.069  33.664  33.413  1.00  0.00     0.001 A 
ATOM     80  C   UNL A   1      45.501  34.731  32.628  1.00  0.00     0.000 A 
ENDBRANCH  62  75
ENDBRANCH  36  37
ENDBRANCH  28  31
ENDBRANCH  26  27
ENDBRANCH   1  26
TORSDOF 14
ENDMDL
MODEL 3
REMARK VINA RESULT:     -10.9      2.523      7.609
REMARK SMILES Cc1nc(C)c(C(=O)N[C@@H](Cc2ccccc2)C(=O)NCCCNC(=O)c2ccc(-c3c4nc(c(-c5ccccc5)c5ccc([nH]5)c(-c5ccccc5)c5nc(c(-c6ccccc6)c6ccc3[nH]6)C=C5)C=C4)cc2)s1
REMARK SMILES IDX 22 1 21 2 20 3 18 4 19 5 10 7 9 8 7 9 8 10 6 12 1 13 2 14
REMARK SMILES IDX 3 15 75 16 4 17 5 18 11 19 12 20 13 21 17 22 14 23 16 24
REMARK SMILES IDX 15 25 23 26 24 27 25 28 26 30 27 31 28 32 74 33 29 34 73 35
REMARK SMILES IDX 30 36 31 37 32 38 67 39 33 40 72 41 66 42 68 43 34 44 71 45
REMARK SMILES IDX 65 46 64 47 35 49 57 50 42 51 56 52 43 53 46 54 55 55 69 56
REMARK SMILES IDX 44 57 45 58 54 60 70 61 47 62 36 63 37 64 41 65 38 66 40 67
REMARK SMILES IDX 39 68 58 69 59 70 63 71 60 72 62 73 61 74 48 75 49 76 53 77
REMARK SMILES IDX 50 78 52 79 51 80
REMARK H PARENT 20 6 9 11 24 29 68 48 46 59
REMARK Flexibility Score: inf
ROOT
ATOM      1  C   UNL A   1      37.573  19.917  25.004  1.00  0.00     0.042 C 
ENDROOT
BRANCH   1   2
ATOM      2  C   UNL A   1      36.494  20.965  24.847  1.00  0.00     0.117 C 
BRANCH   2   3
ATOM      3  N   UNL A   1      35.930  21.454  26.086  1.00  0.00    -0.354 N 
ATOM      4  C   UNL A   1      34.616  21.610  26.423  1.00  0.00     0.242 C 
ATOM      5  O   UNL A   1      34.349  21.583  27.630  1.00  0.00    -0.273 OA
ATOM      6  H   UNL A   1      36.581  21.707  26.780  1.00  0.00     0.163 HD
BRANCH   4   7
ATOM      7  C   UNL A   1      33.481  21.746  25.380  1.00  0.00     0.176 C 
BRANCH   7   8
ATOM      8  N   UNL A   1      33.958  22.283  24.100  1.00  0.00    -0.339 N 
ATOM      9  C   UNL A   1      33.934  23.509  23.479  1.00  0.00     0.263 C 
ATOM     10  O   UNL A   1      34.671  23.537  22.486  1.00  0.00    -0.268 OA
ATOM     11  H   UNL A   1      34.406  21.598  23.553  1.00  0.00     0.164 HD
BRANCH   9  12
ATOM     12  C   UNL A   1      33.119  24.658  23.861  1.00  0.00     0.115 A 
ATOM     13  C   UNL A   1      31.939  28.103  25.274  1.00  0.00     0.079 C 
ATOM     14  C   UNL A   1      32.154  26.756  24.680  1.00  0.00     0.091 A 
ATOM     15  N   UNL A   1      31.192  25.947  24.312  1.00  0.00    -0.246 NA
ATOM     16  S   UNL A   1      33.725  26.152  24.443  1.00  0.00    -0.113 S 
ATOM     17  C   UNL A   1      31.722  24.751  23.833  1.00  0.00     0.061 A 
ATOM     18  C   UNL A   1      30.717  23.743  23.394  1.00  0.00     0.068 C 
ENDBRANCH   9  12
ENDBRANCH   7   8
BRANCH   7  19
ATOM     19  C   UNL A   1      32.531  20.536  25.246  1.00  0.00     0.070 C 
BRANCH  19  20
ATOM     20  C   UNL A   1      32.933  19.389  24.353  1.00  0.00    -0.045 A 
ATOM     21  C   UNL A   1      33.968  18.515  24.713  1.00  0.00     0.004 A 
ATOM     22  C   UNL A   1      32.248  19.167  23.147  1.00  0.00     0.004 A 
ATOM     23  C   UNL A   1      34.256  17.398  23.925  1.00  0.00     0.000 A 
ATOM     24  C   UNL A   1      32.549  18.059  22.353  1.00  0.00     0.000 A 
ATOM     25  C   UNL A   1      33.539  17.164  22.753  1.00  0.00     0.000 A 
ENDBRANCH  19  20
ENDBRANCH   7  19
ENDBRANCH   4   7
ENDBRANCH   2   3
ENDBRANCH   1   2
BRANCH   1  26
ATOM     26  C   UNL A   1      38.838  20.443  25.658  1.00  0.00     0.118 C 
BRANCH  26  27
ATOM     27  N   UNL A   1      39.914  19.456  25.734  1.00  0.00    -0.352 N 
ATOM     28  C   UNL A   1      41.239  19.581  26.079  1.00  0.00     0.251 C 
ATOM     29  H   UNL A   1      39.642  18.540  25.496  1.00  0.00     0.163 HD
ATOM     30  O   UNL A   1      42.001  18.630  25.928  1.00  0.00    -0.269 OA
BRANCH  28  31
ATOM     31  C   UNL A   1      41.761  20.865  26.592  1.00  0.00     0.039 A 
ATOM     32  C   UNL A   1      42.275  21.804  25.692  1.00  0.00     0.014 A 
ATOM     33  C   UNL A   1      41.729  21.156  27.954  1.00  0.00     0.014 A 
ATOM     34  C   UNL A   1      42.647  23.071  26.150  1.00  0.00     0.010 A 
ATOM     35  C   UNL A   1      41.974  22.451  28.388  1.00  0.00     0.010 A 
ATOM     36  C   UNL A   1      42.441  23.424  27.493  1.00  0.00    -0.014 A 
BRANCH  36  37
ATOM     37  C   UNL A   1      42.711  24.793  28.001  1.00  0.00     0.031 A 
ATOM     38  C   UNL A   1      44.105  25.169  28.433  1.00  0.00     0.074 A 
ATOM     39  C   UNL A   1      41.695  25.663  28.168  1.00  0.00     0.049 A 
ATOM     40  N   UNL A   1      44.519  26.256  29.033  1.00  0.00    -0.248 NA
ATOM     41  C   UNL A   1      45.165  24.174  28.197  1.00  0.00     0.031 C 
ATOM     42  C   UNL A   1      40.289  25.408  27.841  1.00  0.00     0.029 A 
ATOM     43  N   UNL A   1      41.689  26.942  28.668  1.00  0.00    -0.354 N 
ATOM     44  C   UNL A   1      45.873  26.056  29.276  1.00  0.00     0.074 A 
ATOM     45  C   UNL A   1      46.198  24.727  28.812  1.00  0.00     0.031 C 
ATOM     46  C   UNL A   1      39.566  26.506  28.114  1.00  0.00     0.029 A 
ATOM     47  C   UNL A   1      40.444  27.524  28.679  1.00  0.00     0.049 A 
ATOM     48  H   UNL A   1      42.500  27.398  28.988  1.00  0.00     0.167 HD
ATOM     49  C   UNL A   1      46.775  26.912  29.813  1.00  0.00     0.031 A 
ATOM     50  C   UNL A   1      40.054  28.741  29.104  1.00  0.00     0.031 A 
ATOM     51  C   UNL A   1      46.463  28.250  30.234  1.00  0.00     0.049 A 
ATOM     52  C   UNL A   1      41.078  29.681  29.674  1.00  0.00     0.074 A 
ATOM     53  C   UNL A   1      47.317  29.219  30.732  1.00  0.00     0.029 A 
ATOM     54  N   UNL A   1      45.197  28.812  30.191  1.00  0.00    -0.354 N 
ATOM     55  N   UNL A   1      42.364  29.494  29.848  1.00  0.00    -0.248 NA
ATOM     56  C   UNL A   1      40.597  31.003  30.100  1.00  0.00     0.031 C 
ATOM     57  C   UNL A   1      46.561  30.359  31.020  1.00  0.00     0.029 A 
ATOM     58  C   UNL A   1      45.246  30.113  30.660  1.00  0.00     0.049 A 
ATOM     59  H   UNL A   1      44.385  28.355  29.873  1.00  0.00     0.167 HD
ATOM     60  C   UNL A   1      42.850  30.684  30.374  1.00  0.00     0.074 A 
ATOM     61  C   UNL A   1      41.724  31.590  30.477  1.00  0.00     0.031 C 
ATOM     62  C   UNL A   1      44.116  31.000  30.741  1.00  0.00     0.031 A 
BRANCH  49  63
ATOM     63  C   UNL A   1      48.189  26.426  29.957  1.00  0.00    -0.014 A 
ATOM     64  C   UNL A   1      48.618  25.783  31.130  1.00  0.00     0.009 A 
ATOM     65  C   UNL A   1      49.096  26.584  28.898  1.00  0.00     0.009 A 
ATOM     66  C   UNL A   1      49.937  25.342  31.253  1.00  0.00     0.001 A 
ATOM     67  C   UNL A   1      50.406  26.115  29.013  1.00  0.00     0.001 A 
ATOM     68  C   UNL A   1      50.827  25.504  30.193  1.00  0.00     0.000 A 
ENDBRANCH  49  63
BRANCH  50  69
ATOM     69  C   UNL A   1      38.632  29.158  28.985  1.00  0.00    -0.014 A 
ATOM     70  C   UNL A   1      38.148  29.691  27.780  1.00  0.00     0.009 A 
ATOM     71  C   UNL A   1      37.757  29.047  30.077  1.00  0.00     0.009 A 
ATOM     72  C   UNL A   1      36.828  30.137  27.682  1.00  0.00     0.001 A 
ATOM     73  C   UNL A   1      36.429  29.467  29.966  1.00  0.00     0.001 A 
ATOM     74  C   UNL A   1      35.970  30.022  28.773  1.00  0.00     0.000 A 
ENDBRANCH  50  69
BRANCH  62  75
ATOM     75  C   UNL A   1      44.356  32.394  31.243  1.00  0.00    -0.014 A 
ATOM     76  C   UNL A   1      44.291  32.696  32.611  1.00  0.00     0.009 A 
ATOM     77  C   UNL A   1      44.695  33.407  30.333  1.00  0.00     0.009 A 
ATOM     78  C   UNL A   1      44.533  33.996  33.055  1.00  0.00     0.001 A 
ATOM     79  C   UNL A   1      44.963  34.700  30.783  1.00  0.00     0.001 A 
ATOM     80  C   UNL A   1      44.873  34.995  32.142  1.00  0.00     0.000 A 
ENDBRANCH  62  75
ENDBRANCH  36  37
ENDBRANCH  28  31
ENDBRANCH  26  27
ENDBRANCH   1  26
TORSDOF 14
ENDMDL
