MODEL 1
REMARK VINA RESULT:     -12.6      0.000      0.000
REMARK SMILES O=C(NCCCNC(=O)[C@@H](Cc1ccccc1)N1C(=O)/C(=C/c2ccncc2)SC1=S)c1ccc(-c2c3nc(c(-c4ccccc4)c4ccc([nH]4)c(-c4ccccc4)c4nc(c(-c5ccccc5)c5ccc2[nH]5)C=C4)C=C3)cc1
REMARK SMILES IDX 5 1 4 2 3 3 1 4 2 5 32 7 33 8 79 9 34 10 78 11 35 12 36 13
REMARK SMILES IDX 37 14 72 15 38 16 77 17 71 18 73 19 39 20 76 21 70 22 69 23
REMARK SMILES IDX 40 25 62 26 47 27 61 28 48 29 51 30 60 31 74 32 49 33 50 34
REMARK SMILES IDX 59 36 75 37 52 38 41 39 42 40 46 41 43 42 45 43 44 44 63 45
REMARK SMILES IDX 64 46 68 47 65 48 67 49 66 50 53 51 54 52 58 53 55 54 57 55
REMARK SMILES IDX 56 56 6 57 7 58 8 59 9 61 10 62 11 63 12 64 13 65 17 66
REMARK SMILES IDX 14 67 16 68 15 69 18 70 19 71 30 72 20 73 21 74 29 75 31 76
REMARK SMILES IDX 22 77 23 78 24 79 28 80 25 81 27 82 26 83
REMARK H PARENT 3 6 73 24 51 35 7 60
REMARK Flexibility Score: inf
ROOT
ATOM      1  C   UNL A   1      37.377  19.571  24.993  1.00  0.00     0.042 C 
ENDROOT
BRANCH   1   2
ATOM      2  C   UNL A   1      38.588  20.297  25.554  1.00  0.00     0.118 C 
BRANCH   2   3
ATOM      3  N   UNL A   1      39.758  19.427  25.668  1.00  0.00    -0.352 N 
ATOM      4  O   UNL A   1      41.887  18.753  25.835  1.00  0.00    -0.269 OA
ATOM      5  C   UNL A   1      41.068  19.652  26.021  1.00  0.00     0.251 C 
ATOM      6  H   UNL A   1      39.568  18.487  25.445  1.00  0.00     0.163 HD
BRANCH   5   7
ATOM      7  C   UNL A   1      41.531  20.937  26.597  1.00  0.00     0.039 A 
ATOM      8  C   UNL A   1      41.783  22.049  25.803  1.00  0.00     0.014 A 
ATOM      9  C   UNL A   1      41.630  21.072  27.990  1.00  0.00     0.014 A 
ATOM     10  C   UNL A   1      42.302  23.212  26.355  1.00  0.00     0.010 A 
ATOM     11  C   UNL A   1      42.002  22.297  28.563  1.00  0.00     0.010 A 
ATOM     12  C   UNL A   1      42.364  23.374  27.744  1.00  0.00    -0.014 A 
BRANCH  12  13
ATOM     13  C   UNL A   1      42.706  24.718  28.280  1.00  0.00     0.031 A 
ATOM     14  C   UNL A   1      44.129  25.129  28.522  1.00  0.00     0.074 A 
ATOM     15  C   UNL A   1      41.704  25.599  28.486  1.00  0.00     0.049 A 
ATOM     16  N   UNL A   1      44.590  26.289  28.920  1.00  0.00    -0.248 NA
ATOM     17  C   UNL A   1      45.168  24.113  28.301  1.00  0.00     0.031 C 
ATOM     18  C   UNL A   1      40.277  25.316  28.293  1.00  0.00     0.029 A 
ATOM     19  N   UNL A   1      41.727  26.921  28.849  1.00  0.00    -0.354 N 
ATOM     20  C   UNL A   1      45.965  26.132  29.031  1.00  0.00     0.074 A 
ATOM     21  C   UNL A   1      46.263  24.762  28.673  1.00  0.00     0.031 C 
ATOM     22  C   UNL A   1      39.577  26.447  28.443  1.00  0.00     0.029 A 
ATOM     23  C   UNL A   1      40.486  27.513  28.834  1.00  0.00     0.049 A 
ATOM     24  H   UNL A   1      42.551  27.400  29.096  1.00  0.00     0.167 HD
ATOM     25  C   UNL A   1      46.894  27.049  29.398  1.00  0.00     0.031 A 
ATOM     26  C   UNL A   1      40.111  28.774  29.118  1.00  0.00     0.031 A 
ATOM     27  C   UNL A   1      46.592  28.413  29.748  1.00  0.00     0.049 A 
ATOM     28  C   UNL A   1      41.156  29.760  29.542  1.00  0.00     0.074 A 
ATOM     29  C   UNL A   1      47.467  29.424  30.108  1.00  0.00     0.029 A 
ATOM     30  N   UNL A   1      45.317  28.956  29.786  1.00  0.00    -0.354 N 
ATOM     31  N   UNL A   1      42.454  29.597  29.626  1.00  0.00    -0.248 NA
ATOM     32  C   UNL A   1      40.683  31.096  29.923  1.00  0.00     0.031 C 
ATOM     33  C   UNL A   1      46.715  30.566  30.411  1.00  0.00     0.029 A 
ATOM     34  C   UNL A   1      45.378  30.281  30.186  1.00  0.00     0.049 A 
ATOM     35  H   UNL A   1      44.491  28.472  29.560  1.00  0.00     0.167 HD
ATOM     36  C   UNL A   1      42.957  30.813  30.064  1.00  0.00     0.074 A 
ATOM     37  C   UNL A   1      41.826  31.709  30.202  1.00  0.00     0.031 C 
ATOM     38  C   UNL A   1      44.241  31.153  30.332  1.00  0.00     0.031 A 
BRANCH  25  39
ATOM     39  C   UNL A   1      48.323  26.587  29.481  1.00  0.00    -0.014 A 
ATOM     40  C   UNL A   1      48.847  26.026  30.657  1.00  0.00     0.009 A 
ATOM     41  C   UNL A   1      49.154  26.699  28.355  1.00  0.00     0.009 A 
ATOM     42  C   UNL A   1      50.184  25.625  30.715  1.00  0.00     0.001 A 
ATOM     43  C   UNL A   1      50.482  26.271  28.407  1.00  0.00     0.001 A 
ATOM     44  C   UNL A   1      50.999  25.745  29.589  1.00  0.00     0.000 A 
ENDBRANCH  25  39
BRANCH  26  45
ATOM     45  C   UNL A   1      38.679  29.156  29.026  1.00  0.00    -0.014 A 
ATOM     46  C   UNL A   1      37.837  29.054  30.143  1.00  0.00     0.009 A 
ATOM     47  C   UNL A   1      38.154  29.663  27.825  1.00  0.00     0.009 A 
ATOM     48  C   UNL A   1      36.499  29.444  30.057  1.00  0.00     0.001 A 
ATOM     49  C   UNL A   1      36.825  30.080  27.750  1.00  0.00     0.001 A 
ATOM     50  C   UNL A   1      35.996  29.964  28.864  1.00  0.00     0.000 A 
ENDBRANCH  26  45
BRANCH  38  51
ATOM     51  C   UNL A   1      44.484  32.565  30.781  1.00  0.00    -0.014 A 
ATOM     52  C   UNL A   1      44.493  32.902  32.143  1.00  0.00     0.009 A 
ATOM     53  C   UNL A   1      44.725  33.566  29.828  1.00  0.00     0.009 A 
ATOM     54  C   UNL A   1      44.705  34.224  32.540  1.00  0.00     0.001 A 
ATOM     55  C   UNL A   1      44.963  34.880  30.229  1.00  0.00     0.001 A 
ATOM     56  C   UNL A   1      44.944  35.210  31.583  1.00  0.00     0.000 A 
ENDBRANCH  38  51
ENDBRANCH  12  13
ENDBRANCH   5   7
ENDBRANCH   2   3
ENDBRANCH   1   2
BRANCH   1  57
ATOM     57  C   UNL A   1      36.207  20.517  24.838  1.00  0.00     0.117 C 
BRANCH  57  58
ATOM     58  N   UNL A   1      35.781  21.167  26.053  1.00  0.00    -0.354 N 
ATOM     59  C   UNL A   1      34.503  21.416  26.452  1.00  0.00     0.243 C 
ATOM     60  H   UNL A   1      36.493  21.467  26.663  1.00  0.00     0.163 HD
ATOM     61  O   UNL A   1      34.317  21.463  27.674  1.00  0.00    -0.273 OA
BRANCH  59  62
ATOM     62  C   UNL A   1      33.318  21.615  25.473  1.00  0.00     0.185 C 
BRANCH  62  63
ATOM     63  C   UNL A   1      32.265  20.469  25.370  1.00  0.00     0.071 C 
BRANCH  63  64
ATOM     64  C   UNL A   1      32.637  19.088  24.892  1.00  0.00    -0.045 A 
ATOM     65  C   UNL A   1      32.803  18.837  23.520  1.00  0.00     0.004 A 
ATOM     66  C   UNL A   1      32.783  18.019  25.782  1.00  0.00     0.004 A 
ATOM     67  C   UNL A   1      33.192  17.575  23.064  1.00  0.00     0.000 A 
ATOM     68  C   UNL A   1      33.200  16.765  25.330  1.00  0.00     0.000 A 
ATOM     69  C   UNL A   1      33.417  16.546  23.973  1.00  0.00     0.000 A 
ENDBRANCH  63  64
ENDBRANCH  62  63
BRANCH  62  70
ATOM     70  N   UNL A   1      32.857  22.983  25.104  1.00  0.00    -0.280 N 
ATOM     71  C   UNL A   1      32.128  23.716  26.046  1.00  0.00     0.266 C 
ATOM     72  C   UNL A   1      33.094  23.692  23.947  1.00  0.00     0.149 C 
ATOM     73  O   UNL A   1      31.703  23.332  27.125  1.00  0.00    -0.268 OA
ATOM     74  C   UNL A   1      31.906  25.097  25.536  1.00  0.00     0.081 C 
ATOM     75  S   UNL A   1      33.068  25.404  24.314  1.00  0.00    -0.054 SA
ATOM     76  S   UNL A   1      33.197  23.246  22.356  1.00  0.00    -0.052 S 
ATOM     77  C   UNL A   1      30.874  25.892  25.847  1.00  0.00     0.029 C 
BRANCH  77  78
ATOM     78  C   UNL A   1      30.654  27.146  25.112  1.00  0.00    -0.021 A 
ATOM     79  C   UNL A   1      29.860  27.152  23.959  1.00  0.00     0.028 A 
ATOM     80  C   UNL A   1      31.377  28.287  25.444  1.00  0.00     0.028 A 
ATOM     81  C   UNL A   1      29.853  28.290  23.172  1.00  0.00     0.111 A 
ATOM     82  C   UNL A   1      31.291  29.380  24.597  1.00  0.00     0.111 A 
ATOM     83  N   UNL A   1      30.550  29.407  23.468  1.00  0.00    -0.265 NA
ENDBRANCH  77  78
ENDBRANCH  62  70
ENDBRANCH  59  62
ENDBRANCH  57  58
ENDBRANCH   1  57
TORSDOF 14
ENDMDL
MODEL 2
REMARK VINA RESULT:     -12.5      0.335      5.787
REMARK SMILES O=C(NCCCNC(=O)[C@@H](Cc1ccccc1)N1C(=O)/C(=C/c2ccncc2)SC1=S)c1ccc(-c2c3nc(c(-c4ccccc4)c4ccc([nH]4)c(-c4ccccc4)c4nc(c(-c5ccccc5)c5ccc2[nH]5)C=C4)C=C3)cc1
REMARK SMILES IDX 5 1 4 2 3 3 1 4 2 5 32 7 33 8 79 9 34 10 78 11 35 12 36 13
REMARK SMILES IDX 37 14 72 15 38 16 77 17 71 18 73 19 39 20 76 21 70 22 69 23
REMARK SMILES IDX 40 25 62 26 47 27 61 28 48 29 51 30 60 31 74 32 49 33 50 34
REMARK SMILES IDX 59 36 75 37 52 38 41 39 42 40 46 41 43 42 45 43 44 44 63 45
REMARK SMILES IDX 64 46 68 47 65 48 67 49 66 50 53 51 54 52 58 53 55 54 57 55
REMARK SMILES IDX 56 56 6 57 7 58 8 59 9 61 10 62 11 63 12 64 13 65 17 66
REMARK SMILES IDX 14 67 16 68 15 69 18 70 19 71 30 72 20 73 21 74 29 75 31 76
REMARK SMILES IDX 22 77 23 78 24 79 28 80 25 81 27 82 26 83
REMARK H PARENT 3 6 73 24 51 35 7 60
REMARK Flexibility Score: inf
ROOT
ATOM      1  C   UNL A   1      37.375  19.516  24.982  1.00  0.00     0.042 C 
ENDROOT
BRANCH   1   2
ATOM      2  C   UNL A   1      38.583  20.267  25.515  1.00  0.00     0.118 C 
BRANCH   2   3
ATOM      3  N   UNL A   1      39.747  19.399  25.694  1.00  0.00    -0.352 N 
ATOM      4  O   UNL A   1      41.870  18.727  25.935  1.00  0.00    -0.269 OA
ATOM      5  C   UNL A   1      41.051  19.637  26.060  1.00  0.00     0.251 C 
ATOM      6  H   UNL A   1      39.557  18.450  25.516  1.00  0.00     0.163 HD
BRANCH   5   7
ATOM      7  C   UNL A   1      41.510  20.947  26.580  1.00  0.00     0.039 A 
ATOM      8  C   UNL A   1      41.882  21.984  25.732  1.00  0.00     0.014 A 
ATOM      9  C   UNL A   1      41.482  21.189  27.962  1.00  0.00     0.014 A 
ATOM     10  C   UNL A   1      42.394  23.168  26.242  1.00  0.00     0.010 A 
ATOM     11  C   UNL A   1      41.848  22.442  28.474  1.00  0.00     0.010 A 
ATOM     12  C   UNL A   1      42.330  23.439  27.615  1.00  0.00    -0.014 A 
BRANCH  12  13
ATOM     13  C   UNL A   1      42.674  24.808  28.078  1.00  0.00     0.031 A 
ATOM     14  C   UNL A   1      41.617  25.845  28.324  1.00  0.00     0.074 A 
ATOM     15  C   UNL A   1      43.969  25.089  28.340  1.00  0.00     0.049 A 
ATOM     16  N   UNL A   1      41.754  27.060  28.793  1.00  0.00    -0.248 NA
ATOM     17  C   UNL A   1      40.231  25.482  27.993  1.00  0.00     0.031 C 
ATOM     18  C   UNL A   1      45.091  24.166  28.135  1.00  0.00     0.029 A 
ATOM     19  N   UNL A   1      44.558  26.202  28.883  1.00  0.00    -0.354 N 
ATOM     20  C   UNL A   1      40.483  27.617  28.782  1.00  0.00     0.074 A 
ATOM     21  C   UNL A   1      39.588  26.614  28.245  1.00  0.00     0.031 C 
ATOM     22  C   UNL A   1      46.208  24.710  28.633  1.00  0.00     0.029 A 
ATOM     23  C   UNL A   1      45.906  26.053  29.106  1.00  0.00     0.049 A 
ATOM     24  H   UNL A   1      44.063  27.028  29.091  1.00  0.00     0.167 HD
ATOM     25  C   UNL A   1      40.097  28.853  29.183  1.00  0.00     0.031 A 
ATOM     26  C   UNL A   1      46.810  26.904  29.622  1.00  0.00     0.031 A 
ATOM     27  C   UNL A   1      40.991  29.846  29.721  1.00  0.00     0.049 A 
ATOM     28  C   UNL A   1      46.360  28.272  30.037  1.00  0.00     0.074 A 
ATOM     29  C   UNL A   1      40.691  31.118  30.180  1.00  0.00     0.029 A 
ATOM     30  N   UNL A   1      42.359  29.681  29.870  1.00  0.00    -0.354 N 
ATOM     31  N   UNL A   1      45.150  28.775  30.033  1.00  0.00    -0.248 NA
ATOM     32  C   UNL A   1      47.401  29.191  30.512  1.00  0.00     0.031 C 
ATOM     33  C   UNL A   1      41.887  31.739  30.560  1.00  0.00     0.029 A 
ATOM     34  C   UNL A   1      42.923  30.835  30.390  1.00  0.00     0.049 A 
ATOM     35  H   UNL A   1      42.857  28.863  29.641  1.00  0.00     0.167 HD
ATOM     36  C   UNL A   1      45.280  30.069  30.512  1.00  0.00     0.074 A 
ATOM     37  C   UNL A   1      46.684  30.263  30.820  1.00  0.00     0.031 C 
ATOM     38  C   UNL A   1      44.323  31.014  30.676  1.00  0.00     0.031 A 
BRANCH  25  39
ATOM     39  C   UNL A   1      38.646  29.213  29.010  1.00  0.00    -0.014 A 
ATOM     40  C   UNL A   1      37.731  29.103  30.069  1.00  0.00     0.009 A 
ATOM     41  C   UNL A   1      38.194  29.687  27.769  1.00  0.00     0.009 A 
ATOM     42  C   UNL A   1      36.384  29.423  29.876  1.00  0.00     0.001 A 
ATOM     43  C   UNL A   1      36.853  30.032  27.586  1.00  0.00     0.001 A 
ATOM     44  C   UNL A   1      35.948  29.890  28.636  1.00  0.00     0.000 A 
ENDBRANCH  25  39
BRANCH  26  45
ATOM     45  C   UNL A   1      48.229  26.484  29.752  1.00  0.00    -0.014 A 
ATOM     46  C   UNL A   1      48.682  25.842  30.913  1.00  0.00     0.009 A 
ATOM     47  C   UNL A   1      49.131  26.690  28.695  1.00  0.00     0.009 A 
ATOM     48  C   UNL A   1      50.010  25.422  31.016  1.00  0.00     0.001 A 
ATOM     49  C   UNL A   1      50.450  26.243  28.788  1.00  0.00     0.001 A 
ATOM     50  C   UNL A   1      50.890  25.615  29.951  1.00  0.00     0.000 A 
ENDBRANCH  26  45
BRANCH  38  51
ATOM     51  C   UNL A   1      44.768  32.334  31.235  1.00  0.00    -0.014 A 
ATOM     52  C   UNL A   1      45.160  33.385  30.392  1.00  0.00     0.009 A 
ATOM     53  C   UNL A   1      44.777  32.533  32.624  1.00  0.00     0.009 A 
ATOM     54  C   UNL A   1      45.586  34.600  30.932  1.00  0.00     0.001 A 
ATOM     55  C   UNL A   1      45.178  33.757  33.159  1.00  0.00     0.001 A 
ATOM     56  C   UNL A   1      45.591  34.786  32.314  1.00  0.00     0.000 A 
ENDBRANCH  38  51
ENDBRANCH  12  13
ENDBRANCH   5   7
ENDBRANCH   2   3
ENDBRANCH   1   2
BRANCH   1  57
ATOM     57  C   UNL A   1      36.200  20.449  24.800  1.00  0.00     0.117 C 
BRANCH  57  58
ATOM     58  N   UNL A   1      35.785  21.151  25.991  1.00  0.00    -0.354 N 
ATOM     59  C   UNL A   1      34.513  21.459  26.367  1.00  0.00     0.243 C 
ATOM     60  H   UNL A   1      36.501  21.441  26.600  1.00  0.00     0.163 HD
ATOM     61  O   UNL A   1      34.315  21.549  27.585  1.00  0.00    -0.273 OA
BRANCH  59  62
ATOM     62  C   UNL A   1      33.347  21.673  25.368  1.00  0.00     0.185 C 
BRANCH  62  63
ATOM     63  C   UNL A   1      32.261  20.558  25.275  1.00  0.00     0.071 C 
BRANCH  63  64
ATOM     64  C   UNL A   1      32.588  19.167  24.793  1.00  0.00    -0.045 A 
ATOM     65  C   UNL A   1      32.686  18.902  23.417  1.00  0.00     0.004 A 
ATOM     66  C   UNL A   1      32.760  18.104  25.685  1.00  0.00     0.004 A 
ATOM     67  C   UNL A   1      33.033  17.630  22.954  1.00  0.00     0.000 A 
ATOM     68  C   UNL A   1      33.137  16.839  25.225  1.00  0.00     0.000 A 
ATOM     69  C   UNL A   1      33.285  16.605  23.862  1.00  0.00     0.000 A 
ENDBRANCH  63  64
ENDBRANCH  62  63
BRANCH  62  70
ATOM     70  N   UNL A   1      32.933  23.046  24.964  1.00  0.00    -0.280 N 
ATOM     71  C   UNL A   1      32.227  23.826  25.886  1.00  0.00     0.266 C 
ATOM     72  C   UNL A   1      33.197  23.719  23.791  1.00  0.00     0.149 C 
ATOM     73  O   UNL A   1      31.787  23.483  26.973  1.00  0.00    -0.268 OA
ATOM     74  C   UNL A   1      32.052  25.201  25.342  1.00  0.00     0.081 C 
ATOM     75  S   UNL A   1      33.227  25.439  24.117  1.00  0.00    -0.054 SA
ATOM     76  S   UNL A   1      33.289  23.231  22.212  1.00  0.00    -0.052 S 
ATOM     77  C   UNL A   1      31.047  26.038  25.630  1.00  0.00     0.029 C 
BRANCH  77  78
ATOM     78  C   UNL A   1      30.870  27.280  24.864  1.00  0.00    -0.021 A 
ATOM     79  C   UNL A   1      31.455  28.469  25.314  1.00  0.00     0.028 A 
ATOM     80  C   UNL A   1      29.974  27.324  23.800  1.00  0.00     0.028 A 
ATOM     81  C   UNL A   1      31.091  29.654  24.699  1.00  0.00     0.111 A 
ATOM     82  C   UNL A   1      29.686  28.560  23.245  1.00  0.00     0.111 A 
ATOM     83  N   UNL A   1      30.221  29.725  23.671  1.00  0.00    -0.265 NA
ENDBRANCH  77  78
ENDBRANCH  62  70
ENDBRANCH  59  62
ENDBRANCH  57  58
ENDBRANCH   1  57
TORSDOF 14
ENDMDL
MODEL 3
REMARK VINA RESULT:     -12.5      2.506      8.581
REMARK SMILES O=C(NCCCNC(=O)[C@@H](Cc1ccccc1)N1C(=O)/C(=C/c2ccncc2)SC1=S)c1ccc(-c2c3nc(c(-c4ccccc4)c4ccc([nH]4)c(-c4ccccc4)c4nc(c(-c5ccccc5)c5ccc2[nH]5)C=C4)C=C3)cc1
REMARK SMILES IDX 5 1 4 2 3 3 1 4 2 5 32 7 33 8 79 9 34 10 78 11 35 12 36 13
REMARK SMILES IDX 37 14 72 15 38 16 77 17 71 18 73 19 39 20 76 21 70 22 69 23
REMARK SMILES IDX 40 25 62 26 47 27 61 28 48 29 51 30 60 31 74 32 49 33 50 34
REMARK SMILES IDX 59 36 75 37 52 38 41 39 42 40 46 41 43 42 45 43 44 44 63 45
REMARK SMILES IDX 64 46 68 47 65 48 67 49 66 50 53 51 54 52 58 53 55 54 57 55
REMARK SMILES IDX 56 56 6 57 7 58 8 59 9 61 10 62 11 63 12 64 13 65 17 66
REMARK SMILES IDX 14 67 16 68 15 69 18 70 19 71 30 72 20 73 21 74 29 75 31 76
REMARK SMILES IDX 22 77 23 78 24 79 28 80 25 81 27 82 26 83
REMARK H PARENT 3 6 73 24 51 35 7 60
REMARK Flexibility Score: inf
ROOT
ATOM      1  C   UNL A   1      32.689  29.006  26.944  1.00  0.00     0.042 C 
ENDROOT
BRANCH   1   2
ATOM      2  C   UNL A   1      34.100  29.032  27.508  1.00  0.00     0.118 C 
BRANCH   2   3
ATOM      3  N   UNL A   1      34.342  30.203  28.350  1.00  0.00    -0.352 N 
ATOM      4  O   UNL A   1      35.285  31.574  29.850  1.00  0.00    -0.269 OA
ATOM      5  C   UNL A   1      35.435  30.641  29.062  1.00  0.00     0.251 C 
ATOM      6  H   UNL A   1      33.563  30.800  28.423  1.00  0.00     0.163 HD
BRANCH   5   7
ATOM      7  C   UNL A   1      36.776  30.023  28.929  1.00  0.00     0.039 A 
ATOM      8  C   UNL A   1      37.509  30.105  27.752  1.00  0.00     0.014 A 
ATOM      9  C   UNL A   1      37.369  29.417  30.047  1.00  0.00     0.014 A 
ATOM     10  C   UNL A   1      38.721  29.442  27.623  1.00  0.00     0.010 A 
ATOM     11  C   UNL A   1      38.663  28.882  29.965  1.00  0.00     0.010 A 
ATOM     12  C   UNL A   1      39.343  28.872  28.741  1.00  0.00    -0.014 A 
BRANCH  12  13
ATOM     13  C   UNL A   1      40.738  28.382  28.594  1.00  0.00     0.031 A 
ATOM     14  C   UNL A   1      41.037  26.969  28.185  1.00  0.00     0.074 A 
ATOM     15  C   UNL A   1      41.748  29.261  28.773  1.00  0.00     0.049 A 
ATOM     16  N   UNL A   1      42.199  26.413  27.948  1.00  0.00    -0.248 NA
ATOM     17  C   UNL A   1      39.893  26.058  28.030  1.00  0.00     0.031 C 
ATOM     18  C   UNL A   1      41.585  30.662  29.180  1.00  0.00     0.029 A 
ATOM     19  N   UNL A   1      43.100  29.130  28.590  1.00  0.00    -0.354 N 
ATOM     20  C   UNL A   1      41.931  25.084  27.652  1.00  0.00     0.074 A 
ATOM     21  C   UNL A   1      40.497  24.911  27.753  1.00  0.00     0.031 C 
ATOM     22  C   UNL A   1      42.771  31.280  29.119  1.00  0.00     0.029 A 
ATOM     23  C   UNL A   1      43.791  30.305  28.764  1.00  0.00     0.049 A 
ATOM     24  H   UNL A   1      43.534  28.277  28.357  1.00  0.00     0.167 HD
ATOM     25  C   UNL A   1      42.801  24.097  27.325  1.00  0.00     0.031 A 
ATOM     26  C   UNL A   1      45.106  30.574  28.665  1.00  0.00     0.031 A 
ATOM     27  C   UNL A   1      44.227  24.275  27.221  1.00  0.00     0.049 A 
ATOM     28  C   UNL A   1      46.047  29.460  28.324  1.00  0.00     0.074 A 
ATOM     29  C   UNL A   1      45.189  23.343  26.871  1.00  0.00     0.029 A 
ATOM     30  N   UNL A   1      44.895  25.464  27.470  1.00  0.00    -0.354 N 
ATOM     31  N   UNL A   1      45.772  28.212  28.032  1.00  0.00    -0.248 NA
ATOM     32  C   UNL A   1      47.478  29.788  28.314  1.00  0.00     0.031 C 
ATOM     33  C   UNL A   1      46.444  23.957  26.957  1.00  0.00     0.029 A 
ATOM     34  C   UNL A   1      46.259  25.285  27.306  1.00  0.00     0.049 A 
ATOM     35  H   UNL A   1      44.464  26.312  27.725  1.00  0.00     0.167 HD
ATOM     36  C   UNL A   1      46.995  27.604  27.796  1.00  0.00     0.074 A 
ATOM     37  C   UNL A   1      48.010  28.628  27.954  1.00  0.00     0.031 C 
ATOM     38  C   UNL A   1      47.254  26.311  27.481  1.00  0.00     0.031 A 
BRANCH  25  39
ATOM     39  C   UNL A   1      42.232  22.722  27.101  1.00  0.00    -0.014 A 
ATOM     40  C   UNL A   1      41.900  22.265  25.815  1.00  0.00     0.009 A 
ATOM     41  C   UNL A   1      42.044  21.864  28.196  1.00  0.00     0.009 A 
ATOM     42  C   UNL A   1      41.353  20.992  25.637  1.00  0.00     0.001 A 
ATOM     43  C   UNL A   1      41.523  20.582  28.011  1.00  0.00     0.001 A 
ATOM     44  C   UNL A   1      41.168  20.151  26.734  1.00  0.00     0.000 A 
ENDBRANCH  25  39
BRANCH  26  45
ATOM     45  C   UNL A   1      45.597  31.954  28.912  1.00  0.00    -0.014 A 
ATOM     46  C   UNL A   1      45.684  32.881  27.864  1.00  0.00     0.009 A 
ATOM     47  C   UNL A   1      45.945  32.363  30.210  1.00  0.00     0.009 A 
ATOM     48  C   UNL A   1      46.118  34.186  28.110  1.00  0.00     0.001 A 
ATOM     49  C   UNL A   1      46.350  33.675  30.458  1.00  0.00     0.001 A 
ATOM     50  C   UNL A   1      46.442  34.584  29.406  1.00  0.00     0.000 A 
ENDBRANCH  26  45
BRANCH  38  51
ATOM     51  C   UNL A   1      48.694  25.945  27.266  1.00  0.00    -0.014 A 
ATOM     52  C   UNL A   1      49.495  25.498  28.328  1.00  0.00     0.009 A 
ATOM     53  C   UNL A   1      49.250  26.033  25.981  1.00  0.00     0.009 A 
ATOM     54  C   UNL A   1      50.837  25.178  28.112  1.00  0.00     0.001 A 
ATOM     55  C   UNL A   1      50.583  25.686  25.763  1.00  0.00     0.001 A 
ATOM     56  C   UNL A   1      51.378  25.269  26.829  1.00  0.00     0.000 A 
ENDBRANCH  38  51
ENDBRANCH  12  13
ENDBRANCH   5   7
ENDBRANCH   2   3
ENDBRANCH   1   2
BRANCH   1  57
ATOM     57  C   UNL A   1      32.561  29.957  25.775  1.00  0.00     0.117 C 
BRANCH  57  58
ATOM     58  N   UNL A   1      33.394  29.647  24.639  1.00  0.00    -0.354 N 
ATOM     59  C   UNL A   1      33.040  28.957  23.519  1.00  0.00     0.243 C 
ATOM     60  H   UNL A   1      34.323  29.969  24.676  1.00  0.00     0.163 HD
ATOM     61  O   UNL A   1      33.654  29.250  22.486  1.00  0.00    -0.273 OA
BRANCH  59  62
ATOM     62  C   UNL A   1      31.929  27.876  23.488  1.00  0.00     0.185 C 
BRANCH  62  63
ATOM     63  C   UNL A   1      30.737  28.092  22.507  1.00  0.00     0.071 C 
BRANCH  63  64
ATOM     64  C   UNL A   1      29.607  29.038  22.826  1.00  0.00    -0.045 A 
ATOM     65  C   UNL A   1      28.276  28.591  22.770  1.00  0.00     0.004 A 
ATOM     66  C   UNL A   1      29.840  30.381  23.140  1.00  0.00     0.004 A 
ATOM     67  C   UNL A   1      27.219  29.441  23.106  1.00  0.00     0.000 A 
ATOM     68  C   UNL A   1      28.787  31.223  23.505  1.00  0.00     0.000 A 
ATOM     69  C   UNL A   1      27.479  30.751  23.501  1.00  0.00     0.000 A 
ENDBRANCH  63  64
ENDBRANCH  62  63
BRANCH  62  70
ATOM     70  N   UNL A   1      32.224  26.470  23.884  1.00  0.00    -0.280 N 
ATOM     71  C   UNL A   1      33.131  25.737  23.111  1.00  0.00     0.266 C 
ATOM     72  C   UNL A   1      31.764  25.764  24.973  1.00  0.00     0.149 C 
ATOM     73  O   UNL A   1      33.646  26.066  22.052  1.00  0.00    -0.268 OA
ATOM     74  C   UNL A   1      33.397  24.427  23.765  1.00  0.00     0.081 C 
ATOM     75  S   UNL A   1      32.956  24.560  25.416  1.00  0.00    -0.054 SA
ATOM     76  S   UNL A   1      30.304  25.727  25.754  1.00  0.00    -0.052 S 
ATOM     77  C   UNL A   1      33.745  23.294  23.141  1.00  0.00     0.029 C 
BRANCH  77  78
ATOM     78  C   UNL A   1      33.765  22.019  23.871  1.00  0.00    -0.021 A 
ATOM     79  C   UNL A   1      34.935  21.598  24.515  1.00  0.00     0.028 A 
ATOM     80  C   UNL A   1      32.692  21.139  23.771  1.00  0.00     0.028 A 
ATOM     81  C   UNL A   1      34.989  20.304  25.001  1.00  0.00     0.111 A 
ATOM     82  C   UNL A   1      32.842  19.868  24.302  1.00  0.00     0.111 A 
ATOM     83  N   UNL A   1      33.965  19.430  24.911  1.00  0.00    -0.265 NA
ENDBRANCH  77  78
ENDBRANCH  62  70
ENDBRANCH  59  62
ENDBRANCH  57  58
ENDBRANCH   1  57
TORSDOF 14
ENDMDL
