MODEL 1
REMARK VINA RESULT:     -10.8      0.000      0.000
REMARK SMILES O=C(C[C@H]1C[N@@H+](Cc2c(F)cccc2F)CCO1)NCCCNC(=O)c1ccc(-c2c3nc(c(-c4ccccc4)c4ccc([nH]4)c(-c4ccccc4)c4nc(c(-c5ccccc5)c5ccc2[nH]5)C=C4)C=C3)cc1
REMARK SMILES IDX 20 1 19 2 1 3 2 4 3 6 4 7 5 8 18 9 6 10 17 11 16 12 7 14
REMARK SMILES IDX 8 15 9 16 14 17 10 18 11 19 13 20 15 21 12 22 21 23 22 24
REMARK SMILES IDX 23 25 24 26 25 28 26 29 27 30 73 31 28 32 72 33 29 34 30 35
REMARK SMILES IDX 31 36 66 37 32 38 71 39 65 40 67 41 33 42 70 43 64 44 63 45
REMARK SMILES IDX 34 47 56 48 41 49 55 50 42 51 45 52 54 53 68 54 43 55 44 56
REMARK SMILES IDX 53 58 69 59 46 60 35 61 36 62 40 63 37 64 39 65 38 66 57 67
REMARK SMILES IDX 58 68 62 69 59 70 61 71 60 72 47 73 48 74 52 75 49 76 51 77
REMARK SMILES IDX 50 78
REMARK H PARENT 19 5 6 13 23 27 67 46 45 57
REMARK Flexibility Score: inf
ROOT
ATOM      1  C   UNL A   1      31.911  27.559  27.540  1.00  0.00     0.117 C 
ENDROOT
BRANCH   1   2
ATOM      2  N   UNL A   1      31.216  26.527  26.756  1.00  0.00    -0.356 N 
ATOM      3  O   UNL A   1      32.743  26.408  25.067  1.00  0.00    -0.275 OA
ATOM      4  C   UNL A   1      31.780  25.908  25.650  1.00  0.00     0.222 C 
ATOM      5  H   UNL A   1      30.307  26.264  27.028  1.00  0.00     0.163 HD
BRANCH   4   6
ATOM      6  C   UNL A   1      31.243  24.515  25.203  1.00  0.00     0.138 C 
BRANCH   6   7
ATOM      7  C   UNL A   1      31.495  23.323  26.186  1.00  0.00     0.182 C 
ATOM      8  C   UNL A   1      31.700  21.980  25.477  1.00  0.00     0.295 C 
ATOM      9  O   UNL A   1      32.575  23.578  27.129  1.00  0.00    -0.366 OA
ATOM     10  N   UNL A   1      33.096  21.525  25.462  1.00  0.00    -0.327 N 
ATOM     11  C   UNL A   1      33.117  22.391  27.781  1.00  0.00     0.222 C 
ATOM     12  C   UNL A   1      33.453  21.218  26.834  1.00  0.00     0.291 C 
ATOM     13  H   UNL A   1      33.132  20.705  24.857  1.00  0.00     0.348 HD
BRANCH  10  14
ATOM     14  C   UNL A   1      34.094  22.380  24.788  1.00  0.00     0.305 C 
BRANCH  14  15
ATOM     15  C   UNL A   1      35.580  22.447  25.143  1.00  0.00     0.078 A 
ATOM     16  C   UNL A   1      36.087  23.638  25.661  1.00  0.00     0.135 A 
ATOM     17  C   UNL A   1      36.510  21.395  25.097  1.00  0.00     0.135 A 
ATOM     18  F   UNL A   1      35.257  24.665  25.889  1.00  0.00    -0.206 F 
ATOM     19  C   UNL A   1      37.434  23.798  26.008  1.00  0.00     0.040 A 
ATOM     20  C   UNL A   1      37.868  21.545  25.381  1.00  0.00     0.040 A 
ATOM     21  F   UNL A   1      36.145  20.135  24.879  1.00  0.00    -0.206 F 
ATOM     22  C   UNL A   1      38.339  22.760  25.832  1.00  0.00     0.006 A 
ENDBRANCH  14  15
ENDBRANCH  10  14
ENDBRANCH   6   7
ENDBRANCH   4   6
ENDBRANCH   1   2
BRANCH   1  23
ATOM     23  C   UNL A   1      32.192  28.932  26.859  1.00  0.00     0.042 C 
BRANCH  23  24
ATOM     24  C   UNL A   1      33.538  29.699  26.955  1.00  0.00     0.118 C 
BRANCH  24  25
ATOM     25  N   UNL A   1      33.616  30.815  27.890  1.00  0.00    -0.352 N 
ATOM     26  C   UNL A   1      34.668  31.257  28.683  1.00  0.00     0.251 C 
ATOM     27  H   UNL A   1      32.788  31.342  27.973  1.00  0.00     0.163 HD
ATOM     28  O   UNL A   1      34.545  32.277  29.339  1.00  0.00    -0.269 OA
BRANCH  26  29
ATOM     29  C   UNL A   1      35.929  30.477  28.817  1.00  0.00     0.039 A 
ATOM     30  C   UNL A   1      36.777  30.407  27.703  1.00  0.00     0.014 A 
ATOM     31  C   UNL A   1      36.272  29.783  29.979  1.00  0.00     0.014 A 
ATOM     32  C   UNL A   1      38.018  29.760  27.794  1.00  0.00     0.010 A 
ATOM     33  C   UNL A   1      37.529  29.159  30.078  1.00  0.00     0.010 A 
ATOM     34  C   UNL A   1      38.438  29.186  29.005  1.00  0.00    -0.014 A 
BRANCH  34  35
ATOM     35  C   UNL A   1      39.859  28.759  29.197  1.00  0.00     0.031 A 
ATOM     36  C   UNL A   1      40.920  29.697  29.704  1.00  0.00     0.074 A 
ATOM     37  C   UNL A   1      40.214  27.507  28.836  1.00  0.00     0.049 A 
ATOM     38  N   UNL A   1      42.207  29.486  29.848  1.00  0.00    -0.248 NA
ATOM     39  C   UNL A   1      40.486  31.046  30.087  1.00  0.00     0.031 C 
ATOM     40  C   UNL A   1      39.299  26.488  28.316  1.00  0.00     0.029 A 
ATOM     41  N   UNL A   1      41.438  26.879  28.840  1.00  0.00    -0.354 N 
ATOM     42  C   UNL A   1      42.740  30.675  30.332  1.00  0.00     0.074 A 
ATOM     43  C   UNL A   1      41.638  31.614  30.424  1.00  0.00     0.031 C 
ATOM     44  C   UNL A   1      39.988  25.363  28.065  1.00  0.00     0.029 A 
ATOM     45  C   UNL A   1      41.400  25.593  28.356  1.00  0.00     0.049 A 
ATOM     46  H   UNL A   1      42.263  27.312  29.158  1.00  0.00     0.167 HD
ATOM     47  C   UNL A   1      44.022  30.961  30.673  1.00  0.00     0.031 A 
ATOM     48  C   UNL A   1      42.384  24.697  28.145  1.00  0.00     0.031 A 
ATOM     49  C   UNL A   1      45.128  30.039  30.571  1.00  0.00     0.049 A 
ATOM     50  C   UNL A   1      43.805  25.061  28.471  1.00  0.00     0.074 A 
ATOM     51  C   UNL A   1      46.450  30.234  30.938  1.00  0.00     0.029 A 
ATOM     52  N   UNL A   1      45.048  28.755  30.053  1.00  0.00    -0.354 N 
ATOM     53  N   UNL A   1      44.277  26.170  28.985  1.00  0.00    -0.248 NA
ATOM     54  C   UNL A   1      44.830  24.043  28.193  1.00  0.00     0.031 C 
ATOM     55  C   UNL A   1      47.182  29.096  30.580  1.00  0.00     0.029 A 
ATOM     56  C   UNL A   1      46.303  28.164  30.055  1.00  0.00     0.049 A 
ATOM     57  H   UNL A   1      44.222  28.326  29.733  1.00  0.00     0.167 HD
ATOM     58  C   UNL A   1      45.646  25.974  29.114  1.00  0.00     0.074 A 
ATOM     59  C   UNL A   1      45.926  24.634  28.646  1.00  0.00     0.031 C 
ATOM     60  C   UNL A   1      46.585  26.834  29.580  1.00  0.00     0.031 A 
BRANCH  47  61
ATOM     61  C   UNL A   1      44.317  32.350  31.175  1.00  0.00    -0.014 A 
ATOM     62  C   UNL A   1      44.273  32.655  32.545  1.00  0.00     0.009 A 
ATOM     63  C   UNL A   1      44.701  33.354  30.271  1.00  0.00     0.009 A 
ATOM     64  C   UNL A   1      44.569  33.946  32.993  1.00  0.00     0.001 A 
ATOM     65  C   UNL A   1      45.027  34.634  30.725  1.00  0.00     0.001 A 
ATOM     66  C   UNL A   1      44.950  34.932  32.084  1.00  0.00     0.000 A 
ENDBRANCH  47  61
BRANCH  48  67
ATOM     67  C   UNL A   1      42.065  23.358  27.577  1.00  0.00    -0.014 A 
ATOM     68  C   UNL A   1      42.338  23.069  26.232  1.00  0.00     0.009 A 
ATOM     69  C   UNL A   1      41.468  22.369  28.375  1.00  0.00     0.009 A 
ATOM     70  C   UNL A   1      41.993  21.830  25.689  1.00  0.00     0.001 A 
ATOM     71  C   UNL A   1      41.155  21.117  27.839  1.00  0.00     0.001 A 
ATOM     72  C   UNL A   1      41.407  20.853  26.494  1.00  0.00     0.000 A 
ENDBRANCH  48  67
BRANCH  60  73
ATOM     73  C   UNL A   1      48.008  26.341  29.631  1.00  0.00    -0.014 A 
ATOM     74  C   UNL A   1      48.548  25.785  30.802  1.00  0.00     0.009 A 
ATOM     75  C   UNL A   1      48.810  26.407  28.482  1.00  0.00     0.009 A 
ATOM     76  C   UNL A   1      49.871  25.336  30.828  1.00  0.00     0.001 A 
ATOM     77  C   UNL A   1      50.122  25.929  28.501  1.00  0.00     0.001 A 
ATOM     78  C   UNL A   1      50.654  25.404  29.677  1.00  0.00     0.000 A 
ENDBRANCH  60  73
ENDBRANCH  34  35
ENDBRANCH  26  29
ENDBRANCH  24  25
ENDBRANCH  23  24
ENDBRANCH   1  23
TORSDOF 13
ENDMDL
MODEL 2
REMARK VINA RESULT:     -10.7      1.485      2.181
REMARK SMILES O=C(C[C@H]1C[N@@H+](Cc2c(F)cccc2F)CCO1)NCCCNC(=O)c1ccc(-c2c3nc(c(-c4ccccc4)c4ccc([nH]4)c(-c4ccccc4)c4nc(c(-c5ccccc5)c5ccc2[nH]5)C=C4)C=C3)cc1
REMARK SMILES IDX 20 1 19 2 1 3 2 4 3 6 4 7 5 8 18 9 6 10 17 11 16 12 7 14
REMARK SMILES IDX 8 15 9 16 14 17 10 18 11 19 13 20 15 21 12 22 21 23 22 24
REMARK SMILES IDX 23 25 24 26 25 28 26 29 27 30 73 31 28 32 72 33 29 34 30 35
REMARK SMILES IDX 31 36 66 37 32 38 71 39 65 40 67 41 33 42 70 43 64 44 63 45
REMARK SMILES IDX 34 47 56 48 41 49 55 50 42 51 45 52 54 53 68 54 43 55 44 56
REMARK SMILES IDX 53 58 69 59 46 60 35 61 36 62 40 63 37 64 39 65 38 66 57 67
REMARK SMILES IDX 58 68 62 69 59 70 61 71 60 72 47 73 48 74 52 75 49 76 51 77
REMARK SMILES IDX 50 78
REMARK H PARENT 19 5 6 13 23 27 67 46 45 57
REMARK Flexibility Score: inf
ROOT
ATOM      1  C   UNL A   1      31.763  27.323  26.350  1.00  0.00     0.117 C 
ENDROOT
BRANCH   1   2
ATOM      2  N   UNL A   1      31.761  25.941  26.849  1.00  0.00    -0.356 N 
ATOM      3  O   UNL A   1      31.163  24.953  24.882  1.00  0.00    -0.275 OA
ATOM      4  C   UNL A   1      31.620  24.837  26.021  1.00  0.00     0.222 C 
ATOM      5  H   UNL A   1      31.863  25.790  27.816  1.00  0.00     0.163 HD
BRANCH   4   6
ATOM      6  C   UNL A   1      32.136  23.450  26.508  1.00  0.00     0.138 C 
BRANCH   6   7
ATOM      7  C   UNL A   1      33.667  23.346  26.817  1.00  0.00     0.182 C 
ATOM      8  C   UNL A   1      34.094  21.965  27.329  1.00  0.00     0.295 C 
ATOM      9  O   UNL A   1      34.505  23.762  25.701  1.00  0.00    -0.366 OA
ATOM     10  N   UNL A   1      34.814  21.161  26.334  1.00  0.00    -0.327 N 
ATOM     11  C   UNL A   1      35.892  23.318  25.772  1.00  0.00     0.222 C 
ATOM     12  C   UNL A   1      36.084  21.821  26.100  1.00  0.00     0.291 C 
ATOM     13  H   UNL A   1      34.926  20.230  26.733  1.00  0.00     0.348 HD
BRANCH  10  14
ATOM     14  C   UNL A   1      34.108  20.816  25.083  1.00  0.00     0.305 C 
BRANCH  14  15
ATOM     15  C   UNL A   1      33.974  19.407  24.507  1.00  0.00     0.078 A 
ATOM     16  C   UNL A   1      32.810  19.079  23.814  1.00  0.00     0.135 A 
ATOM     17  C   UNL A   1      34.949  18.395  24.509  1.00  0.00     0.135 A 
ATOM     18  F   UNL A   1      31.872  20.017  23.620  1.00  0.00    -0.206 F 
ATOM     19  C   UNL A   1      32.591  17.813  23.258  1.00  0.00     0.040 A 
ATOM     20  C   UNL A   1      34.734  17.107  24.014  1.00  0.00     0.040 A 
ATOM     21  F   UNL A   1      36.202  18.618  24.892  1.00  0.00    -0.206 F 
ATOM     22  C   UNL A   1      33.541  16.808  23.389  1.00  0.00     0.006 A 
ENDBRANCH  14  15
ENDBRANCH  10  14
ENDBRANCH   6   7
ENDBRANCH   4   6
ENDBRANCH   1   2
BRANCH   1  23
ATOM     23  C   UNL A   1      32.254  28.449  27.310  1.00  0.00     0.042 C 
BRANCH  23  24
ATOM     24  C   UNL A   1      33.412  29.431  26.987  1.00  0.00     0.118 C 
BRANCH  24  25
ATOM     25  N   UNL A   1      33.522  30.638  27.799  1.00  0.00    -0.352 N 
ATOM     26  C   UNL A   1      34.601  31.154  28.506  1.00  0.00     0.251 C 
ATOM     27  H   UNL A   1      32.698  31.173  27.856  1.00  0.00     0.163 HD
ATOM     28  O   UNL A   1      34.500  32.237  29.058  1.00  0.00    -0.269 OA
BRANCH  26  29
ATOM     29  C   UNL A   1      35.866  30.388  28.676  1.00  0.00     0.039 A 
ATOM     30  C   UNL A   1      36.761  30.354  27.597  1.00  0.00     0.014 A 
ATOM     31  C   UNL A   1      36.170  29.673  29.836  1.00  0.00     0.014 A 
ATOM     32  C   UNL A   1      38.006  29.722  27.725  1.00  0.00     0.010 A 
ATOM     33  C   UNL A   1      37.430  29.063  29.973  1.00  0.00     0.010 A 
ATOM     34  C   UNL A   1      38.383  29.126  28.941  1.00  0.00    -0.014 A 
BRANCH  34  35
ATOM     35  C   UNL A   1      39.800  28.713  29.183  1.00  0.00     0.031 A 
ATOM     36  C   UNL A   1      40.830  29.659  29.738  1.00  0.00     0.074 A 
ATOM     37  C   UNL A   1      40.183  27.470  28.823  1.00  0.00     0.049 A 
ATOM     38  N   UNL A   1      42.113  29.460  29.930  1.00  0.00    -0.248 NA
ATOM     39  C   UNL A   1      40.366  30.999  30.118  1.00  0.00     0.031 C 
ATOM     40  C   UNL A   1      39.302  26.445  28.259  1.00  0.00     0.029 A 
ATOM     41  N   UNL A   1      41.414  26.855  28.868  1.00  0.00    -0.354 N 
ATOM     42  C   UNL A   1      42.613  30.651  30.445  1.00  0.00     0.074 A 
ATOM     43  C   UNL A   1      41.498  31.576  30.503  1.00  0.00     0.031 C 
ATOM     44  C   UNL A   1      40.013  25.331  28.023  1.00  0.00     0.029 A 
ATOM     45  C   UNL A   1      41.410  25.574  28.370  1.00  0.00     0.049 A 
ATOM     46  H   UNL A   1      42.221  27.294  29.222  1.00  0.00     0.167 HD
ATOM     47  C   UNL A   1      43.878  30.948  30.838  1.00  0.00     0.031 A 
ATOM     48  C   UNL A   1      42.411  24.692  28.188  1.00  0.00     0.031 A 
ATOM     49  C   UNL A   1      44.998  30.040  30.768  1.00  0.00     0.049 A 
ATOM     50  C   UNL A   1      43.814  25.068  28.572  1.00  0.00     0.074 A 
ATOM     51  C   UNL A   1      46.303  30.246  31.188  1.00  0.00     0.029 A 
ATOM     52  N   UNL A   1      44.953  28.760  30.236  1.00  0.00    -0.354 N 
ATOM     53  N   UNL A   1      44.254  26.177  29.114  1.00  0.00    -0.248 NA
ATOM     54  C   UNL A   1      44.861  24.065  28.323  1.00  0.00     0.031 C 
ATOM     55  C   UNL A   1      47.061  29.120  30.848  1.00  0.00     0.029 A 
ATOM     56  C   UNL A   1      46.214  28.184  30.280  1.00  0.00     0.049 A 
ATOM     57  H   UNL A   1      44.145  28.325  29.880  1.00  0.00     0.167 HD
ATOM     58  C   UNL A   1      45.619  25.995  29.293  1.00  0.00     0.074 A 
ATOM     59  C   UNL A   1      45.933  24.663  28.824  1.00  0.00     0.031 C 
ATOM     60  C   UNL A   1      46.530  26.861  29.803  1.00  0.00     0.031 A 
BRANCH  47  61
ATOM     61  C   UNL A   1      44.137  32.335  31.364  1.00  0.00    -0.014 A 
ATOM     62  C   UNL A   1      44.037  32.626  32.734  1.00  0.00     0.009 A 
ATOM     63  C   UNL A   1      44.545  33.352  30.485  1.00  0.00     0.009 A 
ATOM     64  C   UNL A   1      44.301  33.915  33.206  1.00  0.00     0.001 A 
ATOM     65  C   UNL A   1      44.837  34.631  30.963  1.00  0.00     0.001 A 
ATOM     66  C   UNL A   1      44.705  34.914  32.321  1.00  0.00     0.000 A 
ENDBRANCH  47  61
BRANCH  48  67
ATOM     67  C   UNL A   1      42.130  23.355  27.596  1.00  0.00    -0.014 A 
ATOM     68  C   UNL A   1      42.190  23.162  26.208  1.00  0.00     0.009 A 
ATOM     69  C   UNL A   1      41.781  22.270  28.417  1.00  0.00     0.009 A 
ATOM     70  C   UNL A   1      41.878  21.919  25.651  1.00  0.00     0.001 A 
ATOM     71  C   UNL A   1      41.503  21.019  27.860  1.00  0.00     0.001 A 
ATOM     72  C   UNL A   1      41.540  20.848  26.477  1.00  0.00     0.000 A 
ENDBRANCH  48  67
BRANCH  60  73
ATOM     73  C   UNL A   1      47.955  26.385  29.904  1.00  0.00    -0.014 A 
ATOM     74  C   UNL A   1      48.846  26.509  28.826  1.00  0.00     0.009 A 
ATOM     75  C   UNL A   1      48.421  25.831  31.106  1.00  0.00     0.009 A 
ATOM     76  C   UNL A   1      50.164  26.059  28.940  1.00  0.00     0.001 A 
ATOM     77  C   UNL A   1      49.747  25.409  31.229  1.00  0.00     0.001 A 
ATOM     78  C   UNL A   1      50.614  25.514  30.142  1.00  0.00     0.000 A 
ENDBRANCH  60  73
ENDBRANCH  34  35
ENDBRANCH  26  29
ENDBRANCH  24  25
ENDBRANCH  23  24
ENDBRANCH   1  23
TORSDOF 13
ENDMDL
MODEL 3
REMARK VINA RESULT:     -10.7      2.588      8.057
REMARK SMILES O=C(C[C@H]1C[N@@H+](Cc2c(F)cccc2F)CCO1)NCCCNC(=O)c1ccc(-c2c3nc(c(-c4ccccc4)c4ccc([nH]4)c(-c4ccccc4)c4nc(c(-c5ccccc5)c5ccc2[nH]5)C=C4)C=C3)cc1
REMARK SMILES IDX 20 1 19 2 1 3 2 4 3 6 4 7 5 8 18 9 6 10 17 11 16 12 7 14
REMARK SMILES IDX 8 15 9 16 14 17 10 18 11 19 13 20 15 21 12 22 21 23 22 24
REMARK SMILES IDX 23 25 24 26 25 28 26 29 27 30 73 31 28 32 72 33 29 34 30 35
REMARK SMILES IDX 31 36 66 37 32 38 71 39 65 40 67 41 33 42 70 43 64 44 63 45
REMARK SMILES IDX 34 47 56 48 41 49 55 50 42 51 45 52 54 53 68 54 43 55 44 56
REMARK SMILES IDX 53 58 69 59 46 60 35 61 36 62 40 63 37 64 39 65 38 66 57 67
REMARK SMILES IDX 58 68 62 69 59 70 61 71 60 72 47 73 48 74 52 75 49 76 51 77
REMARK SMILES IDX 50 78
REMARK H PARENT 19 5 6 13 23 27 67 46 45 57
REMARK Flexibility Score: inf
ROOT
ATOM      1  C   UNL A   1      34.754  22.593  26.298  1.00  0.00     0.117 C 
ENDROOT
BRANCH   1   2
ATOM      2  N   UNL A   1      33.528  22.609  25.487  1.00  0.00    -0.356 N 
ATOM      3  O   UNL A   1      32.177  23.541  27.071  1.00  0.00    -0.275 OA
ATOM      4  C   UNL A   1      32.362  23.243  25.890  1.00  0.00     0.222 C 
ATOM      5  H   UNL A   1      33.533  22.147  24.618  1.00  0.00     0.163 HD
BRANCH   4   6
ATOM      6  C   UNL A   1      31.317  23.667  24.815  1.00  0.00     0.138 C 
BRANCH   6   7
ATOM      7  C   UNL A   1      31.831  24.611  23.677  1.00  0.00     0.182 C 
ATOM      8  C   UNL A   1      30.850  25.735  23.326  1.00  0.00     0.295 C 
ATOM      9  O   UNL A   1      33.159  25.148  23.937  1.00  0.00    -0.366 OA
ATOM     10  N   UNL A   1      31.256  27.054  23.830  1.00  0.00    -0.327 N 
ATOM     11  C   UNL A   1      33.518  26.318  23.142  1.00  0.00     0.222 C 
ATOM     12  C   UNL A   1      32.451  27.433  23.100  1.00  0.00     0.291 C 
ATOM     13  H   UNL A   1      30.476  27.688  23.659  1.00  0.00     0.348 HD
BRANCH  10  14
ATOM     14  C   UNL A   1      31.401  27.220  25.291  1.00  0.00     0.305 C 
BRANCH  14  15
ATOM     15  C   UNL A   1      32.206  28.324  25.976  1.00  0.00     0.078 A 
ATOM     16  C   UNL A   1      33.404  27.983  26.603  1.00  0.00     0.135 A 
ATOM     17  C   UNL A   1      31.927  29.701  25.975  1.00  0.00     0.135 A 
ATOM     18  F   UNL A   1      33.845  26.719  26.539  1.00  0.00    -0.206 F 
ATOM     19  C   UNL A   1      34.206  28.921  27.263  1.00  0.00     0.040 A 
ATOM     20  C   UNL A   1      32.678  30.647  26.674  1.00  0.00     0.040 A 
ATOM     21  F   UNL A   1      30.976  30.231  25.212  1.00  0.00    -0.206 F 
ATOM     22  C   UNL A   1      33.824  30.255  27.334  1.00  0.00     0.006 A 
ENDBRANCH  14  15
ENDBRANCH  10  14
ENDBRANCH   6   7
ENDBRANCH   4   6
ENDBRANCH   1   2
BRANCH   1  23
ATOM     23  C   UNL A   1      36.053  22.022  25.653  1.00  0.00     0.042 C 
BRANCH  23  24
ATOM     24  C   UNL A   1      37.318  22.865  25.338  1.00  0.00     0.118 C 
BRANCH  24  25
ATOM     25  N   UNL A   1      38.618  22.246  25.569  1.00  0.00    -0.352 N 
ATOM     26  C   UNL A   1      39.725  22.708  26.270  1.00  0.00     0.251 C 
ATOM     27  H   UNL A   1      38.729  21.357  25.161  1.00  0.00     0.163 HD
ATOM     28  O   UNL A   1      40.696  21.984  26.414  1.00  0.00    -0.269 OA
BRANCH  26  29
ATOM     29  C   UNL A   1      39.796  24.099  26.796  1.00  0.00     0.039 A 
ATOM     30  C   UNL A   1      39.222  24.356  28.049  1.00  0.00     0.014 A 
ATOM     31  C   UNL A   1      40.363  25.154  26.077  1.00  0.00     0.014 A 
ATOM     32  C   UNL A   1      39.331  25.626  28.635  1.00  0.00     0.010 A 
ATOM     33  C   UNL A   1      40.497  26.419  26.677  1.00  0.00     0.010 A 
ATOM     34  C   UNL A   1      40.031  26.655  27.983  1.00  0.00    -0.014 A 
BRANCH  34  35
ATOM     35  C   UNL A   1      40.405  27.906  28.713  1.00  0.00     0.031 A 
ATOM     36  C   UNL A   1      41.714  28.053  29.439  1.00  0.00     0.074 A 
ATOM     37  C   UNL A   1      39.505  28.910  28.781  1.00  0.00     0.049 A 
ATOM     38  N   UNL A   1      42.140  29.052  30.176  1.00  0.00    -0.248 NA
ATOM     39  C   UNL A   1      42.662  26.937  29.333  1.00  0.00     0.031 C 
ATOM     40  C   UNL A   1      38.188  28.908  28.140  1.00  0.00     0.029 A 
ATOM     41  N   UNL A   1      39.553  30.124  29.428  1.00  0.00    -0.354 N 
ATOM     42  C   UNL A   1      43.402  28.684  30.630  1.00  0.00     0.074 A 
ATOM     43  C   UNL A   1      43.656  27.354  30.110  1.00  0.00     0.031 C 
ATOM     44  C   UNL A   1      37.562  30.064  28.413  1.00  0.00     0.029 A 
ATOM     45  C   UNL A   1      38.407  30.870  29.288  1.00  0.00     0.049 A 
ATOM     46  H   UNL A   1      40.336  30.428  29.943  1.00  0.00     0.167 HD
ATOM     47  C   UNL A   1      44.271  29.385  31.401  1.00  0.00     0.031 A 
ATOM     48  C   UNL A   1      38.054  32.058  29.816  1.00  0.00     0.031 A 
ATOM     49  C   UNL A   1      44.022  30.702  31.937  1.00  0.00     0.049 A 
ATOM     50  C   UNL A   1      39.010  32.785  30.719  1.00  0.00     0.074 A 
ATOM     51  C   UNL A   1      44.868  31.501  32.690  1.00  0.00     0.029 A 
ATOM     52  N   UNL A   1      42.838  31.409  31.790  1.00  0.00    -0.354 N 
ATOM     53  N   UNL A   1      40.221  32.445  31.085  1.00  0.00    -0.248 NA
ATOM     54  C   UNL A   1      38.549  34.065  31.279  1.00  0.00     0.031 C 
ATOM     55  C   UNL A   1      44.173  32.659  33.056  1.00  0.00     0.029 A 
ATOM     56  C   UNL A   1      42.919  32.615  32.472  1.00  0.00     0.049 A 
ATOM     57  H   UNL A   1      42.057  31.102  31.277  1.00  0.00     0.167 HD
ATOM     58  C   UNL A   1      40.675  33.479  31.895  1.00  0.00     0.074 A 
ATOM     59  C   UNL A   1      39.619  34.467  31.949  1.00  0.00     0.031 C 
ATOM     60  C   UNL A   1      41.864  33.594  32.535  1.00  0.00     0.031 A 
BRANCH  47  61
ATOM     61  C   UNL A   1      45.584  28.731  31.742  1.00  0.00    -0.014 A 
ATOM     62  C   UNL A   1      45.743  27.988  32.924  1.00  0.00     0.009 A 
ATOM     63  C   UNL A   1      46.660  28.808  30.843  1.00  0.00     0.009 A 
ATOM     64  C   UNL A   1      46.964  27.372  33.214  1.00  0.00     0.001 A 
ATOM     65  C   UNL A   1      47.868  28.165  31.121  1.00  0.00     0.001 A 
ATOM     66  C   UNL A   1      48.023  27.456  32.311  1.00  0.00     0.000 A 
ENDBRANCH  47  61
BRANCH  48  67
ATOM     67  C   UNL A   1      36.717  32.640  29.516  1.00  0.00    -0.014 A 
ATOM     68  C   UNL A   1      35.610  32.341  30.324  1.00  0.00     0.009 A 
ATOM     69  C   UNL A   1      36.538  33.483  28.408  1.00  0.00     0.009 A 
ATOM     70  C   UNL A   1      34.347  32.849  30.012  1.00  0.00     0.001 A 
ATOM     71  C   UNL A   1      35.281  34.019  28.118  1.00  0.00     0.001 A 
ATOM     72  C   UNL A   1      34.184  33.692  28.914  1.00  0.00     0.000 A 
ENDBRANCH  48  67
BRANCH  60  73
ATOM     73  C   UNL A   1      42.100  34.849  33.334  1.00  0.00    -0.014 A 
ATOM     74  C   UNL A   1      41.575  35.002  34.628  1.00  0.00     0.009 A 
ATOM     75  C   UNL A   1      42.884  35.881  32.797  1.00  0.00     0.009 A 
ATOM     76  C   UNL A   1      41.803  36.176  35.351  1.00  0.00     0.001 A 
ATOM     77  C   UNL A   1      43.138  37.040  33.534  1.00  0.00     0.001 A 
ATOM     78  C   UNL A   1      42.588  37.190  34.806  1.00  0.00     0.000 A 
ENDBRANCH  60  73
ENDBRANCH  34  35
ENDBRANCH  26  29
ENDBRANCH  24  25
ENDBRANCH  23  24
ENDBRANCH   1  23
TORSDOF 13
ENDMDL
