MODEL 1
REMARK VINA RESULT:     -10.3      0.000      0.000
REMARK SMILES O=C(C[C@@H]1CN(C(=O)NCc2cccs2)CCO1)NCCCNC(=O)c1ccc(-c2c3nc(c(-c4ccccc4)c4ccc([nH]4)c(-c4ccccc4)c4nc(c(-c5ccccc5)c5ccc2[nH]5)C=C4)C=C3)cc1
REMARK SMILES IDX 20 1 19 2 1 3 2 4 3 6 4 7 5 8 18 9 6 10 17 11 16 12 7 13
REMARK SMILES IDX 8 14 9 15 10 17 11 18 12 19 15 20 13 21 14 22 21 23 22 24
REMARK SMILES IDX 23 25 24 26 25 28 26 29 27 30 73 31 28 32 72 33 29 34 30 35
REMARK SMILES IDX 31 36 66 37 32 38 71 39 65 40 67 41 33 42 70 43 64 44 63 45
REMARK SMILES IDX 34 47 56 48 41 49 55 50 42 51 45 52 54 53 68 54 43 55 44 56
REMARK SMILES IDX 53 58 69 59 46 60 35 61 36 62 40 63 37 64 39 65 38 66 57 67
REMARK SMILES IDX 58 68 62 69 59 70 61 71 60 72 47 73 48 74 52 75 49 76 51 77
REMARK SMILES IDX 50 78
REMARK H PARENT 19 5 9 16 23 27 67 46 45 57
REMARK Flexibility Score: inf
ROOT
ATOM      1  C   UNL A   1      36.694  22.595  23.519  1.00  0.00     0.117 C 
ENDROOT
BRANCH   1   2
ATOM      2  N   UNL A   1      35.361  22.770  22.971  1.00  0.00    -0.356 N 
ATOM      3  O   UNL A   1      34.330  21.523  24.601  1.00  0.00    -0.275 OA
ATOM      4  C   UNL A   1      34.254  22.255  23.622  1.00  0.00     0.222 C 
ATOM      5  H   UNL A   1      35.243  23.262  22.126  1.00  0.00     0.163 HD
BRANCH   4   6
ATOM      6  C   UNL A   1      32.931  22.766  23.095  1.00  0.00     0.133 C 
BRANCH   6   7
ATOM      7  C   UNL A   1      32.791  24.296  23.175  1.00  0.00     0.147 C 
ATOM      8  C   UNL A   1      31.341  24.829  23.079  1.00  0.00     0.154 C 
ATOM      9  O   UNL A   1      33.609  24.900  22.151  1.00  0.00    -0.374 OA
ATOM     10  N   UNL A   1      31.316  26.285  23.175  1.00  0.00    -0.320 N 
ATOM     11  C   UNL A   1      33.611  26.334  22.278  1.00  0.00     0.182 C 
ATOM     12  C   UNL A   1      32.192  26.900  22.164  1.00  0.00     0.150 C 
BRANCH  10  13
ATOM     13  C   UNL A   1      30.686  27.101  24.060  1.00  0.00     0.317 C 
ATOM     14  O   UNL A   1      29.609  27.639  23.777  1.00  0.00    -0.249 OA
ATOM     15  N   UNL A   1      31.149  27.409  25.277  1.00  0.00    -0.333 N 
ATOM     16  H   UNL A   1      30.569  28.080  25.704  1.00  0.00     0.165 HD
BRANCH  15  17
ATOM     17  C   UNL A   1      32.241  27.056  26.158  1.00  0.00     0.164 C 
BRANCH  17  18
ATOM     18  C   UNL A   1      32.934  28.312  26.601  1.00  0.00     0.024 A 
ATOM     19  C   UNL A   1      34.279  28.550  26.815  1.00  0.00     0.017 A 
ATOM     20  S   UNL A   1      32.014  29.737  26.882  1.00  0.00    -0.147 S 
ATOM     21  C   UNL A   1      34.548  29.885  27.234  1.00  0.00     0.012 A 
ATOM     22  C   UNL A   1      33.400  30.636  27.314  1.00  0.00     0.065 A 
ENDBRANCH  17  18
ENDBRANCH  15  17
ENDBRANCH  10  13
ENDBRANCH   6   7
ENDBRANCH   4   6
ENDBRANCH   1   2
BRANCH   1  23
ATOM     23  C   UNL A   1      36.994  23.498  24.708  1.00  0.00     0.042 C 
BRANCH  23  24
ATOM     24  C   UNL A   1      37.461  22.783  25.972  1.00  0.00     0.118 C 
BRANCH  24  25
ATOM     25  N   UNL A   1      38.835  22.311  25.912  1.00  0.00    -0.352 N 
ATOM     26  C   UNL A   1      40.001  22.940  26.293  1.00  0.00     0.251 C 
ATOM     27  H   UNL A   1      38.950  21.406  25.542  1.00  0.00     0.163 HD
ATOM     28  O   UNL A   1      41.074  22.371  26.120  1.00  0.00    -0.269 OA
BRANCH  26  29
ATOM     29  C   UNL A   1      39.973  24.319  26.838  1.00  0.00     0.039 A 
ATOM     30  C   UNL A   1      39.400  24.516  28.098  1.00  0.00     0.014 A 
ATOM     31  C   UNL A   1      40.538  25.399  26.156  1.00  0.00     0.014 A 
ATOM     32  C   UNL A   1      39.504  25.759  28.726  1.00  0.00     0.010 A 
ATOM     33  C   UNL A   1      40.692  26.625  26.803  1.00  0.00     0.010 A 
ATOM     34  C   UNL A   1      40.209  26.803  28.109  1.00  0.00    -0.014 A 
BRANCH  34  35
ATOM     35  C   UNL A   1      40.545  28.045  28.850  1.00  0.00     0.031 A 
ATOM     36  C   UNL A   1      41.849  28.184  29.580  1.00  0.00     0.074 A 
ATOM     37  C   UNL A   1      39.619  29.021  28.939  1.00  0.00     0.049 A 
ATOM     38  N   UNL A   1      42.265  29.165  30.341  1.00  0.00    -0.248 NA
ATOM     39  C   UNL A   1      42.800  27.070  29.454  1.00  0.00     0.031 C 
ATOM     40  C   UNL A   1      38.294  28.992  28.312  1.00  0.00     0.029 A 
ATOM     41  N   UNL A   1      39.643  30.221  29.605  1.00  0.00    -0.354 N 
ATOM     42  C   UNL A   1      43.519  28.785  30.795  1.00  0.00     0.074 A 
ATOM     43  C   UNL A   1      43.783  27.469  30.251  1.00  0.00     0.031 C 
ATOM     44  C   UNL A   1      37.641  30.126  28.612  1.00  0.00     0.029 A 
ATOM     45  C   UNL A   1      38.481  30.943  29.480  1.00  0.00     0.049 A 
ATOM     46  H   UNL A   1      40.419  30.533  30.124  1.00  0.00     0.167 HD
ATOM     47  C   UNL A   1      44.378  29.473  31.583  1.00  0.00     0.031 A 
ATOM     48  C   UNL A   1      38.123  32.126  30.011  1.00  0.00     0.031 A 
ATOM     49  C   UNL A   1      44.123  30.783  32.123  1.00  0.00     0.049 A 
ATOM     50  C   UNL A   1      39.086  32.859  30.900  1.00  0.00     0.074 A 
ATOM     51  C   UNL A   1      44.961  31.582  32.881  1.00  0.00     0.029 A 
ATOM     52  N   UNL A   1      42.936  31.482  31.969  1.00  0.00    -0.354 N 
ATOM     53  N   UNL A   1      40.296  32.512  31.265  1.00  0.00    -0.248 NA
ATOM     54  C   UNL A   1      38.634  34.147  31.446  1.00  0.00     0.031 C 
ATOM     55  C   UNL A   1      44.266  32.748  33.221  1.00  0.00     0.029 A 
ATOM     56  C   UNL A   1      43.010  32.691  32.639  1.00  0.00     0.049 A 
ATOM     57  H   UNL A   1      42.156  31.166  31.458  1.00  0.00     0.167 HD
ATOM     58  C   UNL A   1      40.758  33.547  32.067  1.00  0.00     0.074 A 
ATOM     59  C   UNL A   1      39.704  34.539  32.124  1.00  0.00     0.031 C 
ATOM     60  C   UNL A   1      41.951  33.664  32.696  1.00  0.00     0.031 A 
BRANCH  47  61
ATOM     61  C   UNL A   1      45.685  28.812  31.920  1.00  0.00    -0.014 A 
ATOM     62  C   UNL A   1      45.811  27.995  33.054  1.00  0.00     0.009 A 
ATOM     63  C   UNL A   1      46.790  28.976  31.071  1.00  0.00     0.009 A 
ATOM     64  C   UNL A   1      47.029  27.382  33.350  1.00  0.00     0.001 A 
ATOM     65  C   UNL A   1      48.001  28.342  31.358  1.00  0.00     0.001 A 
ATOM     66  C   UNL A   1      48.122  27.552  32.501  1.00  0.00     0.000 A 
ENDBRANCH  47  61
BRANCH  48  67
ATOM     67  C   UNL A   1      36.786  32.697  29.713  1.00  0.00    -0.014 A 
ATOM     68  C   UNL A   1      36.576  33.431  28.536  1.00  0.00     0.009 A 
ATOM     69  C   UNL A   1      35.714  32.509  30.599  1.00  0.00     0.009 A 
ATOM     70  C   UNL A   1      35.322  33.981  28.262  1.00  0.00     0.001 A 
ATOM     71  C   UNL A   1      34.456  33.041  30.311  1.00  0.00     0.001 A 
ATOM     72  C   UNL A   1      34.263  33.782  29.146  1.00  0.00     0.000 A 
ENDBRANCH  48  67
BRANCH  60  73
ATOM     73  C   UNL A   1      42.186  34.918  33.487  1.00  0.00    -0.014 A 
ATOM     74  C   UNL A   1      41.727  35.036  34.807  1.00  0.00     0.009 A 
ATOM     75  C   UNL A   1      42.904  35.979  32.914  1.00  0.00     0.009 A 
ATOM     76  C   UNL A   1      41.962  36.207  35.532  1.00  0.00     0.001 A 
ATOM     77  C   UNL A   1      43.156  37.139  33.649  1.00  0.00     0.001 A 
ATOM     78  C   UNL A   1      42.679  37.254  34.953  1.00  0.00     0.000 A 
ENDBRANCH  60  73
ENDBRANCH  34  35
ENDBRANCH  26  29
ENDBRANCH  24  25
ENDBRANCH  23  24
ENDBRANCH   1  23
TORSDOF 14
ENDMDL
MODEL 2
REMARK VINA RESULT:     -10.3      2.531      7.006
REMARK SMILES O=C(C[C@@H]1CN(C(=O)NCc2cccs2)CCO1)NCCCNC(=O)c1ccc(-c2c3nc(c(-c4ccccc4)c4ccc([nH]4)c(-c4ccccc4)c4nc(c(-c5ccccc5)c5ccc2[nH]5)C=C4)C=C3)cc1
REMARK SMILES IDX 20 1 19 2 1 3 2 4 3 6 4 7 5 8 18 9 6 10 17 11 16 12 7 13
REMARK SMILES IDX 8 14 9 15 10 17 11 18 12 19 15 20 13 21 14 22 21 23 22 24
REMARK SMILES IDX 23 25 24 26 25 28 26 29 27 30 73 31 28 32 72 33 29 34 30 35
REMARK SMILES IDX 31 36 66 37 32 38 71 39 65 40 67 41 33 42 70 43 64 44 63 45
REMARK SMILES IDX 34 47 56 48 41 49 55 50 42 51 45 52 54 53 68 54 43 55 44 56
REMARK SMILES IDX 53 58 69 59 46 60 35 61 36 62 40 63 37 64 39 65 38 66 57 67
REMARK SMILES IDX 58 68 62 69 59 70 61 71 60 72 47 73 48 74 52 75 49 76 51 77
REMARK SMILES IDX 50 78
REMARK H PARENT 19 5 9 16 23 27 67 46 45 57
REMARK Flexibility Score: inf
ROOT
ATOM      1  C   UNL A   1      35.873  20.326  25.044  1.00  0.00     0.117 C 
ENDROOT
BRANCH   1   2
ATOM      2  N   UNL A   1      34.728  20.910  24.370  1.00  0.00    -0.356 N 
ATOM      3  O   UNL A   1      33.179  19.720  25.579  1.00  0.00    -0.275 OA
ATOM      4  C   UNL A   1      33.439  20.591  24.758  1.00  0.00     0.222 C 
ATOM      5  H   UNL A   1      34.870  21.541  23.627  1.00  0.00     0.163 HD
BRANCH   4   6
ATOM      6  C   UNL A   1      32.373  21.490  24.170  1.00  0.00     0.133 C 
BRANCH   6   7
ATOM      7  C   UNL A   1      32.672  22.989  24.348  1.00  0.00     0.147 C 
ATOM      8  C   UNL A   1      33.366  23.668  23.143  1.00  0.00     0.154 C 
ATOM      9  O   UNL A   1      33.460  23.175  25.543  1.00  0.00    -0.374 OA
ATOM     10  N   UNL A   1      33.595  25.085  23.407  1.00  0.00    -0.320 N 
ATOM     11  C   UNL A   1      33.648  24.577  25.818  1.00  0.00     0.182 C 
ATOM     12  C   UNL A   1      34.355  25.278  24.654  1.00  0.00     0.150 C 
BRANCH  10  13
ATOM     13  C   UNL A   1      33.171  26.188  22.736  1.00  0.00     0.317 C 
ATOM     14  O   UNL A   1      33.791  26.616  21.755  1.00  0.00    -0.249 OA
ATOM     15  N   UNL A   1      32.092  26.909  23.059  1.00  0.00    -0.333 N 
ATOM     16  H   UNL A   1      32.029  27.708  22.486  1.00  0.00     0.165 HD
BRANCH  15  17
ATOM     17  C   UNL A   1      30.986  26.873  23.992  1.00  0.00     0.164 C 
BRANCH  17  18
ATOM     18  C   UNL A   1      31.351  27.673  25.210  1.00  0.00     0.024 A 
ATOM     19  C   UNL A   1      31.349  27.302  26.542  1.00  0.00     0.017 A 
ATOM     20  S   UNL A   1      31.896  29.293  25.031  1.00  0.00    -0.147 S 
ATOM     21  C   UNL A   1      31.765  28.352  27.411  1.00  0.00     0.012 A 
ATOM     22  C   UNL A   1      32.089  29.493  26.716  1.00  0.00     0.065 A 
ENDBRANCH  17  18
ENDBRANCH  15  17
ENDBRANCH  10  13
ENDBRANCH   6   7
ENDBRANCH   4   6
ENDBRANCH   1   2
BRANCH   1  23
ATOM     23  C   UNL A   1      36.692  21.328  25.846  1.00  0.00     0.042 C 
BRANCH  23  24
ATOM     24  C   UNL A   1      38.129  21.529  25.372  1.00  0.00     0.118 C 
BRANCH  24  25
ATOM     25  N   UNL A   1      38.925  20.312  25.365  1.00  0.00    -0.352 N 
ATOM     26  C   UNL A   1      40.181  20.077  25.880  1.00  0.00     0.251 C 
ATOM     27  H   UNL A   1      38.501  19.539  24.927  1.00  0.00     0.163 HD
ATOM     28  O   UNL A   1      40.694  18.974  25.733  1.00  0.00    -0.269 OA
BRANCH  26  29
ATOM     29  C   UNL A   1      40.943  21.165  26.540  1.00  0.00     0.039 A 
ATOM     30  C   UNL A   1      41.645  22.062  25.728  1.00  0.00     0.014 A 
ATOM     31  C   UNL A   1      40.936  21.342  27.926  1.00  0.00     0.014 A 
ATOM     32  C   UNL A   1      42.232  23.199  26.289  1.00  0.00     0.010 A 
ATOM     33  C   UNL A   1      41.473  22.505  28.480  1.00  0.00     0.010 A 
ATOM     34  C   UNL A   1      42.092  23.461  27.660  1.00  0.00    -0.014 A 
BRANCH  34  35
ATOM     35  C   UNL A   1      42.488  24.771  28.235  1.00  0.00     0.031 A 
ATOM     36  C   UNL A   1      41.484  25.869  28.428  1.00  0.00     0.074 A 
ATOM     37  C   UNL A   1      43.791  25.000  28.498  1.00  0.00     0.049 A 
ATOM     38  N   UNL A   1      41.676  27.097  28.841  1.00  0.00    -0.248 NA
ATOM     39  C   UNL A   1      40.086  25.553  28.099  1.00  0.00     0.031 C 
ATOM     40  C   UNL A   1      44.876  24.032  28.315  1.00  0.00     0.029 A 
ATOM     41  N   UNL A   1      44.427  26.124  28.964  1.00  0.00    -0.354 N 
ATOM     42  C   UNL A   1      40.430  27.705  28.810  1.00  0.00     0.074 A 
ATOM     43  C   UNL A   1      39.493  26.721  28.308  1.00  0.00     0.031 C 
ATOM     44  C   UNL A   1      46.038  24.598  28.675  1.00  0.00     0.029 A 
ATOM     45  C   UNL A   1      45.788  25.977  29.079  1.00  0.00     0.049 A 
ATOM     46  H   UNL A   1      43.953  26.956  29.190  1.00  0.00     0.167 HD
ATOM     47  C   UNL A   1      40.093  28.964  29.177  1.00  0.00     0.031 A 
ATOM     48  C   UNL A   1      46.735  26.855  29.457  1.00  0.00     0.031 A 
ATOM     49  C   UNL A   1      41.019  29.944  29.681  1.00  0.00     0.049 A 
ATOM     50  C   UNL A   1      46.338  28.252  29.839  1.00  0.00     0.074 A 
ATOM     51  C   UNL A   1      40.757  31.225  30.136  1.00  0.00     0.029 A 
ATOM     52  N   UNL A   1      42.388  29.755  29.787  1.00  0.00    -0.354 N 
ATOM     53  N   UNL A   1      45.143  28.788  29.866  1.00  0.00    -0.248 NA
ATOM     54  C   UNL A   1      47.420  29.160  30.245  1.00  0.00     0.031 C 
ATOM     55  C   UNL A   1      41.973  31.826  30.479  1.00  0.00     0.029 A 
ATOM     56  C   UNL A   1      42.987  30.904  30.276  1.00  0.00     0.049 A 
ATOM     57  H   UNL A   1      42.864  28.926  29.552  1.00  0.00     0.167 HD
ATOM     58  C   UNL A   1      45.326  30.091  30.311  1.00  0.00     0.074 A 
ATOM     59  C   UNL A   1      46.744  30.258  30.552  1.00  0.00     0.031 C 
ATOM     60  C   UNL A   1      44.399  31.060  30.503  1.00  0.00     0.031 A 
BRANCH  47  61
ATOM     61  C   UNL A   1      38.651  29.360  29.039  1.00  0.00    -0.014 A 
ATOM     62  C   UNL A   1      38.143  29.827  27.816  1.00  0.00     0.009 A 
ATOM     63  C   UNL A   1      37.781  29.226  30.132  1.00  0.00     0.009 A 
ATOM     64  C   UNL A   1      36.798  30.183  27.700  1.00  0.00     0.001 A 
ATOM     65  C   UNL A   1      36.432  29.563  30.006  1.00  0.00     0.001 A 
ATOM     66  C   UNL A   1      35.943  30.048  28.793  1.00  0.00     0.000 A 
ENDBRANCH  47  61
BRANCH  48  67
ATOM     67  C   UNL A   1      48.158  26.437  29.498  1.00  0.00    -0.014 A 
ATOM     68  C   UNL A   1      48.698  25.874  30.664  1.00  0.00     0.009 A 
ATOM     69  C   UNL A   1      48.982  26.594  28.373  1.00  0.00     0.009 A 
ATOM     70  C   UNL A   1      50.041  25.493  30.708  1.00  0.00     0.001 A 
ATOM     71  C   UNL A   1      50.318  26.191  28.413  1.00  0.00     0.001 A 
ATOM     72  C   UNL A   1      50.848  25.648  29.582  1.00  0.00     0.000 A 
ENDBRANCH  48  67
BRANCH  60  73
ATOM     73  C   UNL A   1      44.890  32.382  31.017  1.00  0.00    -0.014 A 
ATOM     74  C   UNL A   1      44.965  32.640  32.394  1.00  0.00     0.009 A 
ATOM     75  C   UNL A   1      45.315  33.367  30.112  1.00  0.00     0.009 A 
ATOM     76  C   UNL A   1      45.434  33.873  32.854  1.00  0.00     0.001 A 
ATOM     77  C   UNL A   1      45.803  34.589  30.576  1.00  0.00     0.001 A 
ATOM     78  C   UNL A   1      45.855  34.843  31.946  1.00  0.00     0.000 A 
ENDBRANCH  60  73
ENDBRANCH  34  35
ENDBRANCH  26  29
ENDBRANCH  24  25
ENDBRANCH  23  24
ENDBRANCH   1  23
TORSDOF 14
ENDMDL
MODEL 3
REMARK VINA RESULT:     -10.2      2.460      3.647
REMARK SMILES O=C(C[C@@H]1CN(C(=O)NCc2cccs2)CCO1)NCCCNC(=O)c1ccc(-c2c3nc(c(-c4ccccc4)c4ccc([nH]4)c(-c4ccccc4)c4nc(c(-c5ccccc5)c5ccc2[nH]5)C=C4)C=C3)cc1
REMARK SMILES IDX 20 1 19 2 1 3 2 4 3 6 4 7 5 8 18 9 6 10 17 11 16 12 7 13
REMARK SMILES IDX 8 14 9 15 10 17 11 18 12 19 15 20 13 21 14 22 21 23 22 24
REMARK SMILES IDX 23 25 24 26 25 28 26 29 27 30 73 31 28 32 72 33 29 34 30 35
REMARK SMILES IDX 31 36 66 37 32 38 71 39 65 40 67 41 33 42 70 43 64 44 63 45
REMARK SMILES IDX 34 47 56 48 41 49 55 50 42 51 45 52 54 53 68 54 43 55 44 56
REMARK SMILES IDX 53 58 69 59 46 60 35 61 36 62 40 63 37 64 39 65 38 66 57 67
REMARK SMILES IDX 58 68 62 69 59 70 61 71 60 72 47 73 48 74 52 75 49 76 51 77
REMARK SMILES IDX 50 78
REMARK H PARENT 19 5 9 16 23 27 67 46 45 57
REMARK Flexibility Score: inf
ROOT
ATOM      1  C   UNL A   1      36.053  21.334  25.611  1.00  0.00     0.117 C 
ENDROOT
BRANCH   1   2
ATOM      2  N   UNL A   1      34.895  21.456  24.744  1.00  0.00    -0.356 N 
ATOM      3  O   UNL A   1      34.289  19.248  24.941  1.00  0.00    -0.275 OA
ATOM      4  C   UNL A   1      34.052  20.379  24.534  1.00  0.00     0.222 C 
ATOM      5  H   UNL A   1      34.707  22.314  24.301  1.00  0.00     0.163 HD
BRANCH   4   6
ATOM      6  C   UNL A   1      32.747  20.736  23.857  1.00  0.00     0.133 C 
BRANCH   6   7
ATOM      7  C   UNL A   1      32.317  22.194  24.089  1.00  0.00     0.147 C 
ATOM      8  C   UNL A   1      31.042  22.375  24.948  1.00  0.00     0.154 C 
ATOM      9  O   UNL A   1      32.150  22.847  22.812  1.00  0.00    -0.374 OA
ATOM     10  N   UNL A   1      30.726  23.790  25.116  1.00  0.00    -0.320 N 
ATOM     11  C   UNL A   1      31.878  24.250  22.986  1.00  0.00     0.182 C 
ATOM     12  C   UNL A   1      30.607  24.468  23.814  1.00  0.00     0.150 C 
BRANCH  10  13
ATOM     13  C   UNL A   1      30.601  24.539  26.243  1.00  0.00     0.317 C 
ATOM     14  O   UNL A   1      29.634  24.396  27.000  1.00  0.00    -0.249 OA
ATOM     15  N   UNL A   1      31.467  25.481  26.633  1.00  0.00    -0.333 N 
ATOM     16  H   UNL A   1      31.128  25.948  27.431  1.00  0.00     0.165 HD
BRANCH  15  17
ATOM     17  C   UNL A   1      32.750  26.023  26.241  1.00  0.00     0.164 C 
BRANCH  17  18
ATOM     18  C   UNL A   1      32.723  27.514  26.419  1.00  0.00     0.024 A 
ATOM     19  C   UNL A   1      31.958  28.288  27.273  1.00  0.00     0.017 A 
ATOM     20  S   UNL A   1      33.786  28.500  25.495  1.00  0.00    -0.147 S 
ATOM     21  C   UNL A   1      32.224  29.682  27.147  1.00  0.00     0.012 A 
ATOM     22  C   UNL A   1      33.197  29.934  26.210  1.00  0.00     0.065 A 
ENDBRANCH  17  18
ENDBRANCH  15  17
ENDBRANCH  10  13
ENDBRANCH   6   7
ENDBRANCH   4   6
ENDBRANCH   1   2
BRANCH   1  23
ATOM     23  C   UNL A   1      37.311  20.859  24.896  1.00  0.00     0.042 C 
BRANCH  23  24
ATOM     24  C   UNL A   1      38.618  21.085  25.649  1.00  0.00     0.118 C 
BRANCH  24  25
ATOM     25  N   UNL A   1      39.549  19.971  25.567  1.00  0.00    -0.352 N 
ATOM     26  C   UNL A   1      40.863  19.887  25.973  1.00  0.00     0.251 C 
ATOM     27  H   UNL A   1      39.184  19.153  25.158  1.00  0.00     0.163 HD
ATOM     28  O   UNL A   1      41.488  18.852  25.775  1.00  0.00    -0.269 OA
BRANCH  26  29
ATOM     29  C   UNL A   1      41.543  21.059  26.577  1.00  0.00     0.039 A 
ATOM     30  C   UNL A   1      42.163  21.973  25.719  1.00  0.00     0.014 A 
ATOM     31  C   UNL A   1      41.539  21.293  27.954  1.00  0.00     0.014 A 
ATOM     32  C   UNL A   1      42.665  23.176  26.223  1.00  0.00     0.010 A 
ATOM     33  C   UNL A   1      41.988  22.516  28.452  1.00  0.00     0.010 A 
ATOM     34  C   UNL A   1      42.520  23.483  27.584  1.00  0.00    -0.014 A 
BRANCH  34  35
ATOM     35  C   UNL A   1      42.818  24.843  28.099  1.00  0.00     0.031 A 
ATOM     36  C   UNL A   1      44.196  25.212  28.565  1.00  0.00     0.074 A 
ATOM     37  C   UNL A   1      41.806  25.725  28.232  1.00  0.00     0.049 A 
ATOM     38  N   UNL A   1      44.607  26.327  29.116  1.00  0.00    -0.248 NA
ATOM     39  C   UNL A   1      45.243  24.192  28.408  1.00  0.00     0.031 C 
ATOM     40  C   UNL A   1      40.411  25.477  27.857  1.00  0.00     0.029 A 
ATOM     41  N   UNL A   1      41.792  27.003  28.733  1.00  0.00    -0.354 N 
ATOM     42  C   UNL A   1      45.955  26.141  29.383  1.00  0.00     0.074 A 
ATOM     43  C   UNL A   1      46.286  24.794  28.964  1.00  0.00     0.031 C 
ATOM     44  C   UNL A   1      39.681  26.570  28.129  1.00  0.00     0.029 A 
ATOM     45  C   UNL A   1      40.545  27.580  28.729  1.00  0.00     0.049 A 
ATOM     46  H   UNL A   1      42.597  27.460  29.065  1.00  0.00     0.167 HD
ATOM     47  C   UNL A   1      46.840  27.015  29.918  1.00  0.00     0.031 A 
ATOM     48  C   UNL A   1      40.136  28.785  29.169  1.00  0.00     0.031 A 
ATOM     49  C   UNL A   1      46.518  28.355  30.333  1.00  0.00     0.049 A 
ATOM     50  C   UNL A   1      41.134  29.727  29.778  1.00  0.00     0.074 A 
ATOM     51  C   UNL A   1      47.364  29.332  30.828  1.00  0.00     0.029 A 
ATOM     52  N   UNL A   1      45.245  28.903  30.307  1.00  0.00    -0.354 N 
ATOM     53  N   UNL A   1      42.420  29.557  29.962  1.00  0.00    -0.248 NA
ATOM     54  C   UNL A   1      40.623  31.027  30.235  1.00  0.00     0.031 C 
ATOM     55  C   UNL A   1      46.596  30.459  31.142  1.00  0.00     0.029 A 
ATOM     56  C   UNL A   1      45.279  30.196  30.803  1.00  0.00     0.049 A 
ATOM     57  H   UNL A   1      44.438  28.443  29.984  1.00  0.00     0.167 HD
ATOM     58  C   UNL A   1      42.876  30.735  30.539  1.00  0.00     0.074 A 
ATOM     59  C   UNL A   1      41.732  31.614  30.662  1.00  0.00     0.031 C 
ATOM     60  C   UNL A   1      44.133  31.057  30.928  1.00  0.00     0.031 A 
BRANCH  47  61
ATOM     61  C   UNL A   1      48.255  26.541  30.096  1.00  0.00    -0.014 A 
ATOM     62  C   UNL A   1      48.648  25.858  31.258  1.00  0.00     0.009 A 
ATOM     63  C   UNL A   1      49.194  26.744  29.073  1.00  0.00     0.009 A 
ATOM     64  C   UNL A   1      49.964  25.417  31.405  1.00  0.00     0.001 A 
ATOM     65  C   UNL A   1      50.503  26.281  29.215  1.00  0.00     0.001 A 
ATOM     66  C   UNL A   1      50.890  25.625  30.383  1.00  0.00     0.000 A 
ENDBRANCH  47  61
BRANCH  48  67
ATOM     67  C   UNL A   1      38.709  29.172  29.044  1.00  0.00    -0.014 A 
ATOM     68  C   UNL A   1      37.844  29.053  30.142  1.00  0.00     0.009 A 
ATOM     69  C   UNL A   1      38.206  29.667  27.831  1.00  0.00     0.009 A 
ATOM     70  C   UNL A   1      36.498  29.403  30.021  1.00  0.00     0.001 A 
ATOM     71  C   UNL A   1      36.865  30.038  27.720  1.00  0.00     0.001 A 
ATOM     72  C   UNL A   1      36.011  29.899  28.813  1.00  0.00     0.000 A 
ENDBRANCH  48  67
BRANCH  60  73
ATOM     73  C   UNL A   1      44.337  32.426  31.508  1.00  0.00    -0.014 A 
ATOM     74  C   UNL A   1      44.282  32.641  32.893  1.00  0.00     0.009 A 
ATOM     75  C   UNL A   1      44.623  33.507  30.659  1.00  0.00     0.009 A 
ATOM     76  C   UNL A   1      44.484  33.920  33.416  1.00  0.00     0.001 A 
ATOM     77  C   UNL A   1      44.846  34.779  31.187  1.00  0.00     0.001 A 
ATOM     78  C   UNL A   1      44.769  34.985  32.563  1.00  0.00     0.000 A 
ENDBRANCH  60  73
ENDBRANCH  34  35
ENDBRANCH  26  29
ENDBRANCH  24  25
ENDBRANCH  23  24
ENDBRANCH   1  23
TORSDOF 14
ENDMDL
