MODEL 1
REMARK VINA RESULT:     -10.7      0.000      0.000
REMARK SMILES CC1=C(CCC(=O)NCCCNC(=O)c2ccc(-c3c4nc(c(-c5ccccc5)c5ccc([nH]5)c(-c5ccccc5)c5nc(c(-c6ccccc6)c6ccc3[nH]6)C=C5)C=C4)cc2)N=N[C@H]1C
REMARK SMILES IDX 10 1 9 2 8 3 6 4 7 5 5 7 4 8 3 9 1 10 2 11 65 12 63 13 64 14
REMARK SMILES IDX 66 15 11 16 12 17 13 18 14 20 15 21 16 22 62 23 17 24 61 25
REMARK SMILES IDX 18 26 19 27 20 28 55 29 21 30 60 31 54 32 56 33 22 34 59 35
REMARK SMILES IDX 53 36 52 37 23 39 45 40 30 41 44 42 31 43 34 44 43 45 57 46
REMARK SMILES IDX 32 47 33 48 42 50 58 51 35 52 24 53 25 54 29 55 26 56 28 57
REMARK SMILES IDX 27 58 46 59 47 60 51 61 48 62 50 63 49 64 36 65 37 66 41 67
REMARK SMILES IDX 38 68 40 69 39 70
REMARK H PARENT 8 6 12 19 56 38 34 49
REMARK Flexibility Score: inf
ROOT
ATOM      1  C   UNL A   1      34.501  35.409  28.219  1.00  0.00     0.042 C 
ENDROOT
BRANCH   1   2
ATOM      2  C   UNL A   1      33.126  35.785  28.750  1.00  0.00     0.117 C 
BRANCH   2   3
ATOM      3  N   UNL A   1      33.239  36.879  29.706  1.00  0.00    -0.356 N 
ATOM      4  C   UNL A   1      33.009  36.872  31.052  1.00  0.00     0.220 C 
ATOM      5  O   UNL A   1      32.903  37.954  31.630  1.00  0.00    -0.275 OA
ATOM      6  H   UNL A   1      33.520  37.743  29.329  1.00  0.00     0.163 HD
BRANCH   4   7
ATOM      7  C   UNL A   1      32.958  35.566  31.821  1.00  0.00     0.106 C 
BRANCH   7   8
ATOM      8  C   UNL A   1      34.133  35.341  32.781  1.00  0.00     0.068 C 
BRANCH   8   9
ATOM      9  C   UNL A   1      34.715  33.961  32.712  1.00  0.00     0.064 C 
ATOM     10  C   UNL A   1      36.155  33.795  34.833  1.00  0.00     0.044 C 
ATOM     11  C   UNL A   1      35.586  33.368  33.537  1.00  0.00    -0.024 C 
ATOM     12  C   UNL A   1      35.924  32.063  32.900  1.00  0.00     0.153 C 
ATOM     13  N   UNL A   1      34.325  33.116  31.706  1.00  0.00    -0.160 NA
ATOM     14  N   UNL A   1      34.987  32.040  31.745  1.00  0.00    -0.181 NA
ATOM     15  C   UNL A   1      37.367  32.015  32.403  1.00  0.00     0.040 C 
ENDBRANCH   8   9
ENDBRANCH   7   8
ENDBRANCH   4   7
ENDBRANCH   2   3
ENDBRANCH   1   2
BRANCH   1  16
ATOM     16  C   UNL A   1      34.965  34.039  28.620  1.00  0.00     0.118 C 
BRANCH  16  17
ATOM     17  N   UNL A   1      34.083  32.940  28.226  1.00  0.00    -0.352 N 
ATOM     18  C   UNL A   1      34.453  31.647  27.855  1.00  0.00     0.251 C 
ATOM     19  H   UNL A   1      33.118  33.136  28.222  1.00  0.00     0.163 HD
ATOM     20  O   UNL A   1      33.656  30.887  27.345  1.00  0.00    -0.269 OA
BRANCH  18  21
ATOM     21  C   UNL A   1      35.864  31.234  28.078  1.00  0.00     0.039 A 
ATOM     22  C   UNL A   1      36.821  32.074  28.649  1.00  0.00     0.014 A 
ATOM     23  C   UNL A   1      36.189  29.921  27.786  1.00  0.00     0.014 A 
ATOM     24  C   UNL A   1      38.064  31.530  28.985  1.00  0.00     0.010 A 
ATOM     25  C   UNL A   1      37.235  29.332  28.424  1.00  0.00     0.010 A 
ATOM     26  C   UNL A   1      38.251  30.143  28.882  1.00  0.00    -0.014 A 
BRANCH  26  27
ATOM     27  C   UNL A   1      39.473  29.457  29.269  1.00  0.00     0.031 A 
ATOM     28  C   UNL A   1      39.649  29.290  30.724  1.00  0.00     0.074 A 
ATOM     29  C   UNL A   1      40.265  28.804  28.386  1.00  0.00     0.049 A 
ATOM     30  N   UNL A   1      40.450  29.952  31.487  1.00  0.00    -0.248 NA
ATOM     31  C   UNL A   1      38.730  28.395  31.442  1.00  0.00     0.031 C 
ATOM     32  C   UNL A   1      40.049  28.564  26.949  1.00  0.00     0.029 A 
ATOM     33  N   UNL A   1      41.404  28.105  28.628  1.00  0.00    -0.354 N 
ATOM     34  C   UNL A   1      40.304  29.401  32.752  1.00  0.00     0.074 A 
ATOM     35  C   UNL A   1      39.098  28.612  32.707  1.00  0.00     0.031 C 
ATOM     36  C   UNL A   1      40.886  27.597  26.514  1.00  0.00     0.029 A 
ATOM     37  C   UNL A   1      41.824  27.298  27.577  1.00  0.00     0.049 A 
ATOM     38  H   UNL A   1      41.893  28.164  29.480  1.00  0.00     0.167 HD
ATOM     39  C   UNL A   1      41.337  29.414  33.639  1.00  0.00     0.031 A 
ATOM     40  C   UNL A   1      42.874  26.445  27.582  1.00  0.00     0.031 A 
ATOM     41  C   UNL A   1      42.401  30.284  33.190  1.00  0.00     0.049 A 
ATOM     42  C   UNL A   1      43.768  26.868  28.683  1.00  0.00     0.074 A 
ATOM     43  C   UNL A   1      42.504  31.625  32.879  1.00  0.00     0.029 A 
ATOM     44  N   UNL A   1      43.480  29.673  32.592  1.00  0.00    -0.354 N 
ATOM     45  N   UNL A   1      44.430  27.989  28.677  1.00  0.00    -0.248 NA
ATOM     46  C   UNL A   1      43.595  26.252  29.987  1.00  0.00     0.031 C 
ATOM     47  C   UNL A   1      43.367  31.677  31.743  1.00  0.00     0.029 A 
ATOM     48  C   UNL A   1      43.805  30.380  31.464  1.00  0.00     0.049 A 
ATOM     49  H   UNL A   1      43.939  28.865  32.918  1.00  0.00     0.167 HD
ATOM     50  C   UNL A   1      44.355  28.446  29.985  1.00  0.00     0.074 A 
ATOM     51  C   UNL A   1      43.947  27.279  30.766  1.00  0.00     0.031 C 
ATOM     52  C   UNL A   1      44.348  29.784  30.261  1.00  0.00     0.031 A 
BRANCH  39  53
ATOM     53  C   UNL A   1      41.588  28.328  34.658  1.00  0.00    -0.014 A 
ATOM     54  C   UNL A   1      42.181  28.689  35.882  1.00  0.00     0.009 A 
ATOM     55  C   UNL A   1      41.527  26.951  34.372  1.00  0.00     0.009 A 
ATOM     56  C   UNL A   1      42.762  27.733  36.724  1.00  0.00     0.001 A 
ATOM     57  C   UNL A   1      42.068  25.990  35.231  1.00  0.00     0.001 A 
ATOM     58  C   UNL A   1      42.713  26.384  36.392  1.00  0.00     0.000 A 
ENDBRANCH  39  53
BRANCH  40  59
ATOM     59  C   UNL A   1      43.068  25.176  26.853  1.00  0.00    -0.014 A 
ATOM     60  C   UNL A   1      42.131  24.137  26.970  1.00  0.00     0.009 A 
ATOM     61  C   UNL A   1      44.015  25.095  25.817  1.00  0.00     0.009 A 
ATOM     62  C   UNL A   1      42.107  23.083  26.047  1.00  0.00     0.001 A 
ATOM     63  C   UNL A   1      43.992  24.040  24.897  1.00  0.00     0.001 A 
ATOM     64  C   UNL A   1      43.025  23.045  25.001  1.00  0.00     0.000 A 
ENDBRANCH  40  59
BRANCH  52  65
ATOM     65  C   UNL A   1      44.703  30.735  29.140  1.00  0.00    -0.014 A 
ATOM     66  C   UNL A   1      43.799  31.119  28.132  1.00  0.00     0.009 A 
ATOM     67  C   UNL A   1      45.951  31.374  29.185  1.00  0.00     0.009 A 
ATOM     68  C   UNL A   1      44.148  32.088  27.184  1.00  0.00     0.001 A 
ATOM     69  C   UNL A   1      46.291  32.357  28.252  1.00  0.00     0.001 A 
ATOM     70  C   UNL A   1      45.392  32.709  27.248  1.00  0.00     0.000 A 
ENDBRANCH  52  65
ENDBRANCH  26  27
ENDBRANCH  18  21
ENDBRANCH  16  17
ENDBRANCH   1  16
TORSDOF 12
ENDMDL
MODEL 2
REMARK VINA RESULT:     -10.4      4.534      9.515
REMARK SMILES CC1=C(CCC(=O)NCCCNC(=O)c2ccc(-c3c4nc(c(-c5ccccc5)c5ccc([nH]5)c(-c5ccccc5)c5nc(c(-c6ccccc6)c6ccc3[nH]6)C=C5)C=C4)cc2)N=N[C@H]1C
REMARK SMILES IDX 10 1 9 2 8 3 6 4 7 5 5 7 4 8 3 9 1 10 2 11 65 12 63 13 64 14
REMARK SMILES IDX 66 15 11 16 12 17 13 18 14 20 15 21 16 22 62 23 17 24 61 25
REMARK SMILES IDX 18 26 19 27 20 28 55 29 21 30 60 31 54 32 56 33 22 34 59 35
REMARK SMILES IDX 53 36 52 37 23 39 45 40 30 41 44 42 31 43 34 44 43 45 57 46
REMARK SMILES IDX 32 47 33 48 42 50 58 51 35 52 24 53 25 54 29 55 26 56 28 57
REMARK SMILES IDX 27 58 46 59 47 60 51 61 48 62 50 63 49 64 36 65 37 66 41 67
REMARK SMILES IDX 38 68 40 69 39 70
REMARK H PARENT 8 6 12 19 56 38 34 49
REMARK Flexibility Score: inf
ROOT
ATOM      1  C   UNL A   1      37.884  20.034  24.752  1.00  0.00     0.042 C 
ENDROOT
BRANCH   1   2
ATOM      2  C   UNL A   1      36.595  20.752  25.125  1.00  0.00     0.117 C 
BRANCH   2   3
ATOM      3  N   UNL A   1      36.893  21.951  25.897  1.00  0.00    -0.356 N 
ATOM      4  C   UNL A   1      36.808  23.260  25.521  1.00  0.00     0.220 C 
ATOM      5  O   UNL A   1      37.357  24.106  26.228  1.00  0.00    -0.275 OA
ATOM      6  H   UNL A   1      37.198  21.794  26.820  1.00  0.00     0.163 HD
BRANCH   4   7
ATOM      7  C   UNL A   1      35.999  23.663  24.303  1.00  0.00     0.106 C 
BRANCH   7   8
ATOM      8  C   UNL A   1      34.646  24.312  24.619  1.00  0.00     0.068 C 
BRANCH   8   9
ATOM      9  C   UNL A   1      34.063  25.085  23.473  1.00  0.00     0.064 C 
ATOM     10  C   UNL A   1      33.584  27.400  24.475  1.00  0.00     0.044 C 
ATOM     11  C   UNL A   1      33.584  26.334  23.452  1.00  0.00    -0.024 C 
ATOM     12  C   UNL A   1      33.001  26.521  22.093  1.00  0.00     0.153 C 
ATOM     13  N   UNL A   1      34.008  24.507  22.231  1.00  0.00    -0.160 NA
ATOM     14  N   UNL A   1      33.400  25.258  21.417  1.00  0.00    -0.181 NA
ATOM     15  C   UNL A   1      31.478  26.638  22.124  1.00  0.00     0.040 C 
ENDBRANCH   8   9
ENDBRANCH   7   8
ENDBRANCH   4   7
ENDBRANCH   2   3
ENDBRANCH   1   2
BRANCH   1  16
ATOM     16  C   UNL A   1      39.006  20.234  25.728  1.00  0.00     0.118 C 
BRANCH  16  17
ATOM     17  N   UNL A   1      40.038  19.198  25.714  1.00  0.00    -0.352 N 
ATOM     18  C   UNL A   1      41.403  19.357  25.956  1.00  0.00     0.251 C 
ATOM     19  H   UNL A   1      39.735  18.283  25.511  1.00  0.00     0.163 HD
ATOM     20  O   UNL A   1      42.193  18.469  25.710  1.00  0.00    -0.269 OA
BRANCH  18  21
ATOM     21  C   UNL A   1      41.868  20.659  26.501  1.00  0.00     0.039 A 
ATOM     22  C   UNL A   1      42.303  21.711  25.694  1.00  0.00     0.014 A 
ATOM     23  C   UNL A   1      41.761  20.843  27.869  1.00  0.00     0.014 A 
ATOM     24  C   UNL A   1      42.541  22.952  26.291  1.00  0.00     0.010 A 
ATOM     25  C   UNL A   1      41.649  22.102  28.369  1.00  0.00     0.010 A 
ATOM     26  C   UNL A   1      42.190  23.138  27.637  1.00  0.00    -0.014 A 
BRANCH  26  27
ATOM     27  C   UNL A   1      42.324  24.401  28.345  1.00  0.00     0.031 A 
ATOM     28  C   UNL A   1      41.220  25.352  28.116  1.00  0.00     0.074 A 
ATOM     29  C   UNL A   1      43.240  24.608  29.319  1.00  0.00     0.049 A 
ATOM     30  N   UNL A   1      41.250  26.410  27.381  1.00  0.00    -0.248 NA
ATOM     31  C   UNL A   1      39.888  25.017  28.641  1.00  0.00     0.031 C 
ATOM     32  C   UNL A   1      44.183  23.651  29.923  1.00  0.00     0.029 A 
ATOM     33  N   UNL A   1      43.441  25.723  30.069  1.00  0.00    -0.354 N 
ATOM     34  C   UNL A   1      40.005  27.005  27.529  1.00  0.00     0.074 A 
ATOM     35  C   UNL A   1      39.154  26.007  28.129  1.00  0.00     0.031 C 
ATOM     36  C   UNL A   1      44.673  24.155  31.077  1.00  0.00     0.029 A 
ATOM     37  C   UNL A   1      44.243  25.533  31.187  1.00  0.00     0.049 A 
ATOM     38  H   UNL A   1      43.048  26.595  29.838  1.00  0.00     0.167 HD
ATOM     39  C   UNL A   1      39.861  28.354  27.405  1.00  0.00     0.031 A 
ATOM     40  C   UNL A   1      44.535  26.451  32.138  1.00  0.00     0.031 A 
ATOM     41  C   UNL A   1      41.050  28.958  26.849  1.00  0.00     0.049 A 
ATOM     42  C   UNL A   1      44.274  27.782  31.546  1.00  0.00     0.074 A 
ATOM     43  C   UNL A   1      41.764  28.815  25.675  1.00  0.00     0.029 A 
ATOM     44  N   UNL A   1      41.907  29.559  27.742  1.00  0.00    -0.354 N 
ATOM     45  N   UNL A   1      44.978  28.283  30.572  1.00  0.00    -0.248 NA
ATOM     46  C   UNL A   1      42.964  28.379  31.741  1.00  0.00     0.031 C 
ATOM     47  C   UNL A   1      43.135  28.911  26.062  1.00  0.00     0.029 A 
ATOM     48  C   UNL A   1      43.187  29.182  27.431  1.00  0.00     0.049 A 
ATOM     49  H   UNL A   1      41.646  30.157  28.479  1.00  0.00     0.167 HD
ATOM     50  C   UNL A   1      44.048  28.916  29.759  1.00  0.00     0.074 A 
ATOM     51  C   UNL A   1      42.855  29.055  30.593  1.00  0.00     0.031 C 
ATOM     52  C   UNL A   1      44.241  29.003  28.409  1.00  0.00     0.031 A 
BRANCH  39  53
ATOM     53  C   UNL A   1      38.856  29.169  28.184  1.00  0.00    -0.014 A 
ATOM     54  C   UNL A   1      38.848  29.051  29.587  1.00  0.00     0.009 A 
ATOM     55  C   UNL A   1      37.755  29.825  27.603  1.00  0.00     0.009 A 
ATOM     56  C   UNL A   1      37.756  29.480  30.351  1.00  0.00     0.001 A 
ATOM     57  C   UNL A   1      36.682  30.294  28.367  1.00  0.00     0.001 A 
ATOM     58  C   UNL A   1      36.669  30.093  29.738  1.00  0.00     0.000 A 
ENDBRANCH  39  53
BRANCH  40  59
ATOM     59  C   UNL A   1      44.821  26.270  33.574  1.00  0.00    -0.014 A 
ATOM     60  C   UNL A   1      44.611  25.026  34.191  1.00  0.00     0.009 A 
ATOM     61  C   UNL A   1      45.573  27.232  34.272  1.00  0.00     0.009 A 
ATOM     62  C   UNL A   1      45.184  24.736  35.436  1.00  0.00     0.001 A 
ATOM     63  C   UNL A   1      46.144  26.941  35.517  1.00  0.00     0.001 A 
ATOM     64  C   UNL A   1      45.965  25.685  36.089  1.00  0.00     0.000 A 
ENDBRANCH  40  59
BRANCH  52  65
ATOM     65  C   UNL A   1      45.607  28.644  27.869  1.00  0.00    -0.014 A 
ATOM     66  C   UNL A   1      45.991  27.330  27.541  1.00  0.00     0.009 A 
ATOM     67  C   UNL A   1      46.486  29.688  27.548  1.00  0.00     0.009 A 
ATOM     68  C   UNL A   1      47.229  27.072  26.941  1.00  0.00     0.001 A 
ATOM     69  C   UNL A   1      47.712  29.432  26.928  1.00  0.00     0.001 A 
ATOM     70  C   UNL A   1      48.086  28.124  26.631  1.00  0.00     0.000 A 
ENDBRANCH  52  65
ENDBRANCH  26  27
ENDBRANCH  18  21
ENDBRANCH  16  17
ENDBRANCH   1  16
TORSDOF 12
ENDMDL
MODEL 3
REMARK VINA RESULT:     -10.4      4.770     10.633
REMARK SMILES CC1=C(CCC(=O)NCCCNC(=O)c2ccc(-c3c4nc(c(-c5ccccc5)c5ccc([nH]5)c(-c5ccccc5)c5nc(c(-c6ccccc6)c6ccc3[nH]6)C=C5)C=C4)cc2)N=N[C@H]1C
REMARK SMILES IDX 10 1 9 2 8 3 6 4 7 5 5 7 4 8 3 9 1 10 2 11 65 12 63 13 64 14
REMARK SMILES IDX 66 15 11 16 12 17 13 18 14 20 15 21 16 22 62 23 17 24 61 25
REMARK SMILES IDX 18 26 19 27 20 28 55 29 21 30 60 31 54 32 56 33 22 34 59 35
REMARK SMILES IDX 53 36 52 37 23 39 45 40 30 41 44 42 31 43 34 44 43 45 57 46
REMARK SMILES IDX 32 47 33 48 42 50 58 51 35 52 24 53 25 54 29 55 26 56 28 57
REMARK SMILES IDX 27 58 46 59 47 60 51 61 48 62 50 63 49 64 36 65 37 66 41 67
REMARK SMILES IDX 38 68 40 69 39 70
REMARK H PARENT 8 6 12 19 56 38 34 49
REMARK Flexibility Score: inf
ROOT
ATOM      1  C   UNL A   1      41.808  19.978  25.785  1.00  0.00     0.042 C 
ENDROOT
BRANCH   1   2
ATOM      2  C   UNL A   1      40.704  20.037  26.831  1.00  0.00     0.117 C 
BRANCH   2   3
ATOM      3  N   UNL A   1      40.099  21.362  26.850  1.00  0.00    -0.356 N 
ATOM      4  C   UNL A   1      39.075  21.851  26.092  1.00  0.00     0.220 C 
ATOM      5  O   UNL A   1      38.892  23.069  26.076  1.00  0.00    -0.275 OA
ATOM      6  H   UNL A   1      40.483  21.993  27.501  1.00  0.00     0.163 HD
BRANCH   4   7
ATOM      7  C   UNL A   1      38.146  20.910  25.349  1.00  0.00     0.106 C 
BRANCH   7   8
ATOM      8  C   UNL A   1      37.140  21.604  24.421  1.00  0.00     0.068 C 
BRANCH   8   9
ATOM      9  C   UNL A   1      35.754  21.691  24.988  1.00  0.00     0.064 C 
ATOM     10  C   UNL A   1      35.481  24.180  25.560  1.00  0.00     0.044 C 
ATOM     11  C   UNL A   1      35.115  22.749  25.500  1.00  0.00    -0.024 C 
ATOM     12  C   UNL A   1      33.832  22.222  26.046  1.00  0.00     0.153 C 
ATOM     13  N   UNL A   1      34.957  20.576  24.990  1.00  0.00    -0.160 NA
ATOM     14  N   UNL A   1      33.870  20.806  25.592  1.00  0.00    -0.181 NA
ATOM     15  C   UNL A   1      33.782  22.281  27.572  1.00  0.00     0.040 C 
ENDBRANCH   8   9
ENDBRANCH   7   8
ENDBRANCH   4   7
ENDBRANCH   2   3
ENDBRANCH   1   2
BRANCH   1  16
ATOM     16  C   UNL A   1      43.048  19.264  26.236  1.00  0.00     0.118 C 
BRANCH  16  17
ATOM     17  N   UNL A   1      44.060  19.054  25.201  1.00  0.00    -0.352 N 
ATOM     18  C   UNL A   1      44.748  20.027  24.477  1.00  0.00     0.251 C 
ATOM     19  H   UNL A   1      44.280  18.117  24.991  1.00  0.00     0.163 HD
ATOM     20  O   UNL A   1      45.405  19.737  23.500  1.00  0.00    -0.269 OA
BRANCH  18  21
ATOM     21  C   UNL A   1      44.631  21.440  24.923  1.00  0.00     0.039 A 
ATOM     22  C   UNL A   1      43.811  22.374  24.287  1.00  0.00     0.014 A 
ATOM     23  C   UNL A   1      45.301  21.793  26.082  1.00  0.00     0.014 A 
ATOM     24  C   UNL A   1      43.630  23.620  24.894  1.00  0.00     0.010 A 
ATOM     25  C   UNL A   1      44.850  22.837  26.825  1.00  0.00     0.010 A 
ATOM     26  C   UNL A   1      44.146  23.832  26.182  1.00  0.00    -0.014 A 
BRANCH  26  27
ATOM     27  C   UNL A   1      43.960  25.059  26.940  1.00  0.00     0.031 A 
ATOM     28  C   UNL A   1      44.954  26.111  26.657  1.00  0.00     0.074 A 
ATOM     29  C   UNL A   1      42.843  25.322  27.658  1.00  0.00     0.049 A 
ATOM     30  N   UNL A   1      45.940  26.466  27.406  1.00  0.00    -0.248 NA
ATOM     31  C   UNL A   1      44.945  26.743  25.328  1.00  0.00     0.031 C 
ATOM     32  C   UNL A   1      41.601  24.536  27.758  1.00  0.00     0.029 A 
ATOM     33  N   UNL A   1      42.540  26.435  28.375  1.00  0.00    -0.354 N 
ATOM     34  C   UNL A   1      46.549  27.526  26.750  1.00  0.00     0.074 A 
ATOM     35  C   UNL A   1      46.037  27.507  25.401  1.00  0.00     0.031 C 
ATOM     36  C   UNL A   1      40.618  25.298  28.289  1.00  0.00     0.029 A 
ATOM     37  C   UNL A   1      41.206  26.539  28.748  1.00  0.00     0.049 A 
ATOM     38  H   UNL A   1      43.213  27.113  28.610  1.00  0.00     0.167 HD
ATOM     39  C   UNL A   1      47.203  28.494  27.450  1.00  0.00     0.031 A 
ATOM     40  C   UNL A   1      40.626  27.577  29.394  1.00  0.00     0.031 A 
ATOM     41  C   UNL A   1      47.394  28.103  28.828  1.00  0.00     0.049 A 
ATOM     42  C   UNL A   1      41.713  28.334  30.055  1.00  0.00     0.074 A 
ATOM     43  C   UNL A   1      48.026  27.056  29.470  1.00  0.00     0.029 A 
ATOM     44  N   UNL A   1      46.513  28.632  29.743  1.00  0.00    -0.354 N 
ATOM     45  N   UNL A   1      42.416  27.862  31.043  1.00  0.00    -0.248 NA
ATOM     46  C   UNL A   1      42.310  29.450  29.341  1.00  0.00     0.031 C 
ATOM     47  C   UNL A   1      47.171  26.723  30.564  1.00  0.00     0.029 A 
ATOM     48  C   UNL A   1      46.105  27.626  30.579  1.00  0.00     0.049 A 
ATOM     49  H   UNL A   1      46.224  29.572  29.789  1.00  0.00     0.167 HD
ATOM     50  C   UNL A   1      43.710  28.296  30.790  1.00  0.00     0.074 A 
ATOM     51  C   UNL A   1      43.558  29.371  29.810  1.00  0.00     0.031 C 
ATOM     52  C   UNL A   1      44.788  27.551  31.177  1.00  0.00     0.031 A 
BRANCH  39  53
ATOM     53  C   UNL A   1      47.265  29.943  27.029  1.00  0.00    -0.014 A 
ATOM     54  C   UNL A   1      48.452  30.658  27.280  1.00  0.00     0.009 A 
ATOM     55  C   UNL A   1      46.142  30.704  26.655  1.00  0.00     0.009 A 
ATOM     56  C   UNL A   1      48.483  32.057  27.250  1.00  0.00     0.001 A 
ATOM     57  C   UNL A   1      46.180  32.099  26.583  1.00  0.00     0.001 A 
ATOM     58  C   UNL A   1      47.343  32.777  26.911  1.00  0.00     0.000 A 
ENDBRANCH  39  53
BRANCH  40  59
ATOM     59  C   UNL A   1      39.243  28.088  29.318  1.00  0.00    -0.014 A 
ATOM     60  C   UNL A   1      38.492  28.286  30.488  1.00  0.00     0.009 A 
ATOM     61  C   UNL A   1      38.765  28.656  28.125  1.00  0.00     0.009 A 
ATOM     62  C   UNL A   1      37.333  29.074  30.473  1.00  0.00     0.001 A 
ATOM     63  C   UNL A   1      37.607  29.442  28.111  1.00  0.00     0.001 A 
ATOM     64  C   UNL A   1      36.902  29.667  29.289  1.00  0.00     0.000 A 
ENDBRANCH  40  59
BRANCH  52  65
ATOM     65  C   UNL A   1      44.542  26.398  32.124  1.00  0.00    -0.014 A 
ATOM     66  C   UNL A   1      44.524  25.051  31.716  1.00  0.00     0.009 A 
ATOM     67  C   UNL A   1      44.468  26.673  33.497  1.00  0.00     0.009 A 
ATOM     68  C   UNL A   1      44.402  24.018  32.654  1.00  0.00     0.001 A 
ATOM     69  C   UNL A   1      44.369  25.641  34.434  1.00  0.00     0.001 A 
ATOM     70  C   UNL A   1      44.330  24.315  34.012  1.00  0.00     0.000 A 
ENDBRANCH  52  65
ENDBRANCH  26  27
ENDBRANCH  18  21
ENDBRANCH  16  17
ENDBRANCH   1  16
TORSDOF 12
ENDMDL
