MODEL 1
REMARK VINA RESULT:     -10.0      0.000      0.000
REMARK SMILES CN(C)c1ccc(C(=O)NCCCC(=O)NCCCNC(=O)c2ccc(-c3c4nc(c(-c5ccccc5)c5ccc([nH]5)c(-c5ccccc5)c5nc(c(-c6ccccc6)c6ccc3[nH]6)C=C5)C=C4)cc2)cn1
REMARK SMILES IDX 14 1 15 2 16 3 13 5 12 6 11 7 10 8 8 9 9 10 7 12 4 13 5 14
REMARK SMILES IDX 72 15 6 16 71 17 2 18 1 19 3 20 17 21 18 22 19 23 20 24
REMARK SMILES IDX 21 25 22 27 23 28 24 29 70 30 25 31 69 32 26 33 27 34 28 35
REMARK SMILES IDX 63 36 29 37 68 38 62 39 64 40 30 41 67 42 61 43 60 44 31 46
REMARK SMILES IDX 53 47 38 48 52 49 39 50 42 51 51 52 65 53 40 54 41 55 50 57
REMARK SMILES IDX 66 58 43 59 32 60 33 61 37 62 34 63 36 64 35 65 54 66 55 67
REMARK SMILES IDX 59 68 56 69 58 70 57 71 44 72 45 73 49 74 46 75 48 76 47 77
REMARK H PARENT 16 4 10 11 20 26 64 45 42 56
REMARK Flexibility Score: inf
ROOT
ATOM      1  C   UNL A   1      37.182  23.248  25.421  1.00  0.00     0.220 C 
ATOM      2  O   UNL A   1      37.841  24.131  25.972  1.00  0.00    -0.275 OA
ATOM      3  N   UNL A   1      37.753  22.024  25.264  1.00  0.00    -0.356 N 
ATOM      4  H   UNL A   1      38.625  21.915  25.708  1.00  0.00     0.163 HD
ENDROOT
BRANCH   1   5
ATOM      5  C   UNL A   1      35.775  23.519  24.936  1.00  0.00     0.102 C 
BRANCH   5   6
ATOM      6  C   UNL A   1      35.128  24.739  25.595  1.00  0.00     0.031 C 
BRANCH   6   7
ATOM      7  C   UNL A   1      33.703  25.052  25.141  1.00  0.00     0.116 C 
BRANCH   7   8
ATOM      8  N   UNL A   1      32.708  24.763  26.159  1.00  0.00    -0.352 N 
ATOM      9  C   UNL A   1      32.168  23.577  26.584  1.00  0.00     0.252 C 
ATOM     10  O   UNL A   1      31.307  23.614  27.462  1.00  0.00    -0.269 OA
ATOM     11  H   UNL A   1      32.360  25.558  26.624  1.00  0.00     0.163 HD
BRANCH   9  12
ATOM     12  C   UNL A   1      32.541  22.277  25.997  1.00  0.00     0.058 A 
ATOM     13  C   UNL A   1      33.101  19.895  24.655  1.00  0.00     0.127 A 
ATOM     14  C   UNL A   1      33.685  20.163  25.894  1.00  0.00     0.048 A 
ATOM     15  N   UNL A   1      32.235  20.780  24.115  1.00  0.00    -0.239 NA
ATOM     16  C   UNL A   1      33.408  21.357  26.569  1.00  0.00     0.019 A 
ATOM     17  C   UNL A   1      31.954  21.922  24.793  1.00  0.00     0.127 A 
BRANCH  13  18
ATOM     18  N   UNL A   1      33.402  18.749  23.942  1.00  0.00    -0.363 N 
ATOM     19  C   UNL A   1      34.454  17.849  24.370  1.00  0.00     0.144 C 
ATOM     20  C   UNL A   1      32.426  18.299  22.965  1.00  0.00     0.144 C 
ENDBRANCH  13  18
ENDBRANCH   9  12
ENDBRANCH   7   8
ENDBRANCH   6   7
ENDBRANCH   5   6
ENDBRANCH   1   5
BRANCH   3  21
ATOM     21  C   UNL A   1      37.285  20.846  24.550  1.00  0.00     0.117 C 
BRANCH  21  22
ATOM     22  C   UNL A   1      38.141  19.626  24.882  1.00  0.00     0.042 C 
BRANCH  22  23
ATOM     23  C   UNL A   1      39.097  19.843  26.048  1.00  0.00     0.118 C 
BRANCH  23  24
ATOM     24  N   UNL A   1      40.355  19.141  25.864  1.00  0.00    -0.352 N 
ATOM     25  C   UNL A   1      41.642  19.603  25.947  1.00  0.00     0.251 C 
ATOM     26  H   UNL A   1      40.270  18.185  25.644  1.00  0.00     0.163 HD
ATOM     27  O   UNL A   1      42.565  18.880  25.562  1.00  0.00    -0.269 OA
BRANCH  25  28
ATOM     28  C   UNL A   1      41.950  20.949  26.480  1.00  0.00     0.039 A 
ATOM     29  C   UNL A   1      41.868  21.156  27.861  1.00  0.00     0.014 A 
ATOM     30  C   UNL A   1      42.254  22.025  25.639  1.00  0.00     0.014 A 
ATOM     31  C   UNL A   1      42.117  22.422  28.397  1.00  0.00     0.010 A 
ATOM     32  C   UNL A   1      42.580  23.268  26.181  1.00  0.00     0.010 A 
ATOM     33  C   UNL A   1      42.495  23.486  27.564  1.00  0.00    -0.014 A 
BRANCH  33  34
ATOM     34  C   UNL A   1      42.766  24.835  28.124  1.00  0.00     0.031 A 
ATOM     35  C   UNL A   1      44.163  25.220  28.536  1.00  0.00     0.074 A 
ATOM     36  C   UNL A   1      41.753  25.706  28.297  1.00  0.00     0.049 A 
ATOM     37  N   UNL A   1      44.591  26.341  29.062  1.00  0.00    -0.248 NA
ATOM     38  C   UNL A   1      45.213  24.204  28.359  1.00  0.00     0.031 C 
ATOM     39  C   UNL A   1      40.348  25.447  27.974  1.00  0.00     0.029 A 
ATOM     40  N   UNL A   1      41.751  26.988  28.787  1.00  0.00    -0.354 N 
ATOM     41  C   UNL A   1      45.948  26.157  29.295  1.00  0.00     0.074 A 
ATOM     42  C   UNL A   1      46.264  24.801  28.901  1.00  0.00     0.031 C 
ATOM     43  C   UNL A   1      39.627  26.548  28.245  1.00  0.00     0.029 A 
ATOM     44  C   UNL A   1      40.509  27.574  28.790  1.00  0.00     0.049 A 
ATOM     45  H   UNL A   1      42.564  27.443  29.105  1.00  0.00     0.167 HD
ATOM     46  C   UNL A   1      46.857  27.039  29.775  1.00  0.00     0.031 A 
ATOM     47  C   UNL A   1      40.123  28.802  29.185  1.00  0.00     0.031 A 
ATOM     48  C   UNL A   1      46.552  28.394  30.149  1.00  0.00     0.049 A 
ATOM     49  C   UNL A   1      41.151  29.768  29.703  1.00  0.00     0.074 A 
ATOM     50  C   UNL A   1      47.415  29.384  30.588  1.00  0.00     0.029 A 
ATOM     51  N   UNL A   1      45.283  28.951  30.125  1.00  0.00    -0.354 N 
ATOM     52  N   UNL A   1      42.443  29.598  29.855  1.00  0.00    -0.248 NA
ATOM     53  C   UNL A   1      40.669  31.101  30.090  1.00  0.00     0.031 C 
ATOM     54  C   UNL A   1      46.660  30.526  30.874  1.00  0.00     0.029 A 
ATOM     55  C   UNL A   1      45.336  30.264  30.563  1.00  0.00     0.049 A 
ATOM     56  H   UNL A   1      44.465  28.484  29.840  1.00  0.00     0.167 HD
ATOM     57  C   UNL A   1      42.930  30.809  30.330  1.00  0.00     0.074 A 
ATOM     58  C   UNL A   1      41.800  31.709  30.424  1.00  0.00     0.031 C 
ATOM     59  C   UNL A   1      44.202  31.146  30.657  1.00  0.00     0.031 A 
BRANCH  46  60
ATOM     60  C   UNL A   1      48.274  26.558  29.930  1.00  0.00    -0.014 A 
ATOM     61  C   UNL A   1      48.699  25.906  31.098  1.00  0.00     0.009 A 
ATOM     62  C   UNL A   1      49.189  26.732  28.879  1.00  0.00     0.009 A 
ATOM     63  C   UNL A   1      50.022  25.476  31.228  1.00  0.00     0.001 A 
ATOM     64  C   UNL A   1      50.502  26.275  29.000  1.00  0.00     0.001 A 
ATOM     65  C   UNL A   1      50.920  25.656  30.178  1.00  0.00     0.000 A 
ENDBRANCH  46  60
BRANCH  47  66
ATOM     66  C   UNL A   1      38.695  29.197  29.083  1.00  0.00    -0.014 A 
ATOM     67  C   UNL A   1      38.169  29.656  27.865  1.00  0.00     0.009 A 
ATOM     68  C   UNL A   1      37.850  29.119  30.200  1.00  0.00     0.009 A 
ATOM     69  C   UNL A   1      36.833  30.051  27.775  1.00  0.00     0.001 A 
ATOM     70  C   UNL A   1      36.507  29.489  30.101  1.00  0.00     0.001 A 
ATOM     71  C   UNL A   1      36.002  29.963  28.892  1.00  0.00     0.000 A 
ENDBRANCH  47  66
BRANCH  59  72
ATOM     72  C   UNL A   1      44.440  32.554  31.121  1.00  0.00    -0.014 A 
ATOM     73  C   UNL A   1      44.381  32.893  32.482  1.00  0.00     0.009 A 
ATOM     74  C   UNL A   1      44.759  33.550  30.184  1.00  0.00     0.009 A 
ATOM     75  C   UNL A   1      44.603  34.209  32.891  1.00  0.00     0.001 A 
ATOM     76  C   UNL A   1      45.008  34.859  30.599  1.00  0.00     0.001 A 
ATOM     77  C   UNL A   1      44.919  35.190  31.950  1.00  0.00     0.000 A 
ENDBRANCH  59  72
ENDBRANCH  33  34
ENDBRANCH  25  28
ENDBRANCH  23  24
ENDBRANCH  22  23
ENDBRANCH  21  22
ENDBRANCH   3  21
TORSDOF 15
ENDMDL
MODEL 2
REMARK VINA RESULT:     -10.0      0.998      6.166
REMARK SMILES CN(C)c1ccc(C(=O)NCCCC(=O)NCCCNC(=O)c2ccc(-c3c4nc(c(-c5ccccc5)c5ccc([nH]5)c(-c5ccccc5)c5nc(c(-c6ccccc6)c6ccc3[nH]6)C=C5)C=C4)cc2)cn1
REMARK SMILES IDX 14 1 15 2 16 3 13 5 12 6 11 7 10 8 8 9 9 10 7 12 4 13 5 14
REMARK SMILES IDX 72 15 6 16 71 17 2 18 1 19 3 20 17 21 18 22 19 23 20 24
REMARK SMILES IDX 21 25 22 27 23 28 24 29 70 30 25 31 69 32 26 33 27 34 28 35
REMARK SMILES IDX 63 36 29 37 68 38 62 39 64 40 30 41 67 42 61 43 60 44 31 46
REMARK SMILES IDX 53 47 38 48 52 49 39 50 42 51 51 52 65 53 40 54 41 55 50 57
REMARK SMILES IDX 66 58 43 59 32 60 33 61 37 62 34 63 36 64 35 65 54 66 55 67
REMARK SMILES IDX 59 68 56 69 58 70 57 71 44 72 45 73 49 74 46 75 48 76 47 77
REMARK H PARENT 16 4 10 11 20 26 64 45 42 56
REMARK Flexibility Score: inf
ROOT
ATOM      1  C   UNL A   1      37.381  23.270  25.727  1.00  0.00     0.220 C 
ATOM      2  O   UNL A   1      38.097  24.227  26.022  1.00  0.00    -0.275 OA
ATOM      3  N   UNL A   1      37.950  22.215  25.086  1.00  0.00    -0.356 N 
ATOM      4  H   UNL A   1      38.931  22.263  25.004  1.00  0.00     0.163 HD
ENDROOT
BRANCH   1   5
ATOM      5  C   UNL A   1      35.908  23.268  26.072  1.00  0.00     0.102 C 
BRANCH   5   6
ATOM      6  C   UNL A   1      35.091  24.277  25.261  1.00  0.00     0.031 C 
BRANCH   6   7
ATOM      7  C   UNL A   1      34.682  23.816  23.863  1.00  0.00     0.116 C 
BRANCH   7   8
ATOM      8  N   UNL A   1      33.256  23.949  23.616  1.00  0.00    -0.352 N 
ATOM      9  C   UNL A   1      32.248  23.021  23.621  1.00  0.00     0.252 C 
ATOM     10  O   UNL A   1      31.109  23.400  23.350  1.00  0.00    -0.269 OA
ATOM     11  H   UNL A   1      32.964  24.866  23.408  1.00  0.00     0.163 HD
BRANCH   9  12
ATOM     12  C   UNL A   1      32.485  21.590  23.888  1.00  0.00     0.058 A 
ATOM     13  C   UNL A   1      32.865  18.835  24.120  1.00  0.00     0.127 A 
ATOM     14  C   UNL A   1      33.170  19.683  25.186  1.00  0.00     0.048 A 
ATOM     15  N   UNL A   1      32.353  19.346  22.979  1.00  0.00    -0.239 NA
ATOM     16  C   UNL A   1      32.982  21.065  25.073  1.00  0.00     0.019 A 
ATOM     17  C   UNL A   1      32.150  20.686  22.893  1.00  0.00     0.127 A 
BRANCH  13  18
ATOM     18  N   UNL A   1      33.094  17.473  24.187  1.00  0.00    -0.363 N 
ATOM     19  C   UNL A   1      34.009  16.817  23.275  1.00  0.00     0.144 C 
ATOM     20  C   UNL A   1      32.666  16.785  25.392  1.00  0.00     0.144 C 
ENDBRANCH  13  18
ENDBRANCH   9  12
ENDBRANCH   7   8
ENDBRANCH   6   7
ENDBRANCH   5   6
ENDBRANCH   1   5
BRANCH   3  21
ATOM     21  C   UNL A   1      37.350  21.025  24.503  1.00  0.00     0.117 C 
BRANCH  21  22
ATOM     22  C   UNL A   1      38.213  19.792  24.759  1.00  0.00     0.042 C 
BRANCH  22  23
ATOM     23  C   UNL A   1      39.114  19.914  25.982  1.00  0.00     0.118 C 
BRANCH  23  24
ATOM     24  N   UNL A   1      40.347  19.162  25.832  1.00  0.00    -0.352 N 
ATOM     25  C   UNL A   1      41.649  19.572  25.951  1.00  0.00     0.251 C 
ATOM     26  H   UNL A   1      40.230  18.210  25.609  1.00  0.00     0.163 HD
ATOM     27  O   UNL A   1      42.553  18.813  25.591  1.00  0.00    -0.269 OA
BRANCH  25  28
ATOM     28  C   UNL A   1      41.996  20.905  26.494  1.00  0.00     0.039 A 
ATOM     29  C   UNL A   1      42.341  21.922  25.598  1.00  0.00     0.014 A 
ATOM     30  C   UNL A   1      42.049  21.151  27.870  1.00  0.00     0.014 A 
ATOM     31  C   UNL A   1      42.708  23.183  26.075  1.00  0.00     0.010 A 
ATOM     32  C   UNL A   1      42.338  22.431  28.343  1.00  0.00     0.010 A 
ATOM     33  C   UNL A   1      42.692  23.455  27.452  1.00  0.00    -0.014 A 
BRANCH  33  34
ATOM     34  C   UNL A   1      43.076  24.794  27.970  1.00  0.00     0.031 A 
ATOM     35  C   UNL A   1      42.023  25.838  28.232  1.00  0.00     0.074 A 
ATOM     36  C   UNL A   1      44.375  25.086  28.174  1.00  0.00     0.049 A 
ATOM     37  N   UNL A   1      42.166  27.066  28.663  1.00  0.00    -0.248 NA
ATOM     38  C   UNL A   1      40.628  25.464  27.946  1.00  0.00     0.031 C 
ATOM     39  C   UNL A   1      45.498  24.179  27.927  1.00  0.00     0.029 A 
ATOM     40  N   UNL A   1      44.969  26.233  28.639  1.00  0.00    -0.354 N 
ATOM     41  C   UNL A   1      40.888  27.614  28.682  1.00  0.00     0.074 A 
ATOM     42  C   UNL A   1      39.989  26.602  28.171  1.00  0.00     0.031 C 
ATOM     43  C   UNL A   1      46.641  24.794  28.272  1.00  0.00     0.029 A 
ATOM     44  C   UNL A   1      46.336  26.144  28.732  1.00  0.00     0.049 A 
ATOM     45  H   UNL A   1      44.463  27.041  28.882  1.00  0.00     0.167 HD
ATOM     46  C   UNL A   1      40.493  28.839  29.102  1.00  0.00     0.031 A 
ATOM     47  C   UNL A   1      47.245  27.049  29.145  1.00  0.00     0.031 A 
ATOM     48  C   UNL A   1      41.380  29.840  29.630  1.00  0.00     0.049 A 
ATOM     49  C   UNL A   1      46.781  28.398  29.619  1.00  0.00     0.074 A 
ATOM     50  C   UNL A   1      41.067  31.089  30.140  1.00  0.00     0.029 A 
ATOM     51  N   UNL A   1      42.756  29.705  29.719  1.00  0.00    -0.354 N 
ATOM     52  N   UNL A   1      45.561  28.874  29.690  1.00  0.00    -0.248 NA
ATOM     53  C   UNL A   1      47.820  29.327  30.084  1.00  0.00     0.031 C 
ATOM     54  C   UNL A   1      42.260  31.727  30.494  1.00  0.00     0.029 A 
ATOM     55  C   UNL A   1      43.310  30.856  30.255  1.00  0.00     0.049 A 
ATOM     56  H   UNL A   1      43.266  28.909  29.443  1.00  0.00     0.167 HD
ATOM     57  C   UNL A   1      45.684  30.147  30.231  1.00  0.00     0.074 A 
ATOM     58  C   UNL A   1      47.093  30.362  30.485  1.00  0.00     0.031 C 
ATOM     59  C   UNL A   1      44.715  31.057  30.495  1.00  0.00     0.031 A 
BRANCH  46  60
ATOM     60  C   UNL A   1      39.028  29.166  29.000  1.00  0.00    -0.014 A 
ATOM     61  C   UNL A   1      38.157  28.961  30.083  1.00  0.00     0.009 A 
ATOM     62  C   UNL A   1      38.516  29.716  27.814  1.00  0.00     0.009 A 
ATOM     63  C   UNL A   1      36.798  29.260  29.965  1.00  0.00     0.001 A 
ATOM     64  C   UNL A   1      37.163  30.043  27.709  1.00  0.00     0.001 A 
ATOM     65  C   UNL A   1      36.304  29.805  28.781  1.00  0.00     0.000 A 
ENDBRANCH  46  60
BRANCH  47  66
ATOM     66  C   UNL A   1      48.689  26.698  29.151  1.00  0.00    -0.014 A 
ATOM     67  C   UNL A   1      49.281  26.145  30.297  1.00  0.00     0.009 A 
ATOM     68  C   UNL A   1      49.481  26.914  28.014  1.00  0.00     0.009 A 
ATOM     69  C   UNL A   1      50.644  25.839  30.310  1.00  0.00     0.001 A 
ATOM     70  C   UNL A   1      50.837  26.581  28.021  1.00  0.00     0.001 A 
ATOM     71  C   UNL A   1      51.419  26.053  29.172  1.00  0.00     0.000 A 
ENDBRANCH  47  66
BRANCH  59  72
ATOM     72  C   UNL A   1      45.145  32.356  31.114  1.00  0.00    -0.014 A 
ATOM     73  C   UNL A   1      45.486  33.464  30.322  1.00  0.00     0.009 A 
ATOM     74  C   UNL A   1      45.180  32.482  32.512  1.00  0.00     0.009 A 
ATOM     75  C   UNL A   1      45.886  34.661  30.919  1.00  0.00     0.001 A 
ATOM     76  C   UNL A   1      45.553  33.689  33.106  1.00  0.00     0.001 A 
ATOM     77  C   UNL A   1      45.915  34.774  32.309  1.00  0.00     0.000 A 
ENDBRANCH  59  72
ENDBRANCH  33  34
ENDBRANCH  25  28
ENDBRANCH  23  24
ENDBRANCH  22  23
ENDBRANCH  21  22
ENDBRANCH   3  21
TORSDOF 15
ENDMDL
MODEL 3
REMARK VINA RESULT:     -10.0      2.361      7.532
REMARK SMILES CN(C)c1ccc(C(=O)NCCCC(=O)NCCCNC(=O)c2ccc(-c3c4nc(c(-c5ccccc5)c5ccc([nH]5)c(-c5ccccc5)c5nc(c(-c6ccccc6)c6ccc3[nH]6)C=C5)C=C4)cc2)cn1
REMARK SMILES IDX 14 1 15 2 16 3 13 5 12 6 11 7 10 8 8 9 9 10 7 12 4 13 5 14
REMARK SMILES IDX 72 15 6 16 71 17 2 18 1 19 3 20 17 21 18 22 19 23 20 24
REMARK SMILES IDX 21 25 22 27 23 28 24 29 70 30 25 31 69 32 26 33 27 34 28 35
REMARK SMILES IDX 63 36 29 37 68 38 62 39 64 40 30 41 67 42 61 43 60 44 31 46
REMARK SMILES IDX 53 47 38 48 52 49 39 50 42 51 51 52 65 53 40 54 41 55 50 57
REMARK SMILES IDX 66 58 43 59 32 60 33 61 37 62 34 63 36 64 35 65 54 66 55 67
REMARK SMILES IDX 59 68 56 69 58 70 57 71 44 72 45 73 49 74 46 75 48 76 47 77
REMARK H PARENT 16 4 10 11 20 26 64 45 42 56
REMARK Flexibility Score: inf
ROOT
ATOM      1  C   UNL A   1      30.568  25.335  25.827  1.00  0.00     0.220 C 
ATOM      2  O   UNL A   1      30.700  24.111  25.863  1.00  0.00    -0.275 OA
ATOM      3  N   UNL A   1      31.392  26.093  26.599  1.00  0.00    -0.356 N 
ATOM      4  H   UNL A   1      32.109  25.592  27.052  1.00  0.00     0.163 HD
ENDROOT
BRANCH   1   5
ATOM      5  C   UNL A   1      29.520  25.977  24.945  1.00  0.00     0.102 C 
BRANCH   5   6
ATOM      6  C   UNL A   1      29.929  26.054  23.472  1.00  0.00     0.031 C 
BRANCH   6   7
ATOM      7  C   UNL A   1      30.890  27.188  23.117  1.00  0.00     0.116 C 
BRANCH   7   8
ATOM      8  N   UNL A   1      31.715  26.890  21.959  1.00  0.00    -0.352 N 
ATOM      9  C   UNL A   1      32.715  25.972  21.775  1.00  0.00     0.252 C 
ATOM     10  O   UNL A   1      33.281  25.941  20.682  1.00  0.00    -0.269 OA
ATOM     11  H   UNL A   1      31.522  27.446  21.169  1.00  0.00     0.163 HD
BRANCH   9  12
ATOM     12  C   UNL A   1      33.167  25.061  22.844  1.00  0.00     0.058 A 
ATOM     13  C   UNL A   1      33.928  23.122  24.701  1.00  0.00     0.127 A 
ATOM     14  C   UNL A   1      34.247  24.465  24.909  1.00  0.00     0.048 A 
ATOM     15  N   UNL A   1      33.219  22.761  23.609  1.00  0.00    -0.239 NA
ATOM     16  C   UNL A   1      33.868  25.440  23.979  1.00  0.00     0.019 A 
ATOM     17  C   UNL A   1      32.835  23.720  22.729  1.00  0.00     0.127 A 
BRANCH  13  18
ATOM     18  N   UNL A   1      34.339  22.134  25.576  1.00  0.00    -0.363 N 
ATOM     19  C   UNL A   1      34.694  22.441  26.947  1.00  0.00     0.144 C 
ATOM     20  C   UNL A   1      34.081  20.757  25.193  1.00  0.00     0.144 C 
ENDBRANCH  13  18
ENDBRANCH   9  12
ENDBRANCH   7   8
ENDBRANCH   6   7
ENDBRANCH   5   6
ENDBRANCH   1   5
BRANCH   3  21
ATOM     21  C   UNL A   1      31.390  27.524  26.865  1.00  0.00     0.117 C 
BRANCH  21  22
ATOM     22  C   UNL A   1      32.614  28.198  26.251  1.00  0.00     0.042 C 
BRANCH  22  23
ATOM     23  C   UNL A   1      33.689  28.565  27.266  1.00  0.00     0.118 C 
BRANCH  23  24
ATOM     24  N   UNL A   1      33.617  29.961  27.661  1.00  0.00    -0.352 N 
ATOM     25  C   UNL A   1      34.534  30.741  28.316  1.00  0.00     0.251 C 
ATOM     26  H   UNL A   1      32.777  30.418  27.422  1.00  0.00     0.163 HD
ATOM     27  O   UNL A   1      34.192  31.853  28.726  1.00  0.00    -0.269 OA
BRANCH  25  28
ATOM     28  C   UNL A   1      35.921  30.278  28.547  1.00  0.00     0.039 A 
ATOM     29  C   UNL A   1      36.846  30.389  27.503  1.00  0.00     0.014 A 
ATOM     30  C   UNL A   1      36.308  29.678  29.750  1.00  0.00     0.014 A 
ATOM     31  C   UNL A   1      38.154  29.930  27.673  1.00  0.00     0.010 A 
ATOM     32  C   UNL A   1      37.634  29.292  29.946  1.00  0.00     0.010 A 
ATOM     33  C   UNL A   1      38.566  29.395  28.903  1.00  0.00    -0.014 A 
BRANCH  33  34
ATOM     34  C   UNL A   1      39.957  28.907  29.096  1.00  0.00     0.031 A 
ATOM     35  C   UNL A   1      41.002  29.811  29.695  1.00  0.00     0.074 A 
ATOM     36  C   UNL A   1      40.293  27.664  28.702  1.00  0.00     0.049 A 
ATOM     37  N   UNL A   1      42.270  29.572  29.923  1.00  0.00    -0.248 NA
ATOM     38  C   UNL A   1      40.575  31.171  30.063  1.00  0.00     0.031 C 
ATOM     39  C   UNL A   1      39.387  26.700  28.074  1.00  0.00     0.029 A 
ATOM     40  N   UNL A   1      41.491  26.998  28.772  1.00  0.00    -0.354 N 
ATOM     41  C   UNL A   1      42.792  30.752  30.439  1.00  0.00     0.074 A 
ATOM     42  C   UNL A   1      41.718  31.721  30.445  1.00  0.00     0.031 C 
ATOM     43  C   UNL A   1      40.054  25.556  27.848  1.00  0.00     0.029 A 
ATOM     44  C   UNL A   1      41.437  25.717  28.281  1.00  0.00     0.049 A 
ATOM     45  H   UNL A   1      42.309  27.401  29.142  1.00  0.00     0.167 HD
ATOM     46  C   UNL A   1      44.045  31.005  30.886  1.00  0.00     0.031 A 
ATOM     47  C   UNL A   1      42.395  24.775  28.191  1.00  0.00     0.031 A 
ATOM     48  C   UNL A   1      45.110  30.038  30.901  1.00  0.00     0.049 A 
ATOM     49  C   UNL A   1      43.776  25.074  28.705  1.00  0.00     0.074 A 
ATOM     50  C   UNL A   1      46.398  30.180  31.391  1.00  0.00     0.029 A 
ATOM     51  N   UNL A   1      45.011  28.748  30.405  1.00  0.00    -0.354 N 
ATOM     52  N   UNL A   1      44.234  26.175  29.251  1.00  0.00    -0.248 NA
ATOM     53  C   UNL A   1      44.766  23.993  28.604  1.00  0.00     0.031 C 
ATOM     54  C   UNL A   1      47.091  28.989  31.149  1.00  0.00     0.029 A 
ATOM     55  C   UNL A   1      46.220  28.090  30.557  1.00  0.00     0.049 A 
ATOM     56  H   UNL A   1      44.201  28.357  30.004  1.00  0.00     0.167 HD
ATOM     57  C   UNL A   1      45.557  25.911  29.581  1.00  0.00     0.074 A 
ATOM     58  C   UNL A   1      45.822  24.542  29.191  1.00  0.00     0.031 C 
ATOM     59  C   UNL A   1      46.470  26.729  30.157  1.00  0.00     0.031 A 
BRANCH  46  60
ATOM     60  C   UNL A   1      44.333  32.392  31.392  1.00  0.00    -0.014 A 
ATOM     61  C   UNL A   1      44.157  32.726  32.744  1.00  0.00     0.009 A 
ATOM     62  C   UNL A   1      44.816  33.371  30.509  1.00  0.00     0.009 A 
ATOM     63  C   UNL A   1      44.419  34.022  33.193  1.00  0.00     0.001 A 
ATOM     64  C   UNL A   1      45.106  34.658  30.966  1.00  0.00     0.001 A 
ATOM     65  C   UNL A   1      44.898  34.985  32.306  1.00  0.00     0.000 A 
ENDBRANCH  46  60
BRANCH  47  66
ATOM     66  C   UNL A   1      42.074  23.446  27.609  1.00  0.00    -0.014 A 
ATOM     67  C   UNL A   1      42.351  23.174  26.261  1.00  0.00     0.009 A 
ATOM     68  C   UNL A   1      41.489  22.444  28.398  1.00  0.00     0.009 A 
ATOM     69  C   UNL A   1      42.025  21.933  25.708  1.00  0.00     0.001 A 
ATOM     70  C   UNL A   1      41.190  21.195  27.850  1.00  0.00     0.001 A 
ATOM     71  C   UNL A   1      41.450  20.943  26.505  1.00  0.00     0.000 A 
ENDBRANCH  47  66
BRANCH  59  72
ATOM     72  C   UNL A   1      47.832  26.156  30.425  1.00  0.00    -0.014 A 
ATOM     73  C   UNL A   1      48.806  26.089  29.417  1.00  0.00     0.009 A 
ATOM     74  C   UNL A   1      48.155  25.704  31.715  1.00  0.00     0.009 A 
ATOM     75  C   UNL A   1      50.065  25.549  29.687  1.00  0.00     0.001 A 
ATOM     76  C   UNL A   1      49.424  25.190  31.988  1.00  0.00     0.001 A 
ATOM     77  C   UNL A   1      50.374  25.104  30.972  1.00  0.00     0.000 A 
ENDBRANCH  59  72
ENDBRANCH  33  34
ENDBRANCH  25  28
ENDBRANCH  23  24
ENDBRANCH  22  23
ENDBRANCH  21  22
ENDBRANCH   3  21
TORSDOF 15
ENDMDL
