MODEL 1
REMARK VINA RESULT:     -14.1      0.000      0.000
REMARK SMILES Cc1c(NC(=O)c2cccc(-c3cc4ccccc4oc3=O)c2)cccc1C(=O)NCCCNC(=O)c1ccc(-c2c3nc(c(-c4ccccc4)c4ccc([nH]4)c(-c4ccccc4)c4nc(c(-c5ccccc5)c5ccc2[nH]5)C=C4)C=C3)cc1
REMARK SMILES IDX 31 1 30 2 28 3 29 4 27 6 1 7 2 8 3 9 24 10 26 11 25 12 4 13
REMARK SMILES IDX 5 14 6 16 7 17 8 18 23 19 9 20 11 21 10 22 12 23 13 24 21 25
REMARK SMILES IDX 14 26 20 27 22 28 15 29 19 30 16 31 18 32 17 33 32 34 33 35
REMARK SMILES IDX 34 36 35 37 36 39 37 40 38 41 84 42 39 43 83 44 40 45 41 46
REMARK SMILES IDX 42 47 77 48 43 49 82 50 76 51 78 52 44 53 81 54 75 55 74 56
REMARK SMILES IDX 45 58 67 59 52 60 66 61 53 62 56 63 65 64 79 65 54 66 55 67
REMARK SMILES IDX 64 69 80 70 57 71 46 72 47 73 51 74 48 75 50 76 49 77 68 78
REMARK SMILES IDX 69 79 73 80 70 81 72 82 71 83 58 84 59 85 63 86 60 87 62 88
REMARK SMILES IDX 61 89
REMARK H PARENT 30 5 4 15 34 38 78 57 56 68
REMARK Flexibility Score: inf
ROOT
ATOM      1  C   UNL A   1      31.787  30.488  25.947  1.00  0.00     0.118 C 
ENDROOT
BRANCH   1   2
ATOM      2  N   UNL A   1      32.650  29.896  24.931  1.00  0.00    -0.352 N 
ATOM      3  C   UNL A   1      32.758  28.756  24.180  1.00  0.00     0.251 C 
ATOM      4  O   UNL A   1      33.733  28.793  23.413  1.00  0.00    -0.269 OA
ATOM      5  H   UNL A   1      33.390  30.510  24.718  1.00  0.00     0.163 HD
BRANCH   3   6
ATOM      6  C   UNL A   1      31.915  27.496  24.146  1.00  0.00     0.044 A 
ATOM      7  C   UNL A   1      31.735  26.945  26.628  1.00  0.00     0.047 C 
ATOM      8  C   UNL A   1      31.431  26.678  25.192  1.00  0.00    -0.015 A 
ATOM      9  C   UNL A   1      30.758  25.455  24.893  1.00  0.00     0.045 A 
ATOM     10  C   UNL A   1      30.606  25.018  23.582  1.00  0.00     0.026 A 
ATOM     11  C   UNL A   1      31.718  27.012  22.825  1.00  0.00     0.014 A 
ATOM     12  C   UNL A   1      31.094  25.794  22.545  1.00  0.00     0.003 A 
BRANCH   9  13
ATOM     13  N   UNL A   1      30.219  24.708  25.956  1.00  0.00    -0.322 N 
ATOM     14  C   UNL A   1      30.681  23.629  26.667  1.00  0.00     0.255 C 
ATOM     15  H   UNL A   1      29.332  25.022  26.249  1.00  0.00     0.170 HD
ATOM     16  O   UNL A   1      29.881  23.031  27.389  1.00  0.00    -0.269 OA
BRANCH  14  17
ATOM     17  C   UNL A   1      32.117  23.236  26.718  1.00  0.00     0.040 A 
ATOM     18  C   UNL A   1      32.550  22.519  27.840  1.00  0.00     0.014 A 
ATOM     19  C   UNL A   1      33.067  23.677  25.786  1.00  0.00     0.022 A 
ATOM     20  C   UNL A   1      33.898  22.209  28.005  1.00  0.00     0.001 A 
ATOM     21  C   UNL A   1      34.430  23.363  25.932  1.00  0.00    -0.010 A 
ATOM     22  C   UNL A   1      34.830  22.620  27.052  1.00  0.00     0.009 A 
BRANCH  21  23
ATOM     23  C   UNL A   1      35.492  23.881  25.029  1.00  0.00     0.068 A 
ATOM     24  C   UNL A   1      36.734  24.202  25.455  1.00  0.00     0.028 A 
ATOM     25  C   UNL A   1      35.555  23.191  23.700  1.00  0.00     0.344 A 
ATOM     26  C   UNL A   1      37.625  23.023  25.537  1.00  0.00     0.018 A 
ATOM     27  O   UNL A   1      36.351  22.043  23.709  1.00  0.00    -0.422 OA
ATOM     28  O   UNL A   1      34.892  23.549  22.736  1.00  0.00    -0.246 OA
ATOM     29  C   UNL A   1      38.692  22.951  26.427  1.00  0.00     0.012 A 
ATOM     30  C   UNL A   1      37.341  21.931  24.709  1.00  0.00     0.138 A 
ATOM     31  C   UNL A   1      39.426  21.766  26.517  1.00  0.00     0.001 A 
ATOM     32  C   UNL A   1      38.036  20.735  24.821  1.00  0.00     0.048 A 
ATOM     33  C   UNL A   1      39.080  20.654  25.740  1.00  0.00     0.004 A 
ENDBRANCH  21  23
ENDBRANCH  14  17
ENDBRANCH   9  13
ENDBRANCH   3   6
ENDBRANCH   1   2
BRANCH   1  34
ATOM     34  C   UNL A   1      32.474  30.542  27.314  1.00  0.00     0.042 C 
BRANCH  34  35
ATOM     35  C   UNL A   1      33.979  30.730  27.303  1.00  0.00     0.118 C 
BRANCH  35  36
ATOM     36  N   UNL A   1      34.490  31.520  28.428  1.00  0.00    -0.352 N 
ATOM     37  C   UNL A   1      35.582  31.223  29.226  1.00  0.00     0.251 C 
ATOM     38  H   UNL A   1      34.005  32.350  28.638  1.00  0.00     0.163 HD
ATOM     39  O   UNL A   1      35.961  31.979  30.112  1.00  0.00    -0.269 OA
BRANCH  37  40
ATOM     40  C   UNL A   1      36.351  30.011  28.879  1.00  0.00     0.039 A 
ATOM     41  C   UNL A   1      36.797  29.236  29.951  1.00  0.00     0.014 A 
ATOM     42  C   UNL A   1      36.967  29.950  27.630  1.00  0.00     0.014 A 
ATOM     43  C   UNL A   1      38.038  28.624  29.854  1.00  0.00     0.010 A 
ATOM     44  C   UNL A   1      38.239  29.414  27.564  1.00  0.00     0.010 A 
ATOM     45  C   UNL A   1      38.805  28.831  28.704  1.00  0.00    -0.014 A 
BRANCH  45  46
ATOM     46  C   UNL A   1      40.236  28.553  28.679  1.00  0.00     0.031 A 
ATOM     47  C   UNL A   1      40.704  27.249  28.186  1.00  0.00     0.074 A 
ATOM     48  C   UNL A   1      41.147  29.408  29.199  1.00  0.00     0.049 A 
ATOM     49  N   UNL A   1      41.669  26.580  28.726  1.00  0.00    -0.248 NA
ATOM     50  C   UNL A   1      40.065  26.571  27.067  1.00  0.00     0.031 C 
ATOM     51  C   UNL A   1      42.601  29.263  29.154  1.00  0.00     0.029 A 
ATOM     52  N   UNL A   1      40.940  30.450  30.102  1.00  0.00    -0.354 N 
ATOM     53  C   UNL A   1      41.977  25.563  27.857  1.00  0.00     0.074 A 
ATOM     54  C   UNL A   1      40.889  25.533  26.902  1.00  0.00     0.031 C 
ATOM     55  C   UNL A   1      43.125  29.910  30.207  1.00  0.00     0.029 A 
ATOM     56  C   UNL A   1      42.023  30.422  31.001  1.00  0.00     0.049 A 
ATOM     57  H   UNL A   1      40.184  31.080  30.111  1.00  0.00     0.167 HD
ATOM     58  C   UNL A   1      43.193  24.953  27.918  1.00  0.00     0.031 A 
ATOM     59  C   UNL A   1      41.886  30.318  32.353  1.00  0.00     0.031 A 
ATOM     60  C   UNL A   1      44.041  25.486  28.985  1.00  0.00     0.049 A 
ATOM     61  C   UNL A   1      42.591  29.117  32.950  1.00  0.00     0.074 A 
ATOM     62  C   UNL A   1      45.131  26.342  28.998  1.00  0.00     0.029 A 
ATOM     63  N   UNL A   1      43.641  25.358  30.306  1.00  0.00    -0.354 N 
ATOM     64  N   UNL A   1      43.252  28.226  32.265  1.00  0.00    -0.248 NA
ATOM     65  C   UNL A   1      42.485  28.758  34.363  1.00  0.00     0.031 C 
ATOM     66  C   UNL A   1      45.393  26.715  30.345  1.00  0.00     0.029 A 
ATOM     67  C   UNL A   1      44.465  26.084  31.149  1.00  0.00     0.049 A 
ATOM     68  H   UNL A   1      42.871  24.821  30.606  1.00  0.00     0.167 HD
ATOM     69  C   UNL A   1      43.595  27.173  33.081  1.00  0.00     0.074 A 
ATOM     70  C   UNL A   1      43.092  27.560  34.386  1.00  0.00     0.031 C 
ATOM     71  C   UNL A   1      44.218  26.058  32.587  1.00  0.00     0.031 A 
BRANCH  58  72
ATOM     72  C   UNL A   1      43.705  24.089  26.790  1.00  0.00    -0.014 A 
ATOM     73  C   UNL A   1      44.472  24.659  25.761  1.00  0.00     0.009 A 
ATOM     74  C   UNL A   1      43.416  22.720  26.661  1.00  0.00     0.009 A 
ATOM     75  C   UNL A   1      44.816  23.941  24.609  1.00  0.00     0.001 A 
ATOM     76  C   UNL A   1      43.711  22.007  25.491  1.00  0.00     0.001 A 
ATOM     77  C   UNL A   1      44.400  22.626  24.456  1.00  0.00     0.000 A 
ENDBRANCH  58  72
BRANCH  59  78
ATOM     78  C   UNL A   1      40.618  30.893  32.871  1.00  0.00    -0.014 A 
ATOM     79  C   UNL A   1      40.490  32.296  32.894  1.00  0.00     0.009 A 
ATOM     80  C   UNL A   1      39.459  30.107  32.949  1.00  0.00     0.009 A 
ATOM     81  C   UNL A   1      39.229  32.896  32.864  1.00  0.00     0.001 A 
ATOM     82  C   UNL A   1      38.200  30.716  32.923  1.00  0.00     0.001 A 
ATOM     83  C   UNL A   1      38.085  32.103  32.838  1.00  0.00     0.000 A 
ENDBRANCH  59  78
BRANCH  71  84
ATOM     84  C   UNL A   1      44.641  24.817  33.357  1.00  0.00    -0.014 A 
ATOM     85  C   UNL A   1      45.957  24.477  33.694  1.00  0.00     0.009 A 
ATOM     86  C   UNL A   1      43.653  23.873  33.729  1.00  0.00     0.009 A 
ATOM     87  C   UNL A   1      46.257  23.317  34.429  1.00  0.00     0.001 A 
ATOM     88  C   UNL A   1      43.943  22.709  34.448  1.00  0.00     0.001 A 
ATOM     89  C   UNL A   1      45.250  22.439  34.814  1.00  0.00     0.000 A 
ENDBRANCH  71  84
ENDBRANCH  45  46
ENDBRANCH  37  40
ENDBRANCH  35  36
ENDBRANCH  34  35
ENDBRANCH   1  34
TORSDOF 13
ENDMDL
MODEL 2
REMARK VINA RESULT:     -13.9      2.890      8.592
REMARK SMILES Cc1c(NC(=O)c2cccc(-c3cc4ccccc4oc3=O)c2)cccc1C(=O)NCCCNC(=O)c1ccc(-c2c3nc(c(-c4ccccc4)c4ccc([nH]4)c(-c4ccccc4)c4nc(c(-c5ccccc5)c5ccc2[nH]5)C=C4)C=C3)cc1
REMARK SMILES IDX 31 1 30 2 28 3 29 4 27 6 1 7 2 8 3 9 24 10 26 11 25 12 4 13
REMARK SMILES IDX 5 14 6 16 7 17 8 18 23 19 9 20 11 21 10 22 12 23 13 24 21 25
REMARK SMILES IDX 14 26 20 27 22 28 15 29 19 30 16 31 18 32 17 33 32 34 33 35
REMARK SMILES IDX 34 36 35 37 36 39 37 40 38 41 84 42 39 43 83 44 40 45 41 46
REMARK SMILES IDX 42 47 77 48 43 49 82 50 76 51 78 52 44 53 81 54 75 55 74 56
REMARK SMILES IDX 45 58 67 59 52 60 66 61 53 62 56 63 65 64 79 65 54 66 55 67
REMARK SMILES IDX 64 69 80 70 57 71 46 72 47 73 51 74 48 75 50 76 49 77 68 78
REMARK SMILES IDX 69 79 73 80 70 81 72 82 71 83 58 84 59 85 63 86 60 87 62 88
REMARK SMILES IDX 61 89
REMARK H PARENT 30 5 4 15 34 38 78 57 56 68
REMARK Flexibility Score: inf
ROOT
ATOM      1  C   UNL A   1      36.513  20.488  25.021  1.00  0.00     0.118 C 
ENDROOT
BRANCH   1   2
ATOM      2  N   UNL A   1      35.697  21.137  26.041  1.00  0.00    -0.352 N 
ATOM      3  C   UNL A   1      34.538  21.856  26.157  1.00  0.00     0.251 C 
ATOM      4  O   UNL A   1      34.292  22.157  27.336  1.00  0.00    -0.269 OA
ATOM      5  H   UNL A   1      36.111  21.021  26.927  1.00  0.00     0.163 HD
BRANCH   3   6
ATOM      6  C   UNL A   1      33.550  22.338  25.113  1.00  0.00     0.044 A 
ATOM      7  C   UNL A   1      35.105  23.449  23.426  1.00  0.00     0.047 C 
ATOM      8  C   UNL A   1      33.754  23.026  23.895  1.00  0.00    -0.015 A 
ATOM      9  C   UNL A   1      32.636  23.491  23.139  1.00  0.00     0.045 A 
ATOM     10  C   UNL A   1      31.334  23.325  23.600  1.00  0.00     0.026 A 
ATOM     11  C   UNL A   1      32.202  22.179  25.528  1.00  0.00     0.014 A 
ATOM     12  C   UNL A   1      31.117  22.673  24.801  1.00  0.00     0.003 A 
BRANCH   9  13
ATOM     13  N   UNL A   1      32.874  24.099  21.893  1.00  0.00    -0.322 N 
ATOM     14  C   UNL A   1      32.936  25.411  21.491  1.00  0.00     0.255 C 
ATOM     15  H   UNL A   1      33.026  23.456  21.163  1.00  0.00     0.170 HD
ATOM     16  O   UNL A   1      32.923  25.641  20.281  1.00  0.00    -0.269 OA
BRANCH  14  17
ATOM     17  C   UNL A   1      33.160  26.545  22.430  1.00  0.00     0.040 A 
ATOM     18  C   UNL A   1      33.731  27.712  21.907  1.00  0.00     0.014 A 
ATOM     19  C   UNL A   1      32.973  26.443  23.816  1.00  0.00     0.022 A 
ATOM     20  C   UNL A   1      34.065  28.773  22.745  1.00  0.00     0.001 A 
ATOM     21  C   UNL A   1      33.294  27.509  24.674  1.00  0.00    -0.010 A 
ATOM     22  C   UNL A   1      33.839  28.676  24.118  1.00  0.00     0.009 A 
BRANCH  21  23
ATOM     23  C   UNL A   1      33.205  27.425  26.156  1.00  0.00     0.068 A 
ATOM     24  C   UNL A   1      34.138  27.945  26.985  1.00  0.00     0.028 A 
ATOM     25  C   UNL A   1      31.829  27.661  26.701  1.00  0.00     0.344 A 
ATOM     26  C   UNL A   1      33.930  29.390  27.231  1.00  0.00     0.018 A 
ATOM     27  O   UNL A   1      31.545  29.010  26.925  1.00  0.00    -0.422 OA
ATOM     28  O   UNL A   1      31.008  26.764  26.837  1.00  0.00    -0.246 OA
ATOM     29  C   UNL A   1      34.975  30.255  27.540  1.00  0.00     0.012 A 
ATOM     30  C   UNL A   1      32.630  29.895  27.101  1.00  0.00     0.138 A 
ATOM     31  C   UNL A   1      34.715  31.622  27.660  1.00  0.00     0.001 A 
ATOM     32  C   UNL A   1      32.370  31.256  27.175  1.00  0.00     0.048 A 
ATOM     33  C   UNL A   1      33.425  32.123  27.448  1.00  0.00     0.004 A 
ENDBRANCH  21  23
ENDBRANCH  14  17
ENDBRANCH   9  13
ENDBRANCH   3   6
ENDBRANCH   1   2
BRANCH   1  34
ATOM     34  C   UNL A   1      37.757  21.312  24.679  1.00  0.00     0.042 C 
BRANCH  34  35
ATOM     35  C   UNL A   1      38.254  22.257  25.757  1.00  0.00     0.118 C 
BRANCH  35  36
ATOM     36  N   UNL A   1      39.701  22.194  25.985  1.00  0.00    -0.352 N 
ATOM     37  C   UNL A   1      40.516  23.214  26.445  1.00  0.00     0.251 C 
ATOM     38  H   UNL A   1      40.139  21.335  25.790  1.00  0.00     0.163 HD
ATOM     39  O   UNL A   1      41.712  23.043  26.654  1.00  0.00    -0.269 OA
BRANCH  37  40
ATOM     40  C   UNL A   1      39.857  24.487  26.797  1.00  0.00     0.039 A 
ATOM     41  C   UNL A   1      40.413  25.643  26.246  1.00  0.00     0.014 A 
ATOM     42  C   UNL A   1      39.076  24.534  27.951  1.00  0.00     0.014 A 
ATOM     43  C   UNL A   1      40.432  26.799  27.012  1.00  0.00     0.010 A 
ATOM     44  C   UNL A   1      39.170  25.659  28.749  1.00  0.00     0.010 A 
ATOM     45  C   UNL A   1      39.924  26.755  28.314  1.00  0.00    -0.014 A 
BRANCH  45  46
ATOM     46  C   UNL A   1      40.244  27.785  29.295  1.00  0.00     0.031 A 
ATOM     47  C   UNL A   1      39.299  28.892  29.504  1.00  0.00     0.074 A 
ATOM     48  C   UNL A   1      41.433  27.824  29.940  1.00  0.00     0.049 A 
ATOM     49  N   UNL A   1      39.658  30.121  29.680  1.00  0.00    -0.248 NA
ATOM     50  C   UNL A   1      37.857  28.695  29.471  1.00  0.00     0.031 C 
ATOM     51  C   UNL A   1      41.821  28.761  30.993  1.00  0.00     0.029 A 
ATOM     52  N   UNL A   1      42.626  27.192  29.594  1.00  0.00    -0.354 N 
ATOM     53  C   UNL A   1      38.539  30.804  30.089  1.00  0.00     0.074 A 
ATOM     54  C   UNL A   1      37.432  29.906  29.839  1.00  0.00     0.031 C 
ATOM     55  C   UNL A   1      43.156  28.895  30.970  1.00  0.00     0.029 A 
ATOM     56  C   UNL A   1      43.658  28.113  29.854  1.00  0.00     0.049 A 
ATOM     57  H   UNL A   1      42.728  26.280  29.237  1.00  0.00     0.167 HD
ATOM     58  C   UNL A   1      38.662  31.987  30.752  1.00  0.00     0.031 A 
ATOM     59  C   UNL A   1      44.562  28.525  28.922  1.00  0.00     0.031 A 
ATOM     60  C   UNL A   1      40.055  32.400  30.923  1.00  0.00     0.049 A 
ATOM     61  C   UNL A   1      44.573  30.024  28.699  1.00  0.00     0.074 A 
ATOM     62  C   UNL A   1      40.928  32.386  32.000  1.00  0.00     0.029 A 
ATOM     63  N   UNL A   1      40.832  32.669  29.806  1.00  0.00    -0.354 N 
ATOM     64  N   UNL A   1      43.786  30.870  29.300  1.00  0.00    -0.248 NA
ATOM     65  C   UNL A   1      45.389  30.665  27.670  1.00  0.00     0.031 C 
ATOM     66  C   UNL A   1      42.237  32.666  31.521  1.00  0.00     0.029 A 
ATOM     67  C   UNL A   1      42.159  32.853  30.155  1.00  0.00     0.049 A 
ATOM     68  H   UNL A   1      40.485  32.721  28.885  1.00  0.00     0.167 HD
ATOM     69  C   UNL A   1      43.919  32.115  28.728  1.00  0.00     0.074 A 
ATOM     70  C   UNL A   1      44.939  31.930  27.713  1.00  0.00     0.031 C 
ATOM     71  C   UNL A   1      43.134  33.168  29.116  1.00  0.00     0.031 A 
BRANCH  58  72
ATOM     72  C   UNL A   1      37.507  32.593  31.513  1.00  0.00    -0.014 A 
ATOM     73  C   UNL A   1      37.221  32.159  32.818  1.00  0.00     0.009 A 
ATOM     74  C   UNL A   1      36.633  33.554  30.975  1.00  0.00     0.009 A 
ATOM     75  C   UNL A   1      36.061  32.558  33.493  1.00  0.00     0.001 A 
ATOM     76  C   UNL A   1      35.445  33.920  31.621  1.00  0.00     0.001 A 
ATOM     77  C   UNL A   1      35.151  33.408  32.878  1.00  0.00     0.000 A 
ENDBRANCH  58  72
BRANCH  59  78
ATOM     78  C   UNL A   1      44.836  27.514  27.868  1.00  0.00    -0.014 A 
ATOM     79  C   UNL A   1      45.407  26.288  28.260  1.00  0.00     0.009 A 
ATOM     80  C   UNL A   1      44.196  27.594  26.622  1.00  0.00     0.009 A 
ATOM     81  C   UNL A   1      45.229  25.140  27.486  1.00  0.00     0.001 A 
ATOM     82  C   UNL A   1      44.026  26.440  25.850  1.00  0.00     0.001 A 
ATOM     83  C   UNL A   1      44.504  25.210  26.300  1.00  0.00     0.000 A 
ENDBRANCH  59  78
BRANCH  71  84
ATOM     84  C   UNL A   1      43.153  34.586  28.569  1.00  0.00    -0.014 A 
ATOM     85  C   UNL A   1      42.954  34.945  27.230  1.00  0.00     0.009 A 
ATOM     86  C   UNL A   1      43.453  35.656  29.448  1.00  0.00     0.009 A 
ATOM     87  C   UNL A   1      42.967  36.287  26.813  1.00  0.00     0.001 A 
ATOM     88  C   UNL A   1      43.482  36.993  29.040  1.00  0.00     0.001 A 
ATOM     89  C   UNL A   1      43.222  37.311  27.718  1.00  0.00     0.000 A 
ENDBRANCH  71  84
ENDBRANCH  45  46
ENDBRANCH  37  40
ENDBRANCH  35  36
ENDBRANCH  34  35
ENDBRANCH   1  34
TORSDOF 13
ENDMDL
MODEL 3
REMARK VINA RESULT:     -13.5      1.912      2.226
REMARK SMILES Cc1c(NC(=O)c2cccc(-c3cc4ccccc4oc3=O)c2)cccc1C(=O)NCCCNC(=O)c1ccc(-c2c3nc(c(-c4ccccc4)c4ccc([nH]4)c(-c4ccccc4)c4nc(c(-c5ccccc5)c5ccc2[nH]5)C=C4)C=C3)cc1
REMARK SMILES IDX 31 1 30 2 28 3 29 4 27 6 1 7 2 8 3 9 24 10 26 11 25 12 4 13
REMARK SMILES IDX 5 14 6 16 7 17 8 18 23 19 9 20 11 21 10 22 12 23 13 24 21 25
REMARK SMILES IDX 14 26 20 27 22 28 15 29 19 30 16 31 18 32 17 33 32 34 33 35
REMARK SMILES IDX 34 36 35 37 36 39 37 40 38 41 84 42 39 43 83 44 40 45 41 46
REMARK SMILES IDX 42 47 77 48 43 49 82 50 76 51 78 52 44 53 81 54 75 55 74 56
REMARK SMILES IDX 45 58 67 59 52 60 66 61 53 62 56 63 65 64 79 65 54 66 55 67
REMARK SMILES IDX 64 69 80 70 57 71 46 72 47 73 51 74 48 75 50 76 49 77 68 78
REMARK SMILES IDX 69 79 73 80 70 81 72 82 71 83 58 84 59 85 63 86 60 87 62 88
REMARK SMILES IDX 61 89
REMARK H PARENT 30 5 4 15 34 38 78 57 56 68
REMARK Flexibility Score: inf
ROOT
ATOM      1  C   UNL A   1      32.557  30.192  26.239  1.00  0.00     0.118 C 
ENDROOT
BRANCH   1   2
ATOM      2  N   UNL A   1      33.258  29.541  25.138  1.00  0.00    -0.352 N 
ATOM      3  C   UNL A   1      33.166  28.429  24.347  1.00  0.00     0.251 C 
ATOM      4  O   UNL A   1      34.076  28.378  23.505  1.00  0.00    -0.269 OA
ATOM      5  H   UNL A   1      34.050  30.070  24.885  1.00  0.00     0.163 HD
BRANCH   3   6
ATOM      6  C   UNL A   1      32.174  27.282  24.343  1.00  0.00     0.044 A 
ATOM      7  C   UNL A   1      31.893  26.853  26.840  1.00  0.00     0.047 C 
ATOM      8  C   UNL A   1      31.578  26.571  25.410  1.00  0.00    -0.015 A 
ATOM      9  C   UNL A   1      30.762  25.430  25.144  1.00  0.00     0.045 A 
ATOM     10  C   UNL A   1      30.575  24.965  23.846  1.00  0.00     0.026 A 
ATOM     11  C   UNL A   1      31.935  26.776  23.038  1.00  0.00     0.014 A 
ATOM     12  C   UNL A   1      31.169  25.635  22.791  1.00  0.00     0.003 A 
BRANCH   9  13
ATOM     13  N   UNL A   1      30.120  24.797  26.223  1.00  0.00    -0.322 N 
ATOM     14  C   UNL A   1      30.289  23.573  26.822  1.00  0.00     0.255 C 
ATOM     15  H   UNL A   1      29.407  25.340  26.631  1.00  0.00     0.170 HD
ATOM     16  O   UNL A   1      29.414  23.190  27.601  1.00  0.00    -0.269 OA
BRANCH  14  17
ATOM     17  C   UNL A   1      31.529  22.760  26.687  1.00  0.00     0.040 A 
ATOM     18  C   UNL A   1      32.472  22.847  27.719  1.00  0.00     0.014 A 
ATOM     19  C   UNL A   1      31.858  22.048  25.525  1.00  0.00     0.022 A 
ATOM     20  C   UNL A   1      33.700  22.197  27.612  1.00  0.00     0.001 A 
ATOM     21  C   UNL A   1      33.088  21.377  25.407  1.00  0.00    -0.010 A 
ATOM     22  C   UNL A   1      34.001  21.459  26.468  1.00  0.00     0.009 A 
BRANCH  21  23
ATOM     23  C   UNL A   1      33.529  20.686  24.166  1.00  0.00     0.068 A 
ATOM     24  C   UNL A   1      34.513  19.759  24.144  1.00  0.00     0.028 A 
ATOM     25  C   UNL A   1      32.406  20.280  23.260  1.00  0.00     0.344 A 
ATOM     26  C   UNL A   1      34.025  18.410  24.511  1.00  0.00     0.018 A 
ATOM     27  O   UNL A   1      31.868  19.029  23.569  1.00  0.00    -0.422 OA
ATOM     28  O   UNL A   1      31.947  21.022  22.400  1.00  0.00    -0.246 OA
ATOM     29  C   UNL A   1      34.845  17.452  25.100  1.00  0.00     0.012 A 
ATOM     30  C   UNL A   1      32.673  18.121  24.289  1.00  0.00     0.138 A 
ATOM     31  C   UNL A   1      34.288  16.239  25.510  1.00  0.00     0.001 A 
ATOM     32  C   UNL A   1      32.102  16.936  24.731  1.00  0.00     0.048 A 
ATOM     33  C   UNL A   1      32.918  15.995  25.354  1.00  0.00     0.004 A 
ENDBRANCH  21  23
ENDBRANCH  14  17
ENDBRANCH   9  13
ENDBRANCH   3   6
ENDBRANCH   1   2
BRANCH   1  34
ATOM     34  C   UNL A   1      33.407  30.229  27.512  1.00  0.00     0.042 C 
BRANCH  34  35
ATOM     35  C   UNL A   1      34.559  31.215  27.522  1.00  0.00     0.118 C 
BRANCH  35  36
ATOM     36  N   UNL A   1      34.917  31.702  28.858  1.00  0.00    -0.352 N 
ATOM     37  C   UNL A   1      35.844  31.150  29.725  1.00  0.00     0.251 C 
ATOM     38  H   UNL A   1      34.446  32.508  29.172  1.00  0.00     0.163 HD
ATOM     39  O   UNL A   1      36.110  31.667  30.804  1.00  0.00    -0.269 OA
BRANCH  37  40
ATOM     40  C   UNL A   1      36.597  29.977  29.238  1.00  0.00     0.039 A 
ATOM     41  C   UNL A   1      37.009  29.062  30.208  1.00  0.00     0.014 A 
ATOM     42  C   UNL A   1      37.235  30.064  28.001  1.00  0.00     0.014 A 
ATOM     43  C   UNL A   1      38.241  28.442  30.052  1.00  0.00     0.010 A 
ATOM     44  C   UNL A   1      38.497  29.515  27.886  1.00  0.00     0.010 A 
ATOM     45  C   UNL A   1      39.032  28.779  28.951  1.00  0.00    -0.014 A 
BRANCH  45  46
ATOM     46  C   UNL A   1      40.458  28.478  28.912  1.00  0.00     0.031 A 
ATOM     47  C   UNL A   1      40.902  27.183  28.376  1.00  0.00     0.074 A 
ATOM     48  C   UNL A   1      41.385  29.299  29.459  1.00  0.00     0.049 A 
ATOM     49  N   UNL A   1      41.856  26.479  28.890  1.00  0.00    -0.248 NA
ATOM     50  C   UNL A   1      40.249  26.553  27.237  1.00  0.00     0.031 C 
ATOM     51  C   UNL A   1      42.836  29.130  29.405  1.00  0.00     0.029 A 
ATOM     52  N   UNL A   1      41.198  30.313  30.397  1.00  0.00    -0.354 N 
ATOM     53  C   UNL A   1      42.144  25.487  27.987  1.00  0.00     0.074 A 
ATOM     54  C   UNL A   1      41.054  25.508  27.034  1.00  0.00     0.031 C 
ATOM     55  C   UNL A   1      43.373  29.732  30.477  1.00  0.00     0.029 A 
ATOM     56  C   UNL A   1      42.282  30.236  31.291  1.00  0.00     0.049 A 
ATOM     57  H   UNL A   1      40.453  30.956  30.428  1.00  0.00     0.167 HD
ATOM     58  C   UNL A   1      43.350  24.854  28.024  1.00  0.00     0.031 A 
ATOM     59  C   UNL A   1      42.147  30.089  32.639  1.00  0.00     0.031 A 
ATOM     60  C   UNL A   1      44.209  25.336  29.106  1.00  0.00     0.049 A 
ATOM     61  C   UNL A   1      42.832  28.857  33.194  1.00  0.00     0.074 A 
ATOM     62  C   UNL A   1      45.314  26.172  29.145  1.00  0.00     0.029 A 
ATOM     63  N   UNL A   1      43.810  25.171  30.423  1.00  0.00    -0.354 N 
ATOM     64  N   UNL A   1      43.475  27.979  32.478  1.00  0.00    -0.248 NA
ATOM     65  C   UNL A   1      42.722  28.453  34.594  1.00  0.00     0.031 C 
ATOM     66  C   UNL A   1      45.586  26.495  30.502  1.00  0.00     0.029 A 
ATOM     67  C   UNL A   1      44.648  25.854  31.288  1.00  0.00     0.049 A 
ATOM     68  H   UNL A   1      43.031  24.638  30.708  1.00  0.00     0.167 HD
ATOM     69  C   UNL A   1      43.802  26.892  33.258  1.00  0.00     0.074 A 
ATOM     70  C   UNL A   1      43.308  27.244  34.576  1.00  0.00     0.031 C 
ATOM     71  C   UNL A   1      44.404  25.784  32.725  1.00  0.00     0.031 A 
BRANCH  58  72
ATOM     72  C   UNL A   1      43.844  24.019  26.867  1.00  0.00    -0.014 A 
ATOM     73  C   UNL A   1      44.613  24.611  25.852  1.00  0.00     0.009 A 
ATOM     74  C   UNL A   1      43.537  22.658  26.696  1.00  0.00     0.009 A 
ATOM     75  C   UNL A   1      44.941  23.926  24.676  1.00  0.00     0.001 A 
ATOM     76  C   UNL A   1      43.816  21.979  25.503  1.00  0.00     0.001 A 
ATOM     77  C   UNL A   1      44.507  22.621  24.484  1.00  0.00     0.000 A 
ENDBRANCH  58  72
BRANCH  59  78
ATOM     78  C   UNL A   1      40.890  30.669  33.179  1.00  0.00    -0.014 A 
ATOM     79  C   UNL A   1      40.826  32.066  33.348  1.00  0.00     0.009 A 
ATOM     80  C   UNL A   1      39.694  29.938  33.141  1.00  0.00     0.009 A 
ATOM     81  C   UNL A   1      39.596  32.727  33.346  1.00  0.00     0.001 A 
ATOM     82  C   UNL A   1      38.465  30.607  33.145  1.00  0.00     0.001 A 
ATOM     83  C   UNL A   1      38.418  31.999  33.204  1.00  0.00     0.000 A 
ENDBRANCH  59  78
BRANCH  71  84
ATOM     84  C   UNL A   1      44.806  24.511  33.451  1.00  0.00    -0.014 A 
ATOM     85  C   UNL A   1      46.104  24.187  33.868  1.00  0.00     0.009 A 
ATOM     86  C   UNL A   1      43.823  23.520  33.692  1.00  0.00     0.009 A 
ATOM     87  C   UNL A   1      46.384  22.993  34.556  1.00  0.00     0.001 A 
ATOM     88  C   UNL A   1      44.095  22.324  34.362  1.00  0.00     0.001 A 
ATOM     89  C   UNL A   1      45.379  22.067  34.811  1.00  0.00     0.000 A 
ENDBRANCH  71  84
ENDBRANCH  45  46
ENDBRANCH  37  40
ENDBRANCH  35  36
ENDBRANCH  34  35
ENDBRANCH   1  34
TORSDOF 13
ENDMDL
