MODEL 1
REMARK VINA RESULT:     -11.4      0.000      0.000
REMARK SMILES CC(=O)Nc1sc(-c2ccccc2)cc1C(=O)NCCCNC(=O)c1ccc(-c2c3nc(c(-c4ccccc4)c4ccc([nH]4)c(-c4ccccc4)c4nc(c(-c5ccccc5)c5ccc2[nH]5)C=C4)C=C3)cc1
REMARK SMILES IDX 20 1 19 2 18 3 16 4 17 5 15 7 5 8 6 9 7 10 14 11 4 12 1 13
REMARK SMILES IDX 2 14 3 15 8 17 9 18 13 19 10 20 12 21 11 22 21 23 22 24
REMARK SMILES IDX 23 25 24 27 25 28 26 29 72 30 27 31 71 32 28 33 29 34 30 35
REMARK SMILES IDX 65 36 31 37 70 38 64 39 66 40 32 41 69 42 63 43 62 44 33 46
REMARK SMILES IDX 55 47 40 48 54 49 41 50 44 51 53 52 67 53 42 54 43 55 52 57
REMARK SMILES IDX 68 58 45 59 34 60 35 61 39 62 36 63 38 64 37 65 56 66 57 67
REMARK SMILES IDX 61 68 58 69 60 70 59 71 46 72 47 73 51 74 48 75 50 76 49 77
REMARK H PARENT 18 6 4 16 22 26 66 45 44 56
REMARK Flexibility Score: inf
ROOT
ATOM      1  C   UNL A   1      32.064  28.600  27.277  1.00  0.00     0.042 C 
ENDROOT
BRANCH   1   2
ATOM      2  C   UNL A   1      31.716  27.638  26.155  1.00  0.00     0.118 C 
BRANCH   2   3
ATOM      3  N   UNL A   1      31.006  26.454  26.598  1.00  0.00    -0.352 N 
ATOM      4  C   UNL A   1      31.236  25.123  26.359  1.00  0.00     0.254 C 
ATOM      5  O   UNL A   1      30.449  24.324  26.868  1.00  0.00    -0.269 OA
ATOM      6  H   UNL A   1      30.224  26.637  27.167  1.00  0.00     0.163 HD
BRANCH   4   7
ATOM      7  C   UNL A   1      32.307  24.665  25.479  1.00  0.00     0.075 A 
ATOM      8  C   UNL A   1      32.431  24.720  24.104  1.00  0.00     0.108 A 
ATOM      9  S   UNL A   1      33.711  23.754  23.522  1.00  0.00    -0.117 S 
ATOM     10  C   UNL A   1      34.381  23.583  25.084  1.00  0.00     0.037 A 
ATOM     11  C   UNL A   1      33.497  24.050  26.033  1.00  0.00     0.036 A 
BRANCH   8  12
ATOM     12  N   UNL A   1      31.771  25.313  23.056  1.00  0.00    -0.317 N 
ATOM     13  C   UNL A   1      33.218  27.320  22.800  1.00  0.00     0.114 C 
ATOM     14  C   UNL A   1      31.971  26.538  22.495  1.00  0.00     0.221 C 
ATOM     15  O   UNL A   1      31.148  26.954  21.677  1.00  0.00    -0.275 OA
ATOM     16  H   UNL A   1      31.050  24.777  22.653  1.00  0.00     0.170 HD
ENDBRANCH   8  12
BRANCH  10  17
ATOM     17  C   UNL A   1      35.703  22.976  25.265  1.00  0.00    -0.008 A 
ATOM     18  C   UNL A   1      35.925  21.636  24.914  1.00  0.00     0.009 A 
ATOM     19  C   UNL A   1      36.779  23.733  25.747  1.00  0.00     0.009 A 
ATOM     20  C   UNL A   1      37.191  21.063  25.049  1.00  0.00     0.001 A 
ATOM     21  C   UNL A   1      38.046  23.158  25.884  1.00  0.00     0.001 A 
ATOM     22  C   UNL A   1      38.250  21.823  25.535  1.00  0.00     0.000 A 
ENDBRANCH  10  17
ENDBRANCH   4   7
ENDBRANCH   2   3
ENDBRANCH   1   2
BRANCH   1  23
ATOM     23  C   UNL A   1      33.453  29.218  27.178  1.00  0.00     0.118 C 
BRANCH  23  24
ATOM     24  N   UNL A   1      33.599  30.488  27.880  1.00  0.00    -0.352 N 
ATOM     25  C   UNL A   1      34.663  31.023  28.571  1.00  0.00     0.251 C 
ATOM     26  H   UNL A   1      32.799  31.060  27.858  1.00  0.00     0.163 HD
ATOM     27  O   UNL A   1      34.537  32.097  29.151  1.00  0.00    -0.269 OA
BRANCH  25  28
ATOM     28  C   UNL A   1      35.946  30.293  28.662  1.00  0.00     0.039 A 
ATOM     29  C   UNL A   1      36.817  30.312  27.568  1.00  0.00     0.014 A 
ATOM     30  C   UNL A   1      36.307  29.612  29.822  1.00  0.00     0.014 A 
ATOM     31  C   UNL A   1      38.090  29.749  27.685  1.00  0.00     0.010 A 
ATOM     32  C   UNL A   1      37.614  29.167  29.982  1.00  0.00     0.010 A 
ATOM     33  C   UNL A   1      38.523  29.229  28.915  1.00  0.00    -0.014 A 
BRANCH  33  34
ATOM     34  C   UNL A   1      39.913  28.742  29.122  1.00  0.00     0.031 A 
ATOM     35  C   UNL A   1      40.960  29.671  29.676  1.00  0.00     0.074 A 
ATOM     36  C   UNL A   1      40.260  27.504  28.716  1.00  0.00     0.049 A 
ATOM     37  N   UNL A   1      42.250  29.484  29.800  1.00  0.00    -0.248 NA
ATOM     38  C   UNL A   1      40.505  31.003  30.108  1.00  0.00     0.031 C 
ATOM     39  C   UNL A   1      39.359  26.519  28.110  1.00  0.00     0.029 A 
ATOM     40  N   UNL A   1      41.474  26.864  28.744  1.00  0.00    -0.354 N 
ATOM     41  C   UNL A   1      42.760  30.684  30.279  1.00  0.00     0.074 A 
ATOM     42  C   UNL A   1      41.651  31.608  30.374  1.00  0.00     0.031 C 
ATOM     43  C   UNL A   1      40.043  25.391  27.858  1.00  0.00     0.029 A 
ATOM     44  C   UNL A   1      41.437  25.586  28.240  1.00  0.00     0.049 A 
ATOM     45  H   UNL A   1      42.295  27.281  29.093  1.00  0.00     0.167 HD
ATOM     46  C   UNL A   1      44.030  30.987  30.634  1.00  0.00     0.031 A 
ATOM     47  C   UNL A   1      42.416  24.673  28.097  1.00  0.00     0.031 A 
ATOM     48  C   UNL A   1      45.124  30.057  30.586  1.00  0.00     0.049 A 
ATOM     49  C   UNL A   1      43.813  25.020  28.530  1.00  0.00     0.074 A 
ATOM     50  C   UNL A   1      46.432  30.242  30.997  1.00  0.00     0.029 A 
ATOM     51  N   UNL A   1      45.032  28.759  30.110  1.00  0.00    -0.354 N 
ATOM     52  N   UNL A   1      44.265  26.141  29.038  1.00  0.00    -0.248 NA
ATOM     53  C   UNL A   1      44.831  23.970  28.381  1.00  0.00     0.031 C 
ATOM     54  C   UNL A   1      47.142  29.066  30.735  1.00  0.00     0.029 A 
ATOM     55  C   UNL A   1      46.264  28.134  30.205  1.00  0.00     0.049 A 
ATOM     56  H   UNL A   1      44.213  28.343  29.756  1.00  0.00     0.167 HD
ATOM     57  C   UNL A   1      45.612  25.923  29.295  1.00  0.00     0.074 A 
ATOM     58  C   UNL A   1      45.900  24.559  28.898  1.00  0.00     0.031 C 
ATOM     59  C   UNL A   1      46.529  26.776  29.812  1.00  0.00     0.031 A 
BRANCH  46  60
ATOM     60  C   UNL A   1      44.298  32.388  31.113  1.00  0.00    -0.014 A 
ATOM     61  C   UNL A   1      44.666  33.406  30.218  1.00  0.00     0.009 A 
ATOM     62  C   UNL A   1      44.166  32.697  32.475  1.00  0.00     0.009 A 
ATOM     63  C   UNL A   1      44.940  34.693  30.684  1.00  0.00     0.001 A 
ATOM     64  C   UNL A   1      44.410  33.993  32.934  1.00  0.00     0.001 A 
ATOM     65  C   UNL A   1      44.808  34.986  32.039  1.00  0.00     0.000 A 
ENDBRANCH  46  60
BRANCH  47  66
ATOM     66  C   UNL A   1      42.107  23.328  27.544  1.00  0.00    -0.014 A 
ATOM     67  C   UNL A   1      42.407  23.029  26.206  1.00  0.00     0.009 A 
ATOM     68  C   UNL A   1      41.513  22.341  28.343  1.00  0.00     0.009 A 
ATOM     69  C   UNL A   1      42.094  21.777  25.673  1.00  0.00     0.001 A 
ATOM     70  C   UNL A   1      41.225  21.080  27.814  1.00  0.00     0.001 A 
ATOM     71  C   UNL A   1      41.508  20.803  26.478  1.00  0.00     0.000 A 
ENDBRANCH  47  66
BRANCH  59  72
ATOM     72  C   UNL A   1      47.918  26.246  30.020  1.00  0.00    -0.014 A 
ATOM     73  C   UNL A   1      48.863  26.254  28.983  1.00  0.00     0.009 A 
ATOM     74  C   UNL A   1      48.298  25.779  31.288  1.00  0.00     0.009 A 
ATOM     75  C   UNL A   1      50.156  25.776  29.205  1.00  0.00     0.001 A 
ATOM     76  C   UNL A   1      49.598  25.326  31.513  1.00  0.00     0.001 A 
ATOM     77  C   UNL A   1      50.523  25.317  30.471  1.00  0.00     0.000 A 
ENDBRANCH  59  72
ENDBRANCH  33  34
ENDBRANCH  25  28
ENDBRANCH  23  24
ENDBRANCH   1  23
TORSDOF 12
ENDMDL
MODEL 2
REMARK VINA RESULT:     -11.0      2.758      8.033
REMARK SMILES CC(=O)Nc1sc(-c2ccccc2)cc1C(=O)NCCCNC(=O)c1ccc(-c2c3nc(c(-c4ccccc4)c4ccc([nH]4)c(-c4ccccc4)c4nc(c(-c5ccccc5)c5ccc2[nH]5)C=C4)C=C3)cc1
REMARK SMILES IDX 20 1 19 2 18 3 16 4 17 5 15 7 5 8 6 9 7 10 14 11 4 12 1 13
REMARK SMILES IDX 2 14 3 15 8 17 9 18 13 19 10 20 12 21 11 22 21 23 22 24
REMARK SMILES IDX 23 25 24 27 25 28 26 29 72 30 27 31 71 32 28 33 29 34 30 35
REMARK SMILES IDX 65 36 31 37 70 38 64 39 66 40 32 41 69 42 63 43 62 44 33 46
REMARK SMILES IDX 55 47 40 48 54 49 41 50 44 51 53 52 67 53 42 54 43 55 52 57
REMARK SMILES IDX 68 58 45 59 34 60 35 61 39 62 36 63 38 64 37 65 56 66 57 67
REMARK SMILES IDX 61 68 58 69 60 70 59 71 46 72 47 73 51 74 48 75 50 76 49 77
REMARK H PARENT 18 6 4 16 22 26 66 45 44 56
REMARK Flexibility Score: inf
ROOT
ATOM      1  C   UNL A   1      36.526  22.788  24.212  1.00  0.00     0.042 C 
ENDROOT
BRANCH   1   2
ATOM      2  C   UNL A   1      35.022  22.987  24.264  1.00  0.00     0.118 C 
BRANCH   2   3
ATOM      3  N   UNL A   1      34.455  23.488  23.027  1.00  0.00    -0.352 N 
ATOM      4  C   UNL A   1      33.553  24.493  22.791  1.00  0.00     0.254 C 
ATOM      5  O   UNL A   1      33.241  24.695  21.616  1.00  0.00    -0.269 OA
ATOM      6  H   UNL A   1      34.771  23.025  22.217  1.00  0.00     0.163 HD
BRANCH   4   7
ATOM      7  C   UNL A   1      32.920  25.241  23.874  1.00  0.00     0.075 A 
ATOM      8  C   UNL A   1      31.849  24.922  24.686  1.00  0.00     0.108 A 
ATOM      9  S   UNL A   1      31.279  26.261  25.577  1.00  0.00    -0.117 S 
ATOM     10  C   UNL A   1      32.684  27.171  25.233  1.00  0.00     0.037 A 
ATOM     11  C   UNL A   1      33.432  26.541  24.261  1.00  0.00     0.036 A 
BRANCH   8  12
ATOM     12  N   UNL A   1      31.076  23.817  24.945  1.00  0.00    -0.317 N 
ATOM     13  C   UNL A   1      32.354  22.922  26.881  1.00  0.00     0.114 C 
ATOM     14  C   UNL A   1      31.298  22.797  25.820  1.00  0.00     0.221 C 
ATOM     15  O   UNL A   1      30.565  21.806  25.769  1.00  0.00    -0.275 OA
ATOM     16  H   UNL A   1      30.243  23.754  24.424  1.00  0.00     0.170 HD
ENDBRANCH   8  12
BRANCH  10  17
ATOM     17  C   UNL A   1      32.930  28.446  25.912  1.00  0.00    -0.008 A 
ATOM     18  C   UNL A   1      31.935  29.436  25.953  1.00  0.00     0.009 A 
ATOM     19  C   UNL A   1      34.142  28.683  26.575  1.00  0.00     0.009 A 
ATOM     20  C   UNL A   1      32.150  30.637  26.630  1.00  0.00     0.001 A 
ATOM     21  C   UNL A   1      34.357  29.887  27.252  1.00  0.00     0.001 A 
ATOM     22  C   UNL A   1      33.360  30.863  27.278  1.00  0.00     0.000 A 
ENDBRANCH  10  17
ENDBRANCH   4   7
ENDBRANCH   2   3
ENDBRANCH   1   2
BRANCH   1  23
ATOM     23  C   UNL A   1      37.256  23.106  25.511  1.00  0.00     0.118 C 
BRANCH  23  24
ATOM     24  N   UNL A   1      38.584  22.513  25.617  1.00  0.00    -0.352 N 
ATOM     25  C   UNL A   1      39.750  22.996  26.167  1.00  0.00     0.251 C 
ATOM     26  H   UNL A   1      38.660  21.612  25.229  1.00  0.00     0.163 HD
ATOM     27  O   UNL A   1      40.784  22.341  26.081  1.00  0.00    -0.269 OA
BRANCH  25  28
ATOM     28  C   UNL A   1      39.781  24.323  26.819  1.00  0.00     0.039 A 
ATOM     29  C   UNL A   1      39.200  24.472  28.081  1.00  0.00     0.014 A 
ATOM     30  C   UNL A   1      40.400  25.412  26.209  1.00  0.00     0.014 A 
ATOM     31  C   UNL A   1      39.343  25.678  28.774  1.00  0.00     0.010 A 
ATOM     32  C   UNL A   1      40.652  26.563  26.946  1.00  0.00     0.010 A 
ATOM     33  C   UNL A   1      40.126  26.712  28.238  1.00  0.00    -0.014 A 
BRANCH  33  34
ATOM     34  C   UNL A   1      40.415  27.958  28.995  1.00  0.00     0.031 A 
ATOM     35  C   UNL A   1      41.688  28.075  29.791  1.00  0.00     0.074 A 
ATOM     36  C   UNL A   1      39.492  28.939  29.055  1.00  0.00     0.049 A 
ATOM     37  N   UNL A   1      42.058  29.015  30.625  1.00  0.00    -0.248 NA
ATOM     38  C   UNL A   1      42.653  26.970  29.668  1.00  0.00     0.031 C 
ATOM     39  C   UNL A   1      38.192  28.932  28.379  1.00  0.00     0.029 A 
ATOM     40  N   UNL A   1      39.505  30.135  29.729  1.00  0.00    -0.354 N 
ATOM     41  C   UNL A   1      43.271  28.591  31.154  1.00  0.00     0.074 A 
ATOM     42  C   UNL A   1      43.548  27.289  30.589  1.00  0.00     0.031 C 
ATOM     43  C   UNL A   1      37.551  30.082  28.643  1.00  0.00     0.029 A 
ATOM     44  C   UNL A   1      38.370  30.888  29.542  1.00  0.00     0.049 A 
ATOM     45  H   UNL A   1      40.257  30.428  30.293  1.00  0.00     0.167 HD
ATOM     46  C   UNL A   1      44.096  29.234  32.013  1.00  0.00     0.031 A 
ATOM     47  C   UNL A   1      38.024  32.088  30.040  1.00  0.00     0.031 A 
ATOM     48  C   UNL A   1      43.846  30.548  32.538  1.00  0.00     0.049 A 
ATOM     49  C   UNL A   1      38.971  32.800  30.965  1.00  0.00     0.074 A 
ATOM     50  C   UNL A   1      44.656  31.319  33.353  1.00  0.00     0.029 A 
ATOM     51  N   UNL A   1      42.704  31.291  32.288  1.00  0.00    -0.354 N 
ATOM     52  N   UNL A   1      40.142  32.411  31.407  1.00  0.00    -0.248 NA
ATOM     53  C   UNL A   1      38.553  34.124  31.449  1.00  0.00     0.031 C 
ATOM     54  C   UNL A   1      43.986  32.516  33.626  1.00  0.00     0.029 A 
ATOM     55  C   UNL A   1      42.781  32.508  32.942  1.00  0.00     0.049 A 
ATOM     56  H   UNL A   1      41.950  30.997  31.727  1.00  0.00     0.167 HD
ATOM     57  C   UNL A   1      40.612  33.450  32.198  1.00  0.00     0.074 A 
ATOM     58  C   UNL A   1      39.606  34.492  32.165  1.00  0.00     0.031 C 
ATOM     59  C   UNL A   1      41.774  33.535  32.891  1.00  0.00     0.031 A 
BRANCH  46  60
ATOM     60  C   UNL A   1      45.352  28.520  32.430  1.00  0.00    -0.014 A 
ATOM     61  C   UNL A   1      46.544  28.655  31.699  1.00  0.00     0.009 A 
ATOM     62  C   UNL A   1      45.347  27.713  33.578  1.00  0.00     0.009 A 
ATOM     63  C   UNL A   1      47.692  27.961  32.084  1.00  0.00     0.001 A 
ATOM     64  C   UNL A   1      46.507  27.045  33.978  1.00  0.00     0.001 A 
ATOM     65  C   UNL A   1      47.674  27.161  33.224  1.00  0.00     0.000 A 
ENDBRANCH  46  60
BRANCH  47  66
ATOM     66  C   UNL A   1      36.731  32.713  29.653  1.00  0.00    -0.014 A 
ATOM     67  C   UNL A   1      36.603  33.361  28.415  1.00  0.00     0.009 A 
ATOM     68  C   UNL A   1      35.624  32.666  30.512  1.00  0.00     0.009 A 
ATOM     69  C   UNL A   1      35.401  33.973  28.056  1.00  0.00     0.001 A 
ATOM     70  C   UNL A   1      34.413  33.256  30.140  1.00  0.00     0.001 A 
ATOM     71  C   UNL A   1      34.306  33.916  28.917  1.00  0.00     0.000 A 
ENDBRANCH  47  66
BRANCH  59  72
ATOM     72  C   UNL A   1      42.039  34.812  33.633  1.00  0.00    -0.014 A 
ATOM     73  C   UNL A   1      42.831  35.827  33.076  1.00  0.00     0.009 A 
ATOM     74  C   UNL A   1      41.444  35.019  34.887  1.00  0.00     0.009 A 
ATOM     75  C   UNL A   1      43.046  37.016  33.776  1.00  0.00     0.001 A 
ATOM     76  C   UNL A   1      41.640  36.219  35.573  1.00  0.00     0.001 A 
ATOM     77  C   UNL A   1      42.446  37.212  35.021  1.00  0.00     0.000 A 
ENDBRANCH  59  72
ENDBRANCH  33  34
ENDBRANCH  25  28
ENDBRANCH  23  24
ENDBRANCH   1  23
TORSDOF 12
ENDMDL
MODEL 3
REMARK VINA RESULT:     -10.9      2.467      7.680
REMARK SMILES CC(=O)Nc1sc(-c2ccccc2)cc1C(=O)NCCCNC(=O)c1ccc(-c2c3nc(c(-c4ccccc4)c4ccc([nH]4)c(-c4ccccc4)c4nc(c(-c5ccccc5)c5ccc2[nH]5)C=C4)C=C3)cc1
REMARK SMILES IDX 20 1 19 2 18 3 16 4 17 5 15 7 5 8 6 9 7 10 14 11 4 12 1 13
REMARK SMILES IDX 2 14 3 15 8 17 9 18 13 19 10 20 12 21 11 22 21 23 22 24
REMARK SMILES IDX 23 25 24 27 25 28 26 29 72 30 27 31 71 32 28 33 29 34 30 35
REMARK SMILES IDX 65 36 31 37 70 38 64 39 66 40 32 41 69 42 63 43 62 44 33 46
REMARK SMILES IDX 55 47 40 48 54 49 41 50 44 51 53 52 67 53 42 54 43 55 52 57
REMARK SMILES IDX 68 58 45 59 34 60 35 61 39 62 36 63 38 64 37 65 56 66 57 67
REMARK SMILES IDX 61 68 58 69 60 70 59 71 46 72 47 73 51 74 48 75 50 76 49 77
REMARK H PARENT 18 6 4 16 22 26 66 45 44 56
REMARK Flexibility Score: inf
ROOT
ATOM      1  C   UNL A   1      37.782  20.109  25.110  1.00  0.00     0.042 C 
ENDROOT
BRANCH   1   2
ATOM      2  C   UNL A   1      36.671  21.145  25.127  1.00  0.00     0.118 C 
BRANCH   2   3
ATOM      3  N   UNL A   1      36.538  21.879  23.883  1.00  0.00    -0.352 N 
ATOM      4  C   UNL A   1      35.677  22.882  23.517  1.00  0.00     0.254 C 
ATOM      5  O   UNL A   1      35.790  23.320  22.371  1.00  0.00    -0.269 OA
ATOM      6  H   UNL A   1      37.173  21.611  23.181  1.00  0.00     0.163 HD
BRANCH   4   7
ATOM      7  C   UNL A   1      34.619  23.361  24.402  1.00  0.00     0.075 A 
ATOM      8  C   UNL A   1      33.606  22.679  25.048  1.00  0.00     0.108 A 
ATOM      9  S   UNL A   1      32.424  23.723  25.699  1.00  0.00    -0.117 S 
ATOM     10  C   UNL A   1      33.433  25.089  25.513  1.00  0.00     0.037 A 
ATOM     11  C   UNL A   1      34.532  24.766  24.746  1.00  0.00     0.036 A 
BRANCH   8  12
ATOM     12  N   UNL A   1      33.258  21.370  25.277  1.00  0.00    -0.317 N 
ATOM     13  C   UNL A   1      32.170  20.892  23.093  1.00  0.00     0.114 C 
ATOM     14  C   UNL A   1      32.500  20.534  24.514  1.00  0.00     0.221 C 
ATOM     15  O   UNL A   1      32.157  19.450  24.990  1.00  0.00    -0.275 OA
ATOM     16  H   UNL A   1      33.607  20.981  26.112  1.00  0.00     0.170 HD
ENDBRANCH   8  12
BRANCH  10  17
ATOM     17  C   UNL A   1      33.058  26.378  26.100  1.00  0.00    -0.008 A 
ATOM     18  C   UNL A   1      33.965  27.449  26.109  1.00  0.00     0.009 A 
ATOM     19  C   UNL A   1      31.773  26.582  26.620  1.00  0.00     0.009 A 
ATOM     20  C   UNL A   1      33.601  28.691  26.633  1.00  0.00     0.001 A 
ATOM     21  C   UNL A   1      31.409  27.825  27.146  1.00  0.00     0.001 A 
ATOM     22  C   UNL A   1      32.324  28.878  27.152  1.00  0.00     0.000 A 
ENDBRANCH  10  17
ENDBRANCH   4   7
ENDBRANCH   2   3
ENDBRANCH   1   2
BRANCH   1  23
ATOM     23  C   UNL A   1      38.975  20.442  25.997  1.00  0.00     0.118 C 
BRANCH  23  24
ATOM     24  N   UNL A   1      40.079  19.494  25.902  1.00  0.00    -0.352 N 
ATOM     25  C   UNL A   1      41.428  19.649  26.131  1.00  0.00     0.251 C 
ATOM     26  H   UNL A   1      39.815  18.587  25.627  1.00  0.00     0.163 HD
ATOM     27  O   UNL A   1      42.196  18.715  25.919  1.00  0.00    -0.269 OA
BRANCH  25  28
ATOM     28  C   UNL A   1      41.970  20.948  26.583  1.00  0.00     0.039 A 
ATOM     29  C   UNL A   1      42.359  21.891  25.627  1.00  0.00     0.014 A 
ATOM     30  C   UNL A   1      42.073  21.255  27.939  1.00  0.00     0.014 A 
ATOM     31  C   UNL A   1      42.740  23.174  26.031  1.00  0.00     0.010 A 
ATOM     32  C   UNL A   1      42.326  22.563  28.332  1.00  0.00     0.010 A 
ATOM     33  C   UNL A   1      42.664  23.540  27.384  1.00  0.00    -0.014 A 
BRANCH  33  34
ATOM     34  C   UNL A   1      42.930  24.929  27.842  1.00  0.00     0.031 A 
ATOM     35  C   UNL A   1      44.337  25.358  28.162  1.00  0.00     0.074 A 
ATOM     36  C   UNL A   1      41.902  25.772  28.072  1.00  0.00     0.049 A 
ATOM     37  N   UNL A   1      44.759  26.473  28.705  1.00  0.00    -0.248 NA
ATOM     38  C   UNL A   1      45.408  24.390  27.876  1.00  0.00     0.031 C 
ATOM     39  C   UNL A   1      40.484  25.467  27.858  1.00  0.00     0.029 A 
ATOM     40  N   UNL A   1      41.894  27.059  28.546  1.00  0.00    -0.354 N 
ATOM     41  C   UNL A   1      46.130  26.318  28.863  1.00  0.00     0.074 A 
ATOM     42  C   UNL A   1      46.462  24.986  28.410  1.00  0.00     0.031 C 
ATOM     43  C   UNL A   1      39.750  26.548  28.166  1.00  0.00     0.029 A 
ATOM     44  C   UNL A   1      40.636  27.605  28.642  1.00  0.00     0.049 A 
ATOM     45  H   UNL A   1      42.712  27.547  28.796  1.00  0.00     0.167 HD
ATOM     46  C   UNL A   1      47.040  27.211  29.320  1.00  0.00     0.031 A 
ATOM     47  C   UNL A   1      40.238  28.818  29.068  1.00  0.00     0.031 A 
ATOM     48  C   UNL A   1      46.720  28.552  29.726  1.00  0.00     0.049 A 
ATOM     49  C   UNL A   1      41.269  29.805  29.539  1.00  0.00     0.074 A 
ATOM     50  C   UNL A   1      47.578  29.559  30.130  1.00  0.00     0.029 A 
ATOM     51  N   UNL A   1      45.438  29.077  29.765  1.00  0.00    -0.354 N 
ATOM     52  N   UNL A   1      42.569  29.663  29.624  1.00  0.00    -0.248 NA
ATOM     53  C   UNL A   1      40.777  31.125  29.959  1.00  0.00     0.031 C 
ATOM     54  C   UNL A   1      46.811  30.683  30.449  1.00  0.00     0.029 A 
ATOM     55  C   UNL A   1      45.480  30.390  30.198  1.00  0.00     0.049 A 
ATOM     56  H   UNL A   1      44.619  28.588  29.521  1.00  0.00     0.167 HD
ATOM     57  C   UNL A   1      43.053  30.882  30.082  1.00  0.00     0.074 A 
ATOM     58  C   UNL A   1      41.909  31.755  30.243  1.00  0.00     0.031 C 
ATOM     59  C   UNL A   1      44.332  31.245  30.345  1.00  0.00     0.031 A 
BRANCH  46  60
ATOM     60  C   UNL A   1      48.472  26.759  29.396  1.00  0.00    -0.014 A 
ATOM     61  C   UNL A   1      49.363  26.979  28.333  1.00  0.00     0.009 A 
ATOM     62  C   UNL A   1      48.941  26.118  30.554  1.00  0.00     0.009 A 
ATOM     63  C   UNL A   1      50.682  26.527  28.410  1.00  0.00     0.001 A 
ATOM     64  C   UNL A   1      50.270  25.695  30.639  1.00  0.00     0.001 A 
ATOM     65  C   UNL A   1      51.134  25.890  29.563  1.00  0.00     0.000 A 
ENDBRANCH  46  60
BRANCH  47  66
ATOM     66  C   UNL A   1      38.797  29.182  29.043  1.00  0.00    -0.014 A 
ATOM     67  C   UNL A   1      38.006  29.012  30.190  1.00  0.00     0.009 A 
ATOM     68  C   UNL A   1      38.205  29.698  27.881  1.00  0.00     0.009 A 
ATOM     69  C   UNL A   1      36.646  29.326  30.166  1.00  0.00     0.001 A 
ATOM     70  C   UNL A   1      36.849  30.036  27.867  1.00  0.00     0.001 A 
ATOM     71  C   UNL A   1      36.070  29.842  29.006  1.00  0.00     0.000 A 
ENDBRANCH  47  66
BRANCH  59  72
ATOM     72  C   UNL A   1      44.565  32.659  30.793  1.00  0.00    -0.014 A 
ATOM     73  C   UNL A   1      44.587  32.997  32.154  1.00  0.00     0.009 A 
ATOM     74  C   UNL A   1      44.815  33.655  29.836  1.00  0.00     0.009 A 
ATOM     75  C   UNL A   1      44.826  34.315  32.548  1.00  0.00     0.001 A 
ATOM     76  C   UNL A   1      45.080  34.966  30.234  1.00  0.00     0.001 A 
ATOM     77  C   UNL A   1      45.077  35.296  31.587  1.00  0.00     0.000 A 
ENDBRANCH  59  72
ENDBRANCH  33  34
ENDBRANCH  25  28
ENDBRANCH  23  24
ENDBRANCH   1  23
TORSDOF 12
ENDMDL
