MODEL 1
REMARK VINA RESULT:     -12.3      0.000      0.000
REMARK SMILES O=C(NCCCNC(=O)c1cc(Cl)ccc1N1C(=O)CC2(CCCC2)C1=O)c1ccc(-c2c3nc(c(-c4ccccc4)c4ccc([nH]4)c(-c4ccccc4)c4nc(c(-c5ccccc5)c5ccc2[nH]5)C=C4)C=C3)cc1
REMARK SMILES IDX 4 1 3 2 1 3 2 4 28 6 29 7 75 8 30 9 74 10 31 11 32 12 33 13
REMARK SMILES IDX 68 14 34 15 73 16 67 17 69 18 35 19 72 20 66 21 65 22 36 24
REMARK SMILES IDX 58 25 43 26 57 27 44 28 47 29 56 30 70 31 45 32 46 33 55 35
REMARK SMILES IDX 71 36 48 37 37 38 38 39 42 40 39 41 41 42 40 43 59 44 60 45
REMARK SMILES IDX 64 46 61 47 63 48 62 49 49 50 50 51 54 52 51 53 53 54 52 55
REMARK SMILES IDX 5 56 6 57 7 58 8 59 9 61 10 62 11 63 16 64 12 65 15 66 13 67
REMARK SMILES IDX 14 68 17 69 18 70 26 71 19 72 20 73 21 74 27 75 22 76 25 77
REMARK SMILES IDX 23 78 24 79
REMARK H PARENT 3 5 69 23 47 34 7 60
REMARK Flexibility Score: inf
ROOT
ATOM      1  C   UNL A   1      38.928  20.067  25.982  1.00  0.00     0.118 C 
ENDROOT
BRANCH   1   2
ATOM      2  N   UNL A   1      40.144  19.275  25.817  1.00  0.00    -0.352 N 
ATOM      3  O   UNL A   1      42.344  18.841  25.608  1.00  0.00    -0.269 OA
ATOM      4  C   UNL A   1      41.466  19.622  25.965  1.00  0.00     0.251 C 
ATOM      5  H   UNL A   1      39.991  18.338  25.557  1.00  0.00     0.163 HD
BRANCH   4   6
ATOM      6  C   UNL A   1      41.837  20.936  26.532  1.00  0.00     0.039 A 
ATOM      7  C   UNL A   1      41.876  21.126  27.912  1.00  0.00     0.014 A 
ATOM      8  C   UNL A   1      42.174  21.990  25.676  1.00  0.00     0.014 A 
ATOM      9  C   UNL A   1      42.057  22.399  28.428  1.00  0.00     0.010 A 
ATOM     10  C   UNL A   1      42.483  23.249  26.206  1.00  0.00     0.010 A 
ATOM     11  C   UNL A   1      42.394  23.473  27.587  1.00  0.00    -0.014 A 
BRANCH  11  12
ATOM     12  C   UNL A   1      42.728  24.778  28.212  1.00  0.00     0.031 A 
ATOM     13  C   UNL A   1      44.143  25.156  28.545  1.00  0.00     0.074 A 
ATOM     14  C   UNL A   1      41.727  25.660  28.404  1.00  0.00     0.049 A 
ATOM     15  N   UNL A   1      44.598  26.296  29.008  1.00  0.00    -0.248 NA
ATOM     16  C   UNL A   1      45.183  24.136  28.343  1.00  0.00     0.031 C 
ATOM     17  C   UNL A   1      40.309  25.399  28.130  1.00  0.00     0.029 A 
ATOM     18  N   UNL A   1      41.744  26.963  28.829  1.00  0.00    -0.354 N 
ATOM     19  C   UNL A   1      45.967  26.126  29.163  1.00  0.00     0.074 A 
ATOM     20  C   UNL A   1      46.270  24.766  28.772  1.00  0.00     0.031 C 
ATOM     21  C   UNL A   1      39.609  26.526  28.316  1.00  0.00     0.029 A 
ATOM     22  C   UNL A   1      40.510  27.565  28.795  1.00  0.00     0.049 A 
ATOM     23  H   UNL A   1      42.562  27.423  29.128  1.00  0.00     0.167 HD
ATOM     24  C   UNL A   1      46.888  27.026  29.587  1.00  0.00     0.031 A 
ATOM     25  C   UNL A   1      40.134  28.813  29.126  1.00  0.00     0.031 A 
ATOM     26  C   UNL A   1      46.583  28.378  29.978  1.00  0.00     0.049 A 
ATOM     27  C   UNL A   1      41.175  29.776  29.612  1.00  0.00     0.074 A 
ATOM     28  C   UNL A   1      47.449  29.366  30.414  1.00  0.00     0.029 A 
ATOM     29  N   UNL A   1      45.313  28.934  29.981  1.00  0.00    -0.354 N 
ATOM     30  N   UNL A   1      42.468  29.602  29.731  1.00  0.00    -0.248 NA
ATOM     31  C   UNL A   1      40.702  31.107  30.011  1.00  0.00     0.031 C 
ATOM     32  C   UNL A   1      46.699  30.506  30.724  1.00  0.00     0.029 A 
ATOM     33  C   UNL A   1      45.371  30.245  30.429  1.00  0.00     0.049 A 
ATOM     34  H   UNL A   1      44.491  28.467  29.705  1.00  0.00     0.167 HD
ATOM     35  C   UNL A   1      42.965  30.802  30.215  1.00  0.00     0.074 A 
ATOM     36  C   UNL A   1      41.840  31.708  30.328  1.00  0.00     0.031 C 
ATOM     37  C   UNL A   1      44.239  31.125  30.548  1.00  0.00     0.031 A 
BRANCH  24  38
ATOM     38  C   UNL A   1      48.321  26.576  29.669  1.00  0.00    -0.014 A 
ATOM     39  C   UNL A   1      49.216  26.803  28.613  1.00  0.00     0.009 A 
ATOM     40  C   UNL A   1      48.800  25.982  30.849  1.00  0.00     0.009 A 
ATOM     41  C   UNL A   1      50.557  26.427  28.728  1.00  0.00     0.001 A 
ATOM     42  C   UNL A   1      50.146  25.630  30.970  1.00  0.00     0.001 A 
ATOM     43  C   UNL A   1      51.022  25.848  29.908  1.00  0.00     0.000 A 
ENDBRANCH  24  38
BRANCH  25  44
ATOM     44  C   UNL A   1      38.704  29.208  29.040  1.00  0.00    -0.014 A 
ATOM     45  C   UNL A   1      37.857  29.097  30.152  1.00  0.00     0.009 A 
ATOM     46  C   UNL A   1      38.178  29.696  27.833  1.00  0.00     0.009 A 
ATOM     47  C   UNL A   1      36.506  29.438  30.048  1.00  0.00     0.001 A 
ATOM     48  C   UNL A   1      36.838  30.070  27.741  1.00  0.00     0.001 A 
ATOM     49  C   UNL A   1      36.000  29.929  28.844  1.00  0.00     0.000 A 
ENDBRANCH  25  44
BRANCH  37  50
ATOM     50  C   UNL A   1      44.469  32.521  31.050  1.00  0.00    -0.014 A 
ATOM     51  C   UNL A   1      44.398  32.819  32.420  1.00  0.00     0.009 A 
ATOM     52  C   UNL A   1      44.754  33.551  30.142  1.00  0.00     0.009 A 
ATOM     53  C   UNL A   1      44.564  34.131  32.866  1.00  0.00     0.001 A 
ATOM     54  C   UNL A   1      44.950  34.856  30.593  1.00  0.00     0.001 A 
ATOM     55  C   UNL A   1      44.842  35.148  31.952  1.00  0.00     0.000 A 
ENDBRANCH  37  50
ENDBRANCH  11  12
ENDBRANCH   4   6
ENDBRANCH   1   2
BRANCH   1  56
ATOM     56  C   UNL A   1      38.054  20.079  24.740  1.00  0.00     0.042 C 
BRANCH  56  57
ATOM     57  C   UNL A   1      37.154  21.298  24.638  1.00  0.00     0.118 C 
BRANCH  57  58
ATOM     58  N   UNL A   1      36.355  21.503  25.840  1.00  0.00    -0.352 N 
ATOM     59  C   UNL A   1      34.996  21.430  26.027  1.00  0.00     0.253 C 
ATOM     60  H   UNL A   1      36.871  21.730  26.647  1.00  0.00     0.163 HD
ATOM     61  O   UNL A   1      34.505  21.817  27.086  1.00  0.00    -0.269 OA
BRANCH  59  62
ATOM     62  C   UNL A   1      34.120  20.848  24.983  1.00  0.00     0.065 A 
ATOM     63  C   UNL A   1      33.937  19.454  24.992  1.00  0.00     0.036 A 
ATOM     64  C   UNL A   1      33.325  21.656  24.144  1.00  0.00     0.065 A 
ATOM     65  C   UNL A   1      33.065  18.853  24.094  1.00  0.00     0.041 A 
ATOM     66  C   UNL A   1      32.409  21.025  23.282  1.00  0.00     0.029 A 
ATOM     67  Cl  UNL A   1      32.924  17.140  24.061  1.00  0.00    -0.084 Cl
ATOM     68  C   UNL A   1      32.303  19.633  23.234  1.00  0.00     0.023 A 
BRANCH  64  69
ATOM     69  N   UNL A   1      33.391  23.072  24.146  1.00  0.00    -0.249 N 
ATOM     70  C   UNL A   1      34.266  23.788  23.360  1.00  0.00     0.234 C 
ATOM     71  C   UNL A   1      32.624  23.881  24.952  1.00  0.00     0.240 C 
ATOM     72  O   UNL A   1      35.148  23.364  22.630  1.00  0.00    -0.274 OA
ATOM     73  C   UNL A   1      33.921  25.245  23.467  1.00  0.00     0.118 C 
ATOM     74  C   UNL A   1      33.031  25.320  24.704  1.00  0.00     0.059 C 
ATOM     75  O   UNL A   1      31.847  23.530  25.834  1.00  0.00    -0.273 OA
ATOM     76  C   UNL A   1      33.770  25.914  25.908  1.00  0.00     0.017 C 
ATOM     77  C   UNL A   1      31.843  26.266  24.554  1.00  0.00     0.017 C 
ATOM     78  C   UNL A   1      33.630  27.426  25.745  1.00  0.00     0.001 C 
ATOM     79  C   UNL A   1      32.413  27.650  24.849  1.00  0.00     0.001 C 
ENDBRANCH  64  69
ENDBRANCH  59  62
ENDBRANCH  57  58
ENDBRANCH  56  57
ENDBRANCH   1  56
TORSDOF 11
ENDMDL
MODEL 2
REMARK VINA RESULT:     -12.2      3.923      8.999
REMARK SMILES O=C(NCCCNC(=O)c1cc(Cl)ccc1N1C(=O)CC2(CCCC2)C1=O)c1ccc(-c2c3nc(c(-c4ccccc4)c4ccc([nH]4)c(-c4ccccc4)c4nc(c(-c5ccccc5)c5ccc2[nH]5)C=C4)C=C3)cc1
REMARK SMILES IDX 4 1 3 2 1 3 2 4 28 6 29 7 75 8 30 9 74 10 31 11 32 12 33 13
REMARK SMILES IDX 68 14 34 15 73 16 67 17 69 18 35 19 72 20 66 21 65 22 36 24
REMARK SMILES IDX 58 25 43 26 57 27 44 28 47 29 56 30 70 31 45 32 46 33 55 35
REMARK SMILES IDX 71 36 48 37 37 38 38 39 42 40 39 41 41 42 40 43 59 44 60 45
REMARK SMILES IDX 64 46 61 47 63 48 62 49 49 50 50 51 54 52 51 53 53 54 52 55
REMARK SMILES IDX 5 56 6 57 7 58 8 59 9 61 10 62 11 63 16 64 12 65 15 66 13 67
REMARK SMILES IDX 14 68 17 69 18 70 26 71 19 72 20 73 21 74 27 75 22 76 25 77
REMARK SMILES IDX 23 78 24 79
REMARK H PARENT 3 5 69 23 47 34 7 60
REMARK Flexibility Score: inf
ROOT
ATOM      1  C   UNL A   1      32.670  32.568  26.877  1.00  0.00     0.118 C 
ENDROOT
BRANCH   1   2
ATOM      2  N   UNL A   1      32.436  33.808  27.611  1.00  0.00    -0.352 N 
ATOM      3  O   UNL A   1      32.670  35.354  29.233  1.00  0.00    -0.269 OA
ATOM      4  C   UNL A   1      33.140  34.387  28.641  1.00  0.00     0.251 C 
ATOM      5  H   UNL A   1      31.643  34.314  27.320  1.00  0.00     0.163 HD
BRANCH   4   6
ATOM      6  C   UNL A   1      34.451  33.840  29.052  1.00  0.00     0.039 A 
ATOM      7  C   UNL A   1      35.613  34.201  28.375  1.00  0.00     0.014 A 
ATOM      8  C   UNL A   1      34.526  32.970  30.146  1.00  0.00     0.014 A 
ATOM      9  C   UNL A   1      36.806  33.554  28.657  1.00  0.00     0.010 A 
ATOM     10  C   UNL A   1      35.758  32.413  30.513  1.00  0.00     0.010 A 
ATOM     11  C   UNL A   1      36.903  32.675  29.749  1.00  0.00    -0.014 A 
BRANCH  11  12
ATOM     12  C   UNL A   1      38.242  32.133  30.097  1.00  0.00     0.031 A 
ATOM     13  C   UNL A   1      39.135  32.811  31.096  1.00  0.00     0.074 A 
ATOM     14  C   UNL A   1      38.609  30.958  29.546  1.00  0.00     0.049 A 
ATOM     15  N   UNL A   1      40.289  32.406  31.569  1.00  0.00    -0.248 NA
ATOM     16  C   UNL A   1      38.690  34.106  31.633  1.00  0.00     0.031 C 
ATOM     17  C   UNL A   1      37.829  30.212  28.552  1.00  0.00     0.029 A 
ATOM     18  N   UNL A   1      39.701  30.162  29.771  1.00  0.00    -0.354 N 
ATOM     19  C   UNL A   1      40.712  33.398  32.445  1.00  0.00     0.074 A 
ATOM     20  C   UNL A   1      39.706  34.439  32.421  1.00  0.00     0.031 C 
ATOM     21  C   UNL A   1      38.425  29.036  28.316  1.00  0.00     0.029 A 
ATOM     22  C   UNL A   1      39.665  28.976  29.077  1.00  0.00     0.049 A 
ATOM     23  H   UNL A   1      40.440  30.413  30.372  1.00  0.00     0.167 HD
ATOM     24  C   UNL A   1      41.834  33.432  33.204  1.00  0.00     0.031 A 
ATOM     25  C   UNL A   1      40.538  27.953  29.042  1.00  0.00     0.031 A 
ATOM     26  C   UNL A   1      42.835  32.397  33.225  1.00  0.00     0.049 A 
ATOM     27  C   UNL A   1      41.779  28.034  29.879  1.00  0.00     0.074 A 
ATOM     28  C   UNL A   1      44.002  32.339  33.967  1.00  0.00     0.029 A 
ATOM     29  N   UNL A   1      42.787  31.236  32.468  1.00  0.00    -0.354 N 
ATOM     30  N   UNL A   1      42.149  28.971  30.717  1.00  0.00    -0.248 NA
ATOM     31  C   UNL A   1      42.723  26.917  29.762  1.00  0.00     0.031 C 
ATOM     32  C   UNL A   1      44.683  31.165  33.627  1.00  0.00     0.029 A 
ATOM     33  C   UNL A   1      43.914  30.465  32.712  1.00  0.00     0.049 A 
ATOM     34  H   UNL A   1      42.061  30.994  31.849  1.00  0.00     0.167 HD
ATOM     35  C   UNL A   1      43.368  28.555  31.230  1.00  0.00     0.074 A 
ATOM     36  C   UNL A   1      43.653  27.263  30.640  1.00  0.00     0.031 C 
ATOM     37  C   UNL A   1      44.186  29.190  32.105  1.00  0.00     0.031 A 
BRANCH  24  38
ATOM     38  C   UNL A   1      42.055  34.641  34.072  1.00  0.00    -0.014 A 
ATOM     39  C   UNL A   1      42.667  35.798  33.565  1.00  0.00     0.009 A 
ATOM     40  C   UNL A   1      41.580  34.649  35.394  1.00  0.00     0.009 A 
ATOM     41  C   UNL A   1      42.814  36.931  34.370  1.00  0.00     0.001 A 
ATOM     42  C   UNL A   1      41.707  35.791  36.187  1.00  0.00     0.001 A 
ATOM     43  C   UNL A   1      42.329  36.929  35.676  1.00  0.00     0.000 A 
ENDBRANCH  24  38
BRANCH  25  44
ATOM     44  C   UNL A   1      40.281  26.786  28.161  1.00  0.00    -0.014 A 
ATOM     45  C   UNL A   1      39.506  25.704  28.602  1.00  0.00     0.009 A 
ATOM     46  C   UNL A   1      40.821  26.749  26.864  1.00  0.00     0.009 A 
ATOM     47  C   UNL A   1      39.302  24.597  27.776  1.00  0.00     0.001 A 
ATOM     48  C   UNL A   1      40.586  25.658  26.027  1.00  0.00     0.001 A 
ATOM     49  C   UNL A   1      39.838  24.577  26.488  1.00  0.00     0.000 A 
ENDBRANCH  25  44
BRANCH  37  50
ATOM     50  C   UNL A   1      45.455  28.477  32.476  1.00  0.00    -0.014 A 
ATOM     51  C   UNL A   1      46.638  28.680  31.749  1.00  0.00     0.009 A 
ATOM     52  C   UNL A   1      45.464  27.591  33.563  1.00  0.00     0.009 A 
ATOM     53  C   UNL A   1      47.796  27.971  32.076  1.00  0.00     0.001 A 
ATOM     54  C   UNL A   1      46.630  26.908  33.907  1.00  0.00     0.001 A 
ATOM     55  C   UNL A   1      47.791  27.088  33.156  1.00  0.00     0.000 A 
ENDBRANCH  37  50
ENDBRANCH  11  12
ENDBRANCH   4   6
ENDBRANCH   1   2
BRANCH   1  56
ATOM     56  C   UNL A   1      31.430  31.696  26.774  1.00  0.00     0.042 C 
BRANCH  56  57
ATOM     57  C   UNL A   1      31.736  30.223  26.560  1.00  0.00     0.118 C 
BRANCH  57  58
ATOM     58  N   UNL A   1      32.537  29.988  25.365  1.00  0.00    -0.352 N 
ATOM     59  C   UNL A   1      32.257  29.255  24.238  1.00  0.00     0.253 C 
ATOM     60  H   UNL A   1      33.419  30.425  25.365  1.00  0.00     0.163 HD
ATOM     61  O   UNL A   1      33.145  29.034  23.417  1.00  0.00    -0.269 OA
BRANCH  59  62
ATOM     62  C   UNL A   1      30.883  28.763  23.978  1.00  0.00     0.065 A 
ATOM     63  C   UNL A   1      29.993  29.637  23.329  1.00  0.00     0.036 A 
ATOM     64  C   UNL A   1      30.528  27.412  24.169  1.00  0.00     0.065 A 
ATOM     65  C   UNL A   1      28.717  29.212  22.982  1.00  0.00     0.041 A 
ATOM     66  C   UNL A   1      29.249  26.993  23.758  1.00  0.00     0.029 A 
ATOM     67  Cl  UNL A   1      27.613  30.322  22.272  1.00  0.00    -0.084 Cl
ATOM     68  C   UNL A   1      28.338  27.893  23.199  1.00  0.00     0.023 A 
BRANCH  64  69
ATOM     69  N   UNL A   1      31.408  26.454  24.734  1.00  0.00    -0.249 N 
ATOM     70  C   UNL A   1      31.506  26.226  26.088  1.00  0.00     0.234 C 
ATOM     71  C   UNL A   1      32.279  25.679  24.004  1.00  0.00     0.240 C 
ATOM     72  O   UNL A   1      30.958  26.827  26.998  1.00  0.00    -0.274 OA
ATOM     73  C   UNL A   1      32.372  25.020  26.307  1.00  0.00     0.118 C 
ATOM     74  C   UNL A   1      33.084  24.833  24.970  1.00  0.00     0.059 C 
ATOM     75  O   UNL A   1      32.499  25.742  22.799  1.00  0.00    -0.273 OA
ATOM     76  C   UNL A   1      34.548  25.281  25.031  1.00  0.00     0.017 C 
ATOM     77  C   UNL A   1      33.208  23.375  24.536  1.00  0.00     0.017 C 
ATOM     78  C   UNL A   1      35.304  24.071  25.576  1.00  0.00     0.001 C 
ATOM     79  C   UNL A   1      34.429  22.853  25.288  1.00  0.00     0.001 C 
ENDBRANCH  64  69
ENDBRANCH  59  62
ENDBRANCH  57  58
ENDBRANCH  56  57
ENDBRANCH   1  56
TORSDOF 11
ENDMDL
MODEL 3
REMARK VINA RESULT:     -12.2      0.576      1.297
REMARK SMILES O=C(NCCCNC(=O)c1cc(Cl)ccc1N1C(=O)CC2(CCCC2)C1=O)c1ccc(-c2c3nc(c(-c4ccccc4)c4ccc([nH]4)c(-c4ccccc4)c4nc(c(-c5ccccc5)c5ccc2[nH]5)C=C4)C=C3)cc1
REMARK SMILES IDX 4 1 3 2 1 3 2 4 28 6 29 7 75 8 30 9 74 10 31 11 32 12 33 13
REMARK SMILES IDX 68 14 34 15 73 16 67 17 69 18 35 19 72 20 66 21 65 22 36 24
REMARK SMILES IDX 58 25 43 26 57 27 44 28 47 29 56 30 70 31 45 32 46 33 55 35
REMARK SMILES IDX 71 36 48 37 37 38 38 39 42 40 39 41 41 42 40 43 59 44 60 45
REMARK SMILES IDX 64 46 61 47 63 48 62 49 49 50 50 51 54 52 51 53 53 54 52 55
REMARK SMILES IDX 5 56 6 57 7 58 8 59 9 61 10 62 11 63 16 64 12 65 15 66 13 67
REMARK SMILES IDX 14 68 17 69 18 70 26 71 19 72 20 73 21 74 27 75 22 76 25 77
REMARK SMILES IDX 23 78 24 79
REMARK H PARENT 3 5 69 23 47 34 7 60
REMARK Flexibility Score: inf
ROOT
ATOM      1  C   UNL A   1      38.867  20.126  25.932  1.00  0.00     0.118 C 
ENDROOT
BRANCH   1   2
ATOM      2  N   UNL A   1      40.076  19.317  25.807  1.00  0.00    -0.352 N 
ATOM      3  O   UNL A   1      42.275  18.852  25.666  1.00  0.00    -0.269 OA
ATOM      4  C   UNL A   1      41.398  19.647  25.992  1.00  0.00     0.251 C 
ATOM      5  H   UNL A   1      39.918  18.380  25.550  1.00  0.00     0.163 HD
BRANCH   4   6
ATOM      6  C   UNL A   1      41.770  20.960  26.561  1.00  0.00     0.039 A 
ATOM      7  C   UNL A   1      41.775  21.158  27.940  1.00  0.00     0.014 A 
ATOM      8  C   UNL A   1      42.143  22.004  25.707  1.00  0.00     0.014 A 
ATOM      9  C   UNL A   1      41.957  22.433  28.453  1.00  0.00     0.010 A 
ATOM     10  C   UNL A   1      42.453  23.263  26.237  1.00  0.00     0.010 A 
ATOM     11  C   UNL A   1      42.330  23.496  27.614  1.00  0.00    -0.014 A 
BRANCH  11  12
ATOM     12  C   UNL A   1      42.663  24.801  28.240  1.00  0.00     0.031 A 
ATOM     13  C   UNL A   1      44.077  25.176  28.583  1.00  0.00     0.074 A 
ATOM     14  C   UNL A   1      41.663  25.687  28.423  1.00  0.00     0.049 A 
ATOM     15  N   UNL A   1      44.532  26.315  29.048  1.00  0.00    -0.248 NA
ATOM     16  C   UNL A   1      45.115  24.152  28.391  1.00  0.00     0.031 C 
ATOM     17  C   UNL A   1      40.247  25.430  28.139  1.00  0.00     0.029 A 
ATOM     18  N   UNL A   1      41.682  26.990  28.846  1.00  0.00    -0.354 N 
ATOM     19  C   UNL A   1      45.899  26.141  29.214  1.00  0.00     0.074 A 
ATOM     20  C   UNL A   1      46.201  24.779  28.828  1.00  0.00     0.031 C 
ATOM     21  C   UNL A   1      39.549  26.560  28.317  1.00  0.00     0.029 A 
ATOM     22  C   UNL A   1      40.450  27.596  28.802  1.00  0.00     0.049 A 
ATOM     23  H   UNL A   1      42.499  27.449  29.151  1.00  0.00     0.167 HD
ATOM     24  C   UNL A   1      46.819  27.039  29.644  1.00  0.00     0.031 A 
ATOM     25  C   UNL A   1      40.075  28.847  29.128  1.00  0.00     0.031 A 
ATOM     26  C   UNL A   1      46.516  28.392  30.031  1.00  0.00     0.049 A 
ATOM     27  C   UNL A   1      41.115  29.807  29.620  1.00  0.00     0.074 A 
ATOM     28  C   UNL A   1      47.382  29.378  30.472  1.00  0.00     0.029 A 
ATOM     29  N   UNL A   1      45.248  28.952  30.023  1.00  0.00    -0.354 N 
ATOM     30  N   UNL A   1      42.407  29.629  29.750  1.00  0.00    -0.248 NA
ATOM     31  C   UNL A   1      40.644  31.140  30.014  1.00  0.00     0.031 C 
ATOM     32  C   UNL A   1      46.633  30.520  30.774  1.00  0.00     0.029 A 
ATOM     33  C   UNL A   1      45.306  30.263  30.469  1.00  0.00     0.049 A 
ATOM     34  H   UNL A   1      44.427  28.488  29.741  1.00  0.00     0.167 HD
ATOM     35  C   UNL A   1      42.905  30.828  30.236  1.00  0.00     0.074 A 
ATOM     36  C   UNL A   1      41.781  31.738  30.339  1.00  0.00     0.031 C 
ATOM     37  C   UNL A   1      44.177  31.147  30.578  1.00  0.00     0.031 A 
BRANCH  24  38
ATOM     38  C   UNL A   1      48.250  26.584  29.738  1.00  0.00    -0.014 A 
ATOM     39  C   UNL A   1      48.729  25.916  30.875  1.00  0.00     0.009 A 
ATOM     40  C   UNL A   1      49.113  26.761  28.643  1.00  0.00     0.009 A 
ATOM     41  C   UNL A   1      50.046  25.452  30.923  1.00  0.00     0.001 A 
ATOM     42  C   UNL A   1      50.421  26.275  28.684  1.00  0.00     0.001 A 
ATOM     43  C   UNL A   1      50.888  25.626  29.826  1.00  0.00     0.000 A 
ENDBRANCH  24  38
BRANCH  25  44
ATOM     44  C   UNL A   1      38.647  29.246  29.030  1.00  0.00    -0.014 A 
ATOM     45  C   UNL A   1      37.784  29.113  30.128  1.00  0.00     0.009 A 
ATOM     46  C   UNL A   1      38.140  29.761  27.826  1.00  0.00     0.009 A 
ATOM     47  C   UNL A   1      36.436  29.459  30.011  1.00  0.00     0.001 A 
ATOM     48  C   UNL A   1      36.801  30.139  27.723  1.00  0.00     0.001 A 
ATOM     49  C   UNL A   1      35.948  29.976  28.812  1.00  0.00     0.000 A 
ENDBRANCH  25  44
BRANCH  37  50
ATOM     50  C   UNL A   1      44.407  32.544  31.080  1.00  0.00    -0.014 A 
ATOM     51  C   UNL A   1      44.328  32.843  32.449  1.00  0.00     0.009 A 
ATOM     52  C   UNL A   1      44.701  33.572  30.172  1.00  0.00     0.009 A 
ATOM     53  C   UNL A   1      44.495  34.155  32.894  1.00  0.00     0.001 A 
ATOM     54  C   UNL A   1      44.898  34.877  30.623  1.00  0.00     0.001 A 
ATOM     55  C   UNL A   1      44.782  35.170  31.981  1.00  0.00     0.000 A 
ENDBRANCH  37  50
ENDBRANCH  11  12
ENDBRANCH   4   6
ENDBRANCH   1   2
BRANCH   1  56
ATOM     56  C   UNL A   1      37.936  19.989  24.739  1.00  0.00     0.042 C 
BRANCH  56  57
ATOM     57  C   UNL A   1      36.947  21.135  24.602  1.00  0.00     0.118 C 
BRANCH  57  58
ATOM     58  N   UNL A   1      36.073  21.258  25.762  1.00  0.00    -0.352 N 
ATOM     59  C   UNL A   1      34.723  21.037  25.886  1.00  0.00     0.253 C 
ATOM     60  H   UNL A   1      36.522  21.545  26.590  1.00  0.00     0.163 HD
ATOM     61  O   UNL A   1      34.141  21.374  26.915  1.00  0.00    -0.269 OA
BRANCH  59  62
ATOM     62  C   UNL A   1      33.968  20.356  24.808  1.00  0.00     0.065 A 
ATOM     63  C   UNL A   1      34.077  18.957  24.722  1.00  0.00     0.036 A 
ATOM     64  C   UNL A   1      33.008  21.035  24.029  1.00  0.00     0.065 A 
ATOM     65  C   UNL A   1      33.332  18.248  23.789  1.00  0.00     0.041 A 
ATOM     66  C   UNL A   1      32.227  20.285  23.129  1.00  0.00     0.029 A 
ATOM     67  Cl  UNL A   1      33.548  16.550  23.639  1.00  0.00    -0.084 Cl
ATOM     68  C   UNL A   1      32.410  18.908  22.987  1.00  0.00     0.023 A 
BRANCH  64  69
ATOM     69  N   UNL A   1      32.780  22.431  24.127  1.00  0.00    -0.249 N 
ATOM     70  C   UNL A   1      31.799  22.981  24.922  1.00  0.00     0.234 C 
ATOM     71  C   UNL A   1      33.481  23.381  23.421  1.00  0.00     0.240 C 
ATOM     72  O   UNL A   1      30.943  22.406  25.575  1.00  0.00    -0.274 OA
ATOM     73  C   UNL A   1      31.979  24.471  24.938  1.00  0.00     0.118 C 
ATOM     74  C   UNL A   1      32.902  24.741  23.754  1.00  0.00     0.059 C 
ATOM     75  O   UNL A   1      34.327  23.188  22.554  1.00  0.00    -0.273 OA
ATOM     76  C   UNL A   1      32.148  25.342  22.563  1.00  0.00     0.017 C 
ATOM     77  C   UNL A   1      33.968  25.798  24.030  1.00  0.00     0.017 C 
ATOM     78  C   UNL A   1      32.107  26.843  22.843  1.00  0.00     0.001 C 
ATOM     79  C   UNL A   1      33.254  27.129  23.811  1.00  0.00     0.001 C 
ENDBRANCH  64  69
ENDBRANCH  59  62
ENDBRANCH  57  58
ENDBRANCH  56  57
ENDBRANCH   1  56
TORSDOF 11
ENDMDL
