MODEL 1
REMARK VINA RESULT:      -9.7      0.000      0.000
REMARK SMILES CC(C)[NH2+][C@@H](CSc1cccc(F)c1)C(=O)NCCCNC(=O)c1ccc(-c2c3nc(c(-c4ccccc4)c4ccc([nH]4)c(-c4ccccc4)c4nc(c(-c5ccccc5)c5ccc2[nH]5)C=C4)C=C3)cc1
REMARK SMILES IDX 18 1 17 2 15 3 16 4 5 6 4 7 2 10 1 11 3 12 6 13 7 14 8 15
REMARK SMILES IDX 9 16 14 17 10 18 12 19 11 20 13 21 19 22 20 23 21 24 22 25
REMARK SMILES IDX 23 27 24 28 25 29 71 30 26 31 70 32 27 33 28 34 29 35 64 36
REMARK SMILES IDX 30 37 69 38 63 39 65 40 31 41 68 42 62 43 61 44 32 46 54 47
REMARK SMILES IDX 39 48 53 49 40 50 43 51 52 52 66 53 41 54 42 55 51 57 67 58
REMARK SMILES IDX 44 59 33 60 34 61 38 62 35 63 37 64 36 65 55 66 56 67 60 68
REMARK SMILES IDX 57 69 59 70 58 71 45 72 46 73 50 74 47 75 49 76 48 77
REMARK H PARENT 17 5 4 8 4 9 21 26 65 45 43 56
REMARK Flexibility Score: inf
ROOT
ATOM      1  C   UNL A   1      33.318  28.908  24.761  1.00  0.00     0.118 C 
ENDROOT
BRANCH   1   2
ATOM      2  N   UNL A   1      33.751  28.341  23.499  1.00  0.00    -0.351 N 
ATOM      3  C   UNL A   1      33.447  27.195  22.833  1.00  0.00     0.279 C 
ATOM      4  O   UNL A   1      33.949  27.101  21.704  1.00  0.00    -0.268 OA
ATOM      5  H   UNL A   1      34.401  28.906  23.023  1.00  0.00     0.163 HD
BRANCH   3   6
ATOM      6  C   UNL A   1      32.572  26.025  23.391  1.00  0.00     0.283 C 
BRANCH   6   7
ATOM      7  N   UNL A   1      31.154  26.323  23.158  1.00  0.00    -0.333 N 
ATOM      8  H   UNL A   1      31.064  27.334  23.069  1.00  0.00     0.347 HD
ATOM      9  H   UNL A   1      30.910  25.787  22.324  1.00  0.00     0.347 HD
BRANCH   7  10
ATOM     10  C   UNL A   1      30.194  25.885  24.173  1.00  0.00     0.176 C 
ATOM     11  C   UNL A   1      30.669  26.516  25.490  1.00  0.00     0.075 C 
ATOM     12  C   UNL A   1      28.757  26.329  23.906  1.00  0.00     0.075 C 
ENDBRANCH   7  10
ENDBRANCH   6   7
BRANCH   6  13
ATOM     13  C   UNL A   1      33.128  24.618  23.093  1.00  0.00     0.150 C 
BRANCH  13  14
ATOM     14  S   UNL A   1      33.530  23.194  24.230  1.00  0.00    -0.119 SA
BRANCH  14  15
ATOM     15  C   UNL A   1      35.216  23.070  24.793  1.00  0.00     0.010 A 
ATOM     16  C   UNL A   1      35.978  23.984  25.520  1.00  0.00     0.015 A 
ATOM     17  C   UNL A   1      35.825  21.839  24.502  1.00  0.00     0.054 A 
ATOM     18  C   UNL A   1      37.319  23.742  25.853  1.00  0.00     0.004 A 
ATOM     19  C   UNL A   1      37.144  21.578  24.866  1.00  0.00     0.124 A 
ATOM     20  C   UNL A   1      37.907  22.530  25.521  1.00  0.00     0.039 A 
ATOM     21  F   UNL A   1      37.682  20.385  24.580  1.00  0.00    -0.207 F 
ENDBRANCH  14  15
ENDBRANCH  13  14
ENDBRANCH   6  13
ENDBRANCH   3   6
ENDBRANCH   1   2
BRANCH   1  22
ATOM     22  C   UNL A   1      34.048  28.300  25.950  1.00  0.00     0.042 C 
BRANCH  22  23
ATOM     23  C   UNL A   1      33.377  28.575  27.279  1.00  0.00     0.118 C 
BRANCH  23  24
ATOM     24  N   UNL A   1      33.401  29.995  27.612  1.00  0.00    -0.352 N 
ATOM     25  C   UNL A   1      34.354  30.782  28.212  1.00  0.00     0.251 C 
ATOM     26  H   UNL A   1      32.582  30.480  27.360  1.00  0.00     0.163 HD
ATOM     27  O   UNL A   1      34.037  31.911  28.576  1.00  0.00    -0.269 OA
BRANCH  25  28
ATOM     28  C   UNL A   1      35.739  30.304  28.444  1.00  0.00     0.039 A 
ATOM     29  C   UNL A   1      36.671  30.412  27.404  1.00  0.00     0.014 A 
ATOM     30  C   UNL A   1      36.128  29.696  29.638  1.00  0.00     0.014 A 
ATOM     31  C   UNL A   1      37.981  29.958  27.584  1.00  0.00     0.010 A 
ATOM     32  C   UNL A   1      37.462  29.374  29.864  1.00  0.00     0.010 A 
ATOM     33  C   UNL A   1      38.399  29.464  28.830  1.00  0.00    -0.014 A 
BRANCH  33  34
ATOM     34  C   UNL A   1      39.794  29.000  29.051  1.00  0.00     0.031 A 
ATOM     35  C   UNL A   1      40.807  29.903  29.711  1.00  0.00     0.074 A 
ATOM     36  C   UNL A   1      40.165  27.778  28.620  1.00  0.00     0.049 A 
ATOM     37  N   UNL A   1      42.067  29.671  29.984  1.00  0.00    -0.248 NA
ATOM     38  C   UNL A   1      40.359  31.257  30.081  1.00  0.00     0.031 C 
ATOM     39  C   UNL A   1      39.305  26.831  27.905  1.00  0.00     0.029 A 
ATOM     40  N   UNL A   1      41.364  27.119  28.729  1.00  0.00    -0.354 N 
ATOM     41  C   UNL A   1      42.561  30.852  30.527  1.00  0.00     0.074 A 
ATOM     42  C   UNL A   1      41.488  31.818  30.485  1.00  0.00     0.031 C 
ATOM     43  C   UNL A   1      39.986  25.694  27.692  1.00  0.00     0.029 A 
ATOM     44  C   UNL A   1      41.338  25.843  28.220  1.00  0.00     0.049 A 
ATOM     45  H   UNL A   1      42.166  27.522  29.134  1.00  0.00     0.167 HD
ATOM     46  C   UNL A   1      43.787  31.106  31.045  1.00  0.00     0.031 A 
ATOM     47  C   UNL A   1      42.291  24.893  28.195  1.00  0.00     0.031 A 
ATOM     48  C   UNL A   1      44.846  30.137  31.119  1.00  0.00     0.049 A 
ATOM     49  C   UNL A   1      43.627  25.182  28.816  1.00  0.00     0.074 A 
ATOM     50  C   UNL A   1      46.103  30.271  31.682  1.00  0.00     0.029 A 
ATOM     51  N   UNL A   1      44.768  28.847  30.616  1.00  0.00    -0.354 N 
ATOM     52  N   UNL A   1      44.051  26.280  29.394  1.00  0.00    -0.248 NA
ATOM     53  C   UNL A   1      44.608  24.088  28.801  1.00  0.00     0.031 C 
ATOM     54  C   UNL A   1      46.801  29.074  31.485  1.00  0.00     0.029 A 
ATOM     55  C   UNL A   1      45.959  28.178  30.845  1.00  0.00     0.049 A 
ATOM     56  H   UNL A   1      43.982  28.464  30.163  1.00  0.00     0.167 HD
ATOM     57  C   UNL A   1      45.338  26.001  29.835  1.00  0.00     0.074 A 
ATOM     58  C   UNL A   1      45.614  24.624  29.478  1.00  0.00     0.031 C 
ATOM     59  C   UNL A   1      46.216  26.811  30.477  1.00  0.00     0.031 A 
BRANCH  46  60
ATOM     60  C   UNL A   1      44.039  32.489  31.580  1.00  0.00    -0.014 A 
ATOM     61  C   UNL A   1      43.777  32.810  32.923  1.00  0.00     0.009 A 
ATOM     62  C   UNL A   1      44.564  33.482  30.738  1.00  0.00     0.009 A 
ATOM     63  C   UNL A   1      43.995  34.106  33.398  1.00  0.00     0.001 A 
ATOM     64  C   UNL A   1      44.811  34.767  31.224  1.00  0.00     0.001 A 
ATOM     65  C   UNL A   1      44.517  35.082  32.550  1.00  0.00     0.000 A 
ENDBRANCH  46  60
BRANCH  47  66
ATOM     66  C   UNL A   1      41.997  23.560  27.606  1.00  0.00    -0.014 A 
ATOM     67  C   UNL A   1      41.379  22.565  28.379  1.00  0.00     0.009 A 
ATOM     68  C   UNL A   1      42.332  23.276  26.275  1.00  0.00     0.009 A 
ATOM     69  C   UNL A   1      41.129  21.301  27.838  1.00  0.00     0.001 A 
ATOM     70  C   UNL A   1      42.055  22.021  25.727  1.00  0.00     0.001 A 
ATOM     71  C   UNL A   1      41.463  21.032  26.511  1.00  0.00     0.000 A 
ENDBRANCH  47  66
BRANCH  59  72
ATOM     72  C   UNL A   1      47.539  26.211  30.859  1.00  0.00    -0.014 A 
ATOM     73  C   UNL A   1      48.597  26.130  29.940  1.00  0.00     0.009 A 
ATOM     74  C   UNL A   1      47.731  25.728  32.163  1.00  0.00     0.009 A 
ATOM     75  C   UNL A   1      49.803  25.530  30.306  1.00  0.00     0.001 A 
ATOM     76  C   UNL A   1      48.948  25.159  32.535  1.00  0.00     0.001 A 
ATOM     77  C   UNL A   1      49.978  25.046  31.602  1.00  0.00     0.000 A 
ENDBRANCH  59  72
ENDBRANCH  33  34
ENDBRANCH  25  28
ENDBRANCH  23  24
ENDBRANCH  22  23
ENDBRANCH   1  22
TORSDOF 15
ENDMDL
MODEL 2
REMARK VINA RESULT:      -9.7      2.676      4.296
REMARK SMILES CC(C)[NH2+][C@@H](CSc1cccc(F)c1)C(=O)NCCCNC(=O)c1ccc(-c2c3nc(c(-c4ccccc4)c4ccc([nH]4)c(-c4ccccc4)c4nc(c(-c5ccccc5)c5ccc2[nH]5)C=C4)C=C3)cc1
REMARK SMILES IDX 18 1 17 2 15 3 16 4 5 6 4 7 2 10 1 11 3 12 6 13 7 14 8 15
REMARK SMILES IDX 9 16 14 17 10 18 12 19 11 20 13 21 19 22 20 23 21 24 22 25
REMARK SMILES IDX 23 27 24 28 25 29 71 30 26 31 70 32 27 33 28 34 29 35 64 36
REMARK SMILES IDX 30 37 69 38 63 39 65 40 31 41 68 42 62 43 61 44 32 46 54 47
REMARK SMILES IDX 39 48 53 49 40 50 43 51 52 52 66 53 41 54 42 55 51 57 67 58
REMARK SMILES IDX 44 59 33 60 34 61 38 62 35 63 37 64 36 65 55 66 56 67 60 68
REMARK SMILES IDX 57 69 59 70 58 71 45 72 46 73 50 74 47 75 49 76 48 77
REMARK H PARENT 17 5 4 8 4 9 21 26 65 45 43 56
REMARK Flexibility Score: inf
ROOT
ATOM      1  C   UNL A   1      33.225  29.161  24.852  1.00  0.00     0.118 C 
ENDROOT
BRANCH   1   2
ATOM      2  N   UNL A   1      33.858  28.899  23.574  1.00  0.00    -0.351 N 
ATOM      3  C   UNL A   1      33.569  28.065  22.540  1.00  0.00     0.279 C 
ATOM      4  O   UNL A   1      34.300  28.197  21.547  1.00  0.00    -0.268 OA
ATOM      5  H   UNL A   1      34.667  29.440  23.425  1.00  0.00     0.163 HD
BRANCH   3   6
ATOM      6  C   UNL A   1      32.448  26.977  22.535  1.00  0.00     0.283 C 
BRANCH   6   7
ATOM      7  N   UNL A   1      32.672  26.041  23.643  1.00  0.00    -0.333 N 
ATOM      8  H   UNL A   1      32.693  26.586  24.505  1.00  0.00     0.347 HD
ATOM      9  H   UNL A   1      31.908  25.366  23.572  1.00  0.00     0.347 HD
BRANCH   7  10
ATOM     10  C   UNL A   1      33.889  25.227  23.608  1.00  0.00     0.176 C 
ATOM     11  C   UNL A   1      34.270  24.992  25.077  1.00  0.00     0.075 C 
ATOM     12  C   UNL A   1      33.715  23.873  22.922  1.00  0.00     0.075 C 
ENDBRANCH   7  10
ENDBRANCH   6   7
BRANCH   6  13
ATOM     13  C   UNL A   1      31.033  27.522  22.256  1.00  0.00     0.150 C 
BRANCH  13  14
ATOM     14  S   UNL A   1      29.757  28.262  23.399  1.00  0.00    -0.119 SA
BRANCH  14  15
ATOM     15  C   UNL A   1      29.183  29.902  23.004  1.00  0.00     0.010 A 
ATOM     16  C   UNL A   1      29.264  31.074  23.753  1.00  0.00     0.015 A 
ATOM     17  C   UNL A   1      28.625  30.016  21.720  1.00  0.00     0.054 A 
ATOM     18  C   UNL A   1      28.720  32.288  23.304  1.00  0.00     0.004 A 
ATOM     19  C   UNL A   1      28.121  31.228  21.253  1.00  0.00     0.124 A 
ATOM     20  C   UNL A   1      28.142  32.364  22.045  1.00  0.00     0.039 A 
ATOM     21  F   UNL A   1      27.609  31.296  20.018  1.00  0.00    -0.207 F 
ENDBRANCH  14  15
ENDBRANCH  13  14
ENDBRANCH   6  13
ENDBRANCH   3   6
ENDBRANCH   1   2
BRANCH   1  22
ATOM     22  C   UNL A   1      33.995  28.556  26.016  1.00  0.00     0.042 C 
BRANCH  22  23
ATOM     23  C   UNL A   1      33.420  28.905  27.372  1.00  0.00     0.118 C 
BRANCH  23  24
ATOM     24  N   UNL A   1      33.492  30.338  27.637  1.00  0.00    -0.352 N 
ATOM     25  C   UNL A   1      34.438  31.108  28.268  1.00  0.00     0.251 C 
ATOM     26  H   UNL A   1      32.720  30.848  27.300  1.00  0.00     0.163 HD
ATOM     27  O   UNL A   1      34.155  32.269  28.552  1.00  0.00    -0.269 OA
BRANCH  25  28
ATOM     28  C   UNL A   1      35.776  30.577  28.628  1.00  0.00     0.039 A 
ATOM     29  C   UNL A   1      36.872  30.914  27.824  1.00  0.00     0.014 A 
ATOM     30  C   UNL A   1      35.969  29.707  29.701  1.00  0.00     0.014 A 
ATOM     31  C   UNL A   1      38.144  30.418  28.125  1.00  0.00     0.010 A 
ATOM     32  C   UNL A   1      37.252  29.328  30.082  1.00  0.00     0.010 A 
ATOM     33  C   UNL A   1      38.353  29.646  29.279  1.00  0.00    -0.014 A 
BRANCH  33  34
ATOM     34  C   UNL A   1      39.702  29.130  29.633  1.00  0.00     0.031 A 
ATOM     35  C   UNL A   1      40.607  29.918  30.549  1.00  0.00     0.074 A 
ATOM     36  C   UNL A   1      40.133  27.972  29.097  1.00  0.00     0.049 A 
ATOM     37  N   UNL A   1      41.815  29.627  30.965  1.00  0.00    -0.248 NA
ATOM     38  C   UNL A   1      40.109  31.218  31.031  1.00  0.00     0.031 C 
ATOM     39  C   UNL A   1      39.387  27.146  28.144  1.00  0.00     0.029 A 
ATOM     40  N   UNL A   1      41.304  27.282  29.287  1.00  0.00    -0.354 N 
ATOM     41  C   UNL A   1      42.223  30.715  31.730  1.00  0.00     0.074 A 
ATOM     42  C   UNL A   1      41.166  31.697  31.666  1.00  0.00     0.031 C 
ATOM     43  C   UNL A   1      40.093  26.035  27.879  1.00  0.00     0.029 A 
ATOM     44  C   UNL A   1      41.353  26.087  28.610  1.00  0.00     0.049 A 
ATOM     45  H   UNL A   1      42.038  27.611  29.854  1.00  0.00     0.167 HD
ATOM     46  C   UNL A   1      43.360  30.874  32.448  1.00  0.00     0.031 A 
ATOM     47  C   UNL A   1      42.300  25.131  28.594  1.00  0.00     0.031 A 
ATOM     48  C   UNL A   1      44.399  29.884  32.541  1.00  0.00     0.049 A 
ATOM     49  C   UNL A   1      43.533  25.309  29.434  1.00  0.00     0.074 A 
ATOM     50  C   UNL A   1      45.561  29.918  33.292  1.00  0.00     0.029 A 
ATOM     51  N   UNL A   1      44.396  28.676  31.861  1.00  0.00    -0.354 N 
ATOM     52  N   UNL A   1      43.868  26.311  30.211  1.00  0.00    -0.248 NA
ATOM     53  C   UNL A   1      44.506  24.209  29.412  1.00  0.00     0.031 C 
ATOM     54  C   UNL A   1      46.281  28.747  33.035  1.00  0.00     0.029 A 
ATOM     55  C   UNL A   1      45.542  27.961  32.166  1.00  0.00     0.049 A 
ATOM     56  H   UNL A   1      43.685  28.372  31.252  1.00  0.00     0.167 HD
ATOM     57  C   UNL A   1      45.077  25.951  30.790  1.00  0.00     0.074 A 
ATOM     58  C   UNL A   1      45.404  24.630  30.292  1.00  0.00     0.031 C 
ATOM     59  C   UNL A   1      45.852  26.651  31.656  1.00  0.00     0.031 A 
BRANCH  46  60
ATOM     60  C   UNL A   1      43.531  32.168  33.197  1.00  0.00    -0.014 A 
ATOM     61  C   UNL A   1      43.064  32.314  34.515  1.00  0.00     0.009 A 
ATOM     62  C   UNL A   1      44.184  33.250  32.587  1.00  0.00     0.009 A 
ATOM     63  C   UNL A   1      43.210  33.530  35.188  1.00  0.00     0.001 A 
ATOM     64  C   UNL A   1      44.357  34.453  33.274  1.00  0.00     0.001 A 
ATOM     65  C   UNL A   1      43.860  34.597  34.569  1.00  0.00     0.000 A 
ENDBRANCH  46  60
BRANCH  47  66
ATOM     66  C   UNL A   1      42.096  23.896  27.793  1.00  0.00    -0.014 A 
ATOM     67  C   UNL A   1      42.576  23.817  26.477  1.00  0.00     0.009 A 
ATOM     68  C   UNL A   1      41.422  22.793  28.337  1.00  0.00     0.009 A 
ATOM     69  C   UNL A   1      42.359  22.669  25.711  1.00  0.00     0.001 A 
ATOM     70  C   UNL A   1      41.232  21.635  27.580  1.00  0.00     0.001 A 
ATOM     71  C   UNL A   1      41.692  21.577  26.264  1.00  0.00     0.000 A 
ENDBRANCH  47  66
BRANCH  59  72
ATOM     72  C   UNL A   1      47.106  25.980  32.139  1.00  0.00    -0.014 A 
ATOM     73  C   UNL A   1      48.312  26.086  31.427  1.00  0.00     0.009 A 
ATOM     74  C   UNL A   1      47.081  25.240  33.330  1.00  0.00     0.009 A 
ATOM     75  C   UNL A   1      49.454  25.419  31.873  1.00  0.00     0.001 A 
ATOM     76  C   UNL A   1      48.232  24.601  33.791  1.00  0.00     0.001 A 
ATOM     77  C   UNL A   1      49.414  24.679  33.055  1.00  0.00     0.000 A 
ENDBRANCH  59  72
ENDBRANCH  33  34
ENDBRANCH  25  28
ENDBRANCH  23  24
ENDBRANCH  22  23
ENDBRANCH   1  22
TORSDOF 15
ENDMDL
MODEL 3
REMARK VINA RESULT:      -9.6      1.918      3.178
REMARK SMILES CC(C)[NH2+][C@@H](CSc1cccc(F)c1)C(=O)NCCCNC(=O)c1ccc(-c2c3nc(c(-c4ccccc4)c4ccc([nH]4)c(-c4ccccc4)c4nc(c(-c5ccccc5)c5ccc2[nH]5)C=C4)C=C3)cc1
REMARK SMILES IDX 18 1 17 2 15 3 16 4 5 6 4 7 2 10 1 11 3 12 6 13 7 14 8 15
REMARK SMILES IDX 9 16 14 17 10 18 12 19 11 20 13 21 19 22 20 23 21 24 22 25
REMARK SMILES IDX 23 27 24 28 25 29 71 30 26 31 70 32 27 33 28 34 29 35 64 36
REMARK SMILES IDX 30 37 69 38 63 39 65 40 31 41 68 42 62 43 61 44 32 46 54 47
REMARK SMILES IDX 39 48 53 49 40 50 43 51 52 52 66 53 41 54 42 55 51 57 67 58
REMARK SMILES IDX 44 59 33 60 34 61 38 62 35 63 37 64 36 65 55 66 56 67 60 68
REMARK SMILES IDX 57 69 59 70 58 71 45 72 46 73 50 74 47 75 49 76 48 77
REMARK H PARENT 17 5 4 8 4 9 21 26 65 45 43 56
REMARK Flexibility Score: inf
ROOT
ATOM      1  C   UNL A   1      33.780  26.394  25.760  1.00  0.00     0.118 C 
ENDROOT
BRANCH   1   2
ATOM      2  N   UNL A   1      33.873  25.939  24.387  1.00  0.00    -0.351 N 
ATOM      3  C   UNL A   1      34.185  24.746  23.815  1.00  0.00     0.279 C 
ATOM      4  O   UNL A   1      34.056  24.711  22.582  1.00  0.00    -0.268 OA
ATOM      5  H   UNL A   1      33.665  26.643  23.730  1.00  0.00     0.163 HD
BRANCH   3   6
ATOM      6  C   UNL A   1      34.708  23.483  24.573  1.00  0.00     0.283 C 
BRANCH   6   7
ATOM      7  N   UNL A   1      36.003  23.787  25.192  1.00  0.00    -0.333 N 
ATOM      8  H   UNL A   1      36.521  24.379  24.544  1.00  0.00     0.347 HD
ATOM      9  H   UNL A   1      35.768  24.219  26.087  1.00  0.00     0.347 HD
BRANCH   7  10
ATOM     10  C   UNL A   1      36.869  22.658  25.542  1.00  0.00     0.176 C 
ATOM     11  C   UNL A   1      37.009  21.832  24.256  1.00  0.00     0.075 C 
ATOM     12  C   UNL A   1      38.262  23.065  26.020  1.00  0.00     0.075 C 
ENDBRANCH   7  10
ENDBRANCH   6   7
BRANCH   6  13
ATOM     13  C   UNL A   1      33.626  22.728  25.371  1.00  0.00     0.150 C 
BRANCH  13  14
ATOM     14  S   UNL A   1      32.111  21.797  24.805  1.00  0.00    -0.119 SA
BRANCH  14  15
ATOM     15  C   UNL A   1      32.363  20.127  24.237  1.00  0.00     0.010 A 
ATOM     16  C   UNL A   1      32.295  19.610  22.944  1.00  0.00     0.015 A 
ATOM     17  C   UNL A   1      32.744  19.232  25.250  1.00  0.00     0.054 A 
ATOM     18  C   UNL A   1      32.486  18.247  22.673  1.00  0.00     0.004 A 
ATOM     19  C   UNL A   1      32.974  17.885  24.979  1.00  0.00     0.124 A 
ATOM     20  C   UNL A   1      32.826  17.377  23.699  1.00  0.00     0.039 A 
ATOM     21  F   UNL A   1      33.349  17.069  25.972  1.00  0.00    -0.207 F 
ENDBRANCH  14  15
ENDBRANCH  13  14
ENDBRANCH   6  13
ENDBRANCH   3   6
ENDBRANCH   1   2
BRANCH   1  22
ATOM     22  C   UNL A   1      33.424  27.871  25.859  1.00  0.00     0.042 C 
BRANCH  22  23
ATOM     23  C   UNL A   1      33.259  28.361  27.282  1.00  0.00     0.118 C 
BRANCH  23  24
ATOM     24  N   UNL A   1      33.302  29.817  27.360  1.00  0.00    -0.352 N 
ATOM     25  C   UNL A   1      34.248  30.682  27.852  1.00  0.00     0.251 C 
ATOM     26  H   UNL A   1      32.505  30.262  26.990  1.00  0.00     0.163 HD
ATOM     27  O   UNL A   1      33.944  31.864  27.997  1.00  0.00    -0.269 OA
BRANCH  25  28
ATOM     28  C   UNL A   1      35.612  30.232  28.225  1.00  0.00     0.039 A 
ATOM     29  C   UNL A   1      35.816  29.689  29.500  1.00  0.00     0.014 A 
ATOM     30  C   UNL A   1      36.707  30.386  27.375  1.00  0.00     0.014 A 
ATOM     31  C   UNL A   1      37.092  29.269  29.889  1.00  0.00     0.010 A 
ATOM     32  C   UNL A   1      37.943  29.842  27.708  1.00  0.00     0.010 A 
ATOM     33  C   UNL A   1      38.163  29.310  28.983  1.00  0.00    -0.014 A 
BRANCH  33  34
ATOM     34  C   UNL A   1      39.522  28.844  29.367  1.00  0.00     0.031 A 
ATOM     35  C   UNL A   1      40.395  29.687  30.264  1.00  0.00     0.074 A 
ATOM     36  C   UNL A   1      39.991  27.681  28.876  1.00  0.00     0.049 A 
ATOM     37  N   UNL A   1      41.606  29.445  30.702  1.00  0.00    -0.248 NA
ATOM     38  C   UNL A   1      39.856  30.988  30.697  1.00  0.00     0.031 C 
ATOM     39  C   UNL A   1      39.278  26.802  27.944  1.00  0.00     0.029 A 
ATOM     40  N   UNL A   1      41.178  27.030  29.101  1.00  0.00    -0.354 N 
ATOM     41  C   UNL A   1      41.976  30.569  31.433  1.00  0.00     0.074 A 
ATOM     42  C   UNL A   1      40.892  31.519  31.325  1.00  0.00     0.031 C 
ATOM     43  C   UNL A   1      40.017  25.703  27.724  1.00  0.00     0.029 A 
ATOM     44  C   UNL A   1      41.268  25.815  28.466  1.00  0.00     0.049 A 
ATOM     45  H   UNL A   1      41.897  27.400  29.663  1.00  0.00     0.167 HD
ATOM     46  C   UNL A   1      43.100  30.785  32.157  1.00  0.00     0.031 A 
ATOM     47  C   UNL A   1      42.241  24.887  28.492  1.00  0.00     0.031 A 
ATOM     48  C   UNL A   1      44.165  29.828  32.293  1.00  0.00     0.049 A 
ATOM     49  C   UNL A   1      43.459  25.127  29.337  1.00  0.00     0.074 A 
ATOM     50  C   UNL A   1      45.318  29.920  33.054  1.00  0.00     0.029 A 
ATOM     51  N   UNL A   1      44.203  28.598  31.655  1.00  0.00    -0.354 N 
ATOM     52  N   UNL A   1      43.758  26.164  30.082  1.00  0.00    -0.248 NA
ATOM     53  C   UNL A   1      44.463  24.055  29.362  1.00  0.00     0.031 C 
ATOM     54  C   UNL A   1      46.073  28.761  32.845  1.00  0.00     0.029 A 
ATOM     55  C   UNL A   1      45.365  27.926  31.996  1.00  0.00     0.049 A 
ATOM     56  H   UNL A   1      43.507  28.254  31.050  1.00  0.00     0.167 HD
ATOM     57  C   UNL A   1      44.971  25.858  30.685  1.00  0.00     0.074 A 
ATOM     58  C   UNL A   1      45.339  24.531  30.236  1.00  0.00     0.031 C 
ATOM     59  C   UNL A   1      45.716  26.609  31.534  1.00  0.00     0.031 A 
BRANCH  46  60
ATOM     60  C   UNL A   1      43.227  32.107  32.862  1.00  0.00    -0.014 A 
ATOM     61  C   UNL A   1      43.816  33.217  32.231  1.00  0.00     0.009 A 
ATOM     62  C   UNL A   1      42.733  32.256  34.168  1.00  0.00     0.009 A 
ATOM     63  C   UNL A   1      43.947  34.432  32.908  1.00  0.00     0.001 A 
ATOM     64  C   UNL A   1      42.836  33.480  34.830  1.00  0.00     0.001 A 
ATOM     65  C   UNL A   1      43.452  34.564  34.205  1.00  0.00     0.000 A 
ENDBRANCH  46  60
BRANCH  47  66
ATOM     66  C   UNL A   1      42.080  23.619  27.732  1.00  0.00    -0.014 A 
ATOM     67  C   UNL A   1      42.523  23.528  26.403  1.00  0.00     0.009 A 
ATOM     68  C   UNL A   1      41.484  22.498  28.326  1.00  0.00     0.009 A 
ATOM     69  C   UNL A   1      42.346  22.349  25.676  1.00  0.00     0.001 A 
ATOM     70  C   UNL A   1      41.334  21.310  27.607  1.00  0.00     0.001 A 
ATOM     71  C   UNL A   1      41.755  21.239  26.280  1.00  0.00     0.000 A 
ENDBRANCH  47  66
BRANCH  59  72
ATOM     72  C   UNL A   1      46.984  25.990  32.052  1.00  0.00    -0.014 A 
ATOM     73  C   UNL A   1      47.002  25.255  33.248  1.00  0.00     0.009 A 
ATOM     74  C   UNL A   1      48.175  26.139  31.325  1.00  0.00     0.009 A 
ATOM     75  C   UNL A   1      48.199  24.725  33.730  1.00  0.00     0.001 A 
ATOM     76  C   UNL A   1      49.364  25.581  31.794  1.00  0.00     0.001 A 
ATOM     77  C   UNL A   1      49.378  24.887  33.003  1.00  0.00     0.000 A 
ENDBRANCH  59  72
ENDBRANCH  33  34
ENDBRANCH  25  28
ENDBRANCH  23  24
ENDBRANCH  22  23
ENDBRANCH   1  22
TORSDOF 15
ENDMDL
