MODEL 1
REMARK VINA RESULT:     -11.3      0.000      0.000
REMARK SMILES COc1ccc(F)c(Nc2ccc(C(=O)NCCCNC(=O)c3ccc(-c4c5nc(c(-c6ccccc6)c6ccc([nH]6)c(-c6ccccc6)c6nc(c(-c7ccccc7)c7ccc4[nH]7)C=C6)C=C5)cc3)cc2)c1
REMARK SMILES IDX 17 1 16 2 14 3 15 4 13 6 10 7 11 8 72 9 12 10 71 11 9 12
REMARK SMILES IDX 8 14 3 15 4 16 73 17 5 18 6 19 7 20 2 21 1 22 18 23 19 24
REMARK SMILES IDX 20 25 21 26 22 28 23 29 24 30 70 31 25 32 69 33 26 34 27 35
REMARK SMILES IDX 28 36 63 37 29 38 68 39 62 40 64 41 30 42 67 43 61 44 60 45
REMARK SMILES IDX 31 47 53 48 38 49 52 50 39 51 42 52 51 53 65 54 40 55 41 56
REMARK SMILES IDX 50 58 66 59 43 60 32 61 33 62 37 63 34 64 36 65 35 66 54 67
REMARK SMILES IDX 55 68 59 69 56 70 58 71 57 72 44 73 45 74 49 75 46 76 48 77
REMARK SMILES IDX 47 78
REMARK H PARENT 16 5 9 13 20 27 64 46 42 57
REMARK Flexibility Score: inf
ROOT
ATOM      1  C   UNL A   1      36.140  20.376  25.006  1.00  0.00     0.118 C 
ENDROOT
BRANCH   1   2
ATOM      2  N   UNL A   1      35.142  19.334  24.838  1.00  0.00    -0.352 N 
ATOM      3  C   UNL A   1      33.779  19.378  24.681  1.00  0.00     0.251 C 
ATOM      4  O   UNL A   1      33.189  18.313  24.497  1.00  0.00    -0.269 OA
ATOM      5  H   UNL A   1      35.513  18.423  24.836  1.00  0.00     0.163 HD
BRANCH   3   6
ATOM      6  C   UNL A   1      33.003  20.647  24.663  1.00  0.00     0.039 A 
ATOM      7  C   UNL A   1      31.429  22.983  24.811  1.00  0.00     0.038 A 
ATOM      8  C   UNL A   1      31.930  22.398  25.973  1.00  0.00     0.027 A 
ATOM      9  C   UNL A   1      31.776  22.428  23.574  1.00  0.00     0.027 A 
ATOM     10  C   UNL A   1      32.701  21.233  25.901  1.00  0.00     0.016 A 
ATOM     11  C   UNL A   1      32.586  21.292  23.498  1.00  0.00     0.016 A 
BRANCH   7  12
ATOM     12  N   UNL A   1      30.527  24.051  24.885  1.00  0.00    -0.353 N 
ATOM     13  H   UNL A   1      29.593  23.816  25.082  1.00  0.00     0.167 HD
BRANCH  12  14
ATOM     14  C   UNL A   1      30.799  25.423  24.709  1.00  0.00     0.078 A 
ATOM     15  C   UNL A   1      30.801  27.450  23.344  1.00  0.00     0.121 A 
ATOM     16  C   UNL A   1      31.434  28.151  24.370  1.00  0.00     0.049 A 
ATOM     17  C   UNL A   1      30.490  26.097  23.520  1.00  0.00     0.075 A 
ATOM     18  C   UNL A   1      31.762  27.494  25.558  1.00  0.00     0.045 A 
ATOM     19  C   UNL A   1      31.447  26.146  25.716  1.00  0.00     0.146 A 
ATOM     20  F   UNL A   1      31.771  25.536  26.867  1.00  0.00    -0.205 F 
BRANCH  15  21
ATOM     21  O   UNL A   1      30.400  27.976  22.147  1.00  0.00    -0.497 OA
ATOM     22  C   UNL A   1      29.980  29.334  22.162  1.00  0.00     0.278 C 
ENDBRANCH  15  21
ENDBRANCH  12  14
ENDBRANCH   7  12
ENDBRANCH   3   6
ENDBRANCH   1   2
BRANCH   1  23
ATOM     23  C   UNL A   1      37.542  19.848  24.703  1.00  0.00     0.042 C 
BRANCH  23  24
ATOM     24  C   UNL A   1      38.592  20.298  25.717  1.00  0.00     0.118 C 
BRANCH  24  25
ATOM     25  N   UNL A   1      39.705  19.364  25.803  1.00  0.00    -0.352 N 
ATOM     26  C   UNL A   1      41.028  19.593  26.086  1.00  0.00     0.251 C 
ATOM     27  H   UNL A   1      39.474  18.424  25.630  1.00  0.00     0.163 HD
ATOM     28  O   UNL A   1      41.848  18.698  25.906  1.00  0.00    -0.269 OA
BRANCH  26  29
ATOM     29  C   UNL A   1      41.481  20.908  26.594  1.00  0.00     0.039 A 
ATOM     30  C   UNL A   1      41.882  21.879  25.670  1.00  0.00     0.014 A 
ATOM     31  C   UNL A   1      41.570  21.172  27.963  1.00  0.00     0.014 A 
ATOM     32  C   UNL A   1      42.325  23.127  26.116  1.00  0.00     0.010 A 
ATOM     33  C   UNL A   1      41.953  22.438  28.406  1.00  0.00     0.010 A 
ATOM     34  C   UNL A   1      42.340  23.425  27.487  1.00  0.00    -0.014 A 
BRANCH  34  35
ATOM     35  C   UNL A   1      42.762  24.761  27.978  1.00  0.00     0.031 A 
ATOM     36  C   UNL A   1      41.738  25.827  28.255  1.00  0.00     0.074 A 
ATOM     37  C   UNL A   1      44.074  25.035  28.118  1.00  0.00     0.049 A 
ATOM     38  N   UNL A   1      41.920  27.069  28.628  1.00  0.00    -0.248 NA
ATOM     39  C   UNL A   1      40.327  25.455  28.070  1.00  0.00     0.031 C 
ATOM     40  C   UNL A   1      45.168  24.100  27.852  1.00  0.00     0.029 A 
ATOM     41  N   UNL A   1      44.707  26.186  28.513  1.00  0.00    -0.354 N 
ATOM     42  C   UNL A   1      40.652  27.631  28.702  1.00  0.00     0.074 A 
ATOM     43  C   UNL A   1      39.712  26.607  28.298  1.00  0.00     0.031 C 
ATOM     44  C   UNL A   1      46.337  24.708  28.111  1.00  0.00     0.029 A 
ATOM     45  C   UNL A   1      46.077  26.084  28.524  1.00  0.00     0.049 A 
ATOM     46  H   UNL A   1      44.226  27.008  28.764  1.00  0.00     0.167 HD
ATOM     47  C   UNL A   1      40.299  28.882  29.084  1.00  0.00     0.031 A 
ATOM     48  C   UNL A   1      47.020  26.996  28.824  1.00  0.00     0.031 A 
ATOM     49  C   UNL A   1      41.229  29.898  29.498  1.00  0.00     0.049 A 
ATOM     50  C   UNL A   1      46.602  28.379  29.237  1.00  0.00     0.074 A 
ATOM     51  C   UNL A   1      40.963  31.176  29.957  1.00  0.00     0.029 A 
ATOM     52  N   UNL A   1      42.607  29.750  29.502  1.00  0.00    -0.354 N 
ATOM     53  N   UNL A   1      45.395  28.876  29.358  1.00  0.00    -0.248 NA
ATOM     54  C   UNL A   1      47.680  29.324  29.563  1.00  0.00     0.031 C 
ATOM     55  C   UNL A   1      42.183  31.818  30.197  1.00  0.00     0.029 A 
ATOM     56  C   UNL A   1      43.205  30.922  29.934  1.00  0.00     0.049 A 
ATOM     57  H   UNL A   1      43.089  28.934  29.236  1.00  0.00     0.167 HD
ATOM     58  C   UNL A   1      45.566  30.182  29.797  1.00  0.00     0.074 A 
ATOM     59  C   UNL A   1      46.992  30.395  29.934  1.00  0.00     0.031 C 
ATOM     60  C   UNL A   1      44.625  31.120  30.063  1.00  0.00     0.031 A 
BRANCH  47  61
ATOM     61  C   UNL A   1      38.834  29.223  29.063  1.00  0.00    -0.014 A 
ATOM     62  C   UNL A   1      38.215  29.695  27.895  1.00  0.00     0.009 A 
ATOM     63  C   UNL A   1      38.057  29.038  30.217  1.00  0.00     0.009 A 
ATOM     64  C   UNL A   1      36.854  30.010  27.894  1.00  0.00     0.001 A 
ATOM     65  C   UNL A   1      36.692  29.328  30.206  1.00  0.00     0.001 A 
ATOM     66  C   UNL A   1      36.093  29.822  29.047  1.00  0.00     0.000 A 
ENDBRANCH  47  61
BRANCH  48  67
ATOM     67  C   UNL A   1      48.456  26.627  28.759  1.00  0.00    -0.014 A 
ATOM     68  C   UNL A   1      49.122  26.163  29.904  1.00  0.00     0.009 A 
ATOM     69  C   UNL A   1      49.170  26.737  27.556  1.00  0.00     0.009 A 
ATOM     70  C   UNL A   1      50.479  25.838  29.850  1.00  0.00     0.001 A 
ATOM     71  C   UNL A   1      50.520  26.387  27.498  1.00  0.00     0.001 A 
ATOM     72  C   UNL A   1      51.176  25.946  28.648  1.00  0.00     0.000 A 
ENDBRANCH  48  67
BRANCH  60  73
ATOM     73  C   UNL A   1      45.109  32.453  30.558  1.00  0.00    -0.014 A 
ATOM     74  C   UNL A   1      45.256  32.709  31.929  1.00  0.00     0.009 A 
ATOM     75  C   UNL A   1      45.455  33.452  29.635  1.00  0.00     0.009 A 
ATOM     76  C   UNL A   1      45.714  33.953  32.368  1.00  0.00     0.001 A 
ATOM     77  C   UNL A   1      45.937  34.685  30.076  1.00  0.00     0.001 A 
ATOM     78  C   UNL A   1      46.057  34.938  31.442  1.00  0.00     0.000 A 
ENDBRANCH  60  73
ENDBRANCH  34  35
ENDBRANCH  26  29
ENDBRANCH  24  25
ENDBRANCH  23  24
ENDBRANCH   1  23
TORSDOF 13
ENDMDL
MODEL 2
REMARK VINA RESULT:     -11.2      0.961      6.047
REMARK SMILES COc1ccc(F)c(Nc2ccc(C(=O)NCCCNC(=O)c3ccc(-c4c5nc(c(-c6ccccc6)c6ccc([nH]6)c(-c6ccccc6)c6nc(c(-c7ccccc7)c7ccc4[nH]7)C=C6)C=C5)cc3)cc2)c1
REMARK SMILES IDX 17 1 16 2 14 3 15 4 13 6 10 7 11 8 72 9 12 10 71 11 9 12
REMARK SMILES IDX 8 14 3 15 4 16 73 17 5 18 6 19 7 20 2 21 1 22 18 23 19 24
REMARK SMILES IDX 20 25 21 26 22 28 23 29 24 30 70 31 25 32 69 33 26 34 27 35
REMARK SMILES IDX 28 36 63 37 29 38 68 39 62 40 64 41 30 42 67 43 61 44 60 45
REMARK SMILES IDX 31 47 53 48 38 49 52 50 39 51 42 52 51 53 65 54 40 55 41 56
REMARK SMILES IDX 50 58 66 59 43 60 32 61 33 62 37 63 34 64 36 65 35 66 54 67
REMARK SMILES IDX 55 68 59 69 56 70 58 71 57 72 44 73 45 74 49 75 46 76 48 77
REMARK SMILES IDX 47 78
REMARK H PARENT 16 5 9 13 20 27 64 46 42 57
REMARK Flexibility Score: inf
ROOT
ATOM      1  C   UNL A   1      36.095  20.292  24.983  1.00  0.00     0.118 C 
ENDROOT
BRANCH   1   2
ATOM      2  N   UNL A   1      34.919  19.441  24.971  1.00  0.00    -0.352 N 
ATOM      3  C   UNL A   1      33.602  19.681  25.277  1.00  0.00     0.251 C 
ATOM      4  O   UNL A   1      32.799  18.763  25.112  1.00  0.00    -0.269 OA
ATOM      5  H   UNL A   1      35.099  18.515  24.690  1.00  0.00     0.163 HD
BRANCH   3   6
ATOM      6  C   UNL A   1      33.102  21.005  25.733  1.00  0.00     0.039 A 
ATOM      7  C   UNL A   1      32.156  23.581  26.386  1.00  0.00     0.038 A 
ATOM      8  C   UNL A   1      31.707  22.939  25.233  1.00  0.00     0.027 A 
ATOM      9  C   UNL A   1      33.029  22.898  27.241  1.00  0.00     0.027 A 
ATOM     10  C   UNL A   1      32.185  21.666  24.902  1.00  0.00     0.016 A 
ATOM     11  C   UNL A   1      33.470  21.608  26.936  1.00  0.00     0.016 A 
BRANCH   7  12
ATOM     12  N   UNL A   1      31.808  24.913  26.638  1.00  0.00    -0.353 N 
ATOM     13  H   UNL A   1      31.358  25.088  27.495  1.00  0.00     0.167 HD
BRANCH  12  14
ATOM     14  C   UNL A   1      32.024  26.033  25.810  1.00  0.00     0.078 A 
ATOM     15  C   UNL A   1      31.196  27.823  24.366  1.00  0.00     0.121 A 
ATOM     16  C   UNL A   1      32.504  28.221  24.094  1.00  0.00     0.049 A 
ATOM     17  C   UNL A   1      30.966  26.737  25.217  1.00  0.00     0.075 A 
ATOM     18  C   UNL A   1      33.573  27.526  24.665  1.00  0.00     0.045 A 
ATOM     19  C   UNL A   1      33.326  26.445  25.510  1.00  0.00     0.146 A 
ATOM     20  F   UNL A   1      34.369  25.793  26.048  1.00  0.00    -0.205 F 
BRANCH  15  21
ATOM     21  O   UNL A   1      30.063  28.430  23.899  1.00  0.00    -0.497 OA
ATOM     22  C   UNL A   1      30.247  29.438  22.914  1.00  0.00     0.278 C 
ENDBRANCH  15  21
ENDBRANCH  12  14
ENDBRANCH   7  12
ENDBRANCH   3   6
ENDBRANCH   1   2
BRANCH   1  23
ATOM     23  C   UNL A   1      37.377  19.460  24.933  1.00  0.00     0.042 C 
BRANCH  23  24
ATOM     24  C   UNL A   1      38.596  20.189  25.492  1.00  0.00     0.118 C 
BRANCH  24  25
ATOM     25  N   UNL A   1      39.739  19.302  25.651  1.00  0.00    -0.352 N 
ATOM     26  C   UNL A   1      41.028  19.583  26.029  1.00  0.00     0.251 C 
ATOM     27  H   UNL A   1      39.560  18.354  25.458  1.00  0.00     0.163 HD
ATOM     28  O   UNL A   1      41.895  18.723  25.903  1.00  0.00    -0.269 OA
BRANCH  26  29
ATOM     29  C   UNL A   1      41.389  20.911  26.575  1.00  0.00     0.039 A 
ATOM     30  C   UNL A   1      41.937  21.863  25.708  1.00  0.00     0.014 A 
ATOM     31  C   UNL A   1      41.247  21.205  27.934  1.00  0.00     0.014 A 
ATOM     32  C   UNL A   1      42.298  23.123  26.194  1.00  0.00     0.010 A 
ATOM     33  C   UNL A   1      41.550  22.483  28.404  1.00  0.00     0.010 A 
ATOM     34  C   UNL A   1      42.084  23.451  27.541  1.00  0.00    -0.014 A 
BRANCH  34  35
ATOM     35  C   UNL A   1      42.417  24.800  28.064  1.00  0.00     0.031 A 
ATOM     36  C   UNL A   1      43.823  25.126  28.487  1.00  0.00     0.074 A 
ATOM     37  C   UNL A   1      41.440  25.716  28.213  1.00  0.00     0.049 A 
ATOM     38  N   UNL A   1      44.290  26.226  29.022  1.00  0.00    -0.248 NA
ATOM     39  C   UNL A   1      44.833  24.071  28.301  1.00  0.00     0.031 C 
ATOM     40  C   UNL A   1      40.031  25.516  27.871  1.00  0.00     0.029 A 
ATOM     41  N   UNL A   1      41.486  26.998  28.700  1.00  0.00    -0.354 N 
ATOM     42  C   UNL A   1      45.639  25.989  29.257  1.00  0.00     0.074 A 
ATOM     43  C   UNL A   1      45.907  24.629  28.842  1.00  0.00     0.031 C 
ATOM     44  C   UNL A   1      39.351  26.641  28.140  1.00  0.00     0.029 A 
ATOM     45  C   UNL A   1      40.266  27.627  28.706  1.00  0.00     0.049 A 
ATOM     46  H   UNL A   1      42.315  27.426  29.016  1.00  0.00     0.167 HD
ATOM     47  C   UNL A   1      46.573  26.831  29.760  1.00  0.00     0.031 A 
ATOM     48  C   UNL A   1      39.918  28.857  29.128  1.00  0.00     0.031 A 
ATOM     49  C   UNL A   1      46.312  28.187  30.163  1.00  0.00     0.049 A 
ATOM     50  C   UNL A   1      40.972  29.768  29.690  1.00  0.00     0.074 A 
ATOM     51  C   UNL A   1      47.205  29.135  30.631  1.00  0.00     0.029 A 
ATOM     52  N   UNL A   1      45.063  28.788  30.145  1.00  0.00    -0.354 N 
ATOM     53  N   UNL A   1      42.254  29.549  29.850  1.00  0.00    -0.248 NA
ATOM     54  C   UNL A   1      40.529  31.102  30.122  1.00  0.00     0.031 C 
ATOM     55  C   UNL A   1      46.489  30.297  30.939  1.00  0.00     0.029 A 
ATOM     56  C   UNL A   1      45.159  30.087  30.615  1.00  0.00     0.049 A 
ATOM     57  H   UNL A   1      44.232  28.355  29.844  1.00  0.00     0.167 HD
ATOM     58  C   UNL A   1      42.776  30.723  30.377  1.00  0.00     0.074 A 
ATOM     59  C   UNL A   1      41.674  31.656  30.496  1.00  0.00     0.031 C 
ATOM     60  C   UNL A   1      44.054  31.002  30.730  1.00  0.00     0.031 A 
BRANCH  47  61
ATOM     61  C   UNL A   1      47.971  26.299  29.912  1.00  0.00    -0.014 A 
ATOM     62  C   UNL A   1      48.889  26.355  28.851  1.00  0.00     0.009 A 
ATOM     63  C   UNL A   1      48.386  25.766  31.143  1.00  0.00     0.009 A 
ATOM     64  C   UNL A   1      50.183  25.854  29.009  1.00  0.00     0.001 A 
ATOM     65  C   UNL A   1      49.689  25.290  31.305  1.00  0.00     0.001 A 
ATOM     66  C   UNL A   1      50.583  25.326  30.236  1.00  0.00     0.000 A 
ENDBRANCH  47  61
BRANCH  48  67
ATOM     67  C   UNL A   1      38.507  29.307  29.022  1.00  0.00    -0.014 A 
ATOM     68  C   UNL A   1      37.653  29.231  30.132  1.00  0.00     0.009 A 
ATOM     69  C   UNL A   1      38.006  29.812  27.812  1.00  0.00     0.009 A 
ATOM     70  C   UNL A   1      36.319  29.631  30.026  1.00  0.00     0.001 A 
ATOM     71  C   UNL A   1      36.680  30.235  27.716  1.00  0.00     0.001 A 
ATOM     72  C   UNL A   1      35.834  30.136  28.821  1.00  0.00     0.000 A 
ENDBRANCH  48  67
BRANCH  60  73
ATOM     73  C   UNL A   1      44.333  32.383  31.251  1.00  0.00    -0.014 A 
ATOM     74  C   UNL A   1      44.283  32.666  32.623  1.00  0.00     0.009 A 
ATOM     75  C   UNL A   1      44.687  33.404  30.355  1.00  0.00     0.009 A 
ATOM     76  C   UNL A   1      44.552  33.956  33.087  1.00  0.00     0.001 A 
ATOM     77  C   UNL A   1      44.980  34.685  30.824  1.00  0.00     0.001 A 
ATOM     78  C   UNL A   1      44.904  34.962  32.188  1.00  0.00     0.000 A 
ENDBRANCH  60  73
ENDBRANCH  34  35
ENDBRANCH  26  29
ENDBRANCH  24  25
ENDBRANCH  23  24
ENDBRANCH   1  23
TORSDOF 13
ENDMDL
MODEL 3
REMARK VINA RESULT:     -11.2      3.501      8.991
REMARK SMILES COc1ccc(F)c(Nc2ccc(C(=O)NCCCNC(=O)c3ccc(-c4c5nc(c(-c6ccccc6)c6ccc([nH]6)c(-c6ccccc6)c6nc(c(-c7ccccc7)c7ccc4[nH]7)C=C6)C=C5)cc3)cc2)c1
REMARK SMILES IDX 17 1 16 2 14 3 15 4 13 6 10 7 11 8 72 9 12 10 71 11 9 12
REMARK SMILES IDX 8 14 3 15 4 16 73 17 5 18 6 19 7 20 2 21 1 22 18 23 19 24
REMARK SMILES IDX 20 25 21 26 22 28 23 29 24 30 70 31 25 32 69 33 26 34 27 35
REMARK SMILES IDX 28 36 63 37 29 38 68 39 62 40 64 41 30 42 67 43 61 44 60 45
REMARK SMILES IDX 31 47 53 48 38 49 52 50 39 51 42 52 51 53 65 54 40 55 41 56
REMARK SMILES IDX 50 58 66 59 43 60 32 61 33 62 37 63 34 64 36 65 35 66 54 67
REMARK SMILES IDX 55 68 59 69 56 70 58 71 57 72 44 73 45 74 49 75 46 76 48 77
REMARK SMILES IDX 47 78
REMARK H PARENT 16 5 9 13 20 27 64 46 42 57
REMARK Flexibility Score: inf
ROOT
ATOM      1  C   UNL A   1      31.513  29.914  25.091  1.00  0.00     0.118 C 
ENDROOT
BRANCH   1   2
ATOM      2  N   UNL A   1      30.800  30.083  23.838  1.00  0.00    -0.352 N 
ATOM      3  C   UNL A   1      30.343  29.184  22.908  1.00  0.00     0.251 C 
ATOM      4  O   UNL A   1      29.704  29.623  21.951  1.00  0.00    -0.269 OA
ATOM      5  H   UNL A   1      30.607  31.021  23.612  1.00  0.00     0.163 HD
BRANCH   3   6
ATOM      6  C   UNL A   1      30.530  27.714  23.037  1.00  0.00     0.039 A 
ATOM      7  C   UNL A   1      30.939  24.923  23.068  1.00  0.00     0.038 A 
ATOM      8  C   UNL A   1      31.783  25.749  22.327  1.00  0.00     0.027 A 
ATOM      9  C   UNL A   1      29.933  25.510  23.843  1.00  0.00     0.027 A 
ATOM     10  C   UNL A   1      31.574  27.132  22.302  1.00  0.00     0.016 A 
ATOM     11  C   UNL A   1      29.752  26.896  23.857  1.00  0.00     0.016 A 
BRANCH   7  12
ATOM     12  N   UNL A   1      31.043  23.531  22.970  1.00  0.00    -0.353 N 
ATOM     13  H   UNL A   1      30.444  23.097  22.322  1.00  0.00     0.167 HD
BRANCH  12  14
ATOM     14  C   UNL A   1      31.902  22.677  23.692  1.00  0.00     0.078 A 
ATOM     15  C   UNL A   1      33.418  22.240  25.558  1.00  0.00     0.121 A 
ATOM     16  C   UNL A   1      33.677  20.964  25.061  1.00  0.00     0.049 A 
ATOM     17  C   UNL A   1      32.537  23.084  24.873  1.00  0.00     0.075 A 
ATOM     18  C   UNL A   1      33.063  20.543  23.879  1.00  0.00     0.045 A 
ATOM     19  C   UNL A   1      32.190  21.397  23.208  1.00  0.00     0.146 A 
ATOM     20  F   UNL A   1      31.611  20.970  22.074  1.00  0.00    -0.205 F 
BRANCH  15  21
ATOM     21  O   UNL A   1      33.926  22.766  26.714  1.00  0.00    -0.497 OA
ATOM     22  C   UNL A   1      33.298  22.357  27.923  1.00  0.00     0.278 C 
ENDBRANCH  15  21
ENDBRANCH  12  14
ENDBRANCH   7  12
ENDBRANCH   3   6
ENDBRANCH   1   2
BRANCH   1  23
ATOM     23  C   UNL A   1      31.176  31.036  26.073  1.00  0.00     0.042 C 
BRANCH  23  24
ATOM     24  C   UNL A   1      32.393  31.579  26.818  1.00  0.00     0.118 C 
BRANCH  24  25
ATOM     25  N   UNL A   1      32.206  32.959  27.239  1.00  0.00    -0.352 N 
ATOM     26  C   UNL A   1      32.959  33.732  28.087  1.00  0.00     0.251 C 
ATOM     27  H   UNL A   1      31.418  33.408  26.858  1.00  0.00     0.163 HD
ATOM     28  O   UNL A   1      32.517  34.810  28.475  1.00  0.00    -0.269 OA
BRANCH  26  29
ATOM     29  C   UNL A   1      34.291  33.279  28.550  1.00  0.00     0.039 A 
ATOM     30  C   UNL A   1      34.371  32.541  29.735  1.00  0.00     0.014 A 
ATOM     31  C   UNL A   1      35.459  33.622  27.862  1.00  0.00     0.014 A 
ATOM     32  C   UNL A   1      35.614  32.107  30.205  1.00  0.00     0.010 A 
ATOM     33  C   UNL A   1      36.691  33.136  28.298  1.00  0.00     0.010 A 
ATOM     34  C   UNL A   1      36.781  32.380  29.476  1.00  0.00    -0.014 A 
BRANCH  34  35
ATOM     35  C   UNL A   1      38.104  31.886  29.934  1.00  0.00     0.031 A 
ATOM     36  C   UNL A   1      38.642  30.575  29.432  1.00  0.00     0.074 A 
ATOM     37  C   UNL A   1      38.798  32.592  30.849  1.00  0.00     0.049 A 
ATOM     38  N   UNL A   1      39.746  29.953  29.764  1.00  0.00    -0.248 NA
ATOM     39  C   UNL A   1      37.823  29.858  28.441  1.00  0.00     0.031 C 
ATOM     40  C   UNL A   1      38.373  33.862  31.440  1.00  0.00     0.029 A 
ATOM     41  N   UNL A   1      40.005  32.332  31.448  1.00  0.00    -0.354 N 
ATOM     42  C   UNL A   1      39.744  28.767  29.041  1.00  0.00     0.074 A 
ATOM     43  C   UNL A   1      38.512  28.737  28.282  1.00  0.00     0.031 C 
ATOM     44  C   UNL A   1      39.315  34.281  32.301  1.00  0.00     0.029 A 
ATOM     45  C   UNL A   1      40.388  33.294  32.350  1.00  0.00     0.049 A 
ATOM     46  H   UNL A   1      40.545  31.533  31.250  1.00  0.00     0.167 HD
ATOM     47  C   UNL A   1      40.687  27.795  29.002  1.00  0.00     0.031 A 
ATOM     48  C   UNL A   1      41.478  33.370  33.137  1.00  0.00     0.031 A 
ATOM     49  C   UNL A   1      41.918  27.828  29.746  1.00  0.00     0.049 A 
ATOM     50  C   UNL A   1      42.505  32.275  33.081  1.00  0.00     0.074 A 
ATOM     51  C   UNL A   1      42.962  26.919  29.728  1.00  0.00     0.029 A 
ATOM     52  N   UNL A   1      42.271  28.824  30.642  1.00  0.00    -0.354 N 
ATOM     53  N   UNL A   1      42.515  31.189  32.348  1.00  0.00    -0.248 NA
ATOM     54  C   UNL A   1      43.677  32.424  33.956  1.00  0.00     0.031 C 
ATOM     55  C   UNL A   1      43.927  27.342  30.647  1.00  0.00     0.029 A 
ATOM     56  C   UNL A   1      43.506  28.540  31.200  1.00  0.00     0.049 A 
ATOM     57  H   UNL A   1      41.724  29.615  30.852  1.00  0.00     0.167 HD
ATOM     58  C   UNL A   1      43.703  30.537  32.654  1.00  0.00     0.074 A 
ATOM     59  C   UNL A   1      44.393  31.357  33.628  1.00  0.00     0.031 C 
ATOM     60  C   UNL A   1      44.179  29.364  32.170  1.00  0.00     0.031 A 
BRANCH  47  61
ATOM     61  C   UNL A   1      40.416  26.604  28.125  1.00  0.00    -0.014 A 
ATOM     62  C   UNL A   1      40.937  26.525  26.824  1.00  0.00     0.009 A 
ATOM     63  C   UNL A   1      39.656  25.532  28.620  1.00  0.00     0.009 A 
ATOM     64  C   UNL A   1      40.673  25.413  26.023  1.00  0.00     0.001 A 
ATOM     65  C   UNL A   1      39.416  24.410  27.826  1.00  0.00     0.001 A 
ATOM     66  C   UNL A   1      39.916  24.355  26.525  1.00  0.00     0.000 A 
ENDBRANCH  47  61
BRANCH  48  67
ATOM     67  C   UNL A   1      41.662  34.535  34.039  1.00  0.00    -0.014 A 
ATOM     68  C   UNL A   1      42.344  35.676  33.593  1.00  0.00     0.009 A 
ATOM     69  C   UNL A   1      41.157  34.512  35.349  1.00  0.00     0.009 A 
ATOM     70  C   UNL A   1      42.538  36.763  34.448  1.00  0.00     0.001 A 
ATOM     71  C   UNL A   1      41.331  35.610  36.193  1.00  0.00     0.001 A 
ATOM     72  C   UNL A   1      42.028  36.732  35.745  1.00  0.00     0.000 A 
ENDBRANCH  48  67
BRANCH  60  73
ATOM     73  C   UNL A   1      45.522  28.914  32.667  1.00  0.00    -0.014 A 
ATOM     74  C   UNL A   1      46.705  29.310  32.024  1.00  0.00     0.009 A 
ATOM     75  C   UNL A   1      45.605  28.112  33.816  1.00  0.00     0.009 A 
ATOM     76  C   UNL A   1      47.945  28.886  32.506  1.00  0.00     0.001 A 
ATOM     77  C   UNL A   1      46.847  27.711  34.310  1.00  0.00     0.001 A 
ATOM     78  C   UNL A   1      48.015  28.091  33.650  1.00  0.00     0.000 A 
ENDBRANCH  60  73
ENDBRANCH  34  35
ENDBRANCH  26  29
ENDBRANCH  24  25
ENDBRANCH  23  24
ENDBRANCH   1  23
TORSDOF 13
ENDMDL
