MODEL 1
REMARK VINA RESULT:     -11.8      0.000      0.000
REMARK SMILES C=CCOc1cccc(NS(=O)(=O)c2c[nH]c(C(=O)NCCCNC(=O)c3ccc(-c4c5nc(c(-c6ccccc6)c6ccc([nH]6)c(-c6ccccc6)c6nc(c(-c7ccccc7)c7ccc4[nH]7)C=C6)C=C5)cc3)c2)c1
REMARK SMILES IDX 18 1 19 2 20 3 17 5 14 6 15 7 75 8 16 9 11 11 12 12 13 13
REMARK SMILES IDX 10 14 9 16 5 17 6 18 76 19 7 20 8 21 4 22 3 23 2 24 1 25
REMARK SMILES IDX 21 26 22 27 23 28 24 29 25 30 26 32 27 33 28 34 74 35 29 36
REMARK SMILES IDX 73 37 30 38 31 39 32 40 67 41 33 42 72 43 66 44 68 45 34 46
REMARK SMILES IDX 71 47 65 48 64 49 35 51 57 52 42 53 56 54 43 55 46 56 55 57
REMARK SMILES IDX 69 58 44 59 45 60 54 62 70 63 47 64 36 65 37 66 41 67 38 68
REMARK SMILES IDX 40 69 39 70 58 71 59 72 63 73 60 74 62 75 61 76 48 77 49 78
REMARK SMILES IDX 53 79 50 80 52 81 51 82
REMARK H PARENT 20 4 16 10 10 15 24 31 68 50 46 61
REMARK Flexibility Score: inf
ROOT
ATOM      1  C   UNL A   1      33.023  28.886  23.717  1.00  0.00     0.267 C 
ATOM      2  O   UNL A   1      33.339  29.186  22.567  1.00  0.00    -0.268 OA
ATOM      3  N   UNL A   1      33.542  29.644  24.739  1.00  0.00    -0.351 N 
ATOM      4  H   UNL A   1      34.222  30.299  24.459  1.00  0.00     0.163 HD
ENDROOT
BRANCH   1   5
ATOM      5  C   UNL A   1      32.063  27.841  23.994  1.00  0.00     0.105 A 
ATOM      6  C   UNL A   1      30.868  26.189  24.962  1.00  0.00     0.106 A 
ATOM      7  C   UNL A   1      29.981  27.017  24.305  1.00  0.00     0.105 A 
ATOM      8  C   UNL A   1      32.172  26.603  24.601  1.00  0.00     0.055 A 
ATOM      9  N   UNL A   1      30.725  27.974  23.658  1.00  0.00    -0.356 N 
ATOM     10  H   UNL A   1      30.362  28.654  23.046  1.00  0.00     0.166 HD
BRANCH   6  11
ATOM     11  S   UNL A   1      30.540  24.981  26.149  1.00  0.00     0.263 S 
ATOM     12  O   UNL A   1      29.133  25.159  26.471  1.00  0.00    -0.201 OA
ATOM     13  O   UNL A   1      31.563  25.155  27.147  1.00  0.00    -0.201 OA
BRANCH  11  14
ATOM     14  N   UNL A   1      30.717  23.417  25.513  1.00  0.00    -0.279 N 
ATOM     15  H   UNL A   1      30.052  22.730  25.748  1.00  0.00     0.180 HD
BRANCH  14  16
ATOM     16  C   UNL A   1      31.806  23.060  24.639  1.00  0.00     0.052 A 
ATOM     17  C   UNL A   1      34.212  22.988  24.273  1.00  0.00     0.121 A 
ATOM     18  C   UNL A   1      34.012  22.827  22.903  1.00  0.00     0.046 A 
ATOM     19  C   UNL A   1      33.114  23.088  25.140  1.00  0.00     0.073 A 
ATOM     20  C   UNL A   1      32.720  22.809  22.394  1.00  0.00     0.006 A 
ATOM     21  C   UNL A   1      31.633  22.971  23.258  1.00  0.00     0.027 A 
BRANCH  17  22
ATOM     22  O   UNL A   1      35.497  23.265  24.655  1.00  0.00    -0.489 OA
BRANCH  22  23
ATOM     23  C   UNL A   1      36.522  22.909  23.726  1.00  0.00     0.257 C 
BRANCH  23  24
ATOM     24  C   UNL A   1      37.336  21.762  24.243  1.00  0.00     0.006 C 
ATOM     25  C   UNL A   1      37.482  21.475  25.544  1.00  0.00     0.007 C 
ENDBRANCH  23  24
ENDBRANCH  22  23
ENDBRANCH  17  22
ENDBRANCH  14  16
ENDBRANCH  11  14
ENDBRANCH   6  11
ENDBRANCH   1   5
BRANCH   3  26
ATOM     26  C   UNL A   1      33.253  29.642  26.165  1.00  0.00     0.118 C 
BRANCH  26  27
ATOM     27  C   UNL A   1      34.335  28.915  26.968  1.00  0.00     0.042 C 
BRANCH  27  28
ATOM     28  C   UNL A   1      35.479  29.845  27.358  1.00  0.00     0.118 C 
BRANCH  28  29
ATOM     29  N   UNL A   1      35.583  29.956  28.806  1.00  0.00    -0.352 N 
ATOM     30  C   UNL A   1      36.564  29.542  29.666  1.00  0.00     0.251 C 
ATOM     31  H   UNL A   1      34.820  30.403  29.239  1.00  0.00     0.163 HD
ATOM     32  O   UNL A   1      36.314  29.482  30.868  1.00  0.00    -0.269 OA
BRANCH  30  33
ATOM     33  C   UNL A   1      37.897  29.130  29.183  1.00  0.00     0.039 A 
ATOM     34  C   UNL A   1      38.774  28.556  30.113  1.00  0.00     0.014 A 
ATOM     35  C   UNL A   1      38.321  29.362  27.870  1.00  0.00     0.014 A 
ATOM     36  C   UNL A   1      40.041  28.145  29.712  1.00  0.00     0.010 A 
ATOM     37  C   UNL A   1      39.575  28.923  27.457  1.00  0.00     0.010 A 
ATOM     38  C   UNL A   1      40.427  28.298  28.375  1.00  0.00    -0.014 A 
BRANCH  38  39
ATOM     39  C   UNL A   1      41.688  27.673  27.918  1.00  0.00     0.031 A 
ATOM     40  C   UNL A   1      42.791  28.694  27.633  1.00  0.00     0.074 A 
ATOM     41  C   UNL A   1      41.702  26.315  27.799  1.00  0.00     0.049 A 
ATOM     42  N   UNL A   1      43.843  28.591  26.881  1.00  0.00    -0.248 NA
ATOM     43  C   UNL A   1      42.687  30.050  28.239  1.00  0.00     0.031 C 
ATOM     44  C   UNL A   1      40.557  25.446  28.138  1.00  0.00     0.029 A 
ATOM     45  N   UNL A   1      42.642  25.394  27.382  1.00  0.00    -0.354 N 
ATOM     46  C   UNL A   1      44.590  29.779  27.029  1.00  0.00     0.074 A 
ATOM     47  C   UNL A   1      43.786  30.671  27.809  1.00  0.00     0.031 C 
ATOM     48  C   UNL A   1      40.840  24.157  27.866  1.00  0.00     0.029 A 
ATOM     49  C   UNL A   1      42.184  24.056  27.331  1.00  0.00     0.049 A 
ATOM     50  H   UNL A   1      43.562  25.649  27.140  1.00  0.00     0.167 HD
ATOM     51  C   UNL A   1      45.880  29.916  26.605  1.00  0.00     0.031 A 
ATOM     52  C   UNL A   1      42.811  22.939  26.855  1.00  0.00     0.031 A 
ATOM     53  C   UNL A   1      46.299  28.768  25.875  1.00  0.00     0.049 A 
ATOM     54  C   UNL A   1      44.180  23.334  26.487  1.00  0.00     0.074 A 
ATOM     55  C   UNL A   1      45.988  28.262  24.640  1.00  0.00     0.029 A 
ATOM     56  N   UNL A   1      46.967  27.804  26.587  1.00  0.00    -0.354 N 
ATOM     57  N   UNL A   1      45.136  23.582  27.328  1.00  0.00    -0.248 NA
ATOM     58  C   UNL A   1      44.514  23.514  25.068  1.00  0.00     0.031 C 
ATOM     59  C   UNL A   1      46.075  26.861  24.812  1.00  0.00     0.029 A 
ATOM     60  C   UNL A   1      46.545  26.592  26.101  1.00  0.00     0.049 A 
ATOM     61  H   UNL A   1      47.622  27.953  27.308  1.00  0.00     0.167 HD
ATOM     62  C   UNL A   1      46.021  24.306  26.567  1.00  0.00     0.074 A 
ATOM     63  C   UNL A   1      45.762  23.957  25.188  1.00  0.00     0.031 C 
ATOM     64  C   UNL A   1      46.488  25.491  27.033  1.00  0.00     0.031 A 
BRANCH  51  65
ATOM     65  C   UNL A   1      46.937  30.916  26.996  1.00  0.00    -0.014 A 
ATOM     66  C   UNL A   1      46.698  32.277  26.685  1.00  0.00     0.009 A 
ATOM     67  C   UNL A   1      48.244  30.566  27.352  1.00  0.00     0.009 A 
ATOM     68  C   UNL A   1      47.731  33.215  26.620  1.00  0.00     0.001 A 
ATOM     69  C   UNL A   1      49.276  31.518  27.327  1.00  0.00     0.001 A 
ATOM     70  C   UNL A   1      49.027  32.828  26.927  1.00  0.00     0.000 A 
ENDBRANCH  51  65
BRANCH  52  71
ATOM     71  C   UNL A   1      42.430  21.512  26.564  1.00  0.00    -0.014 A 
ATOM     72  C   UNL A   1      41.149  20.968  26.680  1.00  0.00     0.009 A 
ATOM     73  C   UNL A   1      43.427  20.622  26.080  1.00  0.00     0.009 A 
ATOM     74  C   UNL A   1      40.867  19.655  26.252  1.00  0.00     0.001 A 
ATOM     75  C   UNL A   1      43.149  19.331  25.622  1.00  0.00     0.001 A 
ATOM     76  C   UNL A   1      41.857  18.849  25.695  1.00  0.00     0.000 A 
ENDBRANCH  52  71
BRANCH  64  77
ATOM     77  C   UNL A   1      46.421  25.647  28.544  1.00  0.00    -0.014 A 
ATOM     78  C   UNL A   1      45.228  26.050  29.162  1.00  0.00     0.009 A 
ATOM     79  C   UNL A   1      47.558  25.515  29.361  1.00  0.00     0.009 A 
ATOM     80  C   UNL A   1      45.181  26.327  30.535  1.00  0.00     0.001 A 
ATOM     81  C   UNL A   1      47.514  25.783  30.736  1.00  0.00     0.001 A 
ATOM     82  C   UNL A   1      46.323  26.195  31.322  1.00  0.00     0.000 A 
ENDBRANCH  64  77
ENDBRANCH  38  39
ENDBRANCH  30  33
ENDBRANCH  28  29
ENDBRANCH  27  28
ENDBRANCH  26  27
ENDBRANCH   3  26
TORSDOF 16
ENDMDL
MODEL 2
REMARK VINA RESULT:     -11.8      1.555      2.161
REMARK SMILES C=CCOc1cccc(NS(=O)(=O)c2c[nH]c(C(=O)NCCCNC(=O)c3ccc(-c4c5nc(c(-c6ccccc6)c6ccc([nH]6)c(-c6ccccc6)c6nc(c(-c7ccccc7)c7ccc4[nH]7)C=C6)C=C5)cc3)c2)c1
REMARK SMILES IDX 18 1 19 2 20 3 17 5 14 6 15 7 75 8 16 9 11 11 12 12 13 13
REMARK SMILES IDX 10 14 9 16 5 17 6 18 76 19 7 20 8 21 4 22 3 23 2 24 1 25
REMARK SMILES IDX 21 26 22 27 23 28 24 29 25 30 26 32 27 33 28 34 74 35 29 36
REMARK SMILES IDX 73 37 30 38 31 39 32 40 67 41 33 42 72 43 66 44 68 45 34 46
REMARK SMILES IDX 71 47 65 48 64 49 35 51 57 52 42 53 56 54 43 55 46 56 55 57
REMARK SMILES IDX 69 58 44 59 45 60 54 62 70 63 47 64 36 65 37 66 41 67 38 68
REMARK SMILES IDX 40 69 39 70 58 71 59 72 63 73 60 74 62 75 61 76 48 77 49 78
REMARK SMILES IDX 53 79 50 80 52 81 51 82
REMARK H PARENT 20 4 16 10 10 15 24 31 68 50 46 61
REMARK Flexibility Score: inf
ROOT
ATOM      1  C   UNL A   1      31.795  28.607  27.156  1.00  0.00     0.267 C 
ATOM      2  O   UNL A   1      31.026  28.069  27.951  1.00  0.00    -0.268 OA
ATOM      3  N   UNL A   1      32.583  29.631  27.624  1.00  0.00    -0.351 N 
ATOM      4  H   UNL A   1      32.374  29.922  28.541  1.00  0.00     0.163 HD
ENDROOT
BRANCH   1   5
ATOM      5  C   UNL A   1      31.948  28.124  25.801  1.00  0.00     0.105 A 
ATOM      6  C   UNL A   1      32.122  26.825  23.964  1.00  0.00     0.106 A 
ATOM      7  C   UNL A   1      31.345  27.915  23.632  1.00  0.00     0.105 A 
ATOM      8  C   UNL A   1      32.648  27.064  25.256  1.00  0.00     0.055 A 
ATOM      9  N   UNL A   1      31.309  28.736  24.734  1.00  0.00    -0.356 N 
ATOM     10  H   UNL A   1      30.890  29.627  24.762  1.00  0.00     0.166 HD
BRANCH   6  11
ATOM     11  S   UNL A   1      32.321  25.340  23.108  1.00  0.00     0.263 S 
ATOM     12  O   UNL A   1      32.008  25.672  21.727  1.00  0.00    -0.201 OA
ATOM     13  O   UNL A   1      31.537  24.382  23.842  1.00  0.00    -0.201 OA
BRANCH  11  14
ATOM     14  N   UNL A   1      33.933  24.809  23.146  1.00  0.00    -0.279 N 
ATOM     15  H   UNL A   1      34.570  25.175  22.491  1.00  0.00     0.180 HD
BRANCH  14  16
ATOM     16  C   UNL A   1      34.403  23.843  24.107  1.00  0.00     0.052 A 
ATOM     17  C   UNL A   1      34.533  21.508  24.782  1.00  0.00     0.121 A 
ATOM     18  C   UNL A   1      34.864  21.888  26.082  1.00  0.00     0.046 A 
ATOM     19  C   UNL A   1      34.319  22.481  23.795  1.00  0.00     0.073 A 
ATOM     20  C   UNL A   1      34.939  23.236  26.405  1.00  0.00     0.006 A 
ATOM     21  C   UNL A   1      34.664  24.199  25.431  1.00  0.00     0.027 A 
BRANCH  17  22
ATOM     22  O   UNL A   1      34.217  20.187  24.614  1.00  0.00    -0.489 OA
BRANCH  22  23
ATOM     23  C   UNL A   1      32.854  19.900  24.297  1.00  0.00     0.257 C 
BRANCH  23  24
ATOM     24  C   UNL A   1      32.697  18.477  23.853  1.00  0.00     0.006 C 
ATOM     25  C   UNL A   1      32.360  18.115  22.608  1.00  0.00     0.007 C 
ENDBRANCH  23  24
ENDBRANCH  22  23
ENDBRANCH  17  22
ENDBRANCH  14  16
ENDBRANCH  11  14
ENDBRANCH   6  11
ENDBRANCH   1   5
BRANCH   3  26
ATOM     26  C   UNL A   1      33.674  30.355  26.990  1.00  0.00     0.118 C 
BRANCH  26  27
ATOM     27  C   UNL A   1      35.010  29.624  27.139  1.00  0.00     0.042 C 
BRANCH  27  28
ATOM     28  C   UNL A   1      36.045  30.468  27.874  1.00  0.00     0.118 C 
BRANCH  28  29
ATOM     29  N   UNL A   1      36.087  30.119  29.287  1.00  0.00    -0.352 N 
ATOM     30  C   UNL A   1      36.988  29.372  29.998  1.00  0.00     0.251 C 
ATOM     31  H   UNL A   1      35.343  30.481  29.821  1.00  0.00     0.163 HD
ATOM     32  O   UNL A   1      36.674  28.971  31.116  1.00  0.00    -0.269 OA
BRANCH  30  33
ATOM     33  C   UNL A   1      38.305  29.008  29.439  1.00  0.00     0.039 A 
ATOM     34  C   UNL A   1      39.304  28.617  30.340  1.00  0.00     0.014 A 
ATOM     35  C   UNL A   1      38.594  29.112  28.075  1.00  0.00     0.014 A 
ATOM     36  C   UNL A   1      40.563  28.257  29.871  1.00  0.00     0.010 A 
ATOM     37  C   UNL A   1      39.841  28.722  27.596  1.00  0.00     0.010 A 
ATOM     38  C   UNL A   1      40.818  28.277  28.495  1.00  0.00    -0.014 A 
BRANCH  38  39
ATOM     39  C   UNL A   1      42.085  27.698  27.993  1.00  0.00     0.031 A 
ATOM     40  C   UNL A   1      43.156  28.756  27.718  1.00  0.00     0.074 A 
ATOM     41  C   UNL A   1      42.131  26.346  27.832  1.00  0.00     0.049 A 
ATOM     42  N   UNL A   1      44.195  28.703  26.943  1.00  0.00    -0.248 NA
ATOM     43  C   UNL A   1      43.032  30.089  28.368  1.00  0.00     0.031 C 
ATOM     44  C   UNL A   1      41.015  25.438  28.166  1.00  0.00     0.029 A 
ATOM     45  N   UNL A   1      43.085  25.462  27.368  1.00  0.00    -0.354 N 
ATOM     46  C   UNL A   1      44.915  29.904  27.113  1.00  0.00     0.074 A 
ATOM     47  C   UNL A   1      44.106  30.751  27.935  1.00  0.00     0.031 C 
ATOM     48  C   UNL A   1      41.324  24.165  27.848  1.00  0.00     0.029 A 
ATOM     49  C   UNL A   1      42.659  24.116  27.284  1.00  0.00     0.049 A 
ATOM     50  H   UNL A   1      43.993  25.748  27.115  1.00  0.00     0.167 HD
ATOM     51  C   UNL A   1      46.193  30.087  26.667  1.00  0.00     0.031 A 
ATOM     52  C   UNL A   1      43.303  23.030  26.761  1.00  0.00     0.031 A 
ATOM     53  C   UNL A   1      46.625  28.972  25.894  1.00  0.00     0.049 A 
ATOM     54  C   UNL A   1      44.654  23.470  26.379  1.00  0.00     0.074 A 
ATOM     55  C   UNL A   1      46.301  28.497  24.650  1.00  0.00     0.029 A 
ATOM     56  N   UNL A   1      47.331  28.005  26.562  1.00  0.00    -0.354 N 
ATOM     57  N   UNL A   1      45.620  23.717  27.208  1.00  0.00    -0.248 NA
ATOM     58  C   UNL A   1      44.954  23.702  24.959  1.00  0.00     0.031 C 
ATOM     59  C   UNL A   1      46.426  27.094  24.777  1.00  0.00     0.029 A 
ATOM     60  C   UNL A   1      46.929  26.797  26.048  1.00  0.00     0.049 A 
ATOM     61  H   UNL A   1      47.996  28.148  27.274  1.00  0.00     0.167 HD
ATOM     62  C   UNL A   1      46.471  24.486  26.452  1.00  0.00     0.074 A 
ATOM     63  C   UNL A   1      46.193  24.173  25.069  1.00  0.00     0.031 C 
ATOM     64  C   UNL A   1      46.918  25.668  26.945  1.00  0.00     0.031 A 
BRANCH  51  65
ATOM     65  C   UNL A   1      47.232  31.101  27.068  1.00  0.00    -0.014 A 
ATOM     66  C   UNL A   1      47.092  32.417  26.563  1.00  0.00     0.009 A 
ATOM     67  C   UNL A   1      48.468  30.765  27.633  1.00  0.00     0.009 A 
ATOM     68  C   UNL A   1      48.164  33.312  26.520  1.00  0.00     0.001 A 
ATOM     69  C   UNL A   1      49.533  31.679  27.628  1.00  0.00     0.001 A 
ATOM     70  C   UNL A   1      49.392  32.934  27.040  1.00  0.00     0.000 A 
ENDBRANCH  51  65
BRANCH  52  71
ATOM     71  C   UNL A   1      42.952  21.603  26.433  1.00  0.00    -0.014 A 
ATOM     72  C   UNL A   1      43.703  20.740  25.632  1.00  0.00     0.009 A 
ATOM     73  C   UNL A   1      41.785  21.034  27.013  1.00  0.00     0.009 A 
ATOM     74  C   UNL A   1      43.362  19.379  25.497  1.00  0.00     0.001 A 
ATOM     75  C   UNL A   1      41.459  19.679  26.911  1.00  0.00     0.001 A 
ATOM     76  C   UNL A   1      42.260  18.842  26.160  1.00  0.00     0.000 A 
ENDBRANCH  52  71
BRANCH  64  77
ATOM     77  C   UNL A   1      46.879  25.776  28.462  1.00  0.00    -0.014 A 
ATOM     78  C   UNL A   1      45.703  26.177  29.112  1.00  0.00     0.009 A 
ATOM     79  C   UNL A   1      48.026  25.600  29.255  1.00  0.00     0.009 A 
ATOM     80  C   UNL A   1      45.683  26.410  30.494  1.00  0.00     0.001 A 
ATOM     81  C   UNL A   1      48.009  25.824  30.638  1.00  0.00     0.001 A 
ATOM     82  C   UNL A   1      46.835  26.234  31.257  1.00  0.00     0.000 A 
ENDBRANCH  64  77
ENDBRANCH  38  39
ENDBRANCH  30  33
ENDBRANCH  28  29
ENDBRANCH  27  28
ENDBRANCH  26  27
ENDBRANCH   3  26
TORSDOF 16
ENDMDL
MODEL 3
REMARK VINA RESULT:     -11.7      4.723      8.852
REMARK SMILES C=CCOc1cccc(NS(=O)(=O)c2c[nH]c(C(=O)NCCCNC(=O)c3ccc(-c4c5nc(c(-c6ccccc6)c6ccc([nH]6)c(-c6ccccc6)c6nc(c(-c7ccccc7)c7ccc4[nH]7)C=C6)C=C5)cc3)c2)c1
REMARK SMILES IDX 18 1 19 2 20 3 17 5 14 6 15 7 75 8 16 9 11 11 12 12 13 13
REMARK SMILES IDX 10 14 9 16 5 17 6 18 76 19 7 20 8 21 4 22 3 23 2 24 1 25
REMARK SMILES IDX 21 26 22 27 23 28 24 29 25 30 26 32 27 33 28 34 74 35 29 36
REMARK SMILES IDX 73 37 30 38 31 39 32 40 67 41 33 42 72 43 66 44 68 45 34 46
REMARK SMILES IDX 71 47 65 48 64 49 35 51 57 52 42 53 56 54 43 55 46 56 55 57
REMARK SMILES IDX 69 58 44 59 45 60 54 62 70 63 47 64 36 65 37 66 41 67 38 68
REMARK SMILES IDX 40 69 39 70 58 71 59 72 63 73 60 74 62 75 61 76 48 77 49 78
REMARK SMILES IDX 53 79 50 80 52 81 51 82
REMARK H PARENT 20 4 16 10 10 15 24 31 68 50 46 61
REMARK Flexibility Score: inf
ROOT
ATOM      1  C   UNL A   1      33.813  29.113  26.300  1.00  0.00     0.267 C 
ATOM      2  O   UNL A   1      34.882  28.937  26.884  1.00  0.00    -0.268 OA
ATOM      3  N   UNL A   1      32.894  29.946  26.890  1.00  0.00    -0.351 N 
ATOM      4  H   UNL A   1      33.133  30.242  27.798  1.00  0.00     0.163 HD
ENDROOT
BRANCH   1   5
ATOM      5  C   UNL A   1      33.560  28.550  24.993  1.00  0.00     0.105 A 
ATOM      6  C   UNL A   1      32.788  27.306  23.274  1.00  0.00     0.106 A 
ATOM      7  C   UNL A   1      32.846  28.617  22.849  1.00  0.00     0.105 A 
ATOM      8  C   UNL A   1      33.415  27.250  24.542  1.00  0.00     0.055 A 
ATOM      9  N   UNL A   1      33.388  29.352  23.876  1.00  0.00    -0.356 N 
ATOM     10  H   UNL A   1      33.619  30.308  23.826  1.00  0.00     0.166 HD
BRANCH   6  11
ATOM     11  S   UNL A   1      31.972  25.970  22.550  1.00  0.00     0.263 S 
ATOM     12  O   UNL A   1      31.537  26.469  21.254  1.00  0.00    -0.201 OA
ATOM     13  O   UNL A   1      31.022  25.536  23.540  1.00  0.00    -0.201 OA
BRANCH  11  14
ATOM     14  N   UNL A   1      33.029  24.674  22.262  1.00  0.00    -0.279 N 
ATOM     15  H   UNL A   1      33.683  24.747  21.529  1.00  0.00     0.180 HD
BRANCH  14  16
ATOM     16  C   UNL A   1      33.005  23.471  23.054  1.00  0.00     0.052 A 
ATOM     17  C   UNL A   1      34.146  22.042  24.662  1.00  0.00     0.121 A 
ATOM     18  C   UNL A   1      33.313  20.976  24.326  1.00  0.00     0.046 A 
ATOM     19  C   UNL A   1      33.983  23.289  24.040  1.00  0.00     0.073 A 
ATOM     20  C   UNL A   1      32.348  21.142  23.342  1.00  0.00     0.006 A 
ATOM     21  C   UNL A   1      32.232  22.369  22.685  1.00  0.00     0.027 A 
BRANCH  17  22
ATOM     22  O   UNL A   1      35.232  21.725  25.433  1.00  0.00    -0.489 OA
BRANCH  22  23
ATOM     23  C   UNL A   1      36.449  21.467  24.731  1.00  0.00     0.257 C 
BRANCH  23  24
ATOM     24  C   UNL A   1      37.465  22.532  25.014  1.00  0.00     0.006 C 
ATOM     25  C   UNL A   1      37.240  23.589  25.806  1.00  0.00     0.007 C 
ENDBRANCH  23  24
ENDBRANCH  22  23
ENDBRANCH  17  22
ENDBRANCH  14  16
ENDBRANCH  11  14
ENDBRANCH   6  11
ENDBRANCH   1   5
BRANCH   3  26
ATOM     26  C   UNL A   1      31.628  30.465  26.396  1.00  0.00     0.118 C 
BRANCH  26  27
ATOM     27  C   UNL A   1      31.463  31.957  26.696  1.00  0.00     0.042 C 
BRANCH  27  28
ATOM     28  C   UNL A   1      32.775  32.601  27.131  1.00  0.00     0.118 C 
BRANCH  28  29
ATOM     29  N   UNL A   1      32.552  33.961  27.597  1.00  0.00    -0.352 N 
ATOM     30  C   UNL A   1      33.129  34.660  28.624  1.00  0.00     0.251 C 
ATOM     31  H   UNL A   1      31.874  34.464  27.090  1.00  0.00     0.163 HD
ATOM     32  O   UNL A   1      32.588  35.691  29.018  1.00  0.00    -0.269 OA
BRANCH  30  33
ATOM     33  C   UNL A   1      34.357  34.186  29.292  1.00  0.00     0.039 A 
ATOM     34  C   UNL A   1      34.211  33.505  30.507  1.00  0.00     0.014 A 
ATOM     35  C   UNL A   1      35.634  34.459  28.790  1.00  0.00     0.014 A 
ATOM     36  C   UNL A   1      35.333  33.031  31.178  1.00  0.00     0.010 A 
ATOM     37  C   UNL A   1      36.758  33.959  29.441  1.00  0.00     0.010 A 
ATOM     38  C   UNL A   1      36.604  33.229  30.626  1.00  0.00    -0.014 A 
BRANCH  38  39
ATOM     39  C   UNL A   1      37.766  32.545  31.237  1.00  0.00     0.031 A 
ATOM     40  C   UNL A   1      38.088  31.206  30.571  1.00  0.00     0.074 A 
ATOM     41  C   UNL A   1      38.370  33.165  32.290  1.00  0.00     0.049 A 
ATOM     42  N   UNL A   1      38.733  30.181  31.037  1.00  0.00    -0.248 NA
ATOM     43  C   UNL A   1      37.580  30.948  29.196  1.00  0.00     0.031 C 
ATOM     44  C   UNL A   1      37.960  34.483  32.815  1.00  0.00     0.029 A 
ATOM     45  N   UNL A   1      39.421  32.843  33.124  1.00  0.00    -0.354 N 
ATOM     46  C   UNL A   1      38.838  29.235  29.995  1.00  0.00     0.074 A 
ATOM     47  C   UNL A   1      38.036  29.727  28.916  1.00  0.00     0.031 C 
ATOM     48  C   UNL A   1      38.698  34.818  33.892  1.00  0.00     0.029 A 
ATOM     49  C   UNL A   1      39.655  33.764  34.172  1.00  0.00     0.049 A 
ATOM     50  H   UNL A   1      39.968  32.032  32.999  1.00  0.00     0.167 HD
ATOM     51  C   UNL A   1      39.679  28.159  30.035  1.00  0.00     0.031 A 
ATOM     52  C   UNL A   1      40.523  33.684  35.224  1.00  0.00     0.031 A 
ATOM     53  C   UNL A   1      40.304  28.051  31.310  1.00  0.00     0.049 A 
ATOM     54  C   UNL A   1      41.327  32.466  35.032  1.00  0.00     0.074 A 
ATOM     55  C   UNL A   1      39.860  27.702  32.558  1.00  0.00     0.029 A 
ATOM     56  N   UNL A   1      41.543  28.627  31.430  1.00  0.00    -0.354 N 
ATOM     57  N   UNL A   1      42.279  32.332  34.162  1.00  0.00    -0.248 NA
ATOM     58  C   UNL A   1      41.024  31.277  35.840  1.00  0.00     0.031 C 
ATOM     59  C   UNL A   1      40.645  28.490  33.432  1.00  0.00     0.029 A 
ATOM     60  C   UNL A   1      41.598  29.185  32.683  1.00  0.00     0.049 A 
ATOM     61  H   UNL A   1      42.255  28.638  30.750  1.00  0.00     0.167 HD
ATOM     62  C   UNL A   1      42.399  30.967  34.061  1.00  0.00     0.074 A 
ATOM     63  C   UNL A   1      41.876  30.414  35.291  1.00  0.00     0.031 C 
ATOM     64  C   UNL A   1      42.387  30.384  32.837  1.00  0.00     0.031 A 
BRANCH  51  65
ATOM     65  C   UNL A   1      40.207  27.290  28.924  1.00  0.00    -0.014 A 
ATOM     66  C   UNL A   1      40.872  27.932  27.851  1.00  0.00     0.009 A 
ATOM     67  C   UNL A   1      39.820  25.960  28.728  1.00  0.00     0.009 A 
ATOM     68  C   UNL A   1      41.038  27.316  26.608  1.00  0.00     0.001 A 
ATOM     69  C   UNL A   1      40.024  25.326  27.492  1.00  0.00     0.001 A 
ATOM     70  C   UNL A   1      40.598  26.014  26.425  1.00  0.00     0.000 A 
ENDBRANCH  51  65
BRANCH  52  71
ATOM     71  C   UNL A   1      40.779  34.455  36.492  1.00  0.00    -0.014 A 
ATOM     72  C   UNL A   1      41.947  35.157  36.799  1.00  0.00     0.009 A 
ATOM     73  C   UNL A   1      39.745  34.539  37.464  1.00  0.00     0.009 A 
ATOM     74  C   UNL A   1      42.038  35.962  37.953  1.00  0.00     0.001 A 
ATOM     75  C   UNL A   1      39.814  35.361  38.592  1.00  0.00     0.001 A 
ATOM     76  C   UNL A   1      40.963  36.089  38.831  1.00  0.00     0.000 A 
ENDBRANCH  52  71
BRANCH  64  77
ATOM     77  C   UNL A   1      42.781  31.306  31.693  1.00  0.00    -0.014 A 
ATOM     78  C   UNL A   1      41.795  31.908  30.898  1.00  0.00     0.009 A 
ATOM     79  C   UNL A   1      44.121  31.498  31.314  1.00  0.00     0.009 A 
ATOM     80  C   UNL A   1      42.137  32.654  29.761  1.00  0.00     0.001 A 
ATOM     81  C   UNL A   1      44.468  32.248  30.183  1.00  0.00     0.001 A 
ATOM     82  C   UNL A   1      43.472  32.823  29.403  1.00  0.00     0.000 A 
ENDBRANCH  64  77
ENDBRANCH  38  39
ENDBRANCH  30  33
ENDBRANCH  28  29
ENDBRANCH  27  28
ENDBRANCH  26  27
ENDBRANCH   3  26
TORSDOF 16
ENDMDL
