MODEL 1
REMARK VINA RESULT:     -12.9      0.000      0.000
REMARK SMILES O=C(NCCCNC(=O)c1cc(Cl)c2c(c1)[C@H]1C=CC[C@H]1[C@H](c1ccc(S(=O)(=O)N3CCOCC3)cc1)N2)c1ccc(-c2c3nc(c(-c4ccccc4)c4ccc([nH]4)c(-c4ccccc4)c4nc(c(-c5ccccc5)c5ccc2[nH]5)C=C4)C=C3)cc1
REMARK SMILES IDX 5 1 4 2 3 3 1 4 2 5 39 7 40 8 86 9 41 10 85 11 42 12 43 13
REMARK SMILES IDX 44 14 79 15 45 16 84 17 78 18 80 19 46 20 83 21 77 22 76 23
REMARK SMILES IDX 47 25 69 26 54 27 68 28 55 29 58 30 67 31 81 32 56 33 57 34
REMARK SMILES IDX 66 36 82 37 59 38 48 39 49 40 53 41 50 42 52 43 51 44 70 45
REMARK SMILES IDX 71 46 75 47 72 48 74 49 73 50 60 51 61 52 65 53 62 54 64 55
REMARK SMILES IDX 63 56 6 57 7 58 8 59 9 61 10 62 11 63 16 64 12 65 15 66
REMARK SMILES IDX 13 67 14 68 17 69 38 70 18 71 21 72 22 73 19 75 20 76 23 77
REMARK SMILES IDX 24 78 37 79 25 80 36 81 26 82 27 83 28 84 29 85 30 86 31 87
REMARK SMILES IDX 35 88 32 89 34 90 33 91
REMARK H PARENT 3 6 80 24 58 35 7 60 38 74
REMARK Flexibility Score: inf
ROOT
ATOM      1  C   UNL A   1      43.461  22.758  25.906  1.00  0.00     0.042 C 
ENDROOT
BRANCH   1   2
ATOM      2  C   UNL A   1      43.280  24.025  25.082  1.00  0.00     0.118 C 
BRANCH   2   3
ATOM      3  N   UNL A   1      44.551  24.643  24.729  1.00  0.00    -0.352 N 
ATOM      4  O   UNL A   1      46.097  26.280  24.624  1.00  0.00    -0.269 OA
ATOM      5  C   UNL A   1      45.111  25.811  25.183  1.00  0.00     0.251 C 
ATOM      6  H   UNL A   1      45.087  24.151  24.068  1.00  0.00     0.163 HD
BRANCH   5   7
ATOM      7  C   UNL A   1      44.513  26.510  26.337  1.00  0.00     0.039 A 
ATOM      8  C   UNL A   1      44.108  25.796  27.468  1.00  0.00     0.014 A 
ATOM      9  C   UNL A   1      44.371  27.900  26.290  1.00  0.00     0.014 A 
ATOM     10  C   UNL A   1      43.444  26.453  28.497  1.00  0.00     0.010 A 
ATOM     11  C   UNL A   1      43.756  28.568  27.350  1.00  0.00     0.010 A 
ATOM     12  C   UNL A   1      43.257  27.843  28.443  1.00  0.00    -0.014 A 
BRANCH  12  13
ATOM     13  C   UNL A   1      42.548  28.518  29.554  1.00  0.00     0.031 A 
ATOM     14  C   UNL A   1      41.131  28.987  29.385  1.00  0.00     0.074 A 
ATOM     15  C   UNL A   1      43.175  28.660  30.737  1.00  0.00     0.049 A 
ATOM     16  N   UNL A   1      40.336  29.521  30.277  1.00  0.00    -0.248 NA
ATOM     17  C   UNL A   1      40.524  28.836  28.053  1.00  0.00     0.031 C 
ATOM     18  C   UNL A   1      44.551  28.244  31.017  1.00  0.00     0.029 A 
ATOM     19  N   UNL A   1      42.731  29.175  31.927  1.00  0.00    -0.354 N 
ATOM     20  C   UNL A   1      39.141  29.770  29.616  1.00  0.00     0.074 A 
ATOM     21  C   UNL A   1      39.317  29.354  28.243  1.00  0.00     0.031 C 
ATOM     22  C   UNL A   1      44.829  28.493  32.306  1.00  0.00     0.029 A 
ATOM     23  C   UNL A   1      43.665  29.113  32.932  1.00  0.00     0.049 A 
ATOM     24  H   UNL A   1      41.831  29.552  32.051  1.00  0.00     0.167 HD
ATOM     25  C   UNL A   1      37.996  30.285  30.118  1.00  0.00     0.031 A 
ATOM     26  C   UNL A   1      43.596  29.513  34.215  1.00  0.00     0.031 A 
ATOM     27  C   UNL A   1      37.815  30.684  31.487  1.00  0.00     0.049 A 
ATOM     28  C   UNL A   1      42.324  30.118  34.733  1.00  0.00     0.074 A 
ATOM     29  C   UNL A   1      36.668  31.169  32.091  1.00  0.00     0.029 A 
ATOM     30  N   UNL A   1      38.801  30.651  32.458  1.00  0.00    -0.354 N 
ATOM     31  N   UNL A   1      41.186  30.294  34.109  1.00  0.00    -0.248 NA
ATOM     32  C   UNL A   1      42.325  30.582  36.129  1.00  0.00     0.031 C 
ATOM     33  C   UNL A   1      36.972  31.472  33.420  1.00  0.00     0.029 A 
ATOM     34  C   UNL A   1      38.298  31.138  33.649  1.00  0.00     0.049 A 
ATOM     35  H   UNL A   1      39.721  30.330  32.320  1.00  0.00     0.167 HD
ATOM     36  C   UNL A   1      40.335  30.882  35.033  1.00  0.00     0.074 A 
ATOM     37  C   UNL A   1      41.080  31.019  36.267  1.00  0.00     0.031 C 
ATOM     38  C   UNL A   1      39.050  31.274  34.867  1.00  0.00     0.031 A 
BRANCH  25  39
ATOM     39  C   UNL A   1      36.825  30.447  29.196  1.00  0.00    -0.014 A 
ATOM     40  C   UNL A   1      36.513  31.701  28.650  1.00  0.00     0.009 A 
ATOM     41  C   UNL A   1      36.115  29.315  28.766  1.00  0.00     0.009 A 
ATOM     42  C   UNL A   1      35.509  31.817  27.687  1.00  0.00     0.001 A 
ATOM     43  C   UNL A   1      35.122  29.434  27.792  1.00  0.00     0.001 A 
ATOM     44  C   UNL A   1      34.822  30.684  27.252  1.00  0.00     0.000 A 
ENDBRANCH  25  39
BRANCH  26  45
ATOM     45  C   UNL A   1      44.782  29.355  35.093  1.00  0.00    -0.014 A 
ATOM     46  C   UNL A   1      45.010  28.152  35.777  1.00  0.00     0.009 A 
ATOM     47  C   UNL A   1      45.712  30.399  35.218  1.00  0.00     0.009 A 
ATOM     48  C   UNL A   1      46.143  28.003  36.578  1.00  0.00     0.001 A 
ATOM     49  C   UNL A   1      46.854  30.238  36.003  1.00  0.00     0.001 A 
ATOM     50  C   UNL A   1      47.067  29.042  36.687  1.00  0.00     0.000 A 
ENDBRANCH  26  45
BRANCH  38  51
ATOM     51  C   UNL A   1      38.351  31.901  36.035  1.00  0.00    -0.014 A 
ATOM     52  C   UNL A   1      37.794  31.101  37.043  1.00  0.00     0.009 A 
ATOM     53  C   UNL A   1      38.366  33.296  36.193  1.00  0.00     0.009 A 
ATOM     54  C   UNL A   1      37.264  31.689  38.193  1.00  0.00     0.001 A 
ATOM     55  C   UNL A   1      37.852  33.878  37.352  1.00  0.00     0.001 A 
ATOM     56  C   UNL A   1      37.303  33.075  38.351  1.00  0.00     0.000 A 
ENDBRANCH  38  51
ENDBRANCH  12  13
ENDBRANCH   5   7
ENDBRANCH   2   3
ENDBRANCH   1   2
BRANCH   1  57
ATOM     57  C   UNL A   1      42.705  21.556  25.365  1.00  0.00     0.118 C 
BRANCH  57  58
ATOM     58  N   UNL A   1      42.211  20.680  26.421  1.00  0.00    -0.352 N 
ATOM     59  C   UNL A   1      41.009  20.732  27.082  1.00  0.00     0.251 C 
ATOM     60  H   UNL A   1      42.818  19.956  26.696  1.00  0.00     0.163 HD
ATOM     61  O   UNL A   1      40.784  20.015  28.050  1.00  0.00    -0.269 OA
BRANCH  59  62
ATOM     62  C   UNL A   1      40.005  21.706  26.627  1.00  0.00     0.041 A 
ATOM     63  C   UNL A   1      40.087  23.037  27.030  1.00  0.00     0.036 A 
ATOM     64  C   UNL A   1      38.938  21.256  25.853  1.00  0.00     0.020 A 
ATOM     65  C   UNL A   1      39.014  23.881  26.778  1.00  0.00     0.065 A 
ATOM     66  C   UNL A   1      37.876  22.124  25.561  1.00  0.00    -0.015 A 
ATOM     67  Cl  UNL A   1      39.086  25.495  27.399  1.00  0.00    -0.082 Cl
ATOM     68  C   UNL A   1      37.873  23.424  26.090  1.00  0.00     0.057 A 
ATOM     69  C   UNL A   1      36.770  21.653  24.660  1.00  0.00     0.049 C 
ATOM     70  N   UNL A   1      36.794  24.266  25.876  1.00  0.00    -0.376 N 
ATOM     71  C   UNL A   1      35.857  20.610  25.251  1.00  0.00    -0.023 C 
ATOM     72  C   UNL A   1      35.769  22.748  24.224  1.00  0.00     0.031 C 
ATOM     73  C   UNL A   1      35.528  23.746  25.387  1.00  0.00     0.114 C 
ATOM     74  H   UNL A   1      36.887  25.230  26.058  1.00  0.00     0.161 HD
ATOM     75  C   UNL A   1      34.612  20.749  24.780  1.00  0.00    -0.030 C 
ATOM     76  C   UNL A   1      34.532  21.910  23.838  1.00  0.00     0.034 C 
BRANCH  73  77
ATOM     77  C   UNL A   1      34.641  24.920  24.989  1.00  0.00    -0.025 A 
ATOM     78  C   UNL A   1      34.060  25.806  25.919  1.00  0.00     0.007 A 
ATOM     79  C   UNL A   1      34.388  25.133  23.632  1.00  0.00     0.007 A 
ATOM     80  C   UNL A   1      33.265  26.879  25.498  1.00  0.00     0.022 A 
ATOM     81  C   UNL A   1      33.642  26.225  23.213  1.00  0.00     0.022 A 
ATOM     82  C   UNL A   1      33.074  27.096  24.134  1.00  0.00     0.082 A 
BRANCH  82  83
ATOM     83  S   UNL A   1      32.117  28.497  23.601  1.00  0.00     0.243 S 
ATOM     84  O   UNL A   1      31.966  29.348  24.765  1.00  0.00    -0.207 OA
ATOM     85  O   UNL A   1      32.731  28.971  22.382  1.00  0.00    -0.207 OA
BRANCH  83  86
ATOM     86  N   UNL A   1      30.610  27.876  23.209  1.00  0.00    -0.193 NA
ATOM     87  C   UNL A   1      29.551  28.696  22.583  1.00  0.00     0.131 C 
ATOM     88  C   UNL A   1      30.235  26.486  23.520  1.00  0.00     0.131 C 
ATOM     89  C   UNL A   1      28.192  28.501  23.277  1.00  0.00     0.177 C 
ATOM     90  C   UNL A   1      28.892  26.451  24.253  1.00  0.00     0.177 C 
ATOM     91  O   UNL A   1      27.871  27.121  23.502  1.00  0.00    -0.379 OA
ENDBRANCH  83  86
ENDBRANCH  82  83
ENDBRANCH  73  77
ENDBRANCH  59  62
ENDBRANCH  57  58
ENDBRANCH   1  57
TORSDOF 13
ENDMDL
MODEL 2
REMARK VINA RESULT:     -12.8      0.599      5.530
REMARK SMILES O=C(NCCCNC(=O)c1cc(Cl)c2c(c1)[C@H]1C=CC[C@H]1[C@H](c1ccc(S(=O)(=O)N3CCOCC3)cc1)N2)c1ccc(-c2c3nc(c(-c4ccccc4)c4ccc([nH]4)c(-c4ccccc4)c4nc(c(-c5ccccc5)c5ccc2[nH]5)C=C4)C=C3)cc1
REMARK SMILES IDX 5 1 4 2 3 3 1 4 2 5 39 7 40 8 86 9 41 10 85 11 42 12 43 13
REMARK SMILES IDX 44 14 79 15 45 16 84 17 78 18 80 19 46 20 83 21 77 22 76 23
REMARK SMILES IDX 47 25 69 26 54 27 68 28 55 29 58 30 67 31 81 32 56 33 57 34
REMARK SMILES IDX 66 36 82 37 59 38 48 39 49 40 53 41 50 42 52 43 51 44 70 45
REMARK SMILES IDX 71 46 75 47 72 48 74 49 73 50 60 51 61 52 65 53 62 54 64 55
REMARK SMILES IDX 63 56 6 57 7 58 8 59 9 61 10 62 11 63 16 64 12 65 15 66
REMARK SMILES IDX 13 67 14 68 17 69 38 70 18 71 21 72 22 73 19 75 20 76 23 77
REMARK SMILES IDX 24 78 37 79 25 80 36 81 26 82 27 83 28 84 29 85 30 86 31 87
REMARK SMILES IDX 35 88 32 89 34 90 33 91
REMARK H PARENT 3 6 80 24 58 35 7 60 38 74
REMARK Flexibility Score: inf
ROOT
ATOM      1  C   UNL A   1      43.656  22.020  25.605  1.00  0.00     0.042 C 
ENDROOT
BRANCH   1   2
ATOM      2  C   UNL A   1      43.414  23.374  24.954  1.00  0.00     0.118 C 
BRANCH   2   3
ATOM      3  N   UNL A   1      44.653  24.087  24.679  1.00  0.00    -0.352 N 
ATOM      4  O   UNL A   1      46.063  25.845  24.635  1.00  0.00    -0.269 OA
ATOM      5  C   UNL A   1      45.076  25.312  25.132  1.00  0.00     0.251 C 
ATOM      6  H   UNL A   1      45.281  23.622  24.081  1.00  0.00     0.163 HD
BRANCH   5   7
ATOM      7  C   UNL A   1      44.331  25.992  26.209  1.00  0.00     0.039 A 
ATOM      8  C   UNL A   1      44.360  27.384  26.323  1.00  0.00     0.014 A 
ATOM      9  C   UNL A   1      43.581  25.224  27.105  1.00  0.00     0.014 A 
ATOM     10  C   UNL A   1      43.747  28.000  27.408  1.00  0.00     0.010 A 
ATOM     11  C   UNL A   1      42.915  25.849  28.161  1.00  0.00     0.010 A 
ATOM     12  C   UNL A   1      43.025  27.236  28.339  1.00  0.00    -0.014 A 
BRANCH  12  13
ATOM     13  C   UNL A   1      42.380  27.919  29.483  1.00  0.00     0.031 A 
ATOM     14  C   UNL A   1      43.055  27.970  30.824  1.00  0.00     0.074 A 
ATOM     15  C   UNL A   1      41.200  28.538  29.292  1.00  0.00     0.049 A 
ATOM     16  N   UNL A   1      42.671  28.593  31.908  1.00  0.00    -0.248 NA
ATOM     17  C   UNL A   1      44.323  27.236  30.969  1.00  0.00     0.031 C 
ATOM     18  C   UNL A   1      40.450  28.554  28.034  1.00  0.00     0.029 A 
ATOM     19  N   UNL A   1      40.436  29.288  30.149  1.00  0.00    -0.354 N 
ATOM     20  C   UNL A   1      43.645  28.326  32.862  1.00  0.00     0.074 A 
ATOM     21  C   UNL A   1      44.626  27.465  32.241  1.00  0.00     0.031 C 
ATOM     22  C   UNL A   1      39.348  29.303  28.192  1.00  0.00     0.029 A 
ATOM     23  C   UNL A   1      39.298  29.792  29.567  1.00  0.00     0.049 A 
ATOM     24  H   UNL A   1      40.678  29.450  31.088  1.00  0.00     0.167 HD
ATOM     25  C   UNL A   1      43.717  28.774  34.135  1.00  0.00     0.031 A 
ATOM     26  C   UNL A   1      38.319  30.559  30.082  1.00  0.00     0.031 A 
ATOM     27  C   UNL A   1      42.750  29.643  34.748  1.00  0.00     0.049 A 
ATOM     28  C   UNL A   1      38.408  31.008  31.511  1.00  0.00     0.074 A 
ATOM     29  C   UNL A   1      42.775  30.187  36.021  1.00  0.00     0.029 A 
ATOM     30  N   UNL A   1      41.589  30.088  34.141  1.00  0.00    -0.354 N 
ATOM     31  N   UNL A   1      39.364  30.793  32.380  1.00  0.00    -0.248 NA
ATOM     32  C   UNL A   1      37.286  31.803  32.032  1.00  0.00     0.031 C 
ATOM     33  C   UNL A   1      41.604  30.927  36.199  1.00  0.00     0.029 A 
ATOM     34  C   UNL A   1      40.872  30.873  35.024  1.00  0.00     0.049 A 
ATOM     35  H   UNL A   1      41.314  29.877  33.219  1.00  0.00     0.167 HD
ATOM     36  C   UNL A   1      38.963  31.428  33.548  1.00  0.00     0.074 A 
ATOM     37  C   UNL A   1      37.686  32.051  33.272  1.00  0.00     0.031 C 
ATOM     38  C   UNL A   1      39.601  31.483  34.740  1.00  0.00     0.031 A 
BRANCH  25  39
ATOM     39  C   UNL A   1      44.886  28.351  34.973  1.00  0.00    -0.014 A 
ATOM     40  C   UNL A   1      46.040  29.145  35.043  1.00  0.00     0.009 A 
ATOM     41  C   UNL A   1      44.779  27.222  35.799  1.00  0.00     0.009 A 
ATOM     42  C   UNL A   1      47.067  28.816  35.930  1.00  0.00     0.001 A 
ATOM     43  C   UNL A   1      45.801  26.904  36.695  1.00  0.00     0.001 A 
ATOM     44  C   UNL A   1      46.943  27.703  36.761  1.00  0.00     0.000 A 
ENDBRANCH  25  39
BRANCH  26  45
ATOM     45  C   UNL A   1      37.168  30.941  29.228  1.00  0.00    -0.014 A 
ATOM     46  C   UNL A   1      36.187  29.999  28.886  1.00  0.00     0.009 A 
ATOM     47  C   UNL A   1      37.029  32.266  28.783  1.00  0.00     0.009 A 
ATOM     48  C   UNL A   1      35.093  30.376  28.105  1.00  0.00     0.001 A 
ATOM     49  C   UNL A   1      35.922  32.642  28.021  1.00  0.00     0.001 A 
ATOM     50  C   UNL A   1      34.957  31.697  27.678  1.00  0.00     0.000 A 
ENDBRANCH  26  45
BRANCH  38  51
ATOM     51  C   UNL A   1      38.940  32.232  35.856  1.00  0.00    -0.014 A 
ATOM     52  C   UNL A   1      38.124  31.560  36.778  1.00  0.00     0.009 A 
ATOM     53  C   UNL A   1      39.240  33.587  36.064  1.00  0.00     0.009 A 
ATOM     54  C   UNL A   1      37.620  32.235  37.892  1.00  0.00     0.001 A 
ATOM     55  C   UNL A   1      38.750  34.253  37.188  1.00  0.00     0.001 A 
ATOM     56  C   UNL A   1      37.942  33.576  38.101  1.00  0.00     0.000 A 
ENDBRANCH  38  51
ENDBRANCH  12  13
ENDBRANCH   5   7
ENDBRANCH   2   3
ENDBRANCH   1   2
BRANCH   1  57
ATOM     57  C   UNL A   1      42.610  20.972  25.261  1.00  0.00     0.118 C 
BRANCH  57  58
ATOM     58  N   UNL A   1      42.125  20.254  26.434  1.00  0.00    -0.352 N 
ATOM     59  C   UNL A   1      40.983  20.477  27.161  1.00  0.00     0.251 C 
ATOM     60  H   UNL A   1      42.691  19.512  26.745  1.00  0.00     0.163 HD
ATOM     61  O   UNL A   1      40.771  19.885  28.212  1.00  0.00    -0.269 OA
BRANCH  59  62
ATOM     62  C   UNL A   1      40.030  21.485  26.669  1.00  0.00     0.041 A 
ATOM     63  C   UNL A   1      40.166  22.819  27.044  1.00  0.00     0.036 A 
ATOM     64  C   UNL A   1      38.955  21.065  25.889  1.00  0.00     0.020 A 
ATOM     65  C   UNL A   1      39.135  23.704  26.757  1.00  0.00     0.065 A 
ATOM     66  C   UNL A   1      37.936  21.972  25.563  1.00  0.00    -0.015 A 
ATOM     67  Cl  UNL A   1      39.270  25.327  27.343  1.00  0.00    -0.082 Cl
ATOM     68  C   UNL A   1      37.984  23.282  26.063  1.00  0.00     0.057 A 
ATOM     69  C   UNL A   1      36.823  21.531  24.656  1.00  0.00     0.049 C 
ATOM     70  N   UNL A   1      36.947  24.167  25.814  1.00  0.00    -0.376 N 
ATOM     71  C   UNL A   1      35.857  20.543  25.256  1.00  0.00    -0.023 C 
ATOM     72  C   UNL A   1      35.878  22.658  24.181  1.00  0.00     0.031 C 
ATOM     73  C   UNL A   1      35.666  23.693  25.317  1.00  0.00     0.114 C 
ATOM     74  H   UNL A   1      37.080  25.129  25.976  1.00  0.00     0.161 HD
ATOM     75  C   UNL A   1      34.626  20.726  24.764  1.00  0.00    -0.030 C 
ATOM     76  C   UNL A   1      34.610  21.867  23.795  1.00  0.00     0.034 C 
BRANCH  73  77
ATOM     77  C   UNL A   1      34.838  24.895  24.880  1.00  0.00    -0.025 A 
ATOM     78  C   UNL A   1      34.492  25.154  23.538  1.00  0.00     0.007 A 
ATOM     79  C   UNL A   1      34.397  25.790  25.857  1.00  0.00     0.007 A 
ATOM     80  C   UNL A   1      33.715  26.266  23.192  1.00  0.00     0.022 A 
ATOM     81  C   UNL A   1      33.585  26.864  25.520  1.00  0.00     0.022 A 
ATOM     82  C   UNL A   1      33.245  27.113  24.196  1.00  0.00     0.082 A 
BRANCH  82  83
ATOM     83  S   UNL A   1      32.205  28.487  23.760  1.00  0.00     0.243 S 
ATOM     84  O   UNL A   1      32.004  29.244  24.981  1.00  0.00    -0.207 OA
ATOM     85  O   UNL A   1      32.789  29.082  22.580  1.00  0.00    -0.207 OA
BRANCH  83  86
ATOM     86  N   UNL A   1      30.738  27.806  23.320  1.00  0.00    -0.193 NA
ATOM     87  C   UNL A   1      29.709  28.553  22.568  1.00  0.00     0.131 C 
ATOM     88  C   UNL A   1      30.369  26.433  23.708  1.00  0.00     0.131 C 
ATOM     89  C   UNL A   1      28.310  28.379  23.186  1.00  0.00     0.177 C 
ATOM     90  C   UNL A   1      28.982  26.422  24.354  1.00  0.00     0.177 C 
ATOM     91  O   UNL A   1      28.000  27.013  23.491  1.00  0.00    -0.379 OA
ENDBRANCH  83  86
ENDBRANCH  82  83
ENDBRANCH  73  77
ENDBRANCH  59  62
ENDBRANCH  57  58
ENDBRANCH   1  57
TORSDOF 13
ENDMDL
MODEL 3
REMARK VINA RESULT:     -12.8      3.722      9.786
REMARK SMILES O=C(NCCCNC(=O)c1cc(Cl)c2c(c1)[C@H]1C=CC[C@H]1[C@H](c1ccc(S(=O)(=O)N3CCOCC3)cc1)N2)c1ccc(-c2c3nc(c(-c4ccccc4)c4ccc([nH]4)c(-c4ccccc4)c4nc(c(-c5ccccc5)c5ccc2[nH]5)C=C4)C=C3)cc1
REMARK SMILES IDX 5 1 4 2 3 3 1 4 2 5 39 7 40 8 86 9 41 10 85 11 42 12 43 13
REMARK SMILES IDX 44 14 79 15 45 16 84 17 78 18 80 19 46 20 83 21 77 22 76 23
REMARK SMILES IDX 47 25 69 26 54 27 68 28 55 29 58 30 67 31 81 32 56 33 57 34
REMARK SMILES IDX 66 36 82 37 59 38 48 39 49 40 53 41 50 42 52 43 51 44 70 45
REMARK SMILES IDX 71 46 75 47 72 48 74 49 73 50 60 51 61 52 65 53 62 54 64 55
REMARK SMILES IDX 63 56 6 57 7 58 8 59 9 61 10 62 11 63 16 64 12 65 15 66
REMARK SMILES IDX 13 67 14 68 17 69 38 70 18 71 21 72 22 73 19 75 20 76 23 77
REMARK SMILES IDX 24 78 37 79 25 80 36 81 26 82 27 83 28 84 29 85 30 86 31 87
REMARK SMILES IDX 35 88 32 89 34 90 33 91
REMARK H PARENT 3 6 80 24 58 35 7 60 38 74
REMARK Flexibility Score: inf
ROOT
ATOM      1  C   UNL A   1      34.400  33.410  30.684  1.00  0.00     0.042 C 
ENDROOT
BRANCH   1   2
ATOM      2  C   UNL A   1      34.998  32.183  31.357  1.00  0.00     0.118 C 
BRANCH   2   3
ATOM      3  N   UNL A   1      35.434  32.456  32.720  1.00  0.00    -0.352 N 
ATOM      4  O   UNL A   1      36.752  32.296  34.542  1.00  0.00    -0.269 OA
ATOM      5  C   UNL A   1      36.633  32.176  33.326  1.00  0.00     0.251 C 
ATOM      6  H   UNL A   1      34.771  32.907  33.290  1.00  0.00     0.163 HD
BRANCH   5   7
ATOM      7  C   UNL A   1      37.776  31.716  32.513  1.00  0.00     0.039 A 
ATOM      8  C   UNL A   1      37.936  32.161  31.199  1.00  0.00     0.014 A 
ATOM      9  C   UNL A   1      38.704  30.839  33.082  1.00  0.00     0.014 A 
ATOM     10  C   UNL A   1      38.951  31.630  30.411  1.00  0.00     0.010 A 
ATOM     11  C   UNL A   1      39.758  30.351  32.308  1.00  0.00     0.010 A 
ATOM     12  C   UNL A   1      39.866  30.717  30.958  1.00  0.00    -0.014 A 
BRANCH  12  13
ATOM     13  C   UNL A   1      40.939  30.169  30.096  1.00  0.00     0.031 A 
ATOM     14  C   UNL A   1      40.780  28.831  29.433  1.00  0.00     0.074 A 
ATOM     15  C   UNL A   1      42.040  30.912  29.874  1.00  0.00     0.049 A 
ATOM     16  N   UNL A   1      41.582  28.240  28.585  1.00  0.00    -0.248 NA
ATOM     17  C   UNL A   1      39.569  28.058  29.754  1.00  0.00     0.031 C 
ATOM     18  C   UNL A   1      42.304  32.225  30.465  1.00  0.00     0.029 A 
ATOM     19  N   UNL A   1      43.130  30.676  29.077  1.00  0.00    -0.354 N 
ATOM     20  C   UNL A   1      40.976  27.029  28.273  1.00  0.00     0.074 A 
ATOM     21  C   UNL A   1      39.753  26.955  29.040  1.00  0.00     0.031 C 
ATOM     22  C   UNL A   1      43.467  32.693  29.988  1.00  0.00     0.029 A 
ATOM     23  C   UNL A   1      44.044  31.702  29.084  1.00  0.00     0.049 A 
ATOM     24  H   UNL A   1      43.248  29.853  28.552  1.00  0.00     0.167 HD
ATOM     25  C   UNL A   1      41.399  26.076  27.413  1.00  0.00     0.031 A 
ATOM     26  C   UNL A   1      45.218  31.831  28.439  1.00  0.00     0.031 A 
ATOM     27  C   UNL A   1      42.608  26.157  26.640  1.00  0.00     0.049 A 
ATOM     28  C   UNL A   1      45.680  30.738  27.521  1.00  0.00     0.074 A 
ATOM     29  C   UNL A   1      43.085  25.256  25.703  1.00  0.00     0.029 A 
ATOM     30  N   UNL A   1      43.528  27.189  26.714  1.00  0.00    -0.354 N 
ATOM     31  N   UNL A   1      45.067  29.627  27.196  1.00  0.00    -0.248 NA
ATOM     32  C   UNL A   1      46.993  30.913  26.882  1.00  0.00     0.031 C 
ATOM     33  C   UNL A   1      44.318  25.722  25.243  1.00  0.00     0.029 A 
ATOM     34  C   UNL A   1      44.587  26.931  25.865  1.00  0.00     0.049 A 
ATOM     35  H   UNL A   1      43.440  27.986  27.286  1.00  0.00     0.167 HD
ATOM     36  C   UNL A   1      45.914  28.972  26.312  1.00  0.00     0.074 A 
ATOM     37  C   UNL A   1      47.077  29.817  26.138  1.00  0.00     0.031 C 
ATOM     38  C   UNL A   1      45.739  27.776  25.705  1.00  0.00     0.031 A 
BRANCH  25  39
ATOM     39  C   UNL A   1      40.554  24.851  27.238  1.00  0.00    -0.014 A 
ATOM     40  C   UNL A   1      39.356  24.906  26.511  1.00  0.00     0.009 A 
ATOM     41  C   UNL A   1      41.027  23.608  27.688  1.00  0.00     0.009 A 
ATOM     42  C   UNL A   1      38.647  23.736  26.235  1.00  0.00     0.001 A 
ATOM     43  C   UNL A   1      40.322  22.439  27.398  1.00  0.00     0.001 A 
ATOM     44  C   UNL A   1      39.135  22.503  26.670  1.00  0.00     0.000 A 
ENDBRANCH  25  39
BRANCH  26  45
ATOM     45  C   UNL A   1      46.036  33.050  28.652  1.00  0.00    -0.014 A 
ATOM     46  C   UNL A   1      45.843  34.189  27.858  1.00  0.00     0.009 A 
ATOM     47  C   UNL A   1      46.992  33.087  29.681  1.00  0.00     0.009 A 
ATOM     48  C   UNL A   1      46.599  35.341  28.085  1.00  0.00     0.001 A 
ATOM     49  C   UNL A   1      47.730  34.247  29.917  1.00  0.00     0.001 A 
ATOM     50  C   UNL A   1      47.537  35.372  29.116  1.00  0.00     0.000 A 
ENDBRANCH  26  45
BRANCH  38  51
ATOM     51  C   UNL A   1      46.825  27.284  24.796  1.00  0.00    -0.014 A 
ATOM     52  C   UNL A   1      46.987  27.838  23.518  1.00  0.00     0.009 A 
ATOM     53  C   UNL A   1      47.769  26.360  25.269  1.00  0.00     0.009 A 
ATOM     54  C   UNL A   1      48.079  27.474  22.728  1.00  0.00     0.001 A 
ATOM     55  C   UNL A   1      48.869  26.013  24.484  1.00  0.00     0.001 A 
ATOM     56  C   UNL A   1      49.024  26.571  23.216  1.00  0.00     0.000 A 
ENDBRANCH  38  51
ENDBRANCH  12  13
ENDBRANCH   5   7
ENDBRANCH   2   3
ENDBRANCH   1   2
BRANCH   1  57
ATOM     57  C   UNL A   1      34.614  33.456  29.180  1.00  0.00     0.118 C 
BRANCH  57  58
ATOM     58  N   UNL A   1      33.416  33.854  28.452  1.00  0.00    -0.352 N 
ATOM     59  C   UNL A   1      32.681  33.125  27.551  1.00  0.00     0.251 C 
ATOM     60  H   UNL A   1      33.090  34.766  28.630  1.00  0.00     0.163 HD
ATOM     61  O   UNL A   1      31.774  33.637  26.906  1.00  0.00    -0.269 OA
BRANCH  59  62
ATOM     62  C   UNL A   1      33.037  31.713  27.343  1.00  0.00     0.041 A 
ATOM     63  C   UNL A   1      34.314  31.258  27.665  1.00  0.00     0.036 A 
ATOM     64  C   UNL A   1      32.103  30.867  26.751  1.00  0.00     0.020 A 
ATOM     65  C   UNL A   1      34.697  29.989  27.253  1.00  0.00     0.065 A 
ATOM     66  C   UNL A   1      32.479  29.569  26.375  1.00  0.00    -0.015 A 
ATOM     67  Cl  UNL A   1      36.328  29.493  27.553  1.00  0.00    -0.082 Cl
ATOM     68  C   UNL A   1      33.806  29.149  26.555  1.00  0.00     0.057 A 
ATOM     69  C   UNL A   1      31.443  28.639  25.811  1.00  0.00     0.049 C 
ATOM     70  N   UNL A   1      34.212  27.899  26.118  1.00  0.00    -0.376 N 
ATOM     71  C   UNL A   1      30.955  28.981  24.428  1.00  0.00    -0.023 C 
ATOM     72  C   UNL A   1      31.904  27.174  25.637  1.00  0.00     0.031 C 
ATOM     73  C   UNL A   1      33.391  27.128  25.199  1.00  0.00     0.114 C 
ATOM     74  H   UNL A   1      35.068  27.528  26.433  1.00  0.00     0.161 HD
ATOM     75  C   UNL A   1      30.647  27.871  23.746  1.00  0.00    -0.030 C 
ATOM     76  C   UNL A   1      30.910  26.654  24.576  1.00  0.00     0.034 C 
BRANCH  73  77
ATOM     77  C   UNL A   1      33.945  25.711  25.122  1.00  0.00    -0.025 A 
ATOM     78  C   UNL A   1      34.624  25.201  23.996  1.00  0.00     0.007 A 
ATOM     79  C   UNL A   1      33.775  24.869  26.223  1.00  0.00     0.007 A 
ATOM     80  C   UNL A   1      35.128  23.895  23.984  1.00  0.00     0.022 A 
ATOM     81  C   UNL A   1      34.319  23.592  26.230  1.00  0.00     0.022 A 
ATOM     82  C   UNL A   1      34.988  23.096  25.118  1.00  0.00     0.082 A 
BRANCH  82  83
ATOM     83  S   UNL A   1      35.686  21.461  25.123  1.00  0.00     0.243 S 
ATOM     84  O   UNL A   1      36.710  21.456  24.097  1.00  0.00    -0.207 OA
ATOM     85  O   UNL A   1      35.985  21.149  26.502  1.00  0.00    -0.207 OA
BRANCH  83  86
ATOM     86  N   UNL A   1      34.443  20.451  24.626  1.00  0.00    -0.193 NA
ATOM     87  C   UNL A   1      33.121  20.964  24.210  1.00  0.00     0.131 C 
ATOM     88  C   UNL A   1      34.583  18.985  24.627  1.00  0.00     0.131 C 
ATOM     89  C   UNL A   1      31.972  20.176  24.864  1.00  0.00     0.177 C 
ATOM     90  C   UNL A   1      33.399  18.342  25.354  1.00  0.00     0.177 C 
ATOM     91  O   UNL A   1      32.150  18.756  24.783  1.00  0.00    -0.379 OA
ENDBRANCH  83  86
ENDBRANCH  82  83
ENDBRANCH  73  77
ENDBRANCH  59  62
ENDBRANCH  57  58
ENDBRANCH   1  57
TORSDOF 13
ENDMDL
