MODEL 1
REMARK VINA RESULT:     -10.2      0.000      0.000
REMARK SMILES Cc1ccc(C)c(S(=O)(=O)[C@H](C)C(=O)NCCCNC(=O)c2ccc(-c3c4nc(c(-c5ccccc5)c5ccc([nH]5)c(-c5ccccc5)c5nc(c(-c6ccccc6)c6ccc3[nH]6)C=C5)C=C4)cc2)c1
REMARK SMILES IDX 17 1 16 2 15 3 13 4 14 5 11 7 12 8 8 9 9 10 10 11 7 12 1 13
REMARK SMILES IDX 2 14 3 15 70 16 4 17 5 18 6 19 18 20 19 21 20 22 21 24 22 25
REMARK SMILES IDX 23 26 69 27 24 28 68 29 25 30 26 31 27 32 62 33 28 34 67 35
REMARK SMILES IDX 61 36 63 37 29 38 66 39 60 40 59 41 30 43 52 44 37 45 51 46
REMARK SMILES IDX 38 47 41 48 50 49 64 50 39 51 40 52 49 54 65 55 42 56 31 57
REMARK SMILES IDX 32 58 36 59 33 60 35 61 34 62 53 63 54 64 58 65 55 66 57 67
REMARK SMILES IDX 56 68 43 69 44 70 48 71 45 72 47 73 46 74
REMARK H PARENT 15 6 19 23 63 42 41 53
REMARK Flexibility Score: inf
ROOT
ATOM      1  C   UNL A   1      39.761  34.146  33.914  1.00  0.00     0.042 C 
ENDROOT
BRANCH   1   2
ATOM      2  C   UNL A   1      38.593  33.726  33.026  1.00  0.00     0.117 C 
BRANCH   2   3
ATOM      3  N   UNL A   1      37.552  34.727  32.790  1.00  0.00    -0.355 N 
ATOM      4  C   UNL A   1      36.192  34.589  32.831  1.00  0.00     0.238 C 
ATOM      5  O   UNL A   1      35.519  35.616  32.983  1.00  0.00    -0.274 OA
ATOM      6  H   UNL A   1      37.879  35.630  32.570  1.00  0.00     0.163 HD
BRANCH   4   7
ATOM      7  C   UNL A   1      35.499  33.278  32.574  1.00  0.00     0.199 C 
ATOM      8  C   UNL A   1      34.087  33.302  33.159  1.00  0.00     0.036 C 
BRANCH   7   9
ATOM      9  S   UNL A   1      35.581  32.816  30.866  1.00  0.00     0.190 S 
ATOM     10  O   UNL A   1      36.466  33.730  30.165  1.00  0.00    -0.223 OA
ATOM     11  O   UNL A   1      34.209  32.651  30.416  1.00  0.00    -0.223 OA
BRANCH   9  12
ATOM     12  C   UNL A   1      36.345  31.224  30.611  1.00  0.00     0.071 A 
ATOM     13  C   UNL A   1      37.944  28.377  32.579  1.00  0.00     0.044 C 
ATOM     14  C   UNL A   1      37.437  29.220  31.445  1.00  0.00    -0.050 A 
ATOM     15  C   UNL A   1      37.584  28.764  30.133  1.00  0.00     0.004 A 
ATOM     16  C   UNL A   1      36.820  30.457  31.682  1.00  0.00     0.024 A 
ATOM     17  C   UNL A   1      37.123  29.530  29.064  1.00  0.00     0.005 A 
ATOM     18  C   UNL A   1      36.491  30.764  29.281  1.00  0.00    -0.032 A 
ATOM     19  C   UNL A   1      36.071  31.527  28.050  1.00  0.00     0.046 C 
ENDBRANCH   9  12
ENDBRANCH   7   9
ENDBRANCH   4   7
ENDBRANCH   2   3
ENDBRANCH   1   2
BRANCH   1  20
ATOM     20  C   UNL A   1      41.151  34.043  33.302  1.00  0.00     0.118 C 
BRANCH  20  21
ATOM     21  N   UNL A   1      41.274  34.673  31.976  1.00  0.00    -0.352 N 
ATOM     22  C   UNL A   1      41.605  34.166  30.722  1.00  0.00     0.251 C 
ATOM     23  H   UNL A   1      41.087  35.640  31.978  1.00  0.00     0.163 HD
ATOM     24  O   UNL A   1      41.937  34.917  29.824  1.00  0.00    -0.269 OA
BRANCH  22  25
ATOM     25  C   UNL A   1      41.535  32.711  30.470  1.00  0.00     0.039 A 
ATOM     26  C   UNL A   1      40.370  31.953  30.366  1.00  0.00     0.014 A 
ATOM     27  C   UNL A   1      42.727  32.035  30.471  1.00  0.00     0.014 A 
ATOM     28  C   UNL A   1      40.490  30.557  30.285  1.00  0.00     0.010 A 
ATOM     29  C   UNL A   1      42.825  30.829  29.874  1.00  0.00     0.010 A 
ATOM     30  C   UNL A   1      41.759  30.002  30.091  1.00  0.00    -0.014 A 
BRANCH  30  31
ATOM     31  C   UNL A   1      42.081  28.603  29.948  1.00  0.00     0.031 A 
ATOM     32  C   UNL A   1      42.674  28.000  31.149  1.00  0.00     0.074 A 
ATOM     33  C   UNL A   1      41.569  27.810  28.982  1.00  0.00     0.049 A 
ATOM     34  N   UNL A   1      43.928  27.834  31.382  1.00  0.00    -0.248 NA
ATOM     35  C   UNL A   1      41.795  27.724  32.296  1.00  0.00     0.031 C 
ATOM     36  C   UNL A   1      40.561  28.106  27.957  1.00  0.00     0.029 A 
ATOM     37  N   UNL A   1      41.815  26.487  28.792  1.00  0.00    -0.354 N 
ATOM     38  C   UNL A   1      43.986  27.209  32.616  1.00  0.00     0.074 A 
ATOM     39  C   UNL A   1      42.698  27.418  33.229  1.00  0.00     0.031 C 
ATOM     40  C   UNL A   1      40.166  26.951  27.366  1.00  0.00     0.029 A 
ATOM     41  C   UNL A   1      40.996  25.866  27.862  1.00  0.00     0.049 A 
ATOM     42  H   UNL A   1      42.523  26.005  29.278  1.00  0.00     0.167 HD
ATOM     43  C   UNL A   1      44.973  26.317  32.904  1.00  0.00     0.031 A 
ATOM     44  C   UNL A   1      41.006  24.547  27.556  1.00  0.00     0.031 A 
ATOM     45  C   UNL A   1      45.981  26.299  31.866  1.00  0.00     0.049 A 
ATOM     46  C   UNL A   1      42.306  23.997  28.018  1.00  0.00     0.074 A 
ATOM     47  C   UNL A   1      46.806  27.247  31.291  1.00  0.00     0.029 A 
ATOM     48  N   UNL A   1      45.922  25.257  30.967  1.00  0.00    -0.354 N 
ATOM     49  N   UNL A   1      43.452  24.309  27.484  1.00  0.00    -0.248 NA
ATOM     50  C   UNL A   1      42.384  23.414  29.349  1.00  0.00     0.031 C 
ATOM     51  C   UNL A   1      46.819  26.931  29.897  1.00  0.00     0.029 A 
ATOM     52  C   UNL A   1      46.058  25.776  29.704  1.00  0.00     0.049 A 
ATOM     53  H   UNL A   1      45.803  24.305  31.191  1.00  0.00     0.167 HD
ATOM     54  C   UNL A   1      44.335  24.385  28.552  1.00  0.00     0.074 A 
ATOM     55  C   UNL A   1      43.655  23.698  29.647  1.00  0.00     0.031 C 
ATOM     56  C   UNL A   1      45.397  25.245  28.528  1.00  0.00     0.031 A 
BRANCH  43  57
ATOM     57  C   UNL A   1      44.821  25.177  33.878  1.00  0.00    -0.014 A 
ATOM     58  C   UNL A   1      45.648  25.162  35.013  1.00  0.00     0.009 A 
ATOM     59  C   UNL A   1      44.083  24.006  33.621  1.00  0.00     0.009 A 
ATOM     60  C   UNL A   1      45.784  24.016  35.802  1.00  0.00     0.001 A 
ATOM     61  C   UNL A   1      44.179  22.874  34.434  1.00  0.00     0.001 A 
ATOM     62  C   UNL A   1      45.053  22.869  35.508  1.00  0.00     0.000 A 
ENDBRANCH  43  57
BRANCH  44  63
ATOM     63  C   UNL A   1      39.918  23.674  27.073  1.00  0.00    -0.014 A 
ATOM     64  C   UNL A   1      38.700  24.225  26.643  1.00  0.00     0.009 A 
ATOM     65  C   UNL A   1      40.174  22.326  26.767  1.00  0.00     0.009 A 
ATOM     66  C   UNL A   1      37.796  23.469  25.887  1.00  0.00     0.001 A 
ATOM     67  C   UNL A   1      39.268  21.570  26.015  1.00  0.00     0.001 A 
ATOM     68  C   UNL A   1      38.088  22.148  25.559  1.00  0.00     0.000 A 
ENDBRANCH  44  63
BRANCH  56  69
ATOM     69  C   UNL A   1      45.743  25.896  27.207  1.00  0.00    -0.014 A 
ATOM     70  C   UNL A   1      46.668  25.352  26.298  1.00  0.00     0.009 A 
ATOM     71  C   UNL A   1      45.012  27.026  26.808  1.00  0.00     0.009 A 
ATOM     72  C   UNL A   1      46.881  25.941  25.047  1.00  0.00     0.001 A 
ATOM     73  C   UNL A   1      45.209  27.601  25.549  1.00  0.00     0.001 A 
ATOM     74  C   UNL A   1      46.148  27.064  24.672  1.00  0.00     0.000 A 
ENDBRANCH  56  69
ENDBRANCH  30  31
ENDBRANCH  22  25
ENDBRANCH  20  21
ENDBRANCH   1  20
TORSDOF 12
ENDMDL
MODEL 2
REMARK VINA RESULT:     -10.1      4.201     10.353
REMARK SMILES Cc1ccc(C)c(S(=O)(=O)[C@H](C)C(=O)NCCCNC(=O)c2ccc(-c3c4nc(c(-c5ccccc5)c5ccc([nH]5)c(-c5ccccc5)c5nc(c(-c6ccccc6)c6ccc3[nH]6)C=C5)C=C4)cc2)c1
REMARK SMILES IDX 17 1 16 2 15 3 13 4 14 5 11 7 12 8 8 9 9 10 10 11 7 12 1 13
REMARK SMILES IDX 2 14 3 15 70 16 4 17 5 18 6 19 18 20 19 21 20 22 21 24 22 25
REMARK SMILES IDX 23 26 69 27 24 28 68 29 25 30 26 31 27 32 62 33 28 34 67 35
REMARK SMILES IDX 61 36 63 37 29 38 66 39 60 40 59 41 30 43 52 44 37 45 51 46
REMARK SMILES IDX 38 47 41 48 50 49 64 50 39 51 40 52 49 54 65 55 42 56 31 57
REMARK SMILES IDX 32 58 36 59 33 60 35 61 34 62 53 63 54 64 58 65 55 66 57 67
REMARK SMILES IDX 56 68 43 69 44 70 48 71 45 72 47 73 46 74
REMARK H PARENT 15 6 19 23 63 42 41 53
REMARK Flexibility Score: inf
ROOT
ATOM      1  C   UNL A   1      46.378  26.383  27.865  1.00  0.00     0.042 C 
ENDROOT
BRANCH   1   2
ATOM      2  C   UNL A   1      45.760  25.618  26.698  1.00  0.00     0.117 C 
BRANCH   2   3
ATOM      3  N   UNL A   1      46.172  24.223  26.535  1.00  0.00    -0.355 N 
ATOM      4  C   UNL A   1      45.797  23.314  25.583  1.00  0.00     0.238 C 
ATOM      5  O   UNL A   1      46.538  22.342  25.400  1.00  0.00    -0.274 OA
ATOM      6  H   UNL A   1      46.811  23.891  27.206  1.00  0.00     0.163 HD
BRANCH   4   7
ATOM      7  C   UNL A   1      44.479  23.391  24.860  1.00  0.00     0.199 C 
ATOM      8  C   UNL A   1      44.519  22.536  23.594  1.00  0.00     0.036 C 
BRANCH   7   9
ATOM      9  S   UNL A   1      43.117  23.045  25.939  1.00  0.00     0.190 S 
ATOM     10  O   UNL A   1      43.622  22.761  27.271  1.00  0.00    -0.223 OA
ATOM     11  O   UNL A   1      42.287  22.065  25.257  1.00  0.00    -0.223 OA
BRANCH   9  12
ATOM     12  C   UNL A   1      42.053  24.453  26.192  1.00  0.00     0.071 A 
ATOM     13  C   UNL A   1      41.920  28.203  25.513  1.00  0.00     0.044 C 
ATOM     14  C   UNL A   1      41.562  26.825  25.986  1.00  0.00    -0.050 A 
ATOM     15  C   UNL A   1      40.362  26.627  26.675  1.00  0.00     0.004 A 
ATOM     16  C   UNL A   1      42.411  25.733  25.750  1.00  0.00     0.024 A 
ATOM     17  C   UNL A   1      40.008  25.357  27.126  1.00  0.00     0.005 A 
ATOM     18  C   UNL A   1      40.837  24.251  26.889  1.00  0.00    -0.032 A 
ATOM     19  C   UNL A   1      40.377  22.932  27.459  1.00  0.00     0.046 C 
ENDBRANCH   9  12
ENDBRANCH   7   9
ENDBRANCH   4   7
ENDBRANCH   2   3
ENDBRANCH   1   2
BRANCH   1  20
ATOM     20  C   UNL A   1      46.816  25.556  29.065  1.00  0.00     0.118 C 
BRANCH  20  21
ATOM     21  N   UNL A   1      45.822  24.564  29.508  1.00  0.00    -0.352 N 
ATOM     22  C   UNL A   1      44.643  24.678  30.241  1.00  0.00     0.251 C 
ATOM     23  H   UNL A   1      46.033  23.642  29.235  1.00  0.00     0.163 HD
ATOM     24  O   UNL A   1      44.135  23.693  30.746  1.00  0.00    -0.269 OA
BRANCH  22  25
ATOM     25  C   UNL A   1      43.990  25.996  30.391  1.00  0.00     0.039 A 
ATOM     26  C   UNL A   1      44.120  26.854  31.481  1.00  0.00     0.014 A 
ATOM     27  C   UNL A   1      43.076  26.336  29.429  1.00  0.00     0.014 A 
ATOM     28  C   UNL A   1      43.302  27.995  31.531  1.00  0.00     0.010 A 
ATOM     29  C   UNL A   1      42.734  27.628  29.242  1.00  0.00     0.010 A 
ATOM     30  C   UNL A   1      42.560  28.338  30.397  1.00  0.00    -0.014 A 
BRANCH  30  31
ATOM     31  C   UNL A   1      41.697  29.483  30.239  1.00  0.00     0.031 A 
ATOM     32  C   UNL A   1      42.402  30.716  29.863  1.00  0.00     0.074 A 
ATOM     33  C   UNL A   1      40.359  29.399  30.072  1.00  0.00     0.049 A 
ATOM     34  N   UNL A   1      42.793  31.647  30.661  1.00  0.00    -0.248 NA
ATOM     35  C   UNL A   1      42.894  30.844  28.483  1.00  0.00     0.031 C 
ATOM     36  C   UNL A   1      39.502  28.216  29.926  1.00  0.00     0.029 A 
ATOM     37  N   UNL A   1      39.487  30.427  29.906  1.00  0.00    -0.354 N 
ATOM     38  C   UNL A   1      43.377  32.600  29.844  1.00  0.00     0.074 A 
ATOM     39  C   UNL A   1      43.649  31.938  28.592  1.00  0.00     0.031 C 
ATOM     40  C   UNL A   1      38.264  28.602  29.529  1.00  0.00     0.029 A 
ATOM     41  C   UNL A   1      38.203  30.054  29.541  1.00  0.00     0.049 A 
ATOM     42  H   UNL A   1      39.747  31.368  30.036  1.00  0.00     0.167 HD
ATOM     43  C   UNL A   1      43.311  33.923  30.153  1.00  0.00     0.031 A 
ATOM     44  C   UNL A   1      37.186  30.901  29.253  1.00  0.00     0.031 A 
ATOM     45  C   UNL A   1      42.759  34.124  31.475  1.00  0.00     0.049 A 
ATOM     46  C   UNL A   1      37.534  32.222  29.833  1.00  0.00     0.074 A 
ATOM     47  C   UNL A   1      43.090  33.695  32.746  1.00  0.00     0.029 A 
ATOM     48  N   UNL A   1      41.437  34.506  31.540  1.00  0.00    -0.354 N 
ATOM     49  N   UNL A   1      37.597  32.454  31.114  1.00  0.00    -0.248 NA
ATOM     50  C   UNL A   1      38.223  33.193  28.995  1.00  0.00     0.031 C 
ATOM     51  C   UNL A   1      41.842  33.404  33.377  1.00  0.00     0.029 A 
ATOM     52  C   UNL A   1      40.816  33.730  32.486  1.00  0.00     0.049 A 
ATOM     53  H   UNL A   1      41.011  35.212  31.002  1.00  0.00     0.167 HD
ATOM     54  C   UNL A   1      38.679  33.312  31.268  1.00  0.00     0.074 A 
ATOM     55  C   UNL A   1      38.936  33.832  29.928  1.00  0.00     0.031 C 
ATOM     56  C   UNL A   1      39.437  33.291  32.405  1.00  0.00     0.031 A 
BRANCH  43  57
ATOM     57  C   UNL A   1      43.337  35.030  29.130  1.00  0.00    -0.014 A 
ATOM     58  C   UNL A   1      42.163  35.285  28.401  1.00  0.00     0.009 A 
ATOM     59  C   UNL A   1      44.507  35.671  28.683  1.00  0.00     0.009 A 
ATOM     60  C   UNL A   1      42.178  36.076  27.248  1.00  0.00     0.001 A 
ATOM     61  C   UNL A   1      44.518  36.500  27.559  1.00  0.00     0.001 A 
ATOM     62  C   UNL A   1      43.358  36.679  26.823  1.00  0.00     0.000 A 
ENDBRANCH  43  57
BRANCH  44  63
ATOM     63  C   UNL A   1      36.026  30.724  28.358  1.00  0.00    -0.014 A 
ATOM     64  C   UNL A   1      35.760  29.475  27.772  1.00  0.00     0.009 A 
ATOM     65  C   UNL A   1      35.019  31.703  28.301  1.00  0.00     0.009 A 
ATOM     66  C   UNL A   1      34.513  29.200  27.199  1.00  0.00     0.001 A 
ATOM     67  C   UNL A   1      33.773  31.428  27.725  1.00  0.00     0.001 A 
ATOM     68  C   UNL A   1      33.514  30.170  27.191  1.00  0.00     0.000 A 
ENDBRANCH  44  63
BRANCH  56  69
ATOM     69  C   UNL A   1      38.903  32.518  33.591  1.00  0.00    -0.014 A 
ATOM     70  C   UNL A   1      39.106  31.137  33.765  1.00  0.00     0.009 A 
ATOM     71  C   UNL A   1      38.290  33.232  34.632  1.00  0.00     0.009 A 
ATOM     72  C   UNL A   1      38.674  30.487  34.927  1.00  0.00     0.001 A 
ATOM     73  C   UNL A   1      37.880  32.586  35.802  1.00  0.00     0.001 A 
ATOM     74  C   UNL A   1      38.065  31.213  35.946  1.00  0.00     0.000 A 
ENDBRANCH  56  69
ENDBRANCH  30  31
ENDBRANCH  22  25
ENDBRANCH  20  21
ENDBRANCH   1  20
TORSDOF 12
ENDMDL
MODEL 3
REMARK VINA RESULT:     -10.0      4.392      9.075
REMARK SMILES Cc1ccc(C)c(S(=O)(=O)[C@H](C)C(=O)NCCCNC(=O)c2ccc(-c3c4nc(c(-c5ccccc5)c5ccc([nH]5)c(-c5ccccc5)c5nc(c(-c6ccccc6)c6ccc3[nH]6)C=C5)C=C4)cc2)c1
REMARK SMILES IDX 17 1 16 2 15 3 13 4 14 5 11 7 12 8 8 9 9 10 10 11 7 12 1 13
REMARK SMILES IDX 2 14 3 15 70 16 4 17 5 18 6 19 18 20 19 21 20 22 21 24 22 25
REMARK SMILES IDX 23 26 69 27 24 28 68 29 25 30 26 31 27 32 62 33 28 34 67 35
REMARK SMILES IDX 61 36 63 37 29 38 66 39 60 40 59 41 30 43 52 44 37 45 51 46
REMARK SMILES IDX 38 47 41 48 50 49 64 50 39 51 40 52 49 54 65 55 42 56 31 57
REMARK SMILES IDX 32 58 36 59 33 60 35 61 34 62 53 63 54 64 58 65 55 66 57 67
REMARK SMILES IDX 56 68 43 69 44 70 48 71 45 72 47 73 46 74
REMARK H PARENT 15 6 19 23 63 42 41 53
REMARK Flexibility Score: inf
ROOT
ATOM      1  C   UNL A   1      35.360  23.386  23.199  1.00  0.00     0.042 C 
ENDROOT
BRANCH   1   2
ATOM      2  C   UNL A   1      33.847  23.585  23.235  1.00  0.00     0.117 C 
BRANCH   2   3
ATOM      3  N   UNL A   1      33.239  24.225  22.068  1.00  0.00    -0.355 N 
ATOM      4  C   UNL A   1      33.234  25.544  21.706  1.00  0.00     0.238 C 
ATOM      5  O   UNL A   1      33.009  25.809  20.520  1.00  0.00    -0.274 OA
ATOM      6  H   UNL A   1      32.766  23.617  21.453  1.00  0.00     0.163 HD
BRANCH   4   7
ATOM      7  C   UNL A   1      33.363  26.662  22.706  1.00  0.00     0.199 C 
ATOM      8  C   UNL A   1      34.089  27.851  22.080  1.00  0.00     0.036 C 
BRANCH   7   9
ATOM      9  S   UNL A   1      31.805  27.058  23.451  1.00  0.00     0.190 S 
ATOM     10  O   UNL A   1      31.163  25.835  23.899  1.00  0.00    -0.223 OA
ATOM     11  O   UNL A   1      31.115  27.938  22.522  1.00  0.00    -0.223 OA
BRANCH   9  12
ATOM     12  C   UNL A   1      31.972  28.011  24.949  1.00  0.00     0.071 A 
ATOM     13  C   UNL A   1      31.383  31.536  26.278  1.00  0.00     0.044 C 
ATOM     14  C   UNL A   1      31.775  30.090  26.193  1.00  0.00    -0.050 A 
ATOM     15  C   UNL A   1      32.316  29.459  27.316  1.00  0.00     0.004 A 
ATOM     16  C   UNL A   1      31.609  29.362  25.005  1.00  0.00     0.024 A 
ATOM     17  C   UNL A   1      32.688  28.117  27.261  1.00  0.00     0.005 A 
ATOM     18  C   UNL A   1      32.518  27.370  26.087  1.00  0.00    -0.032 A 
ATOM     19  C   UNL A   1      32.996  25.939  26.127  1.00  0.00     0.046 C 
ENDBRANCH   9  12
ENDBRANCH   7   9
ENDBRANCH   4   7
ENDBRANCH   2   3
ENDBRANCH   1   2
BRANCH   1  20
ATOM     20  C   UNL A   1      36.035  23.062  24.523  1.00  0.00     0.118 C 
BRANCH  20  21
ATOM     21  N   UNL A   1      36.373  21.638  24.694  1.00  0.00    -0.352 N 
ATOM     22  C   UNL A   1      37.549  20.989  25.064  1.00  0.00     0.251 C 
ATOM     23  H   UNL A   1      35.622  21.028  24.511  1.00  0.00     0.163 HD
ATOM     24  O   UNL A   1      37.686  19.799  24.853  1.00  0.00    -0.269 OA
BRANCH  22  25
ATOM     25  C   UNL A   1      38.629  21.742  25.735  1.00  0.00     0.039 A 
ATOM     26  C   UNL A   1      39.887  21.244  26.072  1.00  0.00     0.014 A 
ATOM     27  C   UNL A   1      38.313  23.000  26.176  1.00  0.00     0.014 A 
ATOM     28  C   UNL A   1      40.734  22.050  26.850  1.00  0.00     0.010 A 
ATOM     29  C   UNL A   1      39.287  23.899  26.425  1.00  0.00     0.010 A 
ATOM     30  C   UNL A   1      40.379  23.385  27.065  1.00  0.00    -0.014 A 
BRANCH  30  31
ATOM     31  C   UNL A   1      41.130  24.374  27.800  1.00  0.00     0.031 A 
ATOM     32  C   UNL A   1      40.436  25.660  27.953  1.00  0.00     0.074 A 
ATOM     33  C   UNL A   1      42.181  24.081  28.596  1.00  0.00     0.049 A 
ATOM     34  N   UNL A   1      40.587  26.703  27.215  1.00  0.00    -0.248 NA
ATOM     35  C   UNL A   1      39.318  25.739  28.906  1.00  0.00     0.031 C 
ATOM     36  C   UNL A   1      42.742  22.778  28.972  1.00  0.00     0.029 A 
ATOM     37  N   UNL A   1      42.926  24.953  29.326  1.00  0.00    -0.354 N 
ATOM     38  C   UNL A   1      39.746  27.657  27.763  1.00  0.00     0.074 A 
ATOM     39  C   UNL A   1      38.818  26.937  28.599  1.00  0.00     0.031 C 
ATOM     40  C   UNL A   1      43.628  22.943  29.985  1.00  0.00     0.029 A 
ATOM     41  C   UNL A   1      43.805  24.366  30.222  1.00  0.00     0.049 A 
ATOM     42  H   UNL A   1      42.847  25.929  29.225  1.00  0.00     0.167 HD
ATOM     43  C   UNL A   1      40.070  28.978  27.729  1.00  0.00     0.031 A 
ATOM     44  C   UNL A   1      44.596  25.027  31.100  1.00  0.00     0.031 A 
ATOM     45  C   UNL A   1      41.236  29.209  26.904  1.00  0.00     0.049 A 
ATOM     46  C   UNL A   1      44.704  26.430  30.627  1.00  0.00     0.074 A 
ATOM     47  C   UNL A   1      41.570  28.945  25.590  1.00  0.00     0.029 A 
ATOM     48  N   UNL A   1      42.431  29.399  27.564  1.00  0.00    -0.354 N 
ATOM     49  N   UNL A   1      45.325  26.778  29.536  1.00  0.00    -0.248 NA
ATOM     50  C   UNL A   1      43.766  27.415  31.144  1.00  0.00     0.031 C 
ATOM     51  C   UNL A   1      42.936  28.530  25.630  1.00  0.00     0.029 A 
ATOM     52  C   UNL A   1      43.383  28.625  26.950  1.00  0.00     0.049 A 
ATOM     53  H   UNL A   1      42.576  29.986  28.341  1.00  0.00     0.167 HD
ATOM     54  C   UNL A   1      44.551  27.795  28.993  1.00  0.00     0.074 A 
ATOM     55  C   UNL A   1      43.686  28.230  30.087  1.00  0.00     0.031 C 
ATOM     56  C   UNL A   1      44.483  27.983  27.641  1.00  0.00     0.031 A 
BRANCH  43  57
ATOM     57  C   UNL A   1      39.614  29.985  28.754  1.00  0.00    -0.014 A 
ATOM     58  C   UNL A   1      40.335  30.077  29.957  1.00  0.00     0.009 A 
ATOM     59  C   UNL A   1      38.388  30.673  28.701  1.00  0.00     0.009 A 
ATOM     60  C   UNL A   1      39.820  30.757  31.066  1.00  0.00     0.001 A 
ATOM     61  C   UNL A   1      37.891  31.393  29.790  1.00  0.00     0.001 A 
ATOM     62  C   UNL A   1      38.595  31.410  30.983  1.00  0.00     0.000 A 
ENDBRANCH  43  57
BRANCH  44  63
ATOM     63  C   UNL A   1      45.114  24.606  32.416  1.00  0.00    -0.014 A 
ATOM     64  C   UNL A   1      44.553  23.506  33.085  1.00  0.00     0.009 A 
ATOM     65  C   UNL A   1      46.341  25.105  32.888  1.00  0.00     0.009 A 
ATOM     66  C   UNL A   1      45.222  22.895  34.152  1.00  0.00     0.001 A 
ATOM     67  C   UNL A   1      47.008  24.496  33.957  1.00  0.00     0.001 A 
ATOM     68  C   UNL A   1      46.456  23.379  34.577  1.00  0.00     0.000 A 
ENDBRANCH  44  63
BRANCH  56  69
ATOM     69  C   UNL A   1      45.485  27.246  26.780  1.00  0.00    -0.014 A 
ATOM     70  C   UNL A   1      45.287  25.930  26.322  1.00  0.00     0.009 A 
ATOM     71  C   UNL A   1      46.602  27.948  26.304  1.00  0.00     0.009 A 
ATOM     72  C   UNL A   1      46.198  25.327  25.449  1.00  0.00     0.001 A 
ATOM     73  C   UNL A   1      47.500  27.354  25.413  1.00  0.00     0.001 A 
ATOM     74  C   UNL A   1      47.302  26.041  24.991  1.00  0.00     0.000 A 
ENDBRANCH  56  69
ENDBRANCH  30  31
ENDBRANCH  22  25
ENDBRANCH  20  21
ENDBRANCH   1  20
TORSDOF 12
ENDMDL
