MODEL 1
REMARK VINA RESULT:     -11.1      0.000      0.000
REMARK SMILES CCN(C=O)[C@](C)(C(=O)NCCCNC(=O)c1ccc(-c2c3nc(c(-c4ccccc4)c4ccc([nH]4)c(-c4ccccc4)c4nc(c(-c5ccccc5)c5ccc2[nH]5)C=C4)C=C3)cc1)c1cc(F)c(C)cc1F
REMARK SMILES IDX 12 1 11 2 10 3 8 4 9 5 6 7 7 8 3 9 2 10 1 11 4 12 5 13 65 14
REMARK SMILES IDX 66 15 72 16 67 17 71 18 73 19 68 20 69 21 70 22 13 23 14 24
REMARK SMILES IDX 15 25 16 27 17 28 18 29 64 30 19 31 63 32 20 33 21 34 22 35
REMARK SMILES IDX 57 36 23 37 62 38 56 39 58 40 24 41 61 42 55 43 54 44 25 46
REMARK SMILES IDX 47 47 32 48 46 49 33 50 36 51 45 52 59 53 34 54 35 55 44 57
REMARK SMILES IDX 60 58 37 59 26 60 27 61 31 62 28 63 30 64 29 65 48 66 49 67
REMARK SMILES IDX 53 68 50 69 52 70 51 71 38 72 39 73 43 74 40 75 42 76 41 77
REMARK H PARENT 10 6 14 26 58 45 36 56
REMARK Flexibility Score: inf
ROOT
ATOM      1  C   UNL A   1      37.766  19.833  25.002  1.00  0.00     0.042 C 
ENDROOT
BRANCH   1   2
ATOM      2  C   UNL A   1      36.709  20.901  24.788  1.00  0.00     0.117 C 
BRANCH   2   3
ATOM      3  N   UNL A   1      35.914  21.129  25.982  1.00  0.00    -0.354 N 
ATOM      4  C   UNL A   1      34.716  21.774  26.140  1.00  0.00     0.250 C 
ATOM      5  O   UNL A   1      34.173  21.625  27.240  1.00  0.00    -0.272 OA
ATOM      6  H   UNL A   1      36.298  20.761  26.811  1.00  0.00     0.163 HD
BRANCH   4   7
ATOM      7  C   UNL A   1      34.090  22.642  24.981  1.00  0.00     0.147 C 
ATOM      8  C   UNL A   1      35.291  23.204  24.158  1.00  0.00     0.051 C 
BRANCH   7   9
ATOM      9  N   UNL A   1      33.169  21.736  24.212  1.00  0.00    -0.327 N 
BRANCH   9  10
ATOM     10  C   UNL A   1      32.631  22.180  22.912  1.00  0.00     0.117 C 
ATOM     11  C   UNL A   1      32.000  21.078  22.075  1.00  0.00     0.027 C 
ENDBRANCH   9  10
BRANCH   9  12
ATOM     12  C   UNL A   1      33.054  20.388  24.520  1.00  0.00     0.341 C 
ATOM     13  O   UNL A   1      32.153  19.844  25.141  1.00  0.00    -0.279 OA
ENDBRANCH   9  12
ENDBRANCH   7   9
BRANCH   7  14
ATOM     14  C   UNL A   1      33.368  23.894  25.556  1.00  0.00     0.026 A 
ATOM     15  C   UNL A   1      34.015  25.150  25.513  1.00  0.00     0.049 A 
ATOM     16  C   UNL A   1      32.059  23.882  26.062  1.00  0.00     0.129 A 
ATOM     17  C   UNL A   1      33.375  26.312  25.946  1.00  0.00     0.126 A 
ATOM     18  C   UNL A   1      31.424  25.048  26.503  1.00  0.00     0.046 A 
ATOM     19  F   UNL A   1      31.343  22.754  26.141  1.00  0.00    -0.207 F 
ATOM     20  F   UNL A   1      34.032  27.478  25.865  1.00  0.00    -0.207 F 
ATOM     21  C   UNL A   1      32.075  26.280  26.440  1.00  0.00    -0.012 A 
ATOM     22  C   UNL A   1      31.402  27.542  26.879  1.00  0.00     0.047 C 
ENDBRANCH   7  14
ENDBRANCH   4   7
ENDBRANCH   2   3
ENDBRANCH   1   2
BRANCH   1  23
ATOM     23  C   UNL A   1      38.988  20.349  25.751  1.00  0.00     0.118 C 
BRANCH  23  24
ATOM     24  N   UNL A   1      40.055  19.359  25.850  1.00  0.00    -0.352 N 
ATOM     25  C   UNL A   1      41.391  19.530  26.125  1.00  0.00     0.251 C 
ATOM     26  H   UNL A   1      39.775  18.427  25.700  1.00  0.00     0.163 HD
ATOM     27  O   UNL A   1      42.173  18.598  25.993  1.00  0.00    -0.269 OA
BRANCH  25  28
ATOM     28  C   UNL A   1      41.874  20.854  26.558  1.00  0.00     0.039 A 
ATOM     29  C   UNL A   1      42.277  21.782  25.595  1.00  0.00     0.014 A 
ATOM     30  C   UNL A   1      41.896  21.184  27.914  1.00  0.00     0.014 A 
ATOM     31  C   UNL A   1      42.628  23.072  25.993  1.00  0.00     0.010 A 
ATOM     32  C   UNL A   1      42.143  22.494  28.296  1.00  0.00     0.010 A 
ATOM     33  C   UNL A   1      42.522  23.449  27.341  1.00  0.00    -0.014 A 
BRANCH  33  34
ATOM     34  C   UNL A   1      42.818  24.831  27.788  1.00  0.00     0.031 A 
ATOM     35  C   UNL A   1      44.243  25.259  28.003  1.00  0.00     0.074 A 
ATOM     36  C   UNL A   1      41.806  25.673  28.071  1.00  0.00     0.049 A 
ATOM     37  N   UNL A   1      44.706  26.395  28.458  1.00  0.00    -0.248 NA
ATOM     38  C   UNL A   1      45.286  24.263  27.701  1.00  0.00     0.031 C 
ATOM     39  C   UNL A   1      40.380  25.364  27.945  1.00  0.00     0.029 A 
ATOM     40  N   UNL A   1      41.827  26.967  28.525  1.00  0.00    -0.354 N 
ATOM     41  C   UNL A   1      46.085  26.241  28.518  1.00  0.00     0.074 A 
ATOM     42  C   UNL A   1      46.378  24.883  28.117  1.00  0.00     0.031 C 
ATOM     43  C   UNL A   1      39.665  26.454  28.269  1.00  0.00     0.029 A 
ATOM     44  C   UNL A   1      40.578  27.520  28.667  1.00  0.00     0.049 A 
ATOM     45  H   UNL A   1      42.658  27.453  28.732  1.00  0.00     0.167 HD
ATOM     46  C   UNL A   1      47.028  27.154  28.847  1.00  0.00     0.031 A 
ATOM     47  C   UNL A   1      40.211  28.750  29.069  1.00  0.00     0.031 A 
ATOM     48  C   UNL A   1      46.736  28.507  29.234  1.00  0.00     0.049 A 
ATOM     49  C   UNL A   1      41.273  29.745  29.445  1.00  0.00     0.074 A 
ATOM     50  C   UNL A   1      47.618  29.528  29.538  1.00  0.00     0.029 A 
ATOM     51  N   UNL A   1      45.458  29.027  29.366  1.00  0.00    -0.354 N 
ATOM     52  N   UNL A   1      42.577  29.603  29.439  1.00  0.00    -0.248 NA
ATOM     53  C   UNL A   1      40.810  31.071  29.876  1.00  0.00     0.031 C 
ATOM     54  C   UNL A   1      46.871  30.655  29.899  1.00  0.00     0.029 A 
ATOM     55  C   UNL A   1      45.525  30.351  29.767  1.00  0.00     0.049 A 
ATOM     56  H   UNL A   1      44.625  28.529  29.199  1.00  0.00     0.167 HD
ATOM     57  C   UNL A   1      43.091  30.831  29.833  1.00  0.00     0.074 A 
ATOM     58  C   UNL A   1      41.958  31.707  30.060  1.00  0.00     0.031 C 
ATOM     59  C   UNL A   1      44.386  31.203  29.990  1.00  0.00     0.031 A 
BRANCH  46  60
ATOM     60  C   UNL A   1      48.461  26.700  28.807  1.00  0.00    -0.014 A 
ATOM     61  C   UNL A   1      49.265  26.929  27.677  1.00  0.00     0.009 A 
ATOM     62  C   UNL A   1      49.014  26.025  29.906  1.00  0.00     0.009 A 
ATOM     63  C   UNL A   1      50.573  26.443  27.628  1.00  0.00     0.001 A 
ATOM     64  C   UNL A   1      50.334  25.571  29.867  1.00  0.00     0.001 A 
ATOM     65  C   UNL A   1      51.108  25.767  28.724  1.00  0.00     0.000 A 
ENDBRANCH  46  60
BRANCH  47  66
ATOM     66  C   UNL A   1      38.774  29.128  29.088  1.00  0.00    -0.014 A 
ATOM     67  C   UNL A   1      38.163  29.629  27.929  1.00  0.00     0.009 A 
ATOM     68  C   UNL A   1      38.006  28.982  30.254  1.00  0.00     0.009 A 
ATOM     69  C   UNL A   1      36.815  29.998  27.941  1.00  0.00     0.001 A 
ATOM     70  C   UNL A   1      36.653  29.327  30.255  1.00  0.00     0.001 A 
ATOM     71  C   UNL A   1      36.061  29.842  29.103  1.00  0.00     0.000 A 
ENDBRANCH  47  66
BRANCH  59  72
ATOM     72  C   UNL A   1      44.644  32.629  30.387  1.00  0.00    -0.014 A 
ATOM     73  C   UNL A   1      44.792  33.640  29.426  1.00  0.00     0.009 A 
ATOM     74  C   UNL A   1      44.700  32.967  31.748  1.00  0.00     0.009 A 
ATOM     75  C   UNL A   1      45.029  34.958  29.821  1.00  0.00     0.001 A 
ATOM     76  C   UNL A   1      44.907  34.291  32.141  1.00  0.00     0.001 A 
ATOM     77  C   UNL A   1      45.080  35.283  31.177  1.00  0.00     0.000 A 
ENDBRANCH  59  72
ENDBRANCH  33  34
ENDBRANCH  25  28
ENDBRANCH  23  24
ENDBRANCH   1  23
TORSDOF 14
ENDMDL
MODEL 2
REMARK VINA RESULT:     -11.0      4.239      9.031
REMARK SMILES CCN(C=O)[C@](C)(C(=O)NCCCNC(=O)c1ccc(-c2c3nc(c(-c4ccccc4)c4ccc([nH]4)c(-c4ccccc4)c4nc(c(-c5ccccc5)c5ccc2[nH]5)C=C4)C=C3)cc1)c1cc(F)c(C)cc1F
REMARK SMILES IDX 12 1 11 2 10 3 8 4 9 5 6 7 7 8 3 9 2 10 1 11 4 12 5 13 65 14
REMARK SMILES IDX 66 15 72 16 67 17 71 18 73 19 68 20 69 21 70 22 13 23 14 24
REMARK SMILES IDX 15 25 16 27 17 28 18 29 64 30 19 31 63 32 20 33 21 34 22 35
REMARK SMILES IDX 57 36 23 37 62 38 56 39 58 40 24 41 61 42 55 43 54 44 25 46
REMARK SMILES IDX 47 47 32 48 46 49 33 50 36 51 45 52 59 53 34 54 35 55 44 57
REMARK SMILES IDX 60 58 37 59 26 60 27 61 31 62 28 63 30 64 29 65 48 66 49 67
REMARK SMILES IDX 53 68 50 69 52 70 51 71 38 72 39 73 43 74 40 75 42 76 41 77
REMARK H PARENT 10 6 14 26 58 45 36 56
REMARK Flexibility Score: inf
ROOT
ATOM      1  C   UNL A   1      31.437  31.728  26.532  1.00  0.00     0.042 C 
ENDROOT
BRANCH   1   2
ATOM      2  C   UNL A   1      31.633  30.255  26.224  1.00  0.00     0.117 C 
BRANCH   2   3
ATOM      3  N   UNL A   1      32.526  30.047  25.097  1.00  0.00    -0.354 N 
ATOM      4  C   UNL A   1      32.722  28.941  24.314  1.00  0.00     0.250 C 
ATOM      5  O   UNL A   1      33.393  29.124  23.292  1.00  0.00    -0.272 OA
ATOM      6  H   UNL A   1      33.079  30.826  24.858  1.00  0.00     0.163 HD
BRANCH   4   7
ATOM      7  C   UNL A   1      32.121  27.536  24.709  1.00  0.00     0.147 C 
ATOM      8  C   UNL A   1      32.076  27.502  26.269  1.00  0.00     0.051 C 
BRANCH   7   9
ATOM      9  N   UNL A   1      30.780  27.436  24.038  1.00  0.00    -0.327 N 
BRANCH   9  10
ATOM     10  C   UNL A   1      29.837  26.380  24.452  1.00  0.00     0.117 C 
ATOM     11  C   UNL A   1      28.408  26.577  23.968  1.00  0.00     0.027 C 
ENDBRANCH   9  10
BRANCH   9  12
ATOM     12  C   UNL A   1      30.272  28.477  23.273  1.00  0.00     0.341 C 
ATOM     13  O   UNL A   1      30.216  28.541  22.054  1.00  0.00    -0.279 OA
ENDBRANCH   9  12
ENDBRANCH   7   9
BRANCH   7  14
ATOM     14  C   UNL A   1      33.088  26.387  24.304  1.00  0.00     0.026 A 
ATOM     15  C   UNL A   1      33.934  25.814  25.281  1.00  0.00     0.049 A 
ATOM     16  C   UNL A   1      33.134  25.814  23.024  1.00  0.00     0.129 A 
ATOM     17  C   UNL A   1      34.761  24.731  24.981  1.00  0.00     0.126 A 
ATOM     18  C   UNL A   1      33.971  24.733  22.725  1.00  0.00     0.046 A 
ATOM     19  F   UNL A   1      32.372  26.266  22.021  1.00  0.00    -0.207 F 
ATOM     20  F   UNL A   1      35.528  24.217  25.953  1.00  0.00    -0.207 F 
ATOM     21  C   UNL A   1      34.788  24.173  23.707  1.00  0.00    -0.012 A 
ATOM     22  C   UNL A   1      35.668  22.999  23.414  1.00  0.00     0.047 C 
ENDBRANCH   7  14
ENDBRANCH   4   7
ENDBRANCH   2   3
ENDBRANCH   1   2
BRANCH   1  23
ATOM     23  C   UNL A   1      32.680  32.383  27.119  1.00  0.00     0.118 C 
BRANCH  23  24
ATOM     24  N   UNL A   1      32.444  33.749  27.574  1.00  0.00    -0.352 N 
ATOM     25  C   UNL A   1      33.130  34.499  28.500  1.00  0.00     0.251 C 
ATOM     26  H   UNL A   1      31.677  34.202  27.153  1.00  0.00     0.163 HD
ATOM     27  O   UNL A   1      32.679  35.570  28.884  1.00  0.00    -0.269 OA
BRANCH  25  28
ATOM     28  C   UNL A   1      34.403  33.988  29.040  1.00  0.00     0.039 A 
ATOM     29  C   UNL A   1      34.390  33.215  30.203  1.00  0.00     0.014 A 
ATOM     30  C   UNL A   1      35.603  34.249  28.375  1.00  0.00     0.014 A 
ATOM     31  C   UNL A   1      35.577  32.638  30.654  1.00  0.00     0.010 A 
ATOM     32  C   UNL A   1      36.759  33.590  28.765  1.00  0.00     0.010 A 
ATOM     33  C   UNL A   1      36.761  32.786  29.915  1.00  0.00    -0.014 A 
BRANCH  33  34
ATOM     34  C   UNL A   1      38.023  32.127  30.326  1.00  0.00     0.031 A 
ATOM     35  C   UNL A   1      38.917  32.790  31.337  1.00  0.00     0.074 A 
ATOM     36  C   UNL A   1      38.399  30.976  29.738  1.00  0.00     0.049 A 
ATOM     37  N   UNL A   1      40.092  32.413  31.774  1.00  0.00    -0.248 NA
ATOM     38  C   UNL A   1      38.444  34.063  31.906  1.00  0.00     0.031 C 
ATOM     39  C   UNL A   1      37.641  30.257  28.712  1.00  0.00     0.029 A 
ATOM     40  N   UNL A   1      39.521  30.209  29.922  1.00  0.00    -0.354 N 
ATOM     41  C   UNL A   1      40.504  33.412  32.647  1.00  0.00     0.074 A 
ATOM     42  C   UNL A   1      39.488  34.440  32.626  1.00  0.00     0.031 C 
ATOM     43  C   UNL A   1      38.297  29.129  28.392  1.00  0.00     0.029 A 
ATOM     44  C   UNL A   1      39.540  29.070  29.154  1.00  0.00     0.049 A 
ATOM     45  H   UNL A   1      40.245  30.452  30.543  1.00  0.00     0.167 HD
ATOM     46  C   UNL A   1      41.615  33.460  33.419  1.00  0.00     0.031 A 
ATOM     47  C   UNL A   1      40.455  28.087  29.078  1.00  0.00     0.031 A 
ATOM     48  C   UNL A   1      42.618  32.432  33.448  1.00  0.00     0.049 A 
ATOM     49  C   UNL A   1      41.688  28.166  29.933  1.00  0.00     0.074 A 
ATOM     50  C   UNL A   1      43.756  32.356  34.231  1.00  0.00     0.029 A 
ATOM     51  N   UNL A   1      42.600  31.295  32.655  1.00  0.00    -0.354 N 
ATOM     52  N   UNL A   1      42.036  29.088  30.798  1.00  0.00    -0.248 NA
ATOM     53  C   UNL A   1      42.650  27.063  29.805  1.00  0.00     0.031 C 
ATOM     54  C   UNL A   1      44.451  31.194  33.879  1.00  0.00     0.029 A 
ATOM     55  C   UNL A   1      43.718  30.520  32.915  1.00  0.00     0.049 A 
ATOM     56  H   UNL A   1      41.897  31.072  32.003  1.00  0.00     0.167 HD
ATOM     57  C   UNL A   1      43.240  28.661  31.342  1.00  0.00     0.074 A 
ATOM     58  C   UNL A   1      43.556  27.393  30.715  1.00  0.00     0.031 C 
ATOM     59  C   UNL A   1      44.014  29.262  32.279  1.00  0.00     0.031 A 
BRANCH  46  60
ATOM     60  C   UNL A   1      41.791  34.676  34.287  1.00  0.00    -0.014 A 
ATOM     61  C   UNL A   1      42.467  35.815  33.815  1.00  0.00     0.009 A 
ATOM     62  C   UNL A   1      41.284  34.683  35.595  1.00  0.00     0.009 A 
ATOM     63  C   UNL A   1      42.680  36.910  34.654  1.00  0.00     0.001 A 
ATOM     64  C   UNL A   1      41.469  35.794  36.421  1.00  0.00     0.001 A 
ATOM     65  C   UNL A   1      42.179  36.901  35.955  1.00  0.00     0.000 A 
ENDBRANCH  46  60
BRANCH  47  66
ATOM     66  C   UNL A   1      40.216  26.916  28.194  1.00  0.00    -0.014 A 
ATOM     67  C   UNL A   1      40.713  26.913  26.883  1.00  0.00     0.009 A 
ATOM     68  C   UNL A   1      39.504  25.798  28.655  1.00  0.00     0.009 A 
ATOM     69  C   UNL A   1      40.484  25.822  26.040  1.00  0.00     0.001 A 
ATOM     70  C   UNL A   1      39.299  24.698  27.819  1.00  0.00     0.001 A 
ATOM     71  C   UNL A   1      39.781  24.714  26.511  1.00  0.00     0.000 A 
ENDBRANCH  47  66
BRANCH  59  72
ATOM     72  C   UNL A   1      45.255  28.533  32.709  1.00  0.00    -0.014 A 
ATOM     73  C   UNL A   1      46.490  28.759  32.082  1.00  0.00     0.009 A 
ATOM     74  C   UNL A   1      45.191  27.635  33.786  1.00  0.00     0.009 A 
ATOM     75  C   UNL A   1      47.630  28.071  32.503  1.00  0.00     0.001 A 
ATOM     76  C   UNL A   1      46.338  26.971  34.224  1.00  0.00     0.001 A 
ATOM     77  C   UNL A   1      47.553  27.183  33.575  1.00  0.00     0.000 A 
ENDBRANCH  59  72
ENDBRANCH  33  34
ENDBRANCH  25  28
ENDBRANCH  23  24
ENDBRANCH   1  23
TORSDOF 14
ENDMDL
MODEL 3
REMARK VINA RESULT:     -10.8      5.170      9.334
REMARK SMILES CCN(C=O)[C@](C)(C(=O)NCCCNC(=O)c1ccc(-c2c3nc(c(-c4ccccc4)c4ccc([nH]4)c(-c4ccccc4)c4nc(c(-c5ccccc5)c5ccc2[nH]5)C=C4)C=C3)cc1)c1cc(F)c(C)cc1F
REMARK SMILES IDX 12 1 11 2 10 3 8 4 9 5 6 7 7 8 3 9 2 10 1 11 4 12 5 13 65 14
REMARK SMILES IDX 66 15 72 16 67 17 71 18 73 19 68 20 69 21 70 22 13 23 14 24
REMARK SMILES IDX 15 25 16 27 17 28 18 29 64 30 19 31 63 32 20 33 21 34 22 35
REMARK SMILES IDX 57 36 23 37 62 38 56 39 58 40 24 41 61 42 55 43 54 44 25 46
REMARK SMILES IDX 47 47 32 48 46 49 33 50 36 51 45 52 59 53 34 54 35 55 44 57
REMARK SMILES IDX 60 58 37 59 26 60 27 61 31 62 28 63 30 64 29 65 48 66 49 67
REMARK SMILES IDX 53 68 50 69 52 70 51 71 38 72 39 73 43 74 40 75 42 76 41 77
REMARK H PARENT 10 6 14 26 58 45 36 56
REMARK Flexibility Score: inf
ROOT
ATOM      1  C   UNL A   1      31.593  31.801  26.502  1.00  0.00     0.042 C 
ENDROOT
BRANCH   1   2
ATOM      2  C   UNL A   1      31.840  30.320  26.279  1.00  0.00     0.117 C 
BRANCH   2   3
ATOM      3  N   UNL A   1      32.739  30.078  25.164  1.00  0.00    -0.354 N 
ATOM      4  C   UNL A   1      32.916  28.960  24.394  1.00  0.00     0.250 C 
ATOM      5  O   UNL A   1      33.601  29.116  23.378  1.00  0.00    -0.272 OA
ATOM      6  H   UNL A   1      33.313  30.841  24.923  1.00  0.00     0.163 HD
BRANCH   4   7
ATOM      7  C   UNL A   1      32.277  27.575  24.797  1.00  0.00     0.147 C 
ATOM      8  C   UNL A   1      32.234  27.549  26.357  1.00  0.00     0.051 C 
BRANCH   7   9
ATOM      9  N   UNL A   1      30.932  27.508  24.128  1.00  0.00    -0.327 N 
BRANCH   9  10
ATOM     10  C   UNL A   1      29.919  26.558  24.627  1.00  0.00     0.117 C 
ATOM     11  C   UNL A   1      29.837  25.252  23.852  1.00  0.00     0.027 C 
ENDBRANCH   9  10
BRANCH   9  12
ATOM     12  C   UNL A   1      30.497  28.512  23.274  1.00  0.00     0.341 C 
ATOM     13  O   UNL A   1      30.273  28.418  22.076  1.00  0.00    -0.279 OA
ENDBRANCH   9  12
ENDBRANCH   7   9
BRANCH   7  14
ATOM     14  C   UNL A   1      33.211  26.397  24.395  1.00  0.00     0.026 A 
ATOM     15  C   UNL A   1      33.991  25.760  25.388  1.00  0.00     0.049 A 
ATOM     16  C   UNL A   1      33.286  25.859  23.101  1.00  0.00     0.129 A 
ATOM     17  C   UNL A   1      34.784  24.652  25.088  1.00  0.00     0.126 A 
ATOM     18  C   UNL A   1      34.088  24.753  22.803  1.00  0.00     0.046 A 
ATOM     19  F   UNL A   1      32.585  26.373  22.083  1.00  0.00    -0.207 F 
ATOM     20  F   UNL A   1      35.488  24.077  26.073  1.00  0.00    -0.207 F 
ATOM     21  C   UNL A   1      34.840  24.130  23.799  1.00  0.00    -0.012 A 
ATOM     22  C   UNL A   1      35.681  22.928  23.506  1.00  0.00     0.047 C 
ENDBRANCH   7  14
ENDBRANCH   4   7
ENDBRANCH   2   3
ENDBRANCH   1   2
BRANCH   1  23
ATOM     23  C   UNL A   1      32.729  32.486  27.250  1.00  0.00     0.118 C 
BRANCH  23  24
ATOM     24  N   UNL A   1      32.459  33.893  27.530  1.00  0.00    -0.352 N 
ATOM     25  C   UNL A   1      33.005  34.720  28.482  1.00  0.00     0.251 C 
ATOM     26  H   UNL A   1      31.785  34.312  26.948  1.00  0.00     0.163 HD
ATOM     27  O   UNL A   1      32.528  35.829  28.685  1.00  0.00    -0.269 OA
BRANCH  25  28
ATOM     28  C   UNL A   1      34.159  34.249  29.271  1.00  0.00     0.039 A 
ATOM     29  C   UNL A   1      33.933  33.569  30.470  1.00  0.00     0.014 A 
ATOM     30  C   UNL A   1      35.459  34.453  28.805  1.00  0.00     0.014 A 
ATOM     31  C   UNL A   1      35.015  33.025  31.162  1.00  0.00     0.010 A 
ATOM     32  C   UNL A   1      36.520  33.823  29.437  1.00  0.00     0.010 A 
ATOM     33  C   UNL A   1      36.311  33.111  30.628  1.00  0.00    -0.014 A 
BRANCH  33  34
ATOM     34  C   UNL A   1      37.473  32.482  31.299  1.00  0.00     0.031 A 
ATOM     35  C   UNL A   1      38.167  31.315  30.655  1.00  0.00     0.074 A 
ATOM     36  C   UNL A   1      37.853  32.910  32.518  1.00  0.00     0.049 A 
ATOM     37  N   UNL A   1      39.152  30.583  31.111  1.00  0.00    -0.248 NA
ATOM     38  C   UNL A   1      37.665  30.892  29.336  1.00  0.00     0.031 C 
ATOM     39  C   UNL A   1      37.233  34.004  33.268  1.00  0.00     0.029 A 
ATOM     40  N   UNL A   1      38.858  32.470  33.341  1.00  0.00    -0.354 N 
ATOM     41  C   UNL A   1      39.368  29.605  30.150  1.00  0.00     0.074 A 
ATOM     42  C   UNL A   1      38.372  29.794  29.119  1.00  0.00     0.031 C 
ATOM     43  C   UNL A   1      37.901  34.180  34.420  1.00  0.00     0.029 A 
ATOM     44  C   UNL A   1      38.964  33.185  34.509  1.00  0.00     0.049 A 
ATOM     45  H   UNL A   1      39.447  31.714  33.117  1.00  0.00     0.167 HD
ATOM     46  C   UNL A   1      40.326  28.650  30.110  1.00  0.00     0.031 A 
ATOM     47  C   UNL A   1      39.826  33.055  35.534  1.00  0.00     0.031 A 
ATOM     48  C   UNL A   1      41.324  28.470  31.130  1.00  0.00     0.049 A 
ATOM     49  C   UNL A   1      40.873  31.978  35.478  1.00  0.00     0.074 A 
ATOM     50  C   UNL A   1      42.371  27.568  31.164  1.00  0.00     0.029 A 
ATOM     51  N   UNL A   1      41.396  29.214  32.297  1.00  0.00    -0.354 N 
ATOM     52  N   UNL A   1      41.103  31.098  34.534  1.00  0.00    -0.248 NA
ATOM     53  C   UNL A   1      41.784  31.886  36.627  1.00  0.00     0.031 C 
ATOM     54  C   UNL A   1      43.051  27.736  32.376  1.00  0.00     0.029 A 
ATOM     55  C   UNL A   1      42.459  28.779  33.070  1.00  0.00     0.049 A 
ATOM     56  H   UNL A   1      40.782  29.944  32.541  1.00  0.00     0.167 HD
ATOM     57  C   UNL A   1      42.205  30.367  34.960  1.00  0.00     0.074 A 
ATOM     58  C   UNL A   1      42.601  30.916  36.242  1.00  0.00     0.031 C 
ATOM     59  C   UNL A   1      42.835  29.337  34.343  1.00  0.00     0.031 A 
BRANCH  46  60
ATOM     60  C   UNL A   1      40.323  27.728  28.922  1.00  0.00    -0.014 A 
ATOM     61  C   UNL A   1      39.636  26.502  28.954  1.00  0.00     0.009 A 
ATOM     62  C   UNL A   1      41.024  28.082  27.759  1.00  0.00     0.009 A 
ATOM     63  C   UNL A   1      39.697  25.628  27.867  1.00  0.00     0.001 A 
ATOM     64  C   UNL A   1      41.054  27.220  26.660  1.00  0.00     0.001 A 
ATOM     65  C   UNL A   1      40.403  25.988  26.721  1.00  0.00     0.000 A 
ENDBRANCH  46  60
BRANCH  47  66
ATOM     66  C   UNL A   1      39.767  33.999  36.679  1.00  0.00    -0.014 A 
ATOM     67  C   UNL A   1      38.992  33.690  37.807  1.00  0.00     0.009 A 
ATOM     68  C   UNL A   1      40.487  35.204  36.658  1.00  0.00     0.009 A 
ATOM     69  C   UNL A   1      38.920  34.578  38.884  1.00  0.00     0.001 A 
ATOM     70  C   UNL A   1      40.435  36.077  37.747  1.00  0.00     0.001 A 
ATOM     71  C   UNL A   1      39.646  35.768  38.855  1.00  0.00     0.000 A 
ENDBRANCH  47  66
BRANCH  59  72
ATOM     72  C   UNL A   1      44.043  28.766  35.031  1.00  0.00    -0.014 A 
ATOM     73  C   UNL A   1      43.934  27.685  35.920  1.00  0.00     0.009 A 
ATOM     74  C   UNL A   1      45.312  29.296  34.752  1.00  0.00     0.009 A 
ATOM     75  C   UNL A   1      45.072  27.171  36.544  1.00  0.00     0.001 A 
ATOM     76  C   UNL A   1      46.451  28.759  35.355  1.00  0.00     0.001 A 
ATOM     77  C   UNL A   1      46.328  27.704  36.257  1.00  0.00     0.000 A 
ENDBRANCH  59  72
ENDBRANCH  33  34
ENDBRANCH  25  28
ENDBRANCH  23  24
ENDBRANCH   1  23
TORSDOF 14
ENDMDL
