MODEL 1
REMARK VINA RESULT:     -10.5      0.000      0.000
REMARK SMILES CC[C@@H]1CCC[C@@H](Oc2cncc(C(=O)NCCCNC(=O)c3ccc(-c4c5nc(c(-c6ccccc6)c6ccc([nH]6)c(-c6ccccc6)c6nc(c(-c7ccccc7)c7ccc4[nH]7)C=C6)C=C5)cc3)n2)C1
REMARK SMILES IDX 17 1 16 2 14 3 15 4 13 6 9 7 10 8 71 9 11 10 12 11 8 12 7 13
REMARK SMILES IDX 3 14 4 15 72 16 5 17 6 18 2 19 1 20 18 21 19 22 20 23 21 24
REMARK SMILES IDX 22 26 23 27 24 28 70 29 25 30 69 31 26 32 27 33 28 34 63 35
REMARK SMILES IDX 29 36 68 37 62 38 64 39 30 40 67 41 61 42 60 43 31 45 53 46
REMARK SMILES IDX 38 47 52 48 39 49 42 50 51 51 65 52 40 53 41 54 50 56 66 57
REMARK SMILES IDX 43 58 32 59 33 60 37 61 34 62 36 63 35 64 54 65 55 66 59 67
REMARK SMILES IDX 56 68 58 69 57 70 44 71 45 72 49 73 46 74 48 75 47 76
REMARK H PARENT 16 5 20 25 64 44 42 55
REMARK Flexibility Score: inf
ROOT
ATOM      1  C   UNL A   1      42.100  19.837  27.082  1.00  0.00     0.118 C 
ENDROOT
BRANCH   1   2
ATOM      2  N   UNL A   1      42.775  18.883  26.218  1.00  0.00    -0.351 N 
ATOM      3  C   UNL A   1      43.781  19.052  25.299  1.00  0.00     0.271 C 
ATOM      4  O   UNL A   1      44.111  18.070  24.630  1.00  0.00    -0.267 OA
ATOM      5  H   UNL A   1      42.455  17.957  26.307  1.00  0.00     0.163 HD
BRANCH   3   6
ATOM      6  C   UNL A   1      44.489  20.344  25.096  1.00  0.00     0.150 A 
ATOM      7  C   UNL A   1      44.520  22.662  25.085  1.00  0.00     0.233 A 
ATOM      8  C   UNL A   1      45.872  22.592  24.807  1.00  0.00     0.179 A 
ATOM      9  N   UNL A   1      43.814  21.517  25.207  1.00  0.00    -0.205 NA
ATOM     10  N   UNL A   1      46.571  21.433  24.674  1.00  0.00    -0.257 NA
ATOM     11  C   UNL A   1      45.846  20.306  24.830  1.00  0.00     0.145 A 
BRANCH   7  12
ATOM     12  O   UNL A   1      43.733  23.746  25.238  1.00  0.00    -0.473 OA
BRANCH  12  13
ATOM     13  C   UNL A   1      43.581  24.623  26.356  1.00  0.00     0.175 C 
ATOM     14  C   UNL A   1      44.231  23.447  28.536  1.00  0.00    -0.008 C 
ATOM     15  C   UNL A   1      45.377  24.470  28.711  1.00  0.00     0.004 C 
ATOM     16  C   UNL A   1      43.102  24.005  27.672  1.00  0.00     0.048 C 
ATOM     17  C   UNL A   1      45.804  25.271  27.474  1.00  0.00     0.004 C 
ATOM     18  C   UNL A   1      44.674  25.670  26.538  1.00  0.00     0.045 C 
BRANCH  14  19
ATOM     19  C   UNL A   1      43.774  22.946  29.924  1.00  0.00     0.000 C 
ATOM     20  C   UNL A   1      44.229  23.801  31.098  1.00  0.00     0.004 C 
ENDBRANCH  14  19
ENDBRANCH  12  13
ENDBRANCH   7  12
ENDBRANCH   3   6
ENDBRANCH   1   2
BRANCH   1  21
ATOM     21  C   UNL A   1      40.768  20.281  26.484  1.00  0.00     0.042 C 
BRANCH  21  22
ATOM     22  C   UNL A   1      40.434  21.743  26.782  1.00  0.00     0.118 C 
BRANCH  22  23
ATOM     23  N   UNL A   1      39.316  22.232  25.981  1.00  0.00    -0.352 N 
ATOM     24  C   UNL A   1      38.642  23.424  26.032  1.00  0.00     0.251 C 
ATOM     25  H   UNL A   1      38.995  21.605  25.294  1.00  0.00     0.163 HD
ATOM     26  O   UNL A   1      37.574  23.552  25.447  1.00  0.00    -0.269 OA
BRANCH  24  27
ATOM     27  C   UNL A   1      39.202  24.552  26.800  1.00  0.00     0.039 A 
ATOM     28  C   UNL A   1      40.009  25.484  26.144  1.00  0.00     0.014 A 
ATOM     29  C   UNL A   1      38.942  24.680  28.166  1.00  0.00     0.014 A 
ATOM     30  C   UNL A   1      40.485  26.593  26.841  1.00  0.00     0.010 A 
ATOM     31  C   UNL A   1      39.356  25.821  28.843  1.00  0.00     0.010 A 
ATOM     32  C   UNL A   1      40.120  26.794  28.183  1.00  0.00    -0.014 A 
BRANCH  32  33
ATOM     33  C   UNL A   1      40.480  28.042  28.898  1.00  0.00     0.031 A 
ATOM     34  C   UNL A   1      41.799  28.163  29.604  1.00  0.00     0.074 A 
ATOM     35  C   UNL A   1      39.573  29.035  28.976  1.00  0.00     0.049 A 
ATOM     36  N   UNL A   1      42.248  29.140  30.350  1.00  0.00    -0.248 NA
ATOM     37  C   UNL A   1      42.731  27.030  29.473  1.00  0.00     0.031 C 
ATOM     38  C   UNL A   1      38.241  29.019  28.363  1.00  0.00     0.029 A 
ATOM     39  N   UNL A   1      39.626  30.248  29.615  1.00  0.00    -0.354 N 
ATOM     40  C   UNL A   1      43.505  28.740  30.783  1.00  0.00     0.074 A 
ATOM     41  C   UNL A   1      43.731  27.411  30.256  1.00  0.00     0.031 C 
ATOM     42  C   UNL A   1      37.616  30.174  28.636  1.00  0.00     0.029 A 
ATOM     43  C   UNL A   1      38.478  30.990  29.484  1.00  0.00     0.049 A 
ATOM     44  H   UNL A   1      40.413  30.557  30.119  1.00  0.00     0.167 HD
ATOM     45  C   UNL A   1      44.396  29.425  31.537  1.00  0.00     0.031 A 
ATOM     46  C   UNL A   1      38.145  32.185  30.006  1.00  0.00     0.031 A 
ATOM     47  C   UNL A   1      44.165  30.744  32.063  1.00  0.00     0.049 A 
ATOM     48  C   UNL A   1      39.137  32.901  30.879  1.00  0.00     0.074 A 
ATOM     49  C   UNL A   1      45.026  31.540  32.798  1.00  0.00     0.029 A 
ATOM     50  N   UNL A   1      42.986  31.458  31.916  1.00  0.00    -0.354 N 
ATOM     51  N   UNL A   1      40.351  32.538  31.220  1.00  0.00    -0.248 NA
ATOM     52  C   UNL A   1      38.715  34.193  31.438  1.00  0.00     0.031 C 
ATOM     53  C   UNL A   1      44.346  32.712  33.147  1.00  0.00     0.029 A 
ATOM     54  C   UNL A   1      43.084  32.671  32.576  1.00  0.00     0.049 A 
ATOM     55  H   UNL A   1      42.196  31.148  31.417  1.00  0.00     0.167 HD
ATOM     56  C   UNL A   1      40.842  33.565  32.015  1.00  0.00     0.074 A 
ATOM     57  C   UNL A   1      39.807  34.576  32.082  1.00  0.00     0.031 C 
ATOM     58  C   UNL A   1      42.041  33.662  32.639  1.00  0.00     0.031 A 
BRANCH  45  59
ATOM     59  C   UNL A   1      45.707  28.757  31.847  1.00  0.00    -0.014 A 
ATOM     60  C   UNL A   1      46.822  28.923  31.010  1.00  0.00     0.009 A 
ATOM     61  C   UNL A   1      45.847  28.000  33.021  1.00  0.00     0.009 A 
ATOM     62  C   UNL A   1      48.042  28.324  31.329  1.00  0.00     0.001 A 
ATOM     63  C   UNL A   1      47.076  27.426  33.352  1.00  0.00     0.001 A 
ATOM     64  C   UNL A   1      48.170  27.581  32.501  1.00  0.00     0.000 A 
ENDBRANCH  45  59
BRANCH  46  65
ATOM     65  C   UNL A   1      36.811  32.781  29.730  1.00  0.00    -0.014 A 
ATOM     66  C   UNL A   1      35.762  32.639  30.651  1.00  0.00     0.009 A 
ATOM     67  C   UNL A   1      36.573  33.476  28.534  1.00  0.00     0.009 A 
ATOM     68  C   UNL A   1      34.494  33.149  30.365  1.00  0.00     0.001 A 
ATOM     69  C   UNL A   1      35.313  34.014  28.265  1.00  0.00     0.001 A 
ATOM     70  C   UNL A   1      34.271  33.839  29.174  1.00  0.00     0.000 A 
ENDBRANCH  46  65
BRANCH  58  71
ATOM     71  C   UNL A   1      42.303  34.913  33.428  1.00  0.00    -0.014 A 
ATOM     72  C   UNL A   1      43.006  35.991  32.869  1.00  0.00     0.009 A 
ATOM     73  C   UNL A   1      41.809  35.028  34.737  1.00  0.00     0.009 A 
ATOM     74  C   UNL A   1      43.239  37.146  33.618  1.00  0.00     0.001 A 
ATOM     75  C   UNL A   1      42.015  36.195  35.472  1.00  0.00     0.001 A 
ATOM     76  C   UNL A   1      42.739  37.249  34.916  1.00  0.00     0.000 A 
ENDBRANCH  58  71
ENDBRANCH  32  33
ENDBRANCH  24  27
ENDBRANCH  22  23
ENDBRANCH  21  22
ENDBRANCH   1  21
TORSDOF 13
ENDMDL
MODEL 2
REMARK VINA RESULT:     -10.0      3.962      9.490
REMARK SMILES CC[C@@H]1CCC[C@@H](Oc2cncc(C(=O)NCCCNC(=O)c3ccc(-c4c5nc(c(-c6ccccc6)c6ccc([nH]6)c(-c6ccccc6)c6nc(c(-c7ccccc7)c7ccc4[nH]7)C=C6)C=C5)cc3)n2)C1
REMARK SMILES IDX 17 1 16 2 14 3 15 4 13 6 9 7 10 8 71 9 11 10 12 11 8 12 7 13
REMARK SMILES IDX 3 14 4 15 72 16 5 17 6 18 2 19 1 20 18 21 19 22 20 23 21 24
REMARK SMILES IDX 22 26 23 27 24 28 70 29 25 30 69 31 26 32 27 33 28 34 63 35
REMARK SMILES IDX 29 36 68 37 62 38 64 39 30 40 67 41 61 42 60 43 31 45 53 46
REMARK SMILES IDX 38 47 52 48 39 49 42 50 51 51 65 52 40 53 41 54 50 56 66 57
REMARK SMILES IDX 43 58 32 59 33 60 37 61 34 62 36 63 35 64 54 65 55 66 59 67
REMARK SMILES IDX 56 68 58 69 57 70 44 71 45 72 49 73 46 74 48 75 47 76
REMARK H PARENT 16 5 20 25 64 44 42 55
REMARK Flexibility Score: inf
ROOT
ATOM      1  C   UNL A   1      36.387  20.867  25.266  1.00  0.00     0.118 C 
ENDROOT
BRANCH   1   2
ATOM      2  N   UNL A   1      35.281  19.982  24.943  1.00  0.00    -0.351 N 
ATOM      3  C   UNL A   1      33.943  20.066  25.239  1.00  0.00     0.271 C 
ATOM      4  O   UNL A   1      33.228  19.116  24.912  1.00  0.00    -0.267 OA
ATOM      5  H   UNL A   1      35.535  19.185  24.425  1.00  0.00     0.163 HD
BRANCH   3   6
ATOM      6  C   UNL A   1      33.329  21.245  25.905  1.00  0.00     0.150 A 
ATOM      7  C   UNL A   1      32.008  23.150  25.849  1.00  0.00     0.233 A 
ATOM      8  C   UNL A   1      32.204  23.263  27.213  1.00  0.00     0.179 A 
ATOM      9  N   UNL A   1      32.602  22.135  25.182  1.00  0.00    -0.205 NA
ATOM     10  N   UNL A   1      32.940  22.397  27.960  1.00  0.00    -0.257 NA
ATOM     11  C   UNL A   1      33.496  21.379  27.272  1.00  0.00     0.145 A 
BRANCH   7  12
ATOM     12  O   UNL A   1      31.303  23.941  25.017  1.00  0.00    -0.473 OA
BRANCH  12  13
ATOM     13  C   UNL A   1      31.564  25.273  24.571  1.00  0.00     0.175 C 
ATOM     14  C   UNL A   1      32.081  26.815  26.549  1.00  0.00    -0.008 C 
ATOM     15  C   UNL A   1      33.497  27.034  25.970  1.00  0.00     0.004 C 
ATOM     16  C   UNL A   1      31.081  26.419  25.464  1.00  0.00     0.048 C 
ATOM     17  C   UNL A   1      33.996  26.027  24.925  1.00  0.00     0.004 C 
ATOM     18  C   UNL A   1      32.939  25.516  23.959  1.00  0.00     0.045 C 
BRANCH  14  19
ATOM     19  C   UNL A   1      31.663  28.058  27.366  1.00  0.00     0.000 C 
ATOM     20  C   UNL A   1      32.634  29.229  27.297  1.00  0.00     0.004 C 
ENDBRANCH  14  19
ENDBRANCH  12  13
ENDBRANCH   7  12
ENDBRANCH   3   6
ENDBRANCH   1   2
BRANCH   1  21
ATOM     21  C   UNL A   1      37.725  20.250  24.871  1.00  0.00     0.042 C 
BRANCH  21  22
ATOM     22  C   UNL A   1      38.846  20.559  25.863  1.00  0.00     0.118 C 
BRANCH  22  23
ATOM     23  N   UNL A   1      39.834  19.488  25.938  1.00  0.00    -0.352 N 
ATOM     24  C   UNL A   1      41.193  19.543  26.113  1.00  0.00     0.251 C 
ATOM     25  H   UNL A   1      39.466  18.580  25.848  1.00  0.00     0.163 HD
ATOM     26  O   UNL A   1      41.881  18.553  25.899  1.00  0.00    -0.269 OA
BRANCH  24  27
ATOM     27  C   UNL A   1      41.825  20.801  26.552  1.00  0.00     0.039 A 
ATOM     28  C   UNL A   1      42.300  21.693  25.588  1.00  0.00     0.014 A 
ATOM     29  C   UNL A   1      41.958  21.092  27.912  1.00  0.00     0.014 A 
ATOM     30  C   UNL A   1      42.833  22.917  25.988  1.00  0.00     0.010 A 
ATOM     31  C   UNL A   1      42.424  22.341  28.307  1.00  0.00     0.010 A 
ATOM     32  C   UNL A   1      42.853  23.270  27.347  1.00  0.00    -0.014 A 
BRANCH  32  33
ATOM     33  C   UNL A   1      43.266  24.626  27.784  1.00  0.00     0.031 A 
ATOM     34  C   UNL A   1      42.236  25.675  28.087  1.00  0.00     0.074 A 
ATOM     35  C   UNL A   1      44.579  24.927  27.823  1.00  0.00     0.049 A 
ATOM     36  N   UNL A   1      42.411  26.934  28.397  1.00  0.00    -0.248 NA
ATOM     37  C   UNL A   1      40.824  25.263  28.015  1.00  0.00     0.031 C 
ATOM     38  C   UNL A   1      45.672  24.002  27.512  1.00  0.00     0.029 A 
ATOM     39  N   UNL A   1      45.217  26.102  28.129  1.00  0.00    -0.354 N 
ATOM     40  C   UNL A   1      41.138  27.467  28.548  1.00  0.00     0.074 A 
ATOM     41  C   UNL A   1      40.198  26.408  28.251  1.00  0.00     0.031 C 
ATOM     42  C   UNL A   1      46.844  24.637  27.666  1.00  0.00     0.029 A 
ATOM     43  C   UNL A   1      46.585  26.025  28.035  1.00  0.00     0.049 A 
ATOM     44  H   UNL A   1      44.740  26.922  28.392  1.00  0.00     0.167 HD
ATOM     45  C   UNL A   1      40.785  28.720  28.918  1.00  0.00     0.031 A 
ATOM     46  C   UNL A   1      47.528  26.971  28.205  1.00  0.00     0.031 A 
ATOM     47  C   UNL A   1      41.724  29.772  29.208  1.00  0.00     0.049 A 
ATOM     48  C   UNL A   1      47.103  28.366  28.567  1.00  0.00     0.074 A 
ATOM     49  C   UNL A   1      41.465  31.062  29.637  1.00  0.00     0.029 A 
ATOM     50  N   UNL A   1      43.100  29.657  29.092  1.00  0.00    -0.354 N 
ATOM     51  N   UNL A   1      45.896  28.834  28.776  1.00  0.00    -0.248 NA
ATOM     52  C   UNL A   1      48.172  29.363  28.721  1.00  0.00     0.031 C 
ATOM     53  C   UNL A   1      42.682  31.746  29.724  1.00  0.00     0.029 A 
ATOM     54  C   UNL A   1      43.702  30.863  29.408  1.00  0.00     0.049 A 
ATOM     55  H   UNL A   1      43.578  28.839  28.825  1.00  0.00     0.167 HD
ATOM     56  C   UNL A   1      46.063  30.173  29.105  1.00  0.00     0.074 A 
ATOM     57  C   UNL A   1      47.488  30.434  29.095  1.00  0.00     0.031 C 
ATOM     58  C   UNL A   1      45.121  31.106  29.385  1.00  0.00     0.031 A 
BRANCH  45  59
ATOM     59  C   UNL A   1      39.318  29.030  29.024  1.00  0.00    -0.014 A 
ATOM     60  C   UNL A   1      38.587  29.472  27.910  1.00  0.00     0.009 A 
ATOM     61  C   UNL A   1      38.643  28.818  30.237  1.00  0.00     0.009 A 
ATOM     62  C   UNL A   1      37.217  29.724  28.016  1.00  0.00     0.001 A 
ATOM     63  C   UNL A   1      37.269  29.042  30.333  1.00  0.00     0.001 A 
ATOM     64  C   UNL A   1      36.558  29.503  29.225  1.00  0.00     0.000 A 
ENDBRANCH  45  59
BRANCH  46  65
ATOM     65  C   UNL A   1      48.966  26.640  28.023  1.00  0.00    -0.014 A 
ATOM     66  C   UNL A   1      49.557  26.696  26.752  1.00  0.00     0.009 A 
ATOM     67  C   UNL A   1      49.752  26.245  29.118  1.00  0.00     0.009 A 
ATOM     68  C   UNL A   1      50.892  26.329  26.574  1.00  0.00     0.001 A 
ATOM     69  C   UNL A   1      51.096  25.910  28.943  1.00  0.00     0.001 A 
ATOM     70  C   UNL A   1      51.662  25.940  27.669  1.00  0.00     0.000 A 
ENDBRANCH  46  65
BRANCH  58  71
ATOM     71  C   UNL A   1      45.606  32.487  29.724  1.00  0.00    -0.014 A 
ATOM     72  C   UNL A   1      45.951  32.833  31.040  1.00  0.00     0.009 A 
ATOM     73  C   UNL A   1      45.752  33.444  28.708  1.00  0.00     0.009 A 
ATOM     74  C   UNL A   1      46.401  34.121  31.337  1.00  0.00     0.001 A 
ATOM     75  C   UNL A   1      46.232  34.721  29.002  1.00  0.00     0.001 A 
ATOM     76  C   UNL A   1      46.546  35.062  30.317  1.00  0.00     0.000 A 
ENDBRANCH  58  71
ENDBRANCH  32  33
ENDBRANCH  24  27
ENDBRANCH  22  23
ENDBRANCH  21  22
ENDBRANCH   1  21
TORSDOF 13
ENDMDL
MODEL 3
REMARK VINA RESULT:     -10.0      3.679      9.427
REMARK SMILES CC[C@@H]1CCC[C@@H](Oc2cncc(C(=O)NCCCNC(=O)c3ccc(-c4c5nc(c(-c6ccccc6)c6ccc([nH]6)c(-c6ccccc6)c6nc(c(-c7ccccc7)c7ccc4[nH]7)C=C6)C=C5)cc3)n2)C1
REMARK SMILES IDX 17 1 16 2 14 3 15 4 13 6 9 7 10 8 71 9 11 10 12 11 8 12 7 13
REMARK SMILES IDX 3 14 4 15 72 16 5 17 6 18 2 19 1 20 18 21 19 22 20 23 21 24
REMARK SMILES IDX 22 26 23 27 24 28 70 29 25 30 69 31 26 32 27 33 28 34 63 35
REMARK SMILES IDX 29 36 68 37 62 38 64 39 30 40 67 41 61 42 60 43 31 45 53 46
REMARK SMILES IDX 38 47 52 48 39 49 42 50 51 51 65 52 40 53 41 54 50 56 66 57
REMARK SMILES IDX 43 58 32 59 33 60 37 61 34 62 36 63 35 64 54 65 55 66 59 67
REMARK SMILES IDX 56 68 58 69 57 70 44 71 45 72 49 73 46 74 48 75 47 76
REMARK H PARENT 16 5 20 25 64 44 42 55
REMARK Flexibility Score: inf
ROOT
ATOM      1  C   UNL A   1      32.064  28.727  25.169  1.00  0.00     0.118 C 
ENDROOT
BRANCH   1   2
ATOM      2  N   UNL A   1      31.427  27.669  25.935  1.00  0.00    -0.351 N 
ATOM      3  C   UNL A   1      31.378  26.312  25.730  1.00  0.00     0.271 C 
ATOM      4  O   UNL A   1      30.683  25.645  26.500  1.00  0.00    -0.267 OA
ATOM      5  H   UNL A   1      30.949  27.978  26.736  1.00  0.00     0.163 HD
BRANCH   3   6
ATOM      6  C   UNL A   1      32.134  25.625  24.649  1.00  0.00     0.150 A 
ATOM      7  C   UNL A   1      34.000  24.478  23.889  1.00  0.00     0.233 A 
ATOM      8  C   UNL A   1      33.354  24.333  22.676  1.00  0.00     0.179 A 
ATOM      9  N   UNL A   1      33.387  25.157  24.883  1.00  0.00    -0.205 NA
ATOM     10  N   UNL A   1      32.107  24.805  22.407  1.00  0.00    -0.257 NA
ATOM     11  C   UNL A   1      31.508  25.452  23.427  1.00  0.00     0.145 A 
BRANCH   7  12
ATOM     12  O   UNL A   1      35.224  24.054  24.263  1.00  0.00    -0.473 OA
BRANCH  12  13
ATOM     13  C   UNL A   1      35.627  23.304  25.411  1.00  0.00     0.175 C 
ATOM     14  C   UNL A   1      37.082  21.308  24.735  1.00  0.00    -0.008 C 
ATOM     15  C   UNL A   1      38.253  21.930  25.530  1.00  0.00     0.004 C 
ATOM     16  C   UNL A   1      35.728  21.785  25.256  1.00  0.00     0.048 C 
ATOM     17  C   UNL A   1      38.151  23.418  25.888  1.00  0.00     0.004 C 
ATOM     18  C   UNL A   1      36.755  23.907  26.241  1.00  0.00     0.045 C 
BRANCH  14  19
ATOM     19  C   UNL A   1      37.240  19.772  24.704  1.00  0.00     0.000 C 
ATOM     20  C   UNL A   1      38.495  19.242  25.385  1.00  0.00     0.004 C 
ENDBRANCH  14  19
ENDBRANCH  12  13
ENDBRANCH   7  12
ENDBRANCH   3   6
ENDBRANCH   1   2
BRANCH   1  21
ATOM     21  C   UNL A   1      33.478  29.003  25.673  1.00  0.00     0.042 C 
BRANCH  21  22
ATOM     22  C   UNL A   1      33.576  29.040  27.198  1.00  0.00     0.118 C 
BRANCH  22  23
ATOM     23  N   UNL A   1      33.672  30.400  27.716  1.00  0.00    -0.352 N 
ATOM     24  C   UNL A   1      34.646  30.994  28.477  1.00  0.00     0.251 C 
ATOM     25  H   UNL A   1      32.917  30.986  27.483  1.00  0.00     0.163 HD
ATOM     26  O   UNL A   1      34.431  32.069  29.022  1.00  0.00    -0.269 OA
BRANCH  24  27
ATOM     27  C   UNL A   1      35.953  30.331  28.643  1.00  0.00     0.039 A 
ATOM     28  C   UNL A   1      36.849  30.323  27.573  1.00  0.00     0.014 A 
ATOM     29  C   UNL A   1      36.285  29.710  29.849  1.00  0.00     0.014 A 
ATOM     30  C   UNL A   1      38.116  29.763  27.741  1.00  0.00     0.010 A 
ATOM     31  C   UNL A   1      37.571  29.216  30.039  1.00  0.00     0.010 A 
ATOM     32  C   UNL A   1      38.502  29.251  28.990  1.00  0.00    -0.014 A 
BRANCH  32  33
ATOM     33  C   UNL A   1      39.892  28.797  29.239  1.00  0.00     0.031 A 
ATOM     34  C   UNL A   1      40.904  29.733  29.833  1.00  0.00     0.074 A 
ATOM     35  C   UNL A   1      40.255  27.560  28.846  1.00  0.00     0.049 A 
ATOM     36  N   UNL A   1      42.181  29.540  30.041  1.00  0.00    -0.248 NA
ATOM     37  C   UNL A   1      40.425  31.068  30.229  1.00  0.00     0.031 C 
ATOM     38  C   UNL A   1      39.370  26.574  28.221  1.00  0.00     0.029 A 
ATOM     39  N   UNL A   1      41.469  26.925  28.902  1.00  0.00    -0.354 N 
ATOM     40  C   UNL A   1      42.660  30.726  30.581  1.00  0.00     0.074 A 
ATOM     41  C   UNL A   1      41.548  31.650  30.628  1.00  0.00     0.031 C 
ATOM     42  C   UNL A   1      40.064  25.452  27.975  1.00  0.00     0.029 A 
ATOM     43  C   UNL A   1      41.451  25.657  28.374  1.00  0.00     0.049 A 
ATOM     44  H   UNL A   1      42.277  27.338  29.285  1.00  0.00     0.167 HD
ATOM     45  C   UNL A   1      43.910  31.012  31.015  1.00  0.00     0.031 A 
ATOM     46  C   UNL A   1      42.446  24.765  28.209  1.00  0.00     0.031 A 
ATOM     47  C   UNL A   1      45.015  30.091  30.963  1.00  0.00     0.049 A 
ATOM     48  C   UNL A   1      43.834  25.130  28.657  1.00  0.00     0.074 A 
ATOM     49  C   UNL A   1      46.308  30.272  31.423  1.00  0.00     0.029 A 
ATOM     50  N   UNL A   1      44.958  28.820  30.413  1.00  0.00    -0.354 N 
ATOM     51  N   UNL A   1      44.254  26.231  29.232  1.00  0.00    -0.248 NA
ATOM     52  C   UNL A   1      44.884  24.126  28.435  1.00  0.00     0.031 C 
ATOM     53  C   UNL A   1      47.050  29.131  31.096  1.00  0.00     0.029 A 
ATOM     54  C   UNL A   1      46.203  28.218  30.490  1.00  0.00     0.049 A 
ATOM     55  H   UNL A   1      44.153  28.408  30.025  1.00  0.00     0.167 HD
ATOM     56  C   UNL A   1      45.611  26.043  29.458  1.00  0.00     0.074 A 
ATOM     57  C   UNL A   1      45.937  24.715  28.984  1.00  0.00     0.031 C 
ATOM     58  C   UNL A   1      46.510  26.897  30.005  1.00  0.00     0.031 A 
BRANCH  45  59
ATOM     59  C   UNL A   1      44.155  32.383  31.582  1.00  0.00    -0.014 A 
ATOM     60  C   UNL A   1      44.541  33.451  30.756  1.00  0.00     0.009 A 
ATOM     61  C   UNL A   1      43.939  32.626  32.948  1.00  0.00     0.009 A 
ATOM     62  C   UNL A   1      44.733  34.726  31.291  1.00  0.00     0.001 A 
ATOM     63  C   UNL A   1      44.103  33.908  33.474  1.00  0.00     0.001 A 
ATOM     64  C   UNL A   1      44.508  34.956  32.647  1.00  0.00     0.000 A 
ENDBRANCH  45  59
BRANCH  46  65
ATOM     65  C   UNL A   1      42.175  23.445  27.582  1.00  0.00    -0.014 A 
ATOM     66  C   UNL A   1      42.464  23.226  26.227  1.00  0.00     0.009 A 
ATOM     67  C   UNL A   1      41.605  22.402  28.330  1.00  0.00     0.009 A 
ATOM     68  C   UNL A   1      42.155  22.004  25.625  1.00  0.00     0.001 A 
ATOM     69  C   UNL A   1      41.328  21.170  27.734  1.00  0.00     0.001 A 
ATOM     70  C   UNL A   1      41.591  20.976  26.379  1.00  0.00     0.000 A 
ENDBRANCH  46  65
BRANCH  58  71
ATOM     71  C   UNL A   1      47.924  26.409  30.138  1.00  0.00    -0.014 A 
ATOM     72  C   UNL A   1      48.370  25.782  31.313  1.00  0.00     0.009 A 
ATOM     73  C   UNL A   1      48.814  26.545  29.061  1.00  0.00     0.009 A 
ATOM     74  C   UNL A   1      49.688  25.334  31.418  1.00  0.00     0.001 A 
ATOM     75  C   UNL A   1      50.121  26.068  29.156  1.00  0.00     0.001 A 
ATOM     76  C   UNL A   1      50.560  25.472  30.338  1.00  0.00     0.000 A 
ENDBRANCH  58  71
ENDBRANCH  32  33
ENDBRANCH  24  27
ENDBRANCH  22  23
ENDBRANCH  21  22
ENDBRANCH   1  21
TORSDOF 13
ENDMDL
