MODEL 1
REMARK VINA RESULT:     -12.6      0.000      0.000
REMARK SMILES O=C(NCCCNC(=O)[C@]1(NC(=O)C2CCN(C(=O)C3CC3)CC2)CCCc2ccccc21)c1ccc(-c2c3nc(c(-c4ccccc4)c4ccc([nH]4)c(-c4ccccc4)c4nc(c(-c5ccccc5)c5ccc2[nH]5)C=C4)C=C3)cc1
REMARK SMILES IDX 5 1 4 2 3 3 1 4 2 5 34 7 35 8 81 9 36 10 80 11 37 12 38 13
REMARK SMILES IDX 39 14 74 15 40 16 79 17 73 18 75 19 41 20 78 21 72 22 71 23
REMARK SMILES IDX 42 25 64 26 49 27 63 28 50 29 53 30 62 31 76 32 51 33 52 34
REMARK SMILES IDX 61 36 77 37 54 38 43 39 44 40 48 41 45 42 47 43 46 44 65 45
REMARK SMILES IDX 66 46 70 47 67 48 69 49 68 50 55 51 56 52 60 53 57 54 59 55
REMARK SMILES IDX 58 56 6 57 7 58 8 59 9 61 10 62 25 63 33 64 26 65 28 66
REMARK SMILES IDX 32 67 27 68 29 69 31 70 30 71 11 72 12 73 13 75 14 76 15 77
REMARK SMILES IDX 24 78 16 79 23 80 17 81 18 82 19 83 20 84 21 85 22 86
REMARK H PARENT 3 6 75 24 53 35 7 60 11 74
REMARK Flexibility Score: inf
ROOT
ATOM      1  C   UNL A   1      34.168  28.313  26.118  1.00  0.00     0.042 C 
ENDROOT
BRANCH   1   2
ATOM      2  C   UNL A   1      33.464  28.690  27.425  1.00  0.00     0.118 C 
BRANCH   2   3
ATOM      3  N   UNL A   1      33.506  30.113  27.711  1.00  0.00    -0.352 N 
ATOM      4  O   UNL A   1      34.261  32.052  28.563  1.00  0.00    -0.269 OA
ATOM      5  C   UNL A   1      34.509  30.889  28.253  1.00  0.00     0.251 C 
ATOM      6  H   UNL A   1      32.684  30.604  27.481  1.00  0.00     0.163 HD
BRANCH   5   7
ATOM      7  C   UNL A   1      35.882  30.364  28.492  1.00  0.00     0.039 A 
ATOM      8  C   UNL A   1      36.228  29.720  29.678  1.00  0.00     0.014 A 
ATOM      9  C   UNL A   1      36.819  30.408  27.452  1.00  0.00     0.014 A 
ATOM     10  C   UNL A   1      37.533  29.230  29.853  1.00  0.00     0.010 A 
ATOM     11  C   UNL A   1      38.113  29.876  27.620  1.00  0.00     0.010 A 
ATOM     12  C   UNL A   1      38.515  29.318  28.842  1.00  0.00    -0.014 A 
BRANCH  12  13
ATOM     13  C   UNL A   1      39.930  28.855  29.091  1.00  0.00     0.031 A 
ATOM     14  C   UNL A   1      40.934  29.702  29.861  1.00  0.00     0.074 A 
ATOM     15  C   UNL A   1      40.327  27.621  28.706  1.00  0.00     0.049 A 
ATOM     16  N   UNL A   1      42.156  29.395  30.242  1.00  0.00    -0.248 NA
ATOM     17  C   UNL A   1      40.506  31.039  30.300  1.00  0.00     0.031 C 
ATOM     18  C   UNL A   1      39.503  26.652  27.986  1.00  0.00     0.029 A 
ATOM     19  N   UNL A   1      41.523  26.960  28.891  1.00  0.00    -0.354 N 
ATOM     20  C   UNL A   1      42.624  30.482  30.977  1.00  0.00     0.074 A 
ATOM     21  C   UNL A   1      41.566  31.469  30.971  1.00  0.00     0.031 C 
ATOM     22  C   UNL A   1      40.186  25.506  27.850  1.00  0.00     0.029 A 
ATOM     23  C   UNL A   1      41.534  25.684  28.381  1.00  0.00     0.049 A 
ATOM     24  H   UNL A   1      42.297  27.365  29.346  1.00  0.00     0.167 HD
ATOM     25  C   UNL A   1      43.813  30.658  31.609  1.00  0.00     0.031 A 
ATOM     26  C   UNL A   1      42.512  24.759  28.300  1.00  0.00     0.031 A 
ATOM     27  C   UNL A   1      44.914  29.727  31.589  1.00  0.00     0.049 A 
ATOM     28  C   UNL A   1      43.883  25.056  28.836  1.00  0.00     0.074 A 
ATOM     29  C   UNL A   1      46.161  29.857  32.182  1.00  0.00     0.029 A 
ATOM     30  N   UNL A   1      44.919  28.512  30.926  1.00  0.00    -0.354 N 
ATOM     31  N   UNL A   1      44.299  26.097  29.513  1.00  0.00    -0.248 NA
ATOM     32  C   UNL A   1      44.926  24.050  28.579  1.00  0.00     0.031 C 
ATOM     33  C   UNL A   1      46.950  28.765  31.802  1.00  0.00     0.029 A 
ATOM     34  C   UNL A   1      46.165  27.913  31.044  1.00  0.00     0.049 A 
ATOM     35  H   UNL A   1      44.152  28.131  30.442  1.00  0.00     0.167 HD
ATOM     36  C   UNL A   1      45.641  25.861  29.784  1.00  0.00     0.074 A 
ATOM     37  C   UNL A   1      45.968  24.573  29.209  1.00  0.00     0.031 C 
ATOM     38  C   UNL A   1      46.516  26.645  30.459  1.00  0.00     0.031 A 
BRANCH  25  39
ATOM     39  C   UNL A   1      44.029  31.962  32.335  1.00  0.00    -0.014 A 
ATOM     40  C   UNL A   1      43.726  32.104  33.698  1.00  0.00     0.009 A 
ATOM     41  C   UNL A   1      44.608  33.044  31.652  1.00  0.00     0.009 A 
ATOM     42  C   UNL A   1      43.976  33.313  34.354  1.00  0.00     0.001 A 
ATOM     43  C   UNL A   1      44.880  34.241  32.315  1.00  0.00     0.001 A 
ATOM     44  C   UNL A   1      44.556  34.379  33.664  1.00  0.00     0.000 A 
ENDBRANCH  25  39
BRANCH  26  45
ATOM     45  C   UNL A   1      42.242  23.466  27.613  1.00  0.00    -0.014 A 
ATOM     46  C   UNL A   1      42.551  23.286  26.257  1.00  0.00     0.009 A 
ATOM     47  C   UNL A   1      41.671  22.397  28.325  1.00  0.00     0.009 A 
ATOM     48  C   UNL A   1      42.294  22.064  25.629  1.00  0.00     0.001 A 
ATOM     49  C   UNL A   1      41.451  21.166  27.706  1.00  0.00     0.001 A 
ATOM     50  C   UNL A   1      41.757  21.003  26.358  1.00  0.00     0.000 A 
ENDBRANCH  26  45
BRANCH  38  51
ATOM     51  C   UNL A   1      47.915  26.121  30.647  1.00  0.00    -0.014 A 
ATOM     52  C   UNL A   1      48.340  25.584  31.873  1.00  0.00     0.009 A 
ATOM     53  C   UNL A   1      48.821  26.158  29.576  1.00  0.00     0.009 A 
ATOM     54  C   UNL A   1      49.656  25.141  32.034  1.00  0.00     0.001 A 
ATOM     55  C   UNL A   1      50.126  25.684  29.729  1.00  0.00     0.001 A 
ATOM     56  C   UNL A   1      50.546  25.189  30.961  1.00  0.00     0.000 A 
ENDBRANCH  38  51
ENDBRANCH  12  13
ENDBRANCH   5   7
ENDBRANCH   2   3
ENDBRANCH   1   2
BRANCH   1  57
ATOM     57  C   UNL A   1      34.139  26.850  25.623  1.00  0.00     0.117 C 
BRANCH  57  58
ATOM     58  N   UNL A   1      33.243  25.889  26.262  1.00  0.00    -0.354 N 
ATOM     59  C   UNL A   1      32.638  24.718  25.862  1.00  0.00     0.250 C 
ATOM     60  H   UNL A   1      33.022  26.135  27.189  1.00  0.00     0.163 HD
ATOM     61  O   UNL A   1      32.055  24.115  26.775  1.00  0.00    -0.272 OA
BRANCH  59  62
ATOM     62  C   UNL A   1      32.676  24.104  24.382  1.00  0.00     0.145 C 
ATOM     63  C   UNL A   1      31.466  23.145  24.104  1.00  0.00     0.044 C 
ATOM     64  C   UNL A   1      33.985  23.267  24.236  1.00  0.00    -0.010 A 
ATOM     65  C   UNL A   1      31.504  21.813  24.832  1.00  0.00     0.008 C 
ATOM     66  C   UNL A   1      33.994  21.872  24.486  1.00  0.00    -0.042 A 
ATOM     67  C   UNL A   1      35.231  23.862  23.974  1.00  0.00     0.007 A 
ATOM     68  C   UNL A   1      32.742  21.037  24.451  1.00  0.00     0.036 C 
ATOM     69  C   UNL A   1      35.210  21.181  24.645  1.00  0.00     0.004 A 
ATOM     70  C   UNL A   1      36.435  23.175  24.162  1.00  0.00     0.000 A 
ATOM     71  C   UNL A   1      36.424  21.841  24.536  1.00  0.00     0.000 A 
BRANCH  62  72
ATOM     72  N   UNL A   1      32.558  25.182  23.366  1.00  0.00    -0.338 N 
ATOM     73  C   UNL A   1      31.473  26.002  23.142  1.00  0.00     0.224 C 
ATOM     74  H   UNL A   1      33.342  25.326  22.788  1.00  0.00     0.164 HD
ATOM     75  O   UNL A   1      31.316  26.436  21.999  1.00  0.00    -0.275 OA
BRANCH  73  76
ATOM     76  C   UNL A   1      30.565  26.455  24.302  1.00  0.00     0.082 C 
ATOM     77  C   UNL A   1      29.055  26.360  24.032  1.00  0.00     0.035 C 
ATOM     78  C   UNL A   1      30.892  27.892  24.660  1.00  0.00     0.035 C 
ATOM     79  C   UNL A   1      28.500  27.449  23.109  1.00  0.00     0.120 C 
ATOM     80  C   UNL A   1      30.481  28.841  23.562  1.00  0.00     0.120 C 
ATOM     81  N   UNL A   1      29.056  28.772  23.366  1.00  0.00    -0.342 N 
ATOM     82  C   UNL A   1      28.252  29.887  23.248  1.00  0.00     0.225 C 
ATOM     83  O   UNL A   1      27.023  29.847  23.288  1.00  0.00    -0.275 OA
BRANCH  82  84
ATOM     84  C   UNL A   1      28.899  31.214  23.057  1.00  0.00     0.079 C 
ATOM     85  C   UNL A   1      28.734  32.128  21.857  1.00  0.00     0.014 C 
ATOM     86  C   UNL A   1      27.984  32.418  23.113  1.00  0.00     0.014 C 
ENDBRANCH  82  84
ENDBRANCH  73  76
ENDBRANCH  62  72
ENDBRANCH  59  62
ENDBRANCH  57  58
ENDBRANCH   1  57
TORSDOF 13
ENDMDL
MODEL 2
REMARK VINA RESULT:     -12.6      0.459      5.663
REMARK SMILES O=C(NCCCNC(=O)[C@]1(NC(=O)C2CCN(C(=O)C3CC3)CC2)CCCc2ccccc21)c1ccc(-c2c3nc(c(-c4ccccc4)c4ccc([nH]4)c(-c4ccccc4)c4nc(c(-c5ccccc5)c5ccc2[nH]5)C=C4)C=C3)cc1
REMARK SMILES IDX 5 1 4 2 3 3 1 4 2 5 34 7 35 8 81 9 36 10 80 11 37 12 38 13
REMARK SMILES IDX 39 14 74 15 40 16 79 17 73 18 75 19 41 20 78 21 72 22 71 23
REMARK SMILES IDX 42 25 64 26 49 27 63 28 50 29 53 30 62 31 76 32 51 33 52 34
REMARK SMILES IDX 61 36 77 37 54 38 43 39 44 40 48 41 45 42 47 43 46 44 65 45
REMARK SMILES IDX 66 46 70 47 67 48 69 49 68 50 55 51 56 52 60 53 57 54 59 55
REMARK SMILES IDX 58 56 6 57 7 58 8 59 9 61 10 62 25 63 33 64 26 65 28 66
REMARK SMILES IDX 32 67 27 68 29 69 31 70 30 71 11 72 12 73 13 75 14 76 15 77
REMARK SMILES IDX 24 78 16 79 23 80 17 81 18 82 19 83 20 84 21 85 22 86
REMARK H PARENT 3 6 75 24 53 35 7 60 11 74
REMARK Flexibility Score: inf
ROOT
ATOM      1  C   UNL A   1      34.136  28.278  26.075  1.00  0.00     0.042 C 
ENDROOT
BRANCH   1   2
ATOM      2  C   UNL A   1      33.488  28.671  27.406  1.00  0.00     0.118 C 
BRANCH   2   3
ATOM      3  N   UNL A   1      33.546  30.097  27.675  1.00  0.00    -0.352 N 
ATOM      4  O   UNL A   1      34.321  32.037  28.504  1.00  0.00    -0.269 OA
ATOM      5  C   UNL A   1      34.557  30.868  28.209  1.00  0.00     0.251 C 
ATOM      6  H   UNL A   1      32.730  30.594  27.437  1.00  0.00     0.163 HD
BRANCH   5   7
ATOM      7  C   UNL A   1      35.923  30.330  28.457  1.00  0.00     0.039 A 
ATOM      8  C   UNL A   1      36.281  29.766  29.679  1.00  0.00     0.014 A 
ATOM      9  C   UNL A   1      36.837  30.277  27.397  1.00  0.00     0.014 A 
ATOM     10  C   UNL A   1      37.579  29.260  29.863  1.00  0.00     0.010 A 
ATOM     11  C   UNL A   1      38.123  29.730  27.577  1.00  0.00     0.010 A 
ATOM     12  C   UNL A   1      38.540  29.252  28.827  1.00  0.00    -0.014 A 
BRANCH  12  13
ATOM     13  C   UNL A   1      39.950  28.777  29.080  1.00  0.00     0.031 A 
ATOM     14  C   UNL A   1      40.405  27.367  28.725  1.00  0.00     0.074 A 
ATOM     15  C   UNL A   1      40.887  29.627  29.557  1.00  0.00     0.049 A 
ATOM     16  N   UNL A   1      41.611  26.845  28.791  1.00  0.00    -0.248 NA
ATOM     17  C   UNL A   1      39.397  26.439  28.188  1.00  0.00     0.031 C 
ATOM     18  C   UNL A   1      40.655  31.022  29.926  1.00  0.00     0.029 A 
ATOM     19  N   UNL A   1      42.234  29.446  29.791  1.00  0.00    -0.354 N 
ATOM     20  C   UNL A   1      41.509  25.551  28.285  1.00  0.00     0.074 A 
ATOM     21  C   UNL A   1      40.117  25.354  27.939  1.00  0.00     0.031 C 
ATOM     22  C   UNL A   1      41.821  31.587  30.272  1.00  0.00     0.029 A 
ATOM     23  C   UNL A   1      42.872  30.575  30.249  1.00  0.00     0.049 A 
ATOM     24  H   UNL A   1      42.695  28.590  29.643  1.00  0.00     0.167 HD
ATOM     25  C   UNL A   1      42.467  24.605  28.113  1.00  0.00     0.031 A 
ATOM     26  C   UNL A   1      44.142  30.786  30.651  1.00  0.00     0.031 A 
ATOM     27  C   UNL A   1      43.850  24.740  28.499  1.00  0.00     0.049 A 
ATOM     28  C   UNL A   1      45.139  29.664  30.633  1.00  0.00     0.074 A 
ATOM     29  C   UNL A   1      44.870  23.807  28.382  1.00  0.00     0.029 A 
ATOM     30  N   UNL A   1      44.405  25.856  29.100  1.00  0.00    -0.354 N 
ATOM     31  N   UNL A   1      45.009  28.449  30.163  1.00  0.00    -0.248 NA
ATOM     32  C   UNL A   1      46.460  29.944  31.220  1.00  0.00     0.031 C 
ATOM     33  C   UNL A   1      46.017  24.325  28.994  1.00  0.00     0.029 A 
ATOM     34  C   UNL A   1      45.735  25.614  29.414  1.00  0.00     0.049 A 
ATOM     35  H   UNL A   1      43.927  26.697  29.278  1.00  0.00     0.167 HD
ATOM     36  C   UNL A   1      46.234  27.828  30.374  1.00  0.00     0.074 A 
ATOM     37  C   UNL A   1      47.099  28.802  31.004  1.00  0.00     0.031 C 
ATOM     38  C   UNL A   1      46.603  26.562  30.063  1.00  0.00     0.031 A 
BRANCH  25  39
ATOM     39  C   UNL A   1      42.042  23.281  27.532  1.00  0.00    -0.014 A 
ATOM     40  C   UNL A   1      42.241  22.974  26.176  1.00  0.00     0.009 A 
ATOM     41  C   UNL A   1      41.493  22.302  28.376  1.00  0.00     0.009 A 
ATOM     42  C   UNL A   1      41.873  21.721  25.676  1.00  0.00     0.001 A 
ATOM     43  C   UNL A   1      41.151  21.044  27.878  1.00  0.00     0.001 A 
ATOM     44  C   UNL A   1      41.333  20.757  26.527  1.00  0.00     0.000 A 
ENDBRANCH  25  39
BRANCH  26  45
ATOM     45  C   UNL A   1      44.531  32.124  31.176  1.00  0.00    -0.014 A 
ATOM     46  C   UNL A   1      45.030  33.121  30.325  1.00  0.00     0.009 A 
ATOM     47  C   UNL A   1      44.396  32.407  32.546  1.00  0.00     0.009 A 
ATOM     48  C   UNL A   1      45.387  34.372  30.837  1.00  0.00     0.001 A 
ATOM     49  C   UNL A   1      44.716  33.669  33.047  1.00  0.00     0.001 A 
ATOM     50  C   UNL A   1      45.217  34.648  32.193  1.00  0.00     0.000 A 
ENDBRANCH  26  45
BRANCH  38  51
ATOM     51  C   UNL A   1      48.022  26.158  30.366  1.00  0.00    -0.014 A 
ATOM     52  C   UNL A   1      49.041  26.278  29.408  1.00  0.00     0.009 A 
ATOM     53  C   UNL A   1      48.345  25.654  31.636  1.00  0.00     0.009 A 
ATOM     54  C   UNL A   1      50.342  25.859  29.702  1.00  0.00     0.001 A 
ATOM     55  C   UNL A   1      49.651  25.267  31.938  1.00  0.00     0.001 A 
ATOM     56  C   UNL A   1      50.646  25.357  30.966  1.00  0.00     0.000 A 
ENDBRANCH  38  51
ENDBRANCH  12  13
ENDBRANCH   5   7
ENDBRANCH   2   3
ENDBRANCH   1   2
BRANCH   1  57
ATOM     57  C   UNL A   1      34.049  26.817  25.579  1.00  0.00     0.117 C 
BRANCH  57  58
ATOM     58  N   UNL A   1      33.153  25.879  26.250  1.00  0.00    -0.354 N 
ATOM     59  C   UNL A   1      32.551  24.692  25.891  1.00  0.00     0.250 C 
ATOM     60  H   UNL A   1      32.930  26.157  27.167  1.00  0.00     0.163 HD
ATOM     61  O   UNL A   1      31.967  24.122  26.824  1.00  0.00    -0.272 OA
BRANCH  59  62
ATOM     62  C   UNL A   1      32.595  24.025  24.435  1.00  0.00     0.145 C 
ATOM     63  C   UNL A   1      31.380  23.066  24.184  1.00  0.00     0.044 C 
ATOM     64  C   UNL A   1      33.898  23.174  24.329  1.00  0.00    -0.010 A 
ATOM     65  C   UNL A   1      31.403  21.760  24.960  1.00  0.00     0.008 C 
ATOM     66  C   UNL A   1      33.895  21.790  24.628  1.00  0.00    -0.042 A 
ATOM     67  C   UNL A   1      35.150  23.751  24.053  1.00  0.00     0.007 A 
ATOM     68  C   UNL A   1      32.637  20.963  24.616  1.00  0.00     0.036 C 
ATOM     69  C   UNL A   1      35.105  21.095  24.820  1.00  0.00     0.004 A 
ATOM     70  C   UNL A   1      36.348  23.063  24.274  1.00  0.00     0.000 A 
ATOM     71  C   UNL A   1      36.325  21.743  24.695  1.00  0.00     0.000 A 
BRANCH  62  72
ATOM     72  N   UNL A   1      32.490  25.067  23.380  1.00  0.00    -0.338 N 
ATOM     73  C   UNL A   1      31.429  25.914  23.146  1.00  0.00     0.224 C 
ATOM     74  H   UNL A   1      33.266  25.161  22.781  1.00  0.00     0.164 HD
ATOM     75  O   UNL A   1      31.263  26.309  21.990  1.00  0.00    -0.275 OA
BRANCH  73  76
ATOM     76  C   UNL A   1      30.563  26.443  24.306  1.00  0.00     0.082 C 
ATOM     77  C   UNL A   1      29.045  26.327  24.100  1.00  0.00     0.035 C 
ATOM     78  C   UNL A   1      30.897  27.902  24.553  1.00  0.00     0.035 C 
ATOM     79  C   UNL A   1      28.451  27.349  23.127  1.00  0.00     0.120 C 
ATOM     80  C   UNL A   1      30.441  28.773  23.410  1.00  0.00     0.120 C 
ATOM     81  N   UNL A   1      29.010  28.688  23.273  1.00  0.00    -0.342 N 
ATOM     82  C   UNL A   1      28.196  29.791  23.109  1.00  0.00     0.225 C 
ATOM     83  O   UNL A   1      26.970  29.751  23.197  1.00  0.00    -0.275 OA
BRANCH  82  84
ATOM     84  C   UNL A   1      28.829  31.103  22.803  1.00  0.00     0.079 C 
ATOM     85  C   UNL A   1      28.406  32.073  21.716  1.00  0.00     0.014 C 
ATOM     86  C   UNL A   1      28.011  32.332  23.131  1.00  0.00     0.014 C 
ENDBRANCH  82  84
ENDBRANCH  73  76
ENDBRANCH  62  72
ENDBRANCH  59  62
ENDBRANCH  57  58
ENDBRANCH   1  57
TORSDOF 13
ENDMDL
MODEL 3
REMARK VINA RESULT:     -12.5      2.736      8.314
REMARK SMILES O=C(NCCCNC(=O)[C@]1(NC(=O)C2CCN(C(=O)C3CC3)CC2)CCCc2ccccc21)c1ccc(-c2c3nc(c(-c4ccccc4)c4ccc([nH]4)c(-c4ccccc4)c4nc(c(-c5ccccc5)c5ccc2[nH]5)C=C4)C=C3)cc1
REMARK SMILES IDX 5 1 4 2 3 3 1 4 2 5 34 7 35 8 81 9 36 10 80 11 37 12 38 13
REMARK SMILES IDX 39 14 74 15 40 16 79 17 73 18 75 19 41 20 78 21 72 22 71 23
REMARK SMILES IDX 42 25 64 26 49 27 63 28 50 29 53 30 62 31 76 32 51 33 52 34
REMARK SMILES IDX 61 36 77 37 54 38 43 39 44 40 48 41 45 42 47 43 46 44 65 45
REMARK SMILES IDX 66 46 70 47 67 48 69 49 68 50 55 51 56 52 60 53 57 54 59 55
REMARK SMILES IDX 58 56 6 57 7 58 8 59 9 61 10 62 25 63 33 64 26 65 28 66
REMARK SMILES IDX 32 67 27 68 29 69 31 70 30 71 11 72 12 73 13 75 14 76 15 77
REMARK SMILES IDX 24 78 16 79 23 80 17 81 18 82 19 83 20 84 21 85 22 86
REMARK H PARENT 3 6 75 24 53 35 7 60 11 74
REMARK Flexibility Score: inf
ROOT
ATOM      1  C   UNL A   1      36.195  23.634  26.048  1.00  0.00     0.042 C 
ENDROOT
BRANCH   1   2
ATOM      2  C   UNL A   1      37.298  23.375  25.018  1.00  0.00     0.118 C 
BRANCH   2   3
ATOM      3  N   UNL A   1      38.315  22.449  25.485  1.00  0.00    -0.352 N 
ATOM      4  O   UNL A   1      40.268  21.756  26.356  1.00  0.00    -0.269 OA
ATOM      5  C   UNL A   1      39.462  22.673  26.218  1.00  0.00     0.251 C 
ATOM      6  H   UNL A   1      38.160  21.509  25.239  1.00  0.00     0.163 HD
BRANCH   5   7
ATOM      7  C   UNL A   1      39.768  23.993  26.835  1.00  0.00     0.039 A 
ATOM      8  C   UNL A   1      40.474  24.980  26.151  1.00  0.00     0.014 A 
ATOM      9  C   UNL A   1      39.229  24.300  28.091  1.00  0.00     0.014 A 
ATOM     10  C   UNL A   1      40.729  26.215  26.771  1.00  0.00     0.010 A 
ATOM     11  C   UNL A   1      39.453  25.555  28.688  1.00  0.00     0.010 A 
ATOM     12  C   UNL A   1      40.249  26.525  28.062  1.00  0.00    -0.014 A 
BRANCH  12  13
ATOM     13  C   UNL A   1      40.609  27.829  28.732  1.00  0.00     0.031 A 
ATOM     14  C   UNL A   1      39.621  28.983  28.839  1.00  0.00     0.074 A 
ATOM     15  C   UNL A   1      41.807  27.981  29.341  1.00  0.00     0.049 A 
ATOM     16  N   UNL A   1      39.753  30.129  29.474  1.00  0.00    -0.248 NA
ATOM     17  C   UNL A   1      38.309  28.821  28.196  1.00  0.00     0.031 C 
ATOM     18  C   UNL A   1      42.873  26.981  29.375  1.00  0.00     0.029 A 
ATOM     19  N   UNL A   1      42.320  29.032  30.071  1.00  0.00    -0.354 N 
ATOM     20  C   UNL A   1      38.542  30.802  29.327  1.00  0.00     0.074 A 
ATOM     21  C   UNL A   1      37.693  29.950  28.521  1.00  0.00     0.031 C 
ATOM     22  C   UNL A   1      43.877  27.433  30.139  1.00  0.00     0.029 A 
ATOM     23  C   UNL A   1      43.579  28.795  30.570  1.00  0.00     0.049 A 
ATOM     24  H   UNL A   1      41.831  29.873  30.221  1.00  0.00     0.167 HD
ATOM     25  C   UNL A   1      38.152  32.009  29.811  1.00  0.00     0.031 A 
ATOM     26  C   UNL A   1      44.432  29.579  31.260  1.00  0.00     0.031 A 
ATOM     27  C   UNL A   1      38.985  32.912  30.566  1.00  0.00     0.049 A 
ATOM     28  C   UNL A   1      44.049  30.987  31.616  1.00  0.00     0.074 A 
ATOM     29  C   UNL A   1      38.663  34.168  31.061  1.00  0.00     0.029 A 
ATOM     30  N   UNL A   1      40.304  32.680  30.912  1.00  0.00    -0.354 N 
ATOM     31  N   UNL A   1      42.904  31.599  31.452  1.00  0.00    -0.248 NA
ATOM     32  C   UNL A   1      45.091  31.817  32.243  1.00  0.00     0.031 C 
ATOM     33  C   UNL A   1      39.813  34.731  31.625  1.00  0.00     0.029 A 
ATOM     34  C   UNL A   1      40.828  33.791  31.558  1.00  0.00     0.049 A 
ATOM     35  H   UNL A   1      40.799  31.850  30.725  1.00  0.00     0.167 HD
ATOM     36  C   UNL A   1      43.077  32.874  31.974  1.00  0.00     0.074 A 
ATOM     37  C   UNL A   1      44.434  32.946  32.472  1.00  0.00     0.031 C 
ATOM     38  C   UNL A   1      42.182  33.889  32.038  1.00  0.00     0.031 A 
BRANCH  25  39
ATOM     39  C   UNL A   1      36.758  32.475  29.478  1.00  0.00    -0.014 A 
ATOM     40  C   UNL A   1      35.685  32.280  30.363  1.00  0.00     0.009 A 
ATOM     41  C   UNL A   1      36.533  33.181  28.285  1.00  0.00     0.009 A 
ATOM     42  C   UNL A   1      34.411  32.760  30.045  1.00  0.00     0.001 A 
ATOM     43  C   UNL A   1      35.266  33.682  27.983  1.00  0.00     0.001 A 
ATOM     44  C   UNL A   1      34.204  33.464  28.858  1.00  0.00     0.000 A 
ENDBRANCH  25  39
BRANCH  26  45
ATOM     45  C   UNL A   1      45.785  29.062  31.608  1.00  0.00    -0.014 A 
ATOM     46  C   UNL A   1      46.025  28.423  32.833  1.00  0.00     0.009 A 
ATOM     47  C   UNL A   1      46.847  29.206  30.699  1.00  0.00     0.009 A 
ATOM     48  C   UNL A   1      47.300  27.941  33.140  1.00  0.00     0.001 A 
ATOM     49  C   UNL A   1      48.109  28.689  30.992  1.00  0.00     0.001 A 
ATOM     50  C   UNL A   1      48.336  28.063  32.214  1.00  0.00     0.000 A 
ENDBRANCH  26  45
BRANCH  38  51
ATOM     51  C   UNL A   1      42.625  35.165  32.704  1.00  0.00    -0.014 A 
ATOM     52  C   UNL A   1      42.311  35.443  34.044  1.00  0.00     0.009 A 
ATOM     53  C   UNL A   1      43.377  36.103  31.978  1.00  0.00     0.009 A 
ATOM     54  C   UNL A   1      42.700  36.653  34.627  1.00  0.00     0.001 A 
ATOM     55  C   UNL A   1      43.793  37.296  32.572  1.00  0.00     0.001 A 
ATOM     56  C   UNL A   1      43.443  37.576  33.891  1.00  0.00     0.000 A 
ENDBRANCH  38  51
ENDBRANCH  12  13
ENDBRANCH   5   7
ENDBRANCH   2   3
ENDBRANCH   1   2
BRANCH   1  57
ATOM     57  C   UNL A   1      35.050  24.620  25.719  1.00  0.00     0.117 C 
BRANCH  57  58
ATOM     58  N   UNL A   1      34.757  24.945  24.325  1.00  0.00    -0.354 N 
ATOM     59  C   UNL A   1      33.615  25.282  23.631  1.00  0.00     0.250 C 
ATOM     60  H   UNL A   1      35.557  24.918  23.752  1.00  0.00     0.163 HD
ATOM     61  O   UNL A   1      33.823  25.632  22.459  1.00  0.00    -0.272 OA
BRANCH  59  62
ATOM     62  C   UNL A   1      32.127  25.288  24.226  1.00  0.00     0.145 C 
ATOM     63  C   UNL A   1      31.038  25.191  23.102  1.00  0.00     0.044 C 
ATOM     64  C   UNL A   1      31.910  26.637  24.979  1.00  0.00    -0.010 A 
ATOM     65  C   UNL A   1      30.872  26.431  22.240  1.00  0.00     0.008 C 
ATOM     66  C   UNL A   1      31.328  27.753  24.330  1.00  0.00    -0.042 A 
ATOM     67  C   UNL A   1      32.385  26.852  26.284  1.00  0.00     0.007 A 
ATOM     68  C   UNL A   1      30.485  27.617  23.089  1.00  0.00     0.036 C 
ATOM     69  C   UNL A   1      31.404  29.036  24.904  1.00  0.00     0.004 A 
ATOM     70  C   UNL A   1      32.484  28.134  26.836  1.00  0.00     0.000 A 
ATOM     71  C   UNL A   1      32.026  29.233  26.128  1.00  0.00     0.000 A 
BRANCH  62  72
ATOM     72  N   UNL A   1      31.904  24.097  25.085  1.00  0.00    -0.338 N 
ATOM     73  C   UNL A   1      31.939  22.773  24.704  1.00  0.00     0.224 C 
ATOM     74  H   UNL A   1      31.708  24.273  26.034  1.00  0.00     0.164 HD
ATOM     75  O   UNL A   1      31.242  21.980  25.340  1.00  0.00    -0.275 OA
BRANCH  73  76
ATOM     76  C   UNL A   1      32.905  22.288  23.605  1.00  0.00     0.082 C 
ATOM     77  C   UNL A   1      32.256  21.490  22.463  1.00  0.00     0.035 C 
ATOM     78  C   UNL A   1      33.982  21.424  24.233  1.00  0.00     0.035 C 
ATOM     79  C   UNL A   1      31.869  20.053  22.825  1.00  0.00     0.120 C 
ATOM     80  C   UNL A   1      33.417  20.121  24.740  1.00  0.00     0.120 C 
ATOM     81  N   UNL A   1      32.864  19.370  23.644  1.00  0.00    -0.342 N 
ATOM     82  C   UNL A   1      33.102  18.024  23.449  1.00  0.00     0.225 C 
ATOM     83  O   UNL A   1      32.810  17.424  22.416  1.00  0.00    -0.275 OA
BRANCH  82  84
ATOM     84  C   UNL A   1      33.745  17.249  24.546  1.00  0.00     0.079 C 
ATOM     85  C   UNL A   1      33.049  16.673  25.765  1.00  0.00     0.014 C 
ATOM     86  C   UNL A   1      33.393  15.780  24.621  1.00  0.00     0.014 C 
ENDBRANCH  82  84
ENDBRANCH  73  76
ENDBRANCH  62  72
ENDBRANCH  59  62
ENDBRANCH  57  58
ENDBRANCH   1  57
TORSDOF 13
ENDMDL
