MODEL 1
REMARK VINA RESULT:     -12.8      0.000      0.000
REMARK SMILES CC(C)n1c2c(c3ccccc31)[C@@H](c1ccccc1)N(CC(=O)NCCCNC(=O)c1ccc(-c3c4nc(c(-c5ccccc5)c5ccc([nH]5)c(-c5ccccc5)c5nc(c(-c6ccccc6)c6ccc3[nH]6)C=C5)C=C4)cc1)C2=O
REMARK SMILES IDX 26 1 25 2 24 3 22 4 23 5 21 7 20 8 4 9 5 10 12 11 6 12 79 13
REMARK SMILES IDX 7 14 11 15 13 16 80 17 8 18 10 19 9 20 2 21 1 22 3 23 14 24
REMARK SMILES IDX 15 25 19 26 16 27 18 28 17 29 27 30 28 31 29 32 30 34 31 35
REMARK SMILES IDX 32 36 78 37 33 38 77 39 34 40 35 41 36 42 71 43 37 44 76 45
REMARK SMILES IDX 70 46 72 47 38 48 75 49 69 50 68 51 39 53 61 54 46 55 60 56
REMARK SMILES IDX 47 57 50 58 59 59 73 60 48 61 49 62 58 64 74 65 51 66 40 67
REMARK SMILES IDX 41 68 45 69 42 70 44 71 43 72 62 73 63 74 67 75 64 76 66 77
REMARK SMILES IDX 65 78 52 79 53 80 57 81 54 82 56 83 55 84
REMARK H PARENT 24 6 28 33 72 52 50 63
REMARK Flexibility Score: inf
ROOT
ATOM      1  C   UNL A   1      32.332  29.466  27.029  1.00  0.00     0.042 C 
ENDROOT
BRANCH   1   2
ATOM      2  C   UNL A   1      31.805  28.049  27.269  1.00  0.00     0.117 C 
BRANCH   2   3
ATOM      3  N   UNL A   1      30.954  27.588  26.185  1.00  0.00    -0.354 N 
ATOM      4  C   UNL A   1      30.637  26.316  25.808  1.00  0.00     0.239 C 
ATOM      5  O   UNL A   1      29.943  26.166  24.799  1.00  0.00    -0.273 OA
ATOM      6  H   UNL A   1      30.547  28.301  25.640  1.00  0.00     0.163 HD
BRANCH   4   7
ATOM      7  C   UNL A   1      31.173  25.108  26.583  1.00  0.00     0.220 C 
BRANCH   7   8
ATOM      8  N   UNL A   1      32.201  24.411  25.832  1.00  0.00    -0.317 N 
ATOM      9  N   UNL A   1      34.110  21.492  25.047  1.00  0.00    -0.334 N 
ATOM     10  C   UNL A   1      33.412  22.643  25.243  1.00  0.00     0.114 A 
ATOM     11  C   UNL A   1      35.473  21.804  25.131  1.00  0.00     0.049 A 
ATOM     12  C   UNL A   1      34.285  23.687  25.412  1.00  0.00     0.018 A 
ATOM     13  C   UNL A   1      32.069  23.081  25.436  1.00  0.00     0.272 C 
ATOM     14  C   UNL A   1      35.592  23.185  25.387  1.00  0.00     0.006 A 
ATOM     15  C   UNL A   1      36.619  20.999  25.007  1.00  0.00     0.027 A 
ATOM     16  C   UNL A   1      33.567  24.966  25.649  1.00  0.00     0.150 C 
ATOM     17  O   UNL A   1      31.037  22.427  25.400  1.00  0.00    -0.267 OA
ATOM     18  C   UNL A   1      36.865  23.761  25.546  1.00  0.00     0.011 A 
ATOM     19  C   UNL A   1      37.875  21.597  25.160  1.00  0.00     0.002 A 
ATOM     20  C   UNL A   1      37.999  22.956  25.431  1.00  0.00     0.001 A 
BRANCH   9  21
ATOM     21  C   UNL A   1      33.573  20.157  24.779  1.00  0.00     0.082 C 
ATOM     22  C   UNL A   1      32.956  19.459  25.992  1.00  0.00     0.031 C 
ATOM     23  C   UNL A   1      32.620  20.171  23.586  1.00  0.00     0.031 C 
ENDBRANCH   9  21
BRANCH  16  24
ATOM     24  C   UNL A   1      33.652  25.852  24.413  1.00  0.00    -0.021 A 
ATOM     25  C   UNL A   1      34.043  27.194  24.584  1.00  0.00     0.006 A 
ATOM     26  C   UNL A   1      33.326  25.442  23.106  1.00  0.00     0.006 A 
ATOM     27  C   UNL A   1      34.063  28.091  23.511  1.00  0.00     0.000 A 
ATOM     28  C   UNL A   1      33.366  26.333  22.028  1.00  0.00     0.000 A 
ATOM     29  C   UNL A   1      33.721  27.660  22.234  1.00  0.00     0.000 A 
ENDBRANCH  16  24
ENDBRANCH   7   8
ENDBRANCH   4   7
ENDBRANCH   2   3
ENDBRANCH   1   2
BRANCH   1  30
ATOM     30  C   UNL A   1      33.846  29.602  27.176  1.00  0.00     0.118 C 
BRANCH  30  31
ATOM     31  N   UNL A   1      34.283  30.972  27.339  1.00  0.00    -0.352 N 
ATOM     32  C   UNL A   1      35.405  31.585  27.810  1.00  0.00     0.251 C 
ATOM     33  H   UNL A   1      33.604  31.618  27.035  1.00  0.00     0.163 HD
ATOM     34  O   UNL A   1      35.424  32.815  27.702  1.00  0.00    -0.269 OA
BRANCH  32  35
ATOM     35  C   UNL A   1      36.537  30.917  28.503  1.00  0.00     0.039 A 
ATOM     36  C   UNL A   1      37.805  31.459  28.723  1.00  0.00     0.014 A 
ATOM     37  C   UNL A   1      36.307  29.572  28.850  1.00  0.00     0.014 A 
ATOM     38  C   UNL A   1      38.855  30.631  29.108  1.00  0.00     0.010 A 
ATOM     39  C   UNL A   1      37.342  28.750  29.258  1.00  0.00     0.010 A 
ATOM     40  C   UNL A   1      38.631  29.262  29.289  1.00  0.00    -0.014 A 
BRANCH  40  41
ATOM     41  C   UNL A   1      39.773  28.387  29.518  1.00  0.00     0.031 A 
ATOM     42  C   UNL A   1      40.231  28.301  30.931  1.00  0.00     0.074 A 
ATOM     43  C   UNL A   1      40.313  27.637  28.534  1.00  0.00     0.049 A 
ATOM     44  N   UNL A   1      41.387  28.616  31.416  1.00  0.00    -0.248 NA
ATOM     45  C   UNL A   1      39.238  27.916  31.945  1.00  0.00     0.031 C 
ATOM     46  C   UNL A   1      39.819  27.418  27.169  1.00  0.00     0.029 A 
ATOM     47  N   UNL A   1      41.396  26.816  28.590  1.00  0.00    -0.354 N 
ATOM     48  C   UNL A   1      41.325  28.331  32.779  1.00  0.00     0.074 A 
ATOM     49  C   UNL A   1      39.947  28.019  33.068  1.00  0.00     0.031 C 
ATOM     50  C   UNL A   1      40.448  26.348  26.626  1.00  0.00     0.029 A 
ATOM     51  C   UNL A   1      41.498  25.921  27.533  1.00  0.00     0.049 A 
ATOM     52  H   UNL A   1      42.055  26.853  29.321  1.00  0.00     0.167 HD
ATOM     53  C   UNL A   1      42.441  28.193  33.547  1.00  0.00     0.031 A 
ATOM     54  C   UNL A   1      42.357  24.875  27.438  1.00  0.00     0.031 A 
ATOM     55  C   UNL A   1      43.596  28.781  32.930  1.00  0.00     0.049 A 
ATOM     56  C   UNL A   1      43.471  25.144  28.376  1.00  0.00     0.074 A 
ATOM     57  C   UNL A   1      43.970  30.069  32.604  1.00  0.00     0.029 A 
ATOM     58  N   UNL A   1      44.421  27.957  32.204  1.00  0.00    -0.354 N 
ATOM     59  N   UNL A   1      44.307  26.131  28.232  1.00  0.00    -0.248 NA
ATOM     60  C   UNL A   1      43.369  24.594  29.718  1.00  0.00     0.031 C 
ATOM     61  C   UNL A   1      44.632  29.948  31.348  1.00  0.00     0.029 A 
ATOM     62  C   UNL A   1      44.689  28.593  31.018  1.00  0.00     0.049 A 
ATOM     63  H   UNL A   1      44.758  27.075  32.482  1.00  0.00     0.167 HD
ATOM     64  C   UNL A   1      44.510  26.611  29.518  1.00  0.00     0.074 A 
ATOM     65  C   UNL A   1      43.967  25.575  30.398  1.00  0.00     0.031 C 
ATOM     66  C   UNL A   1      44.843  27.915  29.747  1.00  0.00     0.031 A 
BRANCH  53  67
ATOM     67  C   UNL A   1      42.536  27.232  34.702  1.00  0.00    -0.014 A 
ATOM     68  C   UNL A   1      41.964  27.496  35.961  1.00  0.00     0.009 A 
ATOM     69  C   UNL A   1      42.978  25.918  34.473  1.00  0.00     0.009 A 
ATOM     70  C   UNL A   1      41.834  26.510  36.943  1.00  0.00     0.001 A 
ATOM     71  C   UNL A   1      42.815  24.916  35.440  1.00  0.00     0.001 A 
ATOM     72  C   UNL A   1      42.240  25.212  36.673  1.00  0.00     0.000 A 
ENDBRANCH  53  67
BRANCH  54  73
ATOM     73  C   UNL A   1      42.030  23.492  27.010  1.00  0.00    -0.014 A 
ATOM     74  C   UNL A   1      41.009  22.781  27.668  1.00  0.00     0.009 A 
ATOM     75  C   UNL A   1      42.912  22.764  26.196  1.00  0.00     0.009 A 
ATOM     76  C   UNL A   1      40.902  21.390  27.556  1.00  0.00     0.001 A 
ATOM     77  C   UNL A   1      42.803  21.370  26.081  1.00  0.00     0.001 A 
ATOM     78  C   UNL A   1      41.810  20.682  26.775  1.00  0.00     0.000 A 
ENDBRANCH  54  73
BRANCH  66  79
ATOM     79  C   UNL A   1      45.149  28.798  28.554  1.00  0.00    -0.014 A 
ATOM     80  C   UNL A   1      46.492  29.047  28.240  1.00  0.00     0.009 A 
ATOM     81  C   UNL A   1      44.162  29.532  27.869  1.00  0.00     0.009 A 
ATOM     82  C   UNL A   1      46.845  30.010  27.291  1.00  0.00     0.001 A 
ATOM     83  C   UNL A   1      44.514  30.480  26.899  1.00  0.00     0.001 A 
ATOM     84  C   UNL A   1      45.856  30.728  26.620  1.00  0.00     0.000 A 
ENDBRANCH  66  79
ENDBRANCH  40  41
ENDBRANCH  32  35
ENDBRANCH  30  31
ENDBRANCH   1  30
TORSDOF 13
ENDMDL
MODEL 2
REMARK VINA RESULT:     -12.8      2.645      8.005
REMARK SMILES CC(C)n1c2c(c3ccccc31)[C@@H](c1ccccc1)N(CC(=O)NCCCNC(=O)c1ccc(-c3c4nc(c(-c5ccccc5)c5ccc([nH]5)c(-c5ccccc5)c5nc(c(-c6ccccc6)c6ccc3[nH]6)C=C5)C=C4)cc1)C2=O
REMARK SMILES IDX 26 1 25 2 24 3 22 4 23 5 21 7 20 8 4 9 5 10 12 11 6 12 79 13
REMARK SMILES IDX 7 14 11 15 13 16 80 17 8 18 10 19 9 20 2 21 1 22 3 23 14 24
REMARK SMILES IDX 15 25 19 26 16 27 18 28 17 29 27 30 28 31 29 32 30 34 31 35
REMARK SMILES IDX 32 36 78 37 33 38 77 39 34 40 35 41 36 42 71 43 37 44 76 45
REMARK SMILES IDX 70 46 72 47 38 48 75 49 69 50 68 51 39 53 61 54 46 55 60 56
REMARK SMILES IDX 47 57 50 58 59 59 73 60 48 61 49 62 58 64 74 65 51 66 40 67
REMARK SMILES IDX 41 68 45 69 42 70 44 71 43 72 62 73 63 74 67 75 64 76 66 77
REMARK SMILES IDX 65 78 52 79 53 80 57 81 54 82 56 83 55 84
REMARK H PARENT 24 6 28 33 72 52 50 63
REMARK Flexibility Score: inf
ROOT
ATOM      1  C   UNL A   1      41.423  20.657  26.932  1.00  0.00     0.042 C 
ENDROOT
BRANCH   1   2
ATOM      2  C   UNL A   1      40.163  20.650  26.062  1.00  0.00     0.117 C 
BRANCH   2   3
ATOM      3  N   UNL A   1      39.316  21.804  26.311  1.00  0.00    -0.354 N 
ATOM      4  C   UNL A   1      38.125  22.149  25.743  1.00  0.00     0.239 C 
ATOM      5  O   UNL A   1      37.618  23.226  26.067  1.00  0.00    -0.273 OA
ATOM      6  H   UNL A   1      39.653  22.432  26.991  1.00  0.00     0.163 HD
BRANCH   4   7
ATOM      7  C   UNL A   1      37.464  21.250  24.693  1.00  0.00     0.220 C 
BRANCH   7   8
ATOM      8  N   UNL A   1      36.097  21.661  24.430  1.00  0.00    -0.317 N 
ATOM      9  N   UNL A   1      33.612  24.153  23.799  1.00  0.00    -0.334 N 
ATOM     10  C   UNL A   1      34.486  23.129  23.992  1.00  0.00     0.114 A 
ATOM     11  C   UNL A   1      32.567  23.996  24.720  1.00  0.00     0.049 A 
ATOM     12  C   UNL A   1      34.016  22.302  24.981  1.00  0.00     0.018 A 
ATOM     13  C   UNL A   1      35.783  22.711  23.568  1.00  0.00     0.272 C 
ATOM     14  C   UNL A   1      32.829  22.844  25.487  1.00  0.00     0.006 A 
ATOM     15  C   UNL A   1      31.413  24.764  24.952  1.00  0.00     0.027 A 
ATOM     16  C   UNL A   1      34.950  21.177  25.241  1.00  0.00     0.150 C 
ATOM     17  O   UNL A   1      36.519  23.222  22.737  1.00  0.00    -0.267 OA
ATOM     18  C   UNL A   1      31.942  22.470  26.512  1.00  0.00     0.011 A 
ATOM     19  C   UNL A   1      30.541  24.366  25.972  1.00  0.00     0.002 A 
ATOM     20  C   UNL A   1      30.802  23.240  26.746  1.00  0.00     0.001 A 
BRANCH   9  21
ATOM     21  C   UNL A   1      33.702  25.229  22.812  1.00  0.00     0.082 C 
ATOM     22  C   UNL A   1      32.744  25.094  21.627  1.00  0.00     0.031 C 
ATOM     23  C   UNL A   1      33.596  26.601  23.474  1.00  0.00     0.031 C 
ENDBRANCH   9  21
BRANCH  16  24
ATOM     24  C   UNL A   1      34.377  19.880  24.683  1.00  0.00    -0.021 A 
ATOM     25  C   UNL A   1      33.067  19.901  24.166  1.00  0.00     0.006 A 
ATOM     26  C   UNL A   1      35.046  18.640  24.682  1.00  0.00     0.006 A 
ATOM     27  C   UNL A   1      32.441  18.735  23.716  1.00  0.00     0.000 A 
ATOM     28  C   UNL A   1      34.428  17.477  24.211  1.00  0.00     0.000 A 
ATOM     29  C   UNL A   1      33.122  17.522  23.741  1.00  0.00     0.000 A 
ENDBRANCH  16  24
ENDBRANCH   7   8
ENDBRANCH   4   7
ENDBRANCH   2   3
ENDBRANCH   1   2
BRANCH   1  30
ATOM     30  C   UNL A   1      42.367  19.484  26.673  1.00  0.00     0.118 C 
BRANCH  30  31
ATOM     31  N   UNL A   1      43.126  19.623  25.448  1.00  0.00    -0.352 N 
ATOM     32  C   UNL A   1      43.904  20.593  24.892  1.00  0.00     0.251 C 
ATOM     33  H   UNL A   1      43.065  18.821  24.880  1.00  0.00     0.163 HD
ATOM     34  O   UNL A   1      44.462  20.285  23.835  1.00  0.00    -0.269 OA
BRANCH  32  35
ATOM     35  C   UNL A   1      44.058  21.982  25.396  1.00  0.00     0.039 A 
ATOM     36  C   UNL A   1      44.887  22.393  26.441  1.00  0.00     0.014 A 
ATOM     37  C   UNL A   1      43.183  22.922  24.818  1.00  0.00     0.014 A 
ATOM     38  C   UNL A   1      44.716  23.652  27.008  1.00  0.00     0.010 A 
ATOM     39  C   UNL A   1      43.027  24.184  25.361  1.00  0.00     0.010 A 
ATOM     40  C   UNL A   1      43.724  24.507  26.516  1.00  0.00    -0.014 A 
BRANCH  40  41
ATOM     41  C   UNL A   1      43.443  25.744  27.232  1.00  0.00     0.031 A 
ATOM     42  C   UNL A   1      44.398  26.856  26.974  1.00  0.00     0.074 A 
ATOM     43  C   UNL A   1      42.343  25.896  27.999  1.00  0.00     0.049 A 
ATOM     44  N   UNL A   1      45.155  27.472  27.821  1.00  0.00    -0.248 NA
ATOM     45  C   UNL A   1      44.609  27.258  25.574  1.00  0.00     0.031 C 
ATOM     46  C   UNL A   1      41.192  24.996  28.145  1.00  0.00     0.029 A 
ATOM     47  N   UNL A   1      41.977  26.967  28.754  1.00  0.00    -0.354 N 
ATOM     48  C   UNL A   1      45.837  28.445  27.093  1.00  0.00     0.074 A 
ATOM     49  C   UNL A   1      45.554  28.188  25.703  1.00  0.00     0.031 C 
ATOM     50  C   UNL A   1      40.167  25.664  28.727  1.00  0.00     0.029 A 
ATOM     51  C   UNL A   1      40.644  26.969  29.145  1.00  0.00     0.049 A 
ATOM     52  H   UNL A   1      42.606  27.683  29.003  1.00  0.00     0.167 HD
ATOM     53  C   UNL A   1      46.445  29.508  27.688  1.00  0.00     0.031 A 
ATOM     54  C   UNL A   1      39.974  27.995  29.729  1.00  0.00     0.031 A 
ATOM     55  C   UNL A   1      46.673  29.286  29.088  1.00  0.00     0.049 A 
ATOM     56  C   UNL A   1      40.990  28.892  30.325  1.00  0.00     0.074 A 
ATOM     57  C   UNL A   1      47.462  28.418  29.815  1.00  0.00     0.029 A 
ATOM     58  N   UNL A   1      45.740  29.772  29.972  1.00  0.00    -0.354 N 
ATOM     59  N   UNL A   1      41.764  28.543  31.312  1.00  0.00    -0.248 NA
ATOM     60  C   UNL A   1      41.458  30.008  29.521  1.00  0.00     0.031 C 
ATOM     61  C   UNL A   1      46.662  28.050  30.936  1.00  0.00     0.029 A 
ATOM     62  C   UNL A   1      45.467  28.769  30.867  1.00  0.00     0.049 A 
ATOM     63  H   UNL A   1      45.343  30.672  29.965  1.00  0.00     0.167 HD
ATOM     64  C   UNL A   1      43.000  29.091  31.001  1.00  0.00     0.074 A 
ATOM     65  C   UNL A   1      42.729  30.046  29.926  1.00  0.00     0.031 C 
ATOM     66  C   UNL A   1      44.161  28.524  31.444  1.00  0.00     0.031 A 
BRANCH  53  67
ATOM     67  C   UNL A   1      46.526  30.873  27.059  1.00  0.00    -0.014 A 
ATOM     68  C   UNL A   1      45.384  31.624  26.718  1.00  0.00     0.009 A 
ATOM     69  C   UNL A   1      47.757  31.551  27.036  1.00  0.00     0.009 A 
ATOM     70  C   UNL A   1      45.457  32.977  26.374  1.00  0.00     0.001 A 
ATOM     71  C   UNL A   1      47.830  32.918  26.728  1.00  0.00     0.001 A 
ATOM     72  C   UNL A   1      46.680  33.630  26.401  1.00  0.00     0.000 A 
ENDBRANCH  53  67
BRANCH  54  73
ATOM     73  C   UNL A   1      38.624  28.495  29.366  1.00  0.00    -0.014 A 
ATOM     74  C   UNL A   1      38.374  28.937  28.052  1.00  0.00     0.009 A 
ATOM     75  C   UNL A   1      37.695  28.842  30.359  1.00  0.00     0.009 A 
ATOM     76  C   UNL A   1      37.264  29.734  27.752  1.00  0.00     0.001 A 
ATOM     77  C   UNL A   1      36.581  29.639  30.057  1.00  0.00     0.001 A 
ATOM     78  C   UNL A   1      36.375  30.099  28.758  1.00  0.00     0.000 A 
ENDBRANCH  54  73
BRANCH  66  79
ATOM     79  C   UNL A   1      44.070  27.373  32.424  1.00  0.00    -0.014 A 
ATOM     80  C   UNL A   1      44.095  27.665  33.795  1.00  0.00     0.009 A 
ATOM     81  C   UNL A   1      44.156  26.023  32.033  1.00  0.00     0.009 A 
ATOM     82  C   UNL A   1      44.224  26.650  34.746  1.00  0.00     0.001 A 
ATOM     83  C   UNL A   1      44.261  25.003  32.988  1.00  0.00     0.001 A 
ATOM     84  C   UNL A   1      44.308  25.318  34.344  1.00  0.00     0.000 A 
ENDBRANCH  66  79
ENDBRANCH  40  41
ENDBRANCH  32  35
ENDBRANCH  30  31
ENDBRANCH   1  30
TORSDOF 13
ENDMDL
MODEL 3
REMARK VINA RESULT:     -12.6      2.547      7.960
REMARK SMILES CC(C)n1c2c(c3ccccc31)[C@@H](c1ccccc1)N(CC(=O)NCCCNC(=O)c1ccc(-c3c4nc(c(-c5ccccc5)c5ccc([nH]5)c(-c5ccccc5)c5nc(c(-c6ccccc6)c6ccc3[nH]6)C=C5)C=C4)cc1)C2=O
REMARK SMILES IDX 26 1 25 2 24 3 22 4 23 5 21 7 20 8 4 9 5 10 12 11 6 12 79 13
REMARK SMILES IDX 7 14 11 15 13 16 80 17 8 18 10 19 9 20 2 21 1 22 3 23 14 24
REMARK SMILES IDX 15 25 19 26 16 27 18 28 17 29 27 30 28 31 29 32 30 34 31 35
REMARK SMILES IDX 32 36 78 37 33 38 77 39 34 40 35 41 36 42 71 43 37 44 76 45
REMARK SMILES IDX 70 46 72 47 38 48 75 49 69 50 68 51 39 53 61 54 46 55 60 56
REMARK SMILES IDX 47 57 50 58 59 59 73 60 48 61 49 62 58 64 74 65 51 66 40 67
REMARK SMILES IDX 41 68 45 69 42 70 44 71 43 72 62 73 63 74 67 75 64 76 66 77
REMARK SMILES IDX 65 78 52 79 53 80 57 81 54 82 56 83 55 84
REMARK H PARENT 24 6 28 33 72 52 50 63
REMARK Flexibility Score: inf
ROOT
ATOM      1  C   UNL A   1      37.331  22.162  24.731  1.00  0.00     0.042 C 
ENDROOT
BRANCH   1   2
ATOM      2  C   UNL A   1      36.522  22.921  23.675  1.00  0.00     0.117 C 
BRANCH   2   3
ATOM      3  N   UNL A   1      35.192  22.363  23.497  1.00  0.00    -0.354 N 
ATOM      4  C   UNL A   1      34.057  22.953  23.024  1.00  0.00     0.239 C 
ATOM      5  O   UNL A   1      33.014  22.294  23.030  1.00  0.00    -0.273 OA
ATOM      6  H   UNL A   1      35.096  21.418  23.758  1.00  0.00     0.163 HD
BRANCH   4   7
ATOM      7  C   UNL A   1      34.065  24.411  22.552  1.00  0.00     0.220 C 
BRANCH   7   8
ATOM      8  N   UNL A   1      33.358  25.272  23.482  1.00  0.00    -0.317 N 
ATOM      9  N   UNL A   1      31.565  28.260  24.282  1.00  0.00    -0.334 N 
ATOM     10  C   UNL A   1      32.199  27.076  24.071  1.00  0.00     0.114 A 
ATOM     11  C   UNL A   1      32.176  28.875  25.384  1.00  0.00     0.049 A 
ATOM     12  C   UNL A   1      33.171  26.897  25.021  1.00  0.00     0.018 A 
ATOM     13  C   UNL A   1      32.244  26.023  23.109  1.00  0.00     0.272 C 
ATOM     14  C   UNL A   1      33.209  28.033  25.839  1.00  0.00     0.006 A 
ATOM     15  C   UNL A   1      31.918  30.101  26.022  1.00  0.00     0.027 A 
ATOM     16  C   UNL A   1      33.906  25.622  24.817  1.00  0.00     0.150 C 
ATOM     17  O   UNL A   1      31.559  25.869  22.109  1.00  0.00    -0.267 OA
ATOM     18  C   UNL A   1      34.007  28.429  26.927  1.00  0.00     0.011 A 
ATOM     19  C   UNL A   1      32.720  30.469  27.109  1.00  0.00     0.002 A 
ATOM     20  C   UNL A   1      33.753  29.650  27.553  1.00  0.00     0.001 A 
BRANCH   9  21
ATOM     21  C   UNL A   1      30.438  28.816  23.533  1.00  0.00     0.082 C 
ATOM     22  C   UNL A   1      30.789  29.332  22.136  1.00  0.00     0.031 C 
ATOM     23  C   UNL A   1      29.259  27.846  23.501  1.00  0.00     0.031 C 
ENDBRANCH   9  21
BRANCH  16  24
ATOM     24  C   UNL A   1      33.497  24.606  25.876  1.00  0.00    -0.021 A 
ATOM     25  C   UNL A   1      34.509  23.842  26.490  1.00  0.00     0.006 A 
ATOM     26  C   UNL A   1      32.169  24.337  26.262  1.00  0.00     0.006 A 
ATOM     27  C   UNL A   1      34.206  22.832  27.407  1.00  0.00     0.000 A 
ATOM     28  C   UNL A   1      31.867  23.341  27.196  1.00  0.00     0.000 A 
ATOM     29  C   UNL A   1      32.883  22.579  27.758  1.00  0.00     0.000 A 
ENDBRANCH  16  24
ENDBRANCH   7   8
ENDBRANCH   4   7
ENDBRANCH   2   3
ENDBRANCH   1   2
BRANCH   1  30
ATOM     30  C   UNL A   1      38.034  23.063  25.745  1.00  0.00     0.118 C 
BRANCH  30  31
ATOM     31  N   UNL A   1      39.140  22.413  26.415  1.00  0.00    -0.352 N 
ATOM     32  C   UNL A   1      40.187  22.824  27.184  1.00  0.00     0.251 C 
ATOM     33  H   UNL A   1      39.133  21.437  26.283  1.00  0.00     0.163 HD
ATOM     34  O   UNL A   1      40.889  21.923  27.651  1.00  0.00    -0.269 OA
BRANCH  32  35
ATOM     35  C   UNL A   1      40.590  24.233  27.426  1.00  0.00     0.039 A 
ATOM     36  C   UNL A   1      41.511  24.677  28.377  1.00  0.00     0.014 A 
ATOM     37  C   UNL A   1      39.867  25.190  26.689  1.00  0.00     0.014 A 
ATOM     38  C   UNL A   1      41.573  26.027  28.705  1.00  0.00     0.010 A 
ATOM     39  C   UNL A   1      39.944  26.538  26.993  1.00  0.00     0.010 A 
ATOM     40  C   UNL A   1      40.724  26.938  28.068  1.00  0.00    -0.014 A 
BRANCH  40  41
ATOM     41  C   UNL A   1      40.679  28.313  28.547  1.00  0.00     0.031 A 
ATOM     42  C   UNL A   1      41.837  29.159  28.152  1.00  0.00     0.074 A 
ATOM     43  C   UNL A   1      39.618  28.805  29.220  1.00  0.00     0.049 A 
ATOM     44  N   UNL A   1      42.686  29.759  28.919  1.00  0.00    -0.248 NA
ATOM     45  C   UNL A   1      42.147  29.258  26.717  1.00  0.00     0.031 C 
ATOM     46  C   UNL A   1      38.310  28.181  29.459  1.00  0.00     0.029 A 
ATOM     47  N   UNL A   1      39.456  30.043  29.761  1.00  0.00    -0.354 N 
ATOM     48  C   UNL A   1      43.558  30.440  28.071  1.00  0.00     0.074 A 
ATOM     49  C   UNL A   1      43.254  30.000  26.733  1.00  0.00     0.031 C 
ATOM     50  C   UNL A   1      37.426  29.124  29.865  1.00  0.00     0.029 A 
ATOM     51  C   UNL A   1      38.143  30.368  30.078  1.00  0.00     0.049 A 
ATOM     52  H   UNL A   1      40.209  30.658  29.916  1.00  0.00     0.167 HD
ATOM     53  C   UNL A   1      44.353  31.457  28.507  1.00  0.00     0.031 A 
ATOM     54  C   UNL A   1      37.678  31.589  30.443  1.00  0.00     0.031 A 
ATOM     55  C   UNL A   1      44.509  31.447  29.934  1.00  0.00     0.049 A 
ATOM     56  C   UNL A   1      38.840  32.368  30.928  1.00  0.00     0.074 A 
ATOM     57  C   UNL A   1      45.101  30.588  30.837  1.00  0.00     0.029 A 
ATOM     58  N   UNL A   1      43.676  32.251  30.673  1.00  0.00    -0.354 N 
ATOM     59  N   UNL A   1      39.513  32.059  31.999  1.00  0.00    -0.248 NA
ATOM     60  C   UNL A   1      39.531  33.213  29.971  1.00  0.00     0.031 C 
ATOM     61  C   UNL A   1      44.225  30.584  31.962  1.00  0.00     0.029 A 
ATOM     62  C   UNL A   1      43.196  31.493  31.711  1.00  0.00     0.049 A 
ATOM     63  H   UNL A   1      43.463  33.194  30.492  1.00  0.00     0.167 HD
ATOM     64  C   UNL A   1      40.838  32.297  31.662  1.00  0.00     0.074 A 
ATOM     65  C   UNL A   1      40.778  33.080  30.427  1.00  0.00     0.031 C 
ATOM     66  C   UNL A   1      41.858  31.607  32.254  1.00  0.00     0.031 A 
BRANCH  53  67
ATOM     67  C   UNL A   1      44.711  32.648  27.658  1.00  0.00    -0.014 A 
ATOM     68  C   UNL A   1      45.948  32.766  26.995  1.00  0.00     0.009 A 
ATOM     69  C   UNL A   1      43.708  33.560  27.289  1.00  0.00     0.009 A 
ATOM     70  C   UNL A   1      46.179  33.737  26.017  1.00  0.00     0.001 A 
ATOM     71  C   UNL A   1      43.923  34.511  26.281  1.00  0.00     0.001 A 
ATOM     72  C   UNL A   1      45.157  34.596  25.643  1.00  0.00     0.000 A 
ENDBRANCH  53  67
BRANCH  54  73
ATOM     73  C   UNL A   1      36.459  32.264  29.932  1.00  0.00    -0.014 A 
ATOM     74  C   UNL A   1      36.237  32.347  28.544  1.00  0.00     0.009 A 
ATOM     75  C   UNL A   1      35.695  33.097  30.765  1.00  0.00     0.009 A 
ATOM     76  C   UNL A   1      35.323  33.259  28.006  1.00  0.00     0.001 A 
ATOM     77  C   UNL A   1      34.776  34.009  30.226  1.00  0.00     0.001 A 
ATOM     78  C   UNL A   1      34.603  34.103  28.846  1.00  0.00     0.000 A 
ENDBRANCH  54  73
BRANCH  66  79
ATOM     79  C   UNL A   1      41.526  30.687  33.410  1.00  0.00    -0.014 A 
ATOM     80  C   UNL A   1      41.684  31.176  34.714  1.00  0.00     0.009 A 
ATOM     81  C   UNL A   1      41.256  29.315  33.246  1.00  0.00     0.009 A 
ATOM     82  C   UNL A   1      41.598  30.326  35.819  1.00  0.00     0.001 A 
ATOM     83  C   UNL A   1      41.146  28.466  34.356  1.00  0.00     0.001 A 
ATOM     84  C   UNL A   1      41.329  28.970  35.641  1.00  0.00     0.000 A 
ENDBRANCH  66  79
ENDBRANCH  40  41
ENDBRANCH  32  35
ENDBRANCH  30  31
ENDBRANCH   1  30
TORSDOF 13
ENDMDL
