MODEL 1
REMARK VINA RESULT:     -11.3      0.000      0.000
REMARK SMILES Nc1cccc(C(=O)N[C@@H]2C=C[C@@H](C(=O)NCCCNC(=O)c3ccc(-c4c5nc(c(-c6ccccc6)c6ccc([nH]6)c(-c6ccccc6)c6nc(c(-c7ccccc7)c7ccc4[nH]7)C=C6)C=C5)cc3)C2)c1
REMARK SMILES IDX 17 1 16 2 14 3 15 4 13 6 10 7 11 8 71 9 12 10 9 11 7 12 8 13
REMARK SMILES IDX 6 15 2 16 3 17 72 18 4 19 5 20 1 21 18 24 19 25 20 26 21 27
REMARK SMILES IDX 22 29 23 30 24 31 70 32 25 33 69 34 26 35 27 36 28 37 63 38
REMARK SMILES IDX 29 39 68 40 62 41 64 42 30 43 67 44 61 45 60 46 31 48 53 49
REMARK SMILES IDX 38 50 52 51 39 52 42 53 51 54 65 55 40 56 41 57 50 59 66 60
REMARK SMILES IDX 43 61 32 62 33 63 37 64 34 65 36 66 35 67 54 68 55 69 59 70
REMARK SMILES IDX 56 71 58 72 57 73 44 74 45 75 49 76 46 77 48 78 47 79
REMARK H PARENT 16 5 9 14 1 22 1 23 20 28 64 47 42 58
REMARK Flexibility Score: inf
ROOT
ATOM      1  C   UNL A   1      36.818  20.537  24.980  1.00  0.00     0.117 C 
ENDROOT
BRANCH   1   2
ATOM      2  N   UNL A   1      37.136  21.846  25.511  1.00  0.00    -0.356 N 
ATOM      3  C   UNL A   1      36.404  22.982  25.647  1.00  0.00     0.227 C 
ATOM      4  O   UNL A   1      36.998  23.956  26.124  1.00  0.00    -0.274 OA
ATOM      5  H   UNL A   1      38.061  21.928  25.837  1.00  0.00     0.163 HD
BRANCH   3   6
ATOM      6  C   UNL A   1      34.917  23.088  25.309  1.00  0.00     0.103 C 
ATOM      7  C   UNL A   1      33.257  24.753  26.075  1.00  0.00     0.106 C 
ATOM      8  C   UNL A   1      33.734  25.010  24.682  1.00  0.00    -0.006 C 
ATOM      9  C   UNL A   1      33.932  23.414  26.440  1.00  0.00     0.047 C 
ATOM     10  C   UNL A   1      34.659  24.136  24.280  1.00  0.00    -0.016 C 
BRANCH   7  11
ATOM     11  N   UNL A   1      31.810  24.723  26.148  1.00  0.00    -0.346 N 
ATOM     12  C   UNL A   1      30.888  25.742  26.258  1.00  0.00     0.251 C 
ATOM     13  O   UNL A   1      29.700  25.457  26.403  1.00  0.00    -0.269 OA
ATOM     14  H   UNL A   1      31.418  23.821  26.112  1.00  0.00     0.164 HD
BRANCH  12  15
ATOM     15  C   UNL A   1      31.277  27.167  26.083  1.00  0.00     0.041 A 
ATOM     16  C   UNL A   1      31.250  29.226  24.806  1.00  0.00     0.032 A 
ATOM     17  C   UNL A   1      31.625  29.927  25.953  1.00  0.00     0.025 A 
ATOM     18  C   UNL A   1      31.198  27.833  24.858  1.00  0.00     0.039 A 
ATOM     19  C   UNL A   1      31.846  29.256  27.158  1.00  0.00     0.003 A 
ATOM     20  C   UNL A   1      31.647  27.879  27.230  1.00  0.00     0.014 A 
BRANCH  16  21
ATOM     21  N   UNL A   1      31.016  29.892  23.613  1.00  0.00    -0.399 N 
ATOM     22  H   UNL A   1      31.168  29.432  22.755  1.00  0.00     0.156 HD
ATOM     23  H   UNL A   1      30.700  30.824  23.622  1.00  0.00     0.156 HD
ENDBRANCH  16  21
ENDBRANCH  12  15
ENDBRANCH   7  11
ENDBRANCH   3   6
ENDBRANCH   1   2
BRANCH   1  24
ATOM     24  C   UNL A   1      38.035  19.620  24.989  1.00  0.00     0.042 C 
BRANCH  24  25
ATOM     25  C   UNL A   1      39.209  20.175  25.791  1.00  0.00     0.118 C 
BRANCH  25  26
ATOM     26  N   UNL A   1      40.339  19.258  25.841  1.00  0.00    -0.352 N 
ATOM     27  C   UNL A   1      41.664  19.507  26.105  1.00  0.00     0.251 C 
ATOM     28  H   UNL A   1      40.120  18.317  25.657  1.00  0.00     0.163 HD
ATOM     29  O   UNL A   1      42.496  18.629  25.921  1.00  0.00    -0.269 OA
BRANCH  27  30
ATOM     30  C   UNL A   1      42.089  20.841  26.585  1.00  0.00     0.039 A 
ATOM     31  C   UNL A   1      42.465  21.806  25.647  1.00  0.00     0.014 A 
ATOM     32  C   UNL A   1      42.126  21.138  27.949  1.00  0.00     0.014 A 
ATOM     33  C   UNL A   1      42.811  23.089  26.076  1.00  0.00     0.010 A 
ATOM     34  C   UNL A   1      42.384  22.439  28.368  1.00  0.00     0.010 A 
ATOM     35  C   UNL A   1      42.735  23.427  27.436  1.00  0.00    -0.014 A 
BRANCH  35  36
ATOM     36  C   UNL A   1      43.013  24.808  27.906  1.00  0.00     0.031 A 
ATOM     37  C   UNL A   1      44.422  25.240  28.205  1.00  0.00     0.074 A 
ATOM     38  C   UNL A   1      41.989  25.656  28.123  1.00  0.00     0.049 A 
ATOM     39  N   UNL A   1      44.854  26.386  28.665  1.00  0.00    -0.248 NA
ATOM     40  C   UNL A   1      45.481  24.242  27.986  1.00  0.00     0.031 C 
ATOM     41  C   UNL A   1      40.574  25.350  27.907  1.00  0.00     0.029 A 
ATOM     42  N   UNL A   1      41.984  26.951  28.578  1.00  0.00    -0.354 N 
ATOM     43  C   UNL A   1      46.229  26.241  28.806  1.00  0.00     0.074 A 
ATOM     44  C   UNL A   1      46.549  24.878  28.440  1.00  0.00     0.031 C 
ATOM     45  C   UNL A   1      39.841  26.439  28.191  1.00  0.00     0.029 A 
ATOM     46  C   UNL A   1      40.728  27.501  28.655  1.00  0.00     0.049 A 
ATOM     47  H   UNL A   1      42.803  27.438  28.827  1.00  0.00     0.167 HD
ATOM     48  C   UNL A   1      47.147  27.162  29.187  1.00  0.00     0.031 A 
ATOM     49  C   UNL A   1      40.332  28.723  29.057  1.00  0.00     0.031 A 
ATOM     50  C   UNL A   1      46.827  28.515  29.554  1.00  0.00     0.049 A 
ATOM     51  C   UNL A   1      41.363  29.719  29.508  1.00  0.00     0.074 A 
ATOM     52  C   UNL A   1      47.688  29.542  29.900  1.00  0.00     0.029 A 
ATOM     53  N   UNL A   1      45.541  29.029  29.634  1.00  0.00    -0.354 N 
ATOM     54  N   UNL A   1      42.666  29.589  29.567  1.00  0.00    -0.248 NA
ATOM     55  C   UNL A   1      40.866  31.032  29.942  1.00  0.00     0.031 C 
ATOM     56  C   UNL A   1      46.920  30.657  30.253  1.00  0.00     0.029 A 
ATOM     57  C   UNL A   1      45.583  30.347  30.058  1.00  0.00     0.049 A 
ATOM     58  H   UNL A   1      44.719  28.530  29.420  1.00  0.00     0.167 HD
ATOM     59  C   UNL A   1      43.148  30.813  30.014  1.00  0.00     0.074 A 
ATOM     60  C   UNL A   1      41.997  31.674  30.198  1.00  0.00     0.031 C 
ATOM     61  C   UNL A   1      44.430  31.190  30.247  1.00  0.00     0.031 A 
BRANCH  48  62
ATOM     62  C   UNL A   1      48.584  26.716  29.246  1.00  0.00    -0.014 A 
ATOM     63  C   UNL A   1      49.130  26.156  30.412  1.00  0.00     0.009 A 
ATOM     64  C   UNL A   1      49.404  26.855  28.116  1.00  0.00     0.009 A 
ATOM     65  C   UNL A   1      50.479  25.795  30.462  1.00  0.00     0.001 A 
ATOM     66  C   UNL A   1      50.742  26.461  28.156  1.00  0.00     0.001 A 
ATOM     67  C   UNL A   1      51.283  25.945  29.333  1.00  0.00     0.000 A 
ENDBRANCH  48  62
BRANCH  49  68
ATOM     68  C   UNL A   1      38.889  29.081  29.022  1.00  0.00    -0.014 A 
ATOM     69  C   UNL A   1      38.304  29.549  27.835  1.00  0.00     0.009 A 
ATOM     70  C   UNL A   1      38.087  28.943  30.166  1.00  0.00     0.009 A 
ATOM     71  C   UNL A   1      36.950  29.890  27.800  1.00  0.00     0.001 A 
ATOM     72  C   UNL A   1      36.727  29.255  30.119  1.00  0.00     0.001 A 
ATOM     73  C   UNL A   1      36.161  29.735  28.939  1.00  0.00     0.000 A 
ENDBRANCH  49  68
BRANCH  61  74
ATOM     74  C   UNL A   1      44.658  32.608  30.697  1.00  0.00    -0.014 A 
ATOM     75  C   UNL A   1      44.714  32.946  32.057  1.00  0.00     0.009 A 
ATOM     76  C   UNL A   1      44.861  33.614  29.738  1.00  0.00     0.009 A 
ATOM     77  C   UNL A   1      44.931  34.270  32.448  1.00  0.00     0.001 A 
ATOM     78  C   UNL A   1      45.112  34.929  30.131  1.00  0.00     0.001 A 
ATOM     79  C   UNL A   1      45.135  35.258  31.485  1.00  0.00     0.000 A 
ENDBRANCH  61  74
ENDBRANCH  35  36
ENDBRANCH  27  30
ENDBRANCH  25  26
ENDBRANCH  24  25
ENDBRANCH   1  24
TORSDOF 13
ENDMDL
MODEL 2
REMARK VINA RESULT:     -11.3      0.990      6.136
REMARK SMILES Nc1cccc(C(=O)N[C@@H]2C=C[C@@H](C(=O)NCCCNC(=O)c3ccc(-c4c5nc(c(-c6ccccc6)c6ccc([nH]6)c(-c6ccccc6)c6nc(c(-c7ccccc7)c7ccc4[nH]7)C=C6)C=C5)cc3)C2)c1
REMARK SMILES IDX 17 1 16 2 14 3 15 4 13 6 10 7 11 8 71 9 12 10 9 11 7 12 8 13
REMARK SMILES IDX 6 15 2 16 3 17 72 18 4 19 5 20 1 21 18 24 19 25 20 26 21 27
REMARK SMILES IDX 22 29 23 30 24 31 70 32 25 33 69 34 26 35 27 36 28 37 63 38
REMARK SMILES IDX 29 39 68 40 62 41 64 42 30 43 67 44 61 45 60 46 31 48 53 49
REMARK SMILES IDX 38 50 52 51 39 52 42 53 51 54 65 55 40 56 41 57 50 59 66 60
REMARK SMILES IDX 43 61 32 62 33 63 37 64 34 65 36 66 35 67 54 68 55 69 59 70
REMARK SMILES IDX 56 71 58 72 57 73 44 74 45 75 49 76 46 77 48 78 47 79
REMARK H PARENT 16 5 9 14 1 22 1 23 20 28 64 47 42 58
REMARK Flexibility Score: inf
ROOT
ATOM      1  C   UNL A   1      36.819  20.590  25.003  1.00  0.00     0.117 C 
ENDROOT
BRANCH   1   2
ATOM      2  N   UNL A   1      37.180  21.907  25.485  1.00  0.00    -0.356 N 
ATOM      3  C   UNL A   1      36.485  23.070  25.583  1.00  0.00     0.227 C 
ATOM      4  O   UNL A   1      37.112  24.041  26.021  1.00  0.00    -0.274 OA
ATOM      5  H   UNL A   1      38.109  21.972  25.804  1.00  0.00     0.163 HD
BRANCH   3   6
ATOM      6  C   UNL A   1      35.000  23.211  25.247  1.00  0.00     0.103 C 
ATOM      7  C   UNL A   1      33.333  24.786  26.170  1.00  0.00     0.106 C 
ATOM      8  C   UNL A   1      33.821  25.187  24.815  1.00  0.00    -0.006 C 
ATOM      9  C   UNL A   1      34.007  23.416  26.398  1.00  0.00     0.047 C 
ATOM     10  C   UNL A   1      34.749  24.361  24.330  1.00  0.00    -0.016 C 
BRANCH   7  11
ATOM     11  N   UNL A   1      31.886  24.749  26.228  1.00  0.00    -0.346 N 
ATOM     12  C   UNL A   1      30.957  25.763  26.315  1.00  0.00     0.251 C 
ATOM     13  O   UNL A   1      29.770  25.473  26.452  1.00  0.00    -0.269 OA
ATOM     14  H   UNL A   1      31.499  23.844  26.200  1.00  0.00     0.164 HD
BRANCH  12  15
ATOM     15  C   UNL A   1      31.340  27.188  26.126  1.00  0.00     0.041 A 
ATOM     16  C   UNL A   1      31.283  29.241  24.839  1.00  0.00     0.032 A 
ATOM     17  C   UNL A   1      31.679  29.949  25.975  1.00  0.00     0.025 A 
ATOM     18  C   UNL A   1      31.235  27.848  24.898  1.00  0.00     0.039 A 
ATOM     19  C   UNL A   1      31.926  29.284  27.178  1.00  0.00     0.003 A 
ATOM     20  C   UNL A   1      31.731  27.907  27.261  1.00  0.00     0.014 A 
BRANCH  16  21
ATOM     21  N   UNL A   1      31.024  29.900  23.647  1.00  0.00    -0.399 N 
ATOM     22  H   UNL A   1      30.320  29.568  23.044  1.00  0.00     0.156 HD
ATOM     23  H   UNL A   1      31.544  30.699  23.403  1.00  0.00     0.156 HD
ENDBRANCH  16  21
ENDBRANCH  12  15
ENDBRANCH   7  11
ENDBRANCH   3   6
ENDBRANCH   1   2
BRANCH   1  24
ATOM     24  C   UNL A   1      38.040  19.688  24.875  1.00  0.00     0.042 C 
BRANCH  24  25
ATOM     25  C   UNL A   1      39.217  20.131  25.740  1.00  0.00     0.118 C 
BRANCH  25  26
ATOM     26  N   UNL A   1      40.241  19.103  25.862  1.00  0.00    -0.352 N 
ATOM     27  C   UNL A   1      41.587  19.226  26.112  1.00  0.00     0.251 C 
ATOM     28  H   UNL A   1      39.921  18.180  25.749  1.00  0.00     0.163 HD
ATOM     29  O   UNL A   1      42.319  18.252  25.998  1.00  0.00    -0.269 OA
BRANCH  27  30
ATOM     30  C   UNL A   1      42.156  20.539  26.493  1.00  0.00     0.039 A 
ATOM     31  C   UNL A   1      42.682  21.360  25.493  1.00  0.00     0.014 A 
ATOM     32  C   UNL A   1      42.178  20.955  27.826  1.00  0.00     0.014 A 
ATOM     33  C   UNL A   1      43.168  22.627  25.824  1.00  0.00     0.010 A 
ATOM     34  C   UNL A   1      42.579  22.249  28.141  1.00  0.00     0.010 A 
ATOM     35  C   UNL A   1      43.084  23.097  27.144  1.00  0.00    -0.014 A 
BRANCH  35  36
ATOM     36  C   UNL A   1      43.513  24.473  27.502  1.00  0.00     0.031 A 
ATOM     37  C   UNL A   1      42.494  25.514  27.872  1.00  0.00     0.074 A 
ATOM     38  C   UNL A   1      44.817  24.802  27.433  1.00  0.00     0.049 A 
ATOM     39  N   UNL A   1      42.674  26.777  28.170  1.00  0.00    -0.248 NA
ATOM     40  C   UNL A   1      41.085  25.090  27.881  1.00  0.00     0.031 C 
ATOM     41  C   UNL A   1      45.902  23.895  27.054  1.00  0.00     0.029 A 
ATOM     42  N   UNL A   1      45.451  25.994  27.679  1.00  0.00    -0.354 N 
ATOM     43  C   UNL A   1      41.404  27.298  28.383  1.00  0.00     0.074 A 
ATOM     44  C   UNL A   1      40.461  26.232  28.122  1.00  0.00     0.031 C 
ATOM     45  C   UNL A   1      47.071  24.552  27.130  1.00  0.00     0.029 A 
ATOM     46  C   UNL A   1      46.813  25.936  27.516  1.00  0.00     0.049 A 
ATOM     47  H   UNL A   1      44.974  26.813  27.946  1.00  0.00     0.167 HD
ATOM     48  C   UNL A   1      41.051  28.544  28.778  1.00  0.00     0.031 A 
ATOM     49  C   UNL A   1      47.753  26.890  27.657  1.00  0.00     0.031 A 
ATOM     50  C   UNL A   1      41.990  29.605  29.034  1.00  0.00     0.049 A 
ATOM     51  C   UNL A   1      47.337  28.276  28.063  1.00  0.00     0.074 A 
ATOM     52  C   UNL A   1      41.739  30.887  29.493  1.00  0.00     0.029 A 
ATOM     53  N   UNL A   1      43.360  29.510  28.842  1.00  0.00    -0.354 N 
ATOM     54  N   UNL A   1      46.139  28.734  28.331  1.00  0.00    -0.248 NA
ATOM     55  C   UNL A   1      48.409  29.273  28.194  1.00  0.00     0.031 C 
ATOM     56  C   UNL A   1      42.951  31.587  29.515  1.00  0.00     0.029 A 
ATOM     57  C   UNL A   1      43.965  30.721  29.138  1.00  0.00     0.049 A 
ATOM     58  H   UNL A   1      43.833  28.701  28.540  1.00  0.00     0.167 HD
ATOM     59  C   UNL A   1      46.314  30.064  28.691  1.00  0.00     0.074 A 
ATOM     60  C   UNL A   1      47.736  30.333  28.620  1.00  0.00     0.031 C 
ATOM     61  C   UNL A   1      45.380  30.979  29.053  1.00  0.00     0.031 A 
BRANCH  48  62
ATOM     62  C   UNL A   1      39.580  28.827  28.933  1.00  0.00    -0.014 A 
ATOM     63  C   UNL A   1      38.822  29.359  27.877  1.00  0.00     0.009 A 
ATOM     64  C   UNL A   1      38.942  28.553  30.152  1.00  0.00     0.009 A 
ATOM     65  C   UNL A   1      37.469  29.660  28.056  1.00  0.00     0.001 A 
ATOM     66  C   UNL A   1      37.582  28.822  30.318  1.00  0.00     0.001 A 
ATOM     67  C   UNL A   1      36.851  29.388  29.276  1.00  0.00     0.000 A 
ENDBRANCH  48  62
BRANCH  49  68
ATOM     68  C   UNL A   1      49.185  26.556  27.439  1.00  0.00    -0.014 A 
ATOM     69  C   UNL A   1      49.980  26.115  28.509  1.00  0.00     0.009 A 
ATOM     70  C   UNL A   1      49.761  26.658  26.163  1.00  0.00     0.009 A 
ATOM     71  C   UNL A   1      51.326  25.803  28.308  1.00  0.00     0.001 A 
ATOM     72  C   UNL A   1      51.098  26.317  25.960  1.00  0.00     0.001 A 
ATOM     73  C   UNL A   1      51.882  25.897  27.033  1.00  0.00     0.000 A 
ENDBRANCH  49  68
BRANCH  61  74
ATOM     74  C   UNL A   1      45.871  32.350  29.431  1.00  0.00    -0.014 A 
ATOM     75  C   UNL A   1      45.995  33.373  28.479  1.00  0.00     0.009 A 
ATOM     76  C   UNL A   1      46.176  32.630  30.773  1.00  0.00     0.009 A 
ATOM     77  C   UNL A   1      46.450  34.639  28.857  1.00  0.00     0.001 A 
ATOM     78  C   UNL A   1      46.598  33.905  31.154  1.00  0.00     0.001 A 
ATOM     79  C   UNL A   1      46.745  34.904  30.194  1.00  0.00     0.000 A 
ENDBRANCH  61  74
ENDBRANCH  35  36
ENDBRANCH  27  30
ENDBRANCH  25  26
ENDBRANCH  24  25
ENDBRANCH   1  24
TORSDOF 13
ENDMDL
MODEL 3
REMARK VINA RESULT:     -11.2      4.579      9.617
REMARK SMILES Nc1cccc(C(=O)N[C@@H]2C=C[C@@H](C(=O)NCCCNC(=O)c3ccc(-c4c5nc(c(-c6ccccc6)c6ccc([nH]6)c(-c6ccccc6)c6nc(c(-c7ccccc7)c7ccc4[nH]7)C=C6)C=C5)cc3)C2)c1
REMARK SMILES IDX 17 1 16 2 14 3 15 4 13 6 10 7 11 8 71 9 12 10 9 11 7 12 8 13
REMARK SMILES IDX 6 15 2 16 3 17 72 18 4 19 5 20 1 21 18 24 19 25 20 26 21 27
REMARK SMILES IDX 22 29 23 30 24 31 70 32 25 33 69 34 26 35 27 36 28 37 63 38
REMARK SMILES IDX 29 39 68 40 62 41 64 42 30 43 67 44 61 45 60 46 31 48 53 49
REMARK SMILES IDX 38 50 52 51 39 52 42 53 51 54 65 55 40 56 41 57 50 59 66 60
REMARK SMILES IDX 43 61 32 62 33 63 37 64 34 65 36 66 35 67 54 68 55 69 59 70
REMARK SMILES IDX 56 71 58 72 57 73 44 74 45 75 49 76 46 77 48 78 47 79
REMARK H PARENT 16 5 9 14 1 22 1 23 20 28 64 47 42 58
REMARK Flexibility Score: inf
ROOT
ATOM      1  C   UNL A   1      31.703  30.692  25.958  1.00  0.00     0.117 C 
ENDROOT
BRANCH   1   2
ATOM      2  N   UNL A   1      32.933  30.092  26.430  1.00  0.00    -0.356 N 
ATOM      3  C   UNL A   1      33.480  28.862  26.253  1.00  0.00     0.227 C 
ATOM      4  O   UNL A   1      34.553  28.656  26.831  1.00  0.00    -0.274 OA
ATOM      5  H   UNL A   1      33.479  30.692  26.988  1.00  0.00     0.163 HD
BRANCH   3   6
ATOM      6  C   UNL A   1      32.882  27.780  25.353  1.00  0.00     0.103 C 
ATOM      7  C   UNL A   1      34.006  25.888  24.226  1.00  0.00     0.106 C 
ATOM      8  C   UNL A   1      33.264  25.472  25.455  1.00  0.00    -0.006 C 
ATOM      9  C   UNL A   1      33.645  27.382  24.082  1.00  0.00     0.047 C 
ATOM     10  C   UNL A   1      32.688  26.496  26.087  1.00  0.00    -0.016 C 
BRANCH   7  11
ATOM     11  N   UNL A   1      33.640  25.081  23.080  1.00  0.00    -0.346 N 
ATOM     12  C   UNL A   1      34.029  23.812  22.706  1.00  0.00     0.251 C 
ATOM     13  O   UNL A   1      33.652  23.370  21.622  1.00  0.00    -0.269 OA
ATOM     14  H   UNL A   1      33.004  25.510  22.464  1.00  0.00     0.164 HD
BRANCH  12  15
ATOM     15  C   UNL A   1      34.786  22.925  23.629  1.00  0.00     0.041 A 
ATOM     16  C   UNL A   1      34.916  20.968  25.052  1.00  0.00     0.032 A 
ATOM     17  C   UNL A   1      36.308  21.036  24.997  1.00  0.00     0.025 A 
ATOM     18  C   UNL A   1      34.169  21.989  24.463  1.00  0.00     0.039 A 
ATOM     19  C   UNL A   1      36.944  22.052  24.280  1.00  0.00     0.003 A 
ATOM     20  C   UNL A   1      36.183  22.982  23.574  1.00  0.00     0.014 A 
BRANCH  16  21
ATOM     21  N   UNL A   1      34.282  19.952  25.751  1.00  0.00    -0.399 N 
ATOM     22  H   UNL A   1      34.808  19.341  26.316  1.00  0.00     0.156 HD
ATOM     23  H   UNL A   1      33.306  19.840  25.681  1.00  0.00     0.156 HD
ENDBRANCH  16  21
ENDBRANCH  12  15
ENDBRANCH   7  11
ENDBRANCH   3   6
ENDBRANCH   1   2
BRANCH   1  24
ATOM     24  C   UNL A   1      31.405  31.999  26.683  1.00  0.00     0.042 C 
BRANCH  24  25
ATOM     25  C   UNL A   1      32.648  32.676  27.251  1.00  0.00     0.118 C 
BRANCH  25  26
ATOM     26  N   UNL A   1      32.424  34.077  27.580  1.00  0.00    -0.352 N 
ATOM     27  C   UNL A   1      33.018  34.863  28.537  1.00  0.00     0.251 C 
ATOM     28  H   UNL A   1      31.743  34.529  27.032  1.00  0.00     0.163 HD
ATOM     29  O   UNL A   1      32.564  35.974  28.780  1.00  0.00    -0.269 OA
BRANCH  27  30
ATOM     30  C   UNL A   1      34.189  34.361  29.291  1.00  0.00     0.039 A 
ATOM     31  C   UNL A   1      33.976  33.712  30.509  1.00  0.00     0.014 A 
ATOM     32  C   UNL A   1      35.487  34.535  28.806  1.00  0.00     0.014 A 
ATOM     33  C   UNL A   1      35.062  33.177  31.207  1.00  0.00     0.010 A 
ATOM     34  C   UNL A   1      36.556  33.924  29.455  1.00  0.00     0.010 A 
ATOM     35  C   UNL A   1      36.355  33.244  30.665  1.00  0.00    -0.014 A 
BRANCH  35  36
ATOM     36  C   UNL A   1      37.511  32.606  31.346  1.00  0.00     0.031 A 
ATOM     37  C   UNL A   1      38.198  31.422  30.725  1.00  0.00     0.074 A 
ATOM     38  C   UNL A   1      37.902  33.055  32.554  1.00  0.00     0.049 A 
ATOM     39  N   UNL A   1      39.191  30.706  31.190  1.00  0.00    -0.248 NA
ATOM     40  C   UNL A   1      37.684  30.962  29.426  1.00  0.00     0.031 C 
ATOM     41  C   UNL A   1      37.297  34.172  33.281  1.00  0.00     0.029 A 
ATOM     42  N   UNL A   1      38.904  32.620  33.385  1.00  0.00    -0.354 N 
ATOM     43  C   UNL A   1      39.407  29.706  30.250  1.00  0.00     0.074 A 
ATOM     44  C   UNL A   1      38.404  29.871  29.221  1.00  0.00     0.031 C 
ATOM     45  C   UNL A   1      37.964  34.361  34.431  1.00  0.00     0.029 A 
ATOM     46  C   UNL A   1      39.010  33.350  34.544  1.00  0.00     0.049 A 
ATOM     47  H   UNL A   1      39.489  31.858  33.172  1.00  0.00     0.167 HD
ATOM     48  C   UNL A   1      40.364  28.747  30.233  1.00  0.00     0.031 A 
ATOM     49  C   UNL A   1      39.853  33.218  35.586  1.00  0.00     0.031 A 
ATOM     50  C   UNL A   1      41.358  28.582  31.260  1.00  0.00     0.049 A 
ATOM     51  C   UNL A   1      40.885  32.127  35.563  1.00  0.00     0.074 A 
ATOM     52  C   UNL A   1      42.406  27.678  31.309  1.00  0.00     0.029 A 
ATOM     53  N   UNL A   1      41.423  29.332  32.425  1.00  0.00    -0.354 N 
ATOM     54  N   UNL A   1      41.123  31.234  34.633  1.00  0.00    -0.248 NA
ATOM     55  C   UNL A   1      41.770  32.032  36.732  1.00  0.00     0.031 C 
ATOM     56  C   UNL A   1      43.063  27.837  32.534  1.00  0.00     0.029 A 
ATOM     57  C   UNL A   1      42.469  28.887  33.216  1.00  0.00     0.049 A 
ATOM     58  H   UNL A   1      40.814  30.070  32.656  1.00  0.00     0.167 HD
ATOM     59  C   UNL A   1      42.203  30.490  35.090  1.00  0.00     0.074 A 
ATOM     60  C   UNL A   1      42.582  31.046  36.373  1.00  0.00     0.031 C 
ATOM     61  C   UNL A   1      42.829  29.443  34.497  1.00  0.00     0.031 A 
BRANCH  48  62
ATOM     62  C   UNL A   1      40.357  27.789  29.071  1.00  0.00    -0.014 A 
ATOM     63  C   UNL A   1      39.650  26.577  29.126  1.00  0.00     0.009 A 
ATOM     64  C   UNL A   1      41.065  28.107  27.902  1.00  0.00     0.009 A 
ATOM     65  C   UNL A   1      39.696  25.679  28.056  1.00  0.00     0.001 A 
ATOM     66  C   UNL A   1      41.082  27.225  26.820  1.00  0.00     0.001 A 
ATOM     67  C   UNL A   1      40.410  26.006  26.903  1.00  0.00     0.000 A 
ENDBRANCH  48  62
BRANCH  49  68
ATOM     68  C   UNL A   1      39.772  34.168  36.727  1.00  0.00    -0.014 A 
ATOM     69  C   UNL A   1      38.994  33.858  37.853  1.00  0.00     0.009 A 
ATOM     70  C   UNL A   1      40.482  35.379  36.705  1.00  0.00     0.009 A 
ATOM     71  C   UNL A   1      38.913  34.750  38.924  1.00  0.00     0.001 A 
ATOM     72  C   UNL A   1      40.424  36.254  37.790  1.00  0.00     0.001 A 
ATOM     73  C   UNL A   1      39.634  35.943  38.896  1.00  0.00     0.000 A 
ENDBRANCH  49  68
BRANCH  61  74
ATOM     74  C   UNL A   1      44.009  28.849  35.216  1.00  0.00    -0.014 A 
ATOM     75  C   UNL A   1      45.310  29.338  35.020  1.00  0.00     0.009 A 
ATOM     76  C   UNL A   1      43.807  27.807  36.136  1.00  0.00     0.009 A 
ATOM     77  C   UNL A   1      46.388  28.771  35.704  1.00  0.00     0.001 A 
ATOM     78  C   UNL A   1      44.882  27.266  36.843  1.00  0.00     0.001 A 
ATOM     79  C   UNL A   1      46.172  27.741  36.618  1.00  0.00     0.000 A 
ENDBRANCH  61  74
ENDBRANCH  35  36
ENDBRANCH  27  30
ENDBRANCH  25  26
ENDBRANCH  24  25
ENDBRANCH   1  24
TORSDOF 13
ENDMDL
