MODEL 1
REMARK VINA RESULT:     -11.1      0.000      0.000
REMARK SMILES C[C@H]1[C@@H](C(=O)NCCCNC(=O)c2ccc(-c3c4nc(c(-c5ccccc5)c5ccc([nH]5)c(-c5ccccc5)c5nc(c(-c6ccccc6)c6ccc3[nH]6)C=C5)C=C4)cc2)CC[N@@H+]1CC1(O)CCCC1
REMARK SMILES IDX 7 1 6 2 4 3 5 4 3 6 1 7 2 8 63 9 61 10 62 11 64 13 65 14
REMARK SMILES IDX 67 15 70 16 68 17 69 18 66 19 8 21 9 22 10 23 11 24 12 26
REMARK SMILES IDX 13 27 14 28 60 29 15 30 59 31 16 32 17 33 18 34 53 35 19 36
REMARK SMILES IDX 58 37 52 38 54 39 20 40 57 41 51 42 50 43 21 45 43 46 28 47
REMARK SMILES IDX 42 48 29 49 32 50 41 51 55 52 30 53 31 54 40 56 56 57 33 58
REMARK SMILES IDX 22 59 23 60 27 61 24 62 26 63 25 64 44 65 45 66 49 67 46 68
REMARK SMILES IDX 48 69 47 70 34 71 35 72 39 73 36 74 38 75 37 76
REMARK H PARENT 6 5 63 12 66 20 10 25 54 44 32 55
REMARK Flexibility Score: inf
ROOT
ATOM      1  C   UNL A   1      33.158  26.823  25.292  1.00  0.00     0.117 C 
ENDROOT
BRANCH   1   2
ATOM      2  N   UNL A   1      32.452  26.131  26.353  1.00  0.00    -0.356 N 
ATOM      3  C   UNL A   1      32.176  24.807  26.513  1.00  0.00     0.229 C 
ATOM      4  O   UNL A   1      31.237  24.534  27.262  1.00  0.00    -0.275 OA
ATOM      5  H   UNL A   1      32.118  26.711  27.073  1.00  0.00     0.163 HD
BRANCH   3   6
ATOM      6  C   UNL A   1      33.088  23.745  25.905  1.00  0.00     0.142 C 
ATOM      7  C   UNL A   1      30.986  22.261  25.309  1.00  0.00     0.076 C 
ATOM      8  C   UNL A   1      32.494  22.455  25.302  1.00  0.00     0.193 C 
ATOM      9  N   UNL A   1      33.045  21.330  26.063  1.00  0.00    -0.330 N 
ATOM     10  C   UNL A   1      34.086  23.240  26.963  1.00  0.00     0.081 C 
ATOM     11  C   UNL A   1      33.598  21.849  27.305  1.00  0.00     0.263 C 
ATOM     12  H   UNL A   1      32.284  20.694  26.300  1.00  0.00     0.348 HD
BRANCH   9  13
ATOM     13  C   UNL A   1      33.868  20.371  25.317  1.00  0.00     0.297 C 
BRANCH  13  14
ATOM     14  C   UNL A   1      33.273  19.051  24.755  1.00  0.00     0.113 C 
ATOM     15  C   UNL A   1      34.284  17.964  24.374  1.00  0.00     0.041 C 
ATOM     16  C   UNL A   1      32.581  19.299  23.408  1.00  0.00     0.041 C 
ATOM     17  C   UNL A   1      33.542  17.061  23.388  1.00  0.00     0.003 C 
ATOM     18  C   UNL A   1      32.414  17.907  22.803  1.00  0.00     0.003 C 
BRANCH  14  19
ATOM     19  O   UNL A   1      32.291  18.545  25.666  1.00  0.00    -0.384 OA
ATOM     20  H   UNL A   1      31.471  19.055  25.572  1.00  0.00     0.211 HD
ENDBRANCH  14  19
ENDBRANCH  13  14
ENDBRANCH   9  13
ENDBRANCH   3   6
ENDBRANCH   1   2
BRANCH   1  21
ATOM     21  C   UNL A   1      33.790  28.101  25.844  1.00  0.00     0.042 C 
BRANCH  21  22
ATOM     22  C   UNL A   1      33.385  28.430  27.274  1.00  0.00     0.118 C 
BRANCH  22  23
ATOM     23  N   UNL A   1      33.388  29.856  27.529  1.00  0.00    -0.352 N 
ATOM     24  C   UNL A   1      34.359  30.649  28.087  1.00  0.00     0.251 C 
ATOM     25  H   UNL A   1      32.567  30.330  27.261  1.00  0.00     0.163 HD
ATOM     26  O   UNL A   1      34.066  31.800  28.420  1.00  0.00    -0.269 OA
BRANCH  24  27
ATOM     27  C   UNL A   1      35.738  30.154  28.317  1.00  0.00     0.039 A 
ATOM     28  C   UNL A   1      36.062  29.652  29.582  1.00  0.00     0.014 A 
ATOM     29  C   UNL A   1      36.737  30.241  27.343  1.00  0.00     0.014 A 
ATOM     30  C   UNL A   1      37.362  29.216  29.855  1.00  0.00     0.010 A 
ATOM     31  C   UNL A   1      38.006  29.714  27.584  1.00  0.00     0.010 A 
ATOM     32  C   UNL A   1      38.344  29.225  28.852  1.00  0.00    -0.014 A 
BRANCH  32  33
ATOM     33  C   UNL A   1      39.736  28.785  29.138  1.00  0.00     0.031 A 
ATOM     34  C   UNL A   1      40.685  29.694  29.875  1.00  0.00     0.074 A 
ATOM     35  C   UNL A   1      40.161  27.578  28.716  1.00  0.00     0.049 A 
ATOM     36  N   UNL A   1      41.936  29.491  30.207  1.00  0.00    -0.248 NA
ATOM     37  C   UNL A   1      40.172  31.016  30.269  1.00  0.00     0.031 C 
ATOM     38  C   UNL A   1      39.364  26.616  27.952  1.00  0.00     0.029 A 
ATOM     39  N   UNL A   1      41.373  26.954  28.876  1.00  0.00    -0.354 N 
ATOM     40  C   UNL A   1      42.360  30.662  30.825  1.00  0.00     0.074 A 
ATOM     41  C   UNL A   1      41.253  31.590  30.775  1.00  0.00     0.031 C 
ATOM     42  C   UNL A   1      40.096  25.510  27.740  1.00  0.00     0.029 A 
ATOM     43  C   UNL A   1      41.421  25.697  28.322  1.00  0.00     0.049 A 
ATOM     44  H   UNL A   1      42.136  27.367  29.342  1.00  0.00     0.167 HD
ATOM     45  C   UNL A   1      43.552  30.937  31.406  1.00  0.00     0.031 A 
ATOM     46  C   UNL A   1      42.419  24.793  28.291  1.00  0.00     0.031 A 
ATOM     47  C   UNL A   1      44.651  30.013  31.481  1.00  0.00     0.049 A 
ATOM     48  C   UNL A   1      43.726  25.111  28.960  1.00  0.00     0.074 A 
ATOM     49  C   UNL A   1      45.879  30.179  32.097  1.00  0.00     0.029 A 
ATOM     50  N   UNL A   1      44.650  28.744  30.922  1.00  0.00    -0.354 N 
ATOM     51  N   UNL A   1      44.086  26.200  29.595  1.00  0.00    -0.248 NA
ATOM     52  C   UNL A   1      44.759  24.066  28.920  1.00  0.00     0.031 C 
ATOM     53  C   UNL A   1      46.637  29.023  31.878  1.00  0.00     0.029 A 
ATOM     54  C   UNL A   1      45.862  28.121  31.166  1.00  0.00     0.049 A 
ATOM     55  H   UNL A   1      43.900  28.345  30.426  1.00  0.00     0.167 HD
ATOM     56  C   UNL A   1      45.379  25.965  30.046  1.00  0.00     0.074 A 
ATOM     57  C   UNL A   1      45.731  24.623  29.630  1.00  0.00     0.031 C 
ATOM     58  C   UNL A   1      46.200  26.789  30.740  1.00  0.00     0.031 A 
BRANCH  45  59
ATOM     59  C   UNL A   1      43.724  32.303  32.010  1.00  0.00    -0.014 A 
ATOM     60  C   UNL A   1      44.197  33.382  31.244  1.00  0.00     0.009 A 
ATOM     61  C   UNL A   1      43.391  32.522  33.356  1.00  0.00     0.009 A 
ATOM     62  C   UNL A   1      44.373  34.640  31.824  1.00  0.00     0.001 A 
ATOM     63  C   UNL A   1      43.540  33.788  33.926  1.00  0.00     0.001 A 
ATOM     64  C   UNL A   1      44.041  34.843  33.164  1.00  0.00     0.000 A 
ENDBRANCH  45  59
BRANCH  46  65
ATOM     65  C   UNL A   1      42.209  23.483  27.623  1.00  0.00    -0.014 A 
ATOM     66  C   UNL A   1      41.592  22.424  28.306  1.00  0.00     0.009 A 
ATOM     67  C   UNL A   1      42.621  23.286  26.295  1.00  0.00     0.009 A 
ATOM     68  C   UNL A   1      41.412  21.187  27.683  1.00  0.00     0.001 A 
ATOM     69  C   UNL A   1      42.416  22.056  25.666  1.00  0.00     0.001 A 
ATOM     70  C   UNL A   1      41.820  21.006  26.362  1.00  0.00     0.000 A 
ENDBRANCH  46  65
BRANCH  58  71
ATOM     71  C   UNL A   1      47.552  26.250  31.110  1.00  0.00    -0.014 A 
ATOM     72  C   UNL A   1      47.792  25.696  32.377  1.00  0.00     0.009 A 
ATOM     73  C   UNL A   1      48.592  26.272  30.166  1.00  0.00     0.009 A 
ATOM     74  C   UNL A   1      49.059  25.208  32.704  1.00  0.00     0.001 A 
ATOM     75  C   UNL A   1      49.849  25.759  30.488  1.00  0.00     0.001 A 
ATOM     76  C   UNL A   1      50.084  25.237  31.759  1.00  0.00     0.000 A 
ENDBRANCH  58  71
ENDBRANCH  32  33
ENDBRANCH  24  27
ENDBRANCH  22  23
ENDBRANCH  21  22
ENDBRANCH   1  21
TORSDOF 13
ENDMDL
MODEL 2
REMARK VINA RESULT:     -10.9      4.574     10.487
REMARK SMILES C[C@H]1[C@@H](C(=O)NCCCNC(=O)c2ccc(-c3c4nc(c(-c5ccccc5)c5ccc([nH]5)c(-c5ccccc5)c5nc(c(-c6ccccc6)c6ccc3[nH]6)C=C5)C=C4)cc2)CC[N@@H+]1CC1(O)CCCC1
REMARK SMILES IDX 7 1 6 2 4 3 5 4 3 6 1 7 2 8 63 9 61 10 62 11 64 13 65 14
REMARK SMILES IDX 67 15 70 16 68 17 69 18 66 19 8 21 9 22 10 23 11 24 12 26
REMARK SMILES IDX 13 27 14 28 60 29 15 30 59 31 16 32 17 33 18 34 53 35 19 36
REMARK SMILES IDX 58 37 52 38 54 39 20 40 57 41 51 42 50 43 21 45 43 46 28 47
REMARK SMILES IDX 42 48 29 49 32 50 41 51 55 52 30 53 31 54 40 56 56 57 33 58
REMARK SMILES IDX 22 59 23 60 27 61 24 62 26 63 25 64 44 65 45 66 49 67 46 68
REMARK SMILES IDX 48 69 47 70 34 71 35 72 39 73 36 74 38 75 37 76
REMARK H PARENT 6 5 63 12 66 20 10 25 54 44 32 55
REMARK Flexibility Score: inf
ROOT
ATOM      1  C   UNL A   1      45.572  21.562  25.557  1.00  0.00     0.117 C 
ENDROOT
BRANCH   1   2
ATOM      2  N   UNL A   1      46.426  22.363  24.701  1.00  0.00    -0.356 N 
ATOM      3  C   UNL A   1      46.698  23.696  24.723  1.00  0.00     0.229 C 
ATOM      4  O   UNL A   1      47.115  24.184  23.671  1.00  0.00    -0.275 OA
ATOM      5  H   UNL A   1      46.882  21.861  23.988  1.00  0.00     0.163 HD
BRANCH   3   6
ATOM      6  C   UNL A   1      46.625  24.482  26.030  1.00  0.00     0.142 C 
ATOM      7  C   UNL A   1      44.503  25.782  25.145  1.00  0.00     0.076 C 
ATOM      8  C   UNL A   1      45.523  25.540  26.247  1.00  0.00     0.193 C 
ATOM      9  N   UNL A   1      46.195  26.826  26.458  1.00  0.00    -0.330 N 
ATOM     10  C   UNL A   1      47.937  25.255  26.255  1.00  0.00     0.081 C 
ATOM     11  C   UNL A   1      47.570  26.700  25.997  1.00  0.00     0.263 C 
ATOM     12  H   UNL A   1      45.735  27.531  25.882  1.00  0.00     0.348 HD
BRANCH   9  13
ATOM     13  C   UNL A   1      45.984  27.473  27.758  1.00  0.00     0.297 C 
BRANCH  13  14
ATOM     14  C   UNL A   1      45.106  28.745  27.901  1.00  0.00     0.113 C 
ATOM     15  C   UNL A   1      44.761  29.476  26.599  1.00  0.00     0.041 C 
ATOM     16  C   UNL A   1      45.862  29.841  28.665  1.00  0.00     0.041 C 
ATOM     17  C   UNL A   1      44.404  30.901  27.027  1.00  0.00     0.003 C 
ATOM     18  C   UNL A   1      45.073  31.117  28.382  1.00  0.00     0.003 C 
BRANCH  14  19
ATOM     19  O   UNL A   1      43.924  28.428  28.644  1.00  0.00    -0.384 OA
ATOM     20  H   UNL A   1      43.938  27.490  28.889  1.00  0.00     0.211 HD
ENDBRANCH  14  19
ENDBRANCH  13  14
ENDBRANCH   9  13
ENDBRANCH   3   6
ENDBRANCH   1   2
BRANCH   1  21
ATOM     21  C   UNL A   1      44.878  20.483  24.726  1.00  0.00     0.042 C 
BRANCH  21  22
ATOM     22  C   UNL A   1      44.316  19.330  25.547  1.00  0.00     0.118 C 
BRANCH  22  23
ATOM     23  N   UNL A   1      42.911  19.101  25.279  1.00  0.00    -0.352 N 
ATOM     24  C   UNL A   1      41.804  19.742  25.776  1.00  0.00     0.251 C 
ATOM     25  H   UNL A   1      42.720  18.374  24.643  1.00  0.00     0.163 HD
ATOM     26  O   UNL A   1      40.693  19.239  25.590  1.00  0.00    -0.269 OA
BRANCH  24  27
ATOM     27  C   UNL A   1      41.910  21.007  26.543  1.00  0.00     0.039 A 
ATOM     28  C   UNL A   1      42.080  22.202  25.837  1.00  0.00     0.014 A 
ATOM     29  C   UNL A   1      41.921  21.036  27.941  1.00  0.00     0.014 A 
ATOM     30  C   UNL A   1      42.229  23.412  26.522  1.00  0.00     0.010 A 
ATOM     31  C   UNL A   1      41.968  22.252  28.623  1.00  0.00     0.010 A 
ATOM     32  C   UNL A   1      42.157  23.452  27.924  1.00  0.00    -0.014 A 
BRANCH  32  33
ATOM     33  C   UNL A   1      42.335  24.729  28.664  1.00  0.00     0.031 A 
ATOM     34  C   UNL A   1      43.614  25.000  29.414  1.00  0.00     0.074 A 
ATOM     35  C   UNL A   1      41.343  25.640  28.687  1.00  0.00     0.049 A 
ATOM     36  N   UNL A   1      43.951  26.049  30.125  1.00  0.00    -0.248 NA
ATOM     37  C   UNL A   1      44.641  23.946  29.386  1.00  0.00     0.031 C 
ATOM     38  C   UNL A   1      40.036  25.489  28.045  1.00  0.00     0.029 A 
ATOM     39  N   UNL A   1      41.284  26.879  29.275  1.00  0.00    -0.354 N 
ATOM     40  C   UNL A   1      45.211  25.769  30.641  1.00  0.00     0.074 A 
ATOM     41  C   UNL A   1      45.557  24.434  30.208  1.00  0.00     0.031 C 
ATOM     42  C   UNL A   1      39.317  26.606  28.244  1.00  0.00     0.029 A 
ATOM     43  C   UNL A   1      40.098  27.537  29.053  1.00  0.00     0.049 A 
ATOM     44  H   UNL A   1      42.020  27.261  29.806  1.00  0.00     0.167 HD
ATOM     45  C   UNL A   1      46.023  26.556  31.386  1.00  0.00     0.031 A 
ATOM     46  C   UNL A   1      39.685  28.755  29.451  1.00  0.00     0.031 A 
ATOM     47  C   UNL A   1      45.696  27.893  31.802  1.00  0.00     0.049 A 
ATOM     48  C   UNL A   1      40.610  29.621  30.260  1.00  0.00     0.074 A 
ATOM     49  C   UNL A   1      46.475  28.792  32.512  1.00  0.00     0.029 A 
ATOM     50  N   UNL A   1      44.491  28.526  31.539  1.00  0.00    -0.354 N 
ATOM     51  N   UNL A   1      41.823  29.363  30.684  1.00  0.00    -0.248 NA
ATOM     52  C   UNL A   1      40.110  30.952  30.631  1.00  0.00     0.031 C 
ATOM     53  C   UNL A   1      45.724  29.956  32.713  1.00  0.00     0.029 A 
ATOM     54  C   UNL A   1      44.498  29.798  32.087  1.00  0.00     0.049 A 
ATOM     55  H   UNL A   1      43.742  28.131  31.039  1.00  0.00     0.167 HD
ATOM     56  C   UNL A   1      42.239  30.505  31.355  1.00  0.00     0.074 A 
ATOM     57  C   UNL A   1      41.157  31.464  31.263  1.00  0.00     0.031 C 
ATOM     58  C   UNL A   1      43.412  30.738  31.992  1.00  0.00     0.031 A 
BRANCH  45  59
ATOM     59  C   UNL A   1      47.350  25.983  31.798  1.00  0.00    -0.014 A 
ATOM     60  C   UNL A   1      47.529  25.403  33.066  1.00  0.00     0.009 A 
ATOM     61  C   UNL A   1      48.431  26.002  30.903  1.00  0.00     0.009 A 
ATOM     62  C   UNL A   1      48.773  24.894  33.443  1.00  0.00     0.001 A 
ATOM     63  C   UNL A   1      49.666  25.465  31.272  1.00  0.00     0.001 A 
ATOM     64  C   UNL A   1      49.840  24.923  32.545  1.00  0.00     0.000 A 
ENDBRANCH  45  59
BRANCH  46  65
ATOM     65  C   UNL A   1      38.336  29.242  29.065  1.00  0.00    -0.014 A 
ATOM     66  C   UNL A   1      37.268  29.180  29.973  1.00  0.00     0.009 A 
ATOM     67  C   UNL A   1      38.109  29.774  27.785  1.00  0.00     0.009 A 
ATOM     68  C   UNL A   1      35.996  29.619  29.602  1.00  0.00     0.001 A 
ATOM     69  C   UNL A   1      36.842  30.238  27.426  1.00  0.00     0.001 A 
ATOM     70  C   UNL A   1      35.785  30.153  28.330  1.00  0.00     0.000 A 
ENDBRANCH  46  65
BRANCH  58  71
ATOM     71  C   UNL A   1      43.591  32.090  32.621  1.00  0.00    -0.014 A 
ATOM     72  C   UNL A   1      43.230  32.324  33.957  1.00  0.00     0.009 A 
ATOM     73  C   UNL A   1      44.154  33.136  31.872  1.00  0.00     0.009 A 
ATOM     74  C   UNL A   1      43.397  33.591  34.520  1.00  0.00     0.001 A 
ATOM     75  C   UNL A   1      44.344  34.393  32.447  1.00  0.00     0.001 A 
ATOM     76  C   UNL A   1      43.956  34.622  33.766  1.00  0.00     0.000 A 
ENDBRANCH  58  71
ENDBRANCH  32  33
ENDBRANCH  24  27
ENDBRANCH  22  23
ENDBRANCH  21  22
ENDBRANCH   1  21
TORSDOF 13
ENDMDL
MODEL 3
REMARK VINA RESULT:     -10.9      2.005      7.823
REMARK SMILES C[C@H]1[C@@H](C(=O)NCCCNC(=O)c2ccc(-c3c4nc(c(-c5ccccc5)c5ccc([nH]5)c(-c5ccccc5)c5nc(c(-c6ccccc6)c6ccc3[nH]6)C=C5)C=C4)cc2)CC[N@@H+]1CC1(O)CCCC1
REMARK SMILES IDX 7 1 6 2 4 3 5 4 3 6 1 7 2 8 63 9 61 10 62 11 64 13 65 14
REMARK SMILES IDX 67 15 70 16 68 17 69 18 66 19 8 21 9 22 10 23 11 24 12 26
REMARK SMILES IDX 13 27 14 28 60 29 15 30 59 31 16 32 17 33 18 34 53 35 19 36
REMARK SMILES IDX 58 37 52 38 54 39 20 40 57 41 51 42 50 43 21 45 43 46 28 47
REMARK SMILES IDX 42 48 29 49 32 50 41 51 55 52 30 53 31 54 40 56 56 57 33 58
REMARK SMILES IDX 22 59 23 60 27 61 24 62 26 63 25 64 44 65 45 66 49 67 46 68
REMARK SMILES IDX 48 69 47 70 34 71 35 72 39 73 36 74 38 75 37 76
REMARK H PARENT 6 5 63 12 66 20 10 25 54 44 32 55
REMARK Flexibility Score: inf
ROOT
ATOM      1  C   UNL A   1      36.991  20.718  25.020  1.00  0.00     0.117 C 
ENDROOT
BRANCH   1   2
ATOM      2  N   UNL A   1      35.765  19.947  24.944  1.00  0.00    -0.356 N 
ATOM      3  C   UNL A   1      34.466  20.353  24.931  1.00  0.00     0.229 C 
ATOM      4  O   UNL A   1      33.630  19.513  25.267  1.00  0.00    -0.275 OA
ATOM      5  H   UNL A   1      35.893  18.973  24.895  1.00  0.00     0.163 HD
BRANCH   3   6
ATOM      6  C   UNL A   1      34.087  21.727  24.382  1.00  0.00     0.142 C 
ATOM      7  C   UNL A   1      34.201  22.746  26.815  1.00  0.00     0.076 C 
ATOM      8  C   UNL A   1      33.946  22.937  25.329  1.00  0.00     0.193 C 
ATOM      9  N   UNL A   1      32.564  23.412  25.218  1.00  0.00    -0.330 N 
ATOM     10  C   UNL A   1      32.728  21.651  23.665  1.00  0.00     0.081 C 
ATOM     11  C   UNL A   1      31.771  22.361  24.598  1.00  0.00     0.263 C 
ATOM     12  H   UNL A   1      32.198  23.567  26.158  1.00  0.00     0.348 HD
BRANCH   9  13
ATOM     13  C   UNL A   1      32.376  24.776  24.713  1.00  0.00     0.297 C 
BRANCH  13  14
ATOM     14  C   UNL A   1      32.148  25.976  25.672  1.00  0.00     0.113 C 
ATOM     15  C   UNL A   1      31.384  27.169  25.089  1.00  0.00     0.041 C 
ATOM     16  C   UNL A   1      33.485  26.633  26.043  1.00  0.00     0.041 C 
ATOM     17  C   UNL A   1      31.765  28.356  25.976  1.00  0.00     0.003 C 
ATOM     18  C   UNL A   1      33.094  27.987  26.629  1.00  0.00     0.003 C 
BRANCH  14  19
ATOM     19  O   UNL A   1      31.537  25.512  26.880  1.00  0.00    -0.384 OA
ATOM     20  H   UNL A   1      31.919  24.656  27.127  1.00  0.00     0.211 HD
ENDBRANCH  14  19
ENDBRANCH  13  14
ENDBRANCH   9  13
ENDBRANCH   3   6
ENDBRANCH   1   2
BRANCH   1  21
ATOM     21  C   UNL A   1      38.195  19.781  24.926  1.00  0.00     0.042 C 
BRANCH  21  22
ATOM     22  C   UNL A   1      39.139  19.855  26.118  1.00  0.00     0.118 C 
BRANCH  22  23
ATOM     23  N   UNL A   1      40.392  19.174  25.868  1.00  0.00    -0.352 N 
ATOM     24  C   UNL A   1      41.676  19.656  25.888  1.00  0.00     0.251 C 
ATOM     25  H   UNL A   1      40.311  18.217  25.650  1.00  0.00     0.163 HD
ATOM     26  O   UNL A   1      42.580  18.958  25.422  1.00  0.00    -0.269 OA
BRANCH  24  27
ATOM     27  C   UNL A   1      42.001  20.998  26.433  1.00  0.00     0.039 A 
ATOM     28  C   UNL A   1      41.913  21.193  27.815  1.00  0.00     0.014 A 
ATOM     29  C   UNL A   1      42.316  22.083  25.610  1.00  0.00     0.014 A 
ATOM     30  C   UNL A   1      42.166  22.453  28.366  1.00  0.00     0.010 A 
ATOM     31  C   UNL A   1      42.667  23.313  26.168  1.00  0.00     0.010 A 
ATOM     32  C   UNL A   1      42.564  23.523  27.549  1.00  0.00    -0.014 A 
BRANCH  32  33
ATOM     33  C   UNL A   1      42.816  24.872  28.122  1.00  0.00     0.031 A 
ATOM     34  C   UNL A   1      44.208  25.275  28.536  1.00  0.00     0.074 A 
ATOM     35  C   UNL A   1      41.793  25.732  28.295  1.00  0.00     0.049 A 
ATOM     36  N   UNL A   1      44.621  26.402  29.062  1.00  0.00    -0.248 NA
ATOM     37  C   UNL A   1      45.272  24.274  28.361  1.00  0.00     0.031 C 
ATOM     38  C   UNL A   1      40.389  25.458  27.982  1.00  0.00     0.029 A 
ATOM     39  N   UNL A   1      41.781  27.018  28.777  1.00  0.00    -0.354 N 
ATOM     40  C   UNL A   1      45.981  26.234  29.298  1.00  0.00     0.074 A 
ATOM     41  C   UNL A   1      46.312  24.882  28.909  1.00  0.00     0.031 C 
ATOM     42  C   UNL A   1      39.658  26.552  28.247  1.00  0.00     0.029 A 
ATOM     43  C   UNL A   1      40.533  27.593  28.777  1.00  0.00     0.049 A 
ATOM     44  H   UNL A   1      42.589  27.484  29.092  1.00  0.00     0.167 HD
ATOM     45  C   UNL A   1      46.882  27.128  29.772  1.00  0.00     0.031 A 
ATOM     46  C   UNL A   1      40.137  28.823  29.157  1.00  0.00     0.031 A 
ATOM     47  C   UNL A   1      46.565  28.481  30.139  1.00  0.00     0.049 A 
ATOM     48  C   UNL A   1      41.157  29.805  29.660  1.00  0.00     0.074 A 
ATOM     49  C   UNL A   1      47.419  29.480  30.576  1.00  0.00     0.029 A 
ATOM     50  N   UNL A   1      45.292  29.027  30.107  1.00  0.00    -0.354 N 
ATOM     51  N   UNL A   1      42.448  29.648  29.816  1.00  0.00    -0.248 NA
ATOM     52  C   UNL A   1      40.662  31.141  30.024  1.00  0.00     0.031 C 
ATOM     53  C   UNL A   1      46.654  30.620  30.846  1.00  0.00     0.029 A 
ATOM     54  C   UNL A   1      45.333  30.344  30.532  1.00  0.00     0.049 A 
ATOM     55  H   UNL A   1      44.479  28.550  29.825  1.00  0.00     0.167 HD
ATOM     56  C   UNL A   1      42.925  30.868  30.278  1.00  0.00     0.074 A 
ATOM     57  C   UNL A   1      41.786  31.761  30.356  1.00  0.00     0.031 C 
ATOM     58  C   UNL A   1      44.191  31.217  30.610  1.00  0.00     0.031 A 
BRANCH  45  59
ATOM     59  C   UNL A   1      48.304  26.661  29.916  1.00  0.00    -0.014 A 
ATOM     60  C   UNL A   1      48.768  26.110  31.123  1.00  0.00     0.009 A 
ATOM     61  C   UNL A   1      49.186  26.753  28.829  1.00  0.00     0.009 A 
ATOM     62  C   UNL A   1      50.097  25.701  31.249  1.00  0.00     0.001 A 
ATOM     63  C   UNL A   1      50.507  26.315  28.949  1.00  0.00     0.001 A 
ATOM     64  C   UNL A   1      50.964  25.801  30.162  1.00  0.00     0.000 A 
ENDBRANCH  45  59
BRANCH  46  65
ATOM     65  C   UNL A   1      38.705  29.204  29.049  1.00  0.00    -0.014 A 
ATOM     66  C   UNL A   1      37.842  29.052  30.145  1.00  0.00     0.009 A 
ATOM     67  C   UNL A   1      38.195  29.727  27.850  1.00  0.00     0.009 A 
ATOM     68  C   UNL A   1      36.493  29.393  30.036  1.00  0.00     0.001 A 
ATOM     69  C   UNL A   1      36.850  30.091  27.753  1.00  0.00     0.001 A 
ATOM     70  C   UNL A   1      35.999  29.917  28.842  1.00  0.00     0.000 A 
ENDBRANCH  46  65
BRANCH  58  71
ATOM     71  C   UNL A   1      44.412  32.630  31.067  1.00  0.00    -0.014 A 
ATOM     72  C   UNL A   1      44.693  33.655  30.151  1.00  0.00     0.009 A 
ATOM     73  C   UNL A   1      44.308  32.944  32.432  1.00  0.00     0.009 A 
ATOM     74  C   UNL A   1      44.904  34.962  30.597  1.00  0.00     0.001 A 
ATOM     75  C   UNL A   1      44.493  34.256  32.871  1.00  0.00     0.001 A 
ATOM     76  C   UNL A   1      44.800  35.261  31.955  1.00  0.00     0.000 A 
ENDBRANCH  58  71
ENDBRANCH  32  33
ENDBRANCH  24  27
ENDBRANCH  22  23
ENDBRANCH  21  22
ENDBRANCH   1  21
TORSDOF 13
ENDMDL
