MODEL 1
REMARK VINA RESULT:     -11.6      0.000      0.000
REMARK SMILES C[C@H](NC(=O)N1CC[C@@H](C(=O)NCCCNC(=O)c2ccc(-c3c4nc(c(-c5ccccc5)c5ccc([nH]5)c(-c5ccccc5)c5nc(c(-c6ccccc6)c6ccc3[nH]6)C=C5)C=C4)cc2)[C@H]1C)c1ccc(Cl)cc1
REMARK SMILES IDX 13 1 12 2 10 3 11 4 9 6 6 7 7 8 67 9 8 10 68 11 4 12 3 13
REMARK SMILES IDX 5 15 2 16 1 17 69 18 70 19 75 20 71 21 74 22 72 23 73 24
REMARK SMILES IDX 14 25 15 26 16 27 17 28 18 30 19 31 20 32 66 33 21 34 65 35
REMARK SMILES IDX 22 36 23 37 24 38 59 39 25 40 64 41 58 42 60 43 26 44 63 45
REMARK SMILES IDX 57 46 56 47 27 49 49 50 34 51 48 52 35 53 38 54 47 55 61 56
REMARK SMILES IDX 36 57 37 58 46 60 62 61 39 62 28 63 29 64 33 65 30 66 32 67
REMARK SMILES IDX 31 68 50 69 51 70 55 71 52 72 54 73 53 74 40 75 41 76 45 77
REMARK SMILES IDX 42 78 44 79 43 80
REMARK H PARENT 12 5 3 14 16 29 60 48 38 59
REMARK Flexibility Score: inf
ROOT
ATOM      1  C   UNL A   1      36.851  20.599  24.988  1.00  0.00     0.117 C 
ENDROOT
BRANCH   1   2
ATOM      2  N   UNL A   1      36.926  21.771  24.120  1.00  0.00    -0.356 N 
ATOM      3  C   UNL A   1      36.020  22.626  23.579  1.00  0.00     0.225 C 
ATOM      4  O   UNL A   1      36.498  23.520  22.867  1.00  0.00    -0.275 OA
ATOM      5  H   UNL A   1      37.851  21.994  23.869  1.00  0.00     0.163 HD
BRANCH   3   6
ATOM      6  C   UNL A   1      34.500  22.556  23.736  1.00  0.00     0.102 C 
ATOM      7  N   UNL A   1      32.507  23.611  24.558  1.00  0.00    -0.321 N 
ATOM      8  C   UNL A   1      32.290  23.178  23.182  1.00  0.00     0.122 C 
ATOM      9  C   UNL A   1      33.850  23.177  25.002  1.00  0.00     0.096 C 
ATOM     10  C   UNL A   1      33.665  23.049  22.563  1.00  0.00     0.037 C 
ATOM     11  C   UNL A   1      34.695  24.269  25.594  1.00  0.00     0.032 C 
BRANCH   7  12
ATOM     12  C   UNL A   1      31.378  23.749  25.305  1.00  0.00     0.318 C 
ATOM     13  N   UNL A   1      30.605  24.837  25.345  1.00  0.00    -0.331 N 
ATOM     14  H   UNL A   1      29.950  24.728  26.071  1.00  0.00     0.165 HD
ATOM     15  O   UNL A   1      30.919  22.787  25.935  1.00  0.00    -0.249 OA
BRANCH  13  16
ATOM     16  C   UNL A   1      30.376  26.133  24.705  1.00  0.00     0.111 C 
ATOM     17  C   UNL A   1      28.966  26.322  24.133  1.00  0.00     0.036 C 
BRANCH  16  18
ATOM     18  C   UNL A   1      31.064  27.363  25.288  1.00  0.00    -0.026 A 
ATOM     19  C   UNL A   1      31.309  28.542  24.573  1.00  0.00     0.007 A 
ATOM     20  C   UNL A   1      31.444  27.342  26.647  1.00  0.00     0.007 A 
ATOM     21  C   UNL A   1      31.930  29.646  25.170  1.00  0.00     0.021 A 
ATOM     22  C   UNL A   1      32.037  28.453  27.258  1.00  0.00     0.021 A 
ATOM     23  C   UNL A   1      32.284  29.600  26.512  1.00  0.00     0.041 A 
ATOM     24  Cl  UNL A   1      33.014  30.969  27.254  1.00  0.00    -0.084 Cl
ENDBRANCH  16  18
ENDBRANCH  13  16
ENDBRANCH   7  12
ENDBRANCH   3   6
ENDBRANCH   1   2
BRANCH   1  25
ATOM     25  C   UNL A   1      38.114  19.729  24.961  1.00  0.00     0.042 C 
BRANCH  25  26
ATOM     26  C   UNL A   1      39.070  19.930  26.126  1.00  0.00     0.118 C 
BRANCH  26  27
ATOM     27  N   UNL A   1      40.315  19.208  25.937  1.00  0.00    -0.352 N 
ATOM     28  C   UNL A   1      41.617  19.642  25.921  1.00  0.00     0.251 C 
ATOM     29  H   UNL A   1      40.207  18.240  25.794  1.00  0.00     0.163 HD
ATOM     30  O   UNL A   1      42.480  18.874  25.487  1.00  0.00    -0.269 OA
BRANCH  28  31
ATOM     31  C   UNL A   1      42.030  20.987  26.400  1.00  0.00     0.039 A 
ATOM     32  C   UNL A   1      42.017  21.233  27.781  1.00  0.00     0.014 A 
ATOM     33  C   UNL A   1      42.311  22.048  25.533  1.00  0.00     0.014 A 
ATOM     34  C   UNL A   1      42.297  22.511  28.282  1.00  0.00     0.010 A 
ATOM     35  C   UNL A   1      42.676  23.300  26.036  1.00  0.00     0.010 A 
ATOM     36  C   UNL A   1      42.643  23.558  27.414  1.00  0.00    -0.014 A 
BRANCH  36  37
ATOM     37  C   UNL A   1      42.908  24.932  27.924  1.00  0.00     0.031 A 
ATOM     38  C   UNL A   1      44.318  25.366  28.244  1.00  0.00     0.074 A 
ATOM     39  C   UNL A   1      41.890  25.788  28.140  1.00  0.00     0.049 A 
ATOM     40  N   UNL A   1      44.743  26.494  28.757  1.00  0.00    -0.248 NA
ATOM     41  C   UNL A   1      45.391  24.394  27.973  1.00  0.00     0.031 C 
ATOM     42  C   UNL A   1      40.475  25.502  27.898  1.00  0.00     0.029 A 
ATOM     43  N   UNL A   1      41.892  27.075  28.618  1.00  0.00    -0.354 N 
ATOM     44  C   UNL A   1      46.119  26.356  28.896  1.00  0.00     0.074 A 
ATOM     45  C   UNL A   1      46.455  25.020  28.452  1.00  0.00     0.031 C 
ATOM     46  C   UNL A   1      39.750  26.590  28.204  1.00  0.00     0.029 A 
ATOM     47  C   UNL A   1      40.640  27.636  28.697  1.00  0.00     0.049 A 
ATOM     48  H   UNL A   1      42.713  27.552  28.878  1.00  0.00     0.167 HD
ATOM     49  C   UNL A   1      47.029  27.258  29.336  1.00  0.00     0.031 A 
ATOM     50  C   UNL A   1      40.249  28.852  29.124  1.00  0.00     0.031 A 
ATOM     51  C   UNL A   1      46.713  28.600  29.749  1.00  0.00     0.049 A 
ATOM     52  C   UNL A   1      41.276  29.839  29.604  1.00  0.00     0.074 A 
ATOM     53  C   UNL A   1      47.576  29.603  30.154  1.00  0.00     0.029 A 
ATOM     54  N   UNL A   1      45.434  29.126  29.803  1.00  0.00    -0.354 N 
ATOM     55  N   UNL A   1      42.577  29.703  29.685  1.00  0.00    -0.248 NA
ATOM     56  C   UNL A   1      40.778  31.152  30.043  1.00  0.00     0.031 C 
ATOM     57  C   UNL A   1      46.814  30.727  30.491  1.00  0.00     0.029 A 
ATOM     58  C   UNL A   1      45.480  30.435  30.252  1.00  0.00     0.049 A 
ATOM     59  H   UNL A   1      44.611  28.641  29.559  1.00  0.00     0.167 HD
ATOM     60  C   UNL A   1      43.055  30.919  30.159  1.00  0.00     0.074 A 
ATOM     61  C   UNL A   1      41.907  31.784  30.335  1.00  0.00     0.031 C 
ATOM     62  C   UNL A   1      44.332  31.286  30.421  1.00  0.00     0.031 A 
BRANCH  49  63
ATOM     63  C   UNL A   1      48.466  26.819  29.397  1.00  0.00    -0.014 A 
ATOM     64  C   UNL A   1      49.322  26.972  28.294  1.00  0.00     0.009 A 
ATOM     65  C   UNL A   1      48.981  26.278  30.585  1.00  0.00     0.009 A 
ATOM     66  C   UNL A   1      50.653  26.556  28.368  1.00  0.00     0.001 A 
ATOM     67  C   UNL A   1      50.320  25.887  30.665  1.00  0.00     0.001 A 
ATOM     68  C   UNL A   1      51.151  26.017  29.555  1.00  0.00     0.000 A 
ENDBRANCH  49  63
BRANCH  50  69
ATOM     69  C   UNL A   1      38.809  29.216  29.102  1.00  0.00    -0.014 A 
ATOM     70  C   UNL A   1      38.014  29.032  30.243  1.00  0.00     0.009 A 
ATOM     71  C   UNL A   1      38.222  29.743  27.941  1.00  0.00     0.009 A 
ATOM     72  C   UNL A   1      36.654  29.349  30.216  1.00  0.00     0.001 A 
ATOM     73  C   UNL A   1      36.868  30.082  27.925  1.00  0.00     0.001 A 
ATOM     74  C   UNL A   1      36.083  29.878  29.059  1.00  0.00     0.000 A 
ENDBRANCH  50  69
BRANCH  62  75
ATOM     75  C   UNL A   1      44.562  32.692  30.896  1.00  0.00    -0.014 A 
ATOM     76  C   UNL A   1      44.576  33.004  32.264  1.00  0.00     0.009 A 
ATOM     77  C   UNL A   1      44.805  33.711  29.961  1.00  0.00     0.009 A 
ATOM     78  C   UNL A   1      44.803  34.317  32.685  1.00  0.00     0.001 A 
ATOM     79  C   UNL A   1      45.054  35.016  30.386  1.00  0.00     0.001 A 
ATOM     80  C   UNL A   1      45.045  35.319  31.746  1.00  0.00     0.000 A 
ENDBRANCH  62  75
ENDBRANCH  36  37
ENDBRANCH  28  31
ENDBRANCH  26  27
ENDBRANCH  25  26
ENDBRANCH   1  25
TORSDOF 13
ENDMDL
MODEL 2
REMARK VINA RESULT:     -11.5      3.866      9.034
REMARK SMILES C[C@H](NC(=O)N1CC[C@@H](C(=O)NCCCNC(=O)c2ccc(-c3c4nc(c(-c5ccccc5)c5ccc([nH]5)c(-c5ccccc5)c5nc(c(-c6ccccc6)c6ccc3[nH]6)C=C5)C=C4)cc2)[C@H]1C)c1ccc(Cl)cc1
REMARK SMILES IDX 13 1 12 2 10 3 11 4 9 6 6 7 7 8 67 9 8 10 68 11 4 12 3 13
REMARK SMILES IDX 5 15 2 16 1 17 69 18 70 19 75 20 71 21 74 22 72 23 73 24
REMARK SMILES IDX 14 25 15 26 16 27 17 28 18 30 19 31 20 32 66 33 21 34 65 35
REMARK SMILES IDX 22 36 23 37 24 38 59 39 25 40 64 41 58 42 60 43 26 44 63 45
REMARK SMILES IDX 57 46 56 47 27 49 49 50 34 51 48 52 35 53 38 54 47 55 61 56
REMARK SMILES IDX 36 57 37 58 46 60 62 61 39 62 28 63 29 64 33 65 30 66 32 67
REMARK SMILES IDX 31 68 50 69 51 70 55 71 52 72 54 73 53 74 40 75 41 76 45 77
REMARK SMILES IDX 42 78 44 79 43 80
REMARK H PARENT 12 5 3 14 16 29 60 48 38 59
REMARK Flexibility Score: inf
ROOT
ATOM      1  C   UNL A   1      31.465  30.535  25.769  1.00  0.00     0.117 C 
ENDROOT
BRANCH   1   2
ATOM      2  N   UNL A   1      31.643  29.474  26.757  1.00  0.00    -0.356 N 
ATOM      3  C   UNL A   1      31.531  28.120  26.745  1.00  0.00     0.225 C 
ATOM      4  O   UNL A   1      31.766  27.562  27.825  1.00  0.00    -0.275 OA
ATOM      5  H   UNL A   1      31.906  29.823  27.639  1.00  0.00     0.163 HD
BRANCH   3   6
ATOM      6  C   UNL A   1      31.113  27.255  25.555  1.00  0.00     0.102 C 
ATOM      7  N   UNL A   1      31.755  25.599  23.942  1.00  0.00    -0.321 N 
ATOM      8  C   UNL A   1      30.484  25.215  24.547  1.00  0.00     0.122 C 
ATOM      9  C   UNL A   1      32.169  26.918  24.468  1.00  0.00     0.096 C 
ATOM     10  C   UNL A   1      30.417  25.940  25.872  1.00  0.00     0.037 C 
ATOM     11  C   UNL A   1      33.571  26.962  25.008  1.00  0.00     0.032 C 
BRANCH   7  12
ATOM     12  C   UNL A   1      31.989  25.074  22.708  1.00  0.00     0.318 C 
ATOM     13  N   UNL A   1      32.464  23.850  22.466  1.00  0.00    -0.331 N 
ATOM     14  H   UNL A   1      32.680  23.783  21.507  1.00  0.00     0.165 HD
ATOM     15  O   UNL A   1      31.654  25.690  21.688  1.00  0.00    -0.249 OA
BRANCH  13  16
ATOM     16  C   UNL A   1      32.782  22.572  23.103  1.00  0.00     0.111 C 
ATOM     17  C   UNL A   1      32.060  21.361  22.500  1.00  0.00     0.036 C 
BRANCH  16  18
ATOM     18  C   UNL A   1      34.199  22.352  23.624  1.00  0.00    -0.026 A 
ATOM     19  C   UNL A   1      35.280  23.199  23.349  1.00  0.00     0.007 A 
ATOM     20  C   UNL A   1      34.442  21.252  24.475  1.00  0.00     0.007 A 
ATOM     21  C   UNL A   1      36.555  22.954  23.872  1.00  0.00     0.021 A 
ATOM     22  C   UNL A   1      35.708  21.019  25.025  1.00  0.00     0.021 A 
ATOM     23  C   UNL A   1      36.762  21.869  24.714  1.00  0.00     0.041 A 
ATOM     24  Cl  UNL A   1      38.321  21.588  25.384  1.00  0.00    -0.084 Cl
ENDBRANCH  16  18
ENDBRANCH  13  16
ENDBRANCH   7  12
ENDBRANCH   3   6
ENDBRANCH   1   2
BRANCH   1  25
ATOM     25  C   UNL A   1      31.376  31.939  26.381  1.00  0.00     0.042 C 
BRANCH  25  26
ATOM     26  C   UNL A   1      32.559  32.352  27.242  1.00  0.00     0.118 C 
BRANCH  26  27
ATOM     27  N   UNL A   1      32.478  33.744  27.643  1.00  0.00    -0.352 N 
ATOM     28  C   UNL A   1      33.202  34.462  28.562  1.00  0.00     0.251 C 
ATOM     29  H   UNL A   1      31.784  34.263  27.176  1.00  0.00     0.163 HD
ATOM     30  O   UNL A   1      32.772  35.568  28.905  1.00  0.00    -0.269 OA
BRANCH  28  31
ATOM     31  C   UNL A   1      34.471  33.970  29.160  1.00  0.00     0.039 A 
ATOM     32  C   UNL A   1      35.675  34.283  28.513  1.00  0.00     0.014 A 
ATOM     33  C   UNL A   1      34.507  33.110  30.262  1.00  0.00     0.014 A 
ATOM     34  C   UNL A   1      36.891  33.761  28.972  1.00  0.00     0.010 A 
ATOM     35  C   UNL A   1      35.728  32.660  30.773  1.00  0.00     0.010 A 
ATOM     36  C   UNL A   1      36.932  32.952  30.117  1.00  0.00    -0.014 A 
BRANCH  36  37
ATOM     37  C   UNL A   1      38.209  32.357  30.601  1.00  0.00     0.031 A 
ATOM     38  C   UNL A   1      38.721  31.067  30.009  1.00  0.00     0.074 A 
ATOM     39  C   UNL A   1      38.900  32.944  31.599  1.00  0.00     0.049 A 
ATOM     40  N   UNL A   1      39.774  30.360  30.341  1.00  0.00    -0.248 NA
ATOM     41  C   UNL A   1      37.933  30.480  28.912  1.00  0.00     0.031 C 
ATOM     42  C   UNL A   1      38.518  34.180  32.283  1.00  0.00     0.029 A 
ATOM     43  N   UNL A   1      40.070  32.572  32.214  1.00  0.00    -0.354 N 
ATOM     44  C   UNL A   1      39.756  29.240  29.519  1.00  0.00     0.074 A 
ATOM     45  C   UNL A   1      38.567  29.338  28.700  1.00  0.00     0.031 C 
ATOM     46  C   UNL A   1      39.449  34.477  33.204  1.00  0.00     0.029 A 
ATOM     47  C   UNL A   1      40.473  33.437  33.202  1.00  0.00     0.049 A 
ATOM     48  H   UNL A   1      40.574  31.762  31.968  1.00  0.00     0.167 HD
ATOM     49  C   UNL A   1      40.652  28.227  29.435  1.00  0.00     0.031 A 
ATOM     50  C   UNL A   1      41.542  33.397  34.021  1.00  0.00     0.031 A 
ATOM     51  C   UNL A   1      41.853  28.134  30.221  1.00  0.00     0.049 A 
ATOM     52  C   UNL A   1      42.525  32.266  33.908  1.00  0.00     0.074 A 
ATOM     53  C   UNL A   1      42.850  27.175  30.163  1.00  0.00     0.029 A 
ATOM     54  N   UNL A   1      42.225  29.038  31.201  1.00  0.00    -0.354 N 
ATOM     55  N   UNL A   1      42.513  31.240  33.093  1.00  0.00    -0.248 NA
ATOM     56  C   UNL A   1      43.676  32.295  34.824  1.00  0.00     0.031 C 
ATOM     57  C   UNL A   1      43.806  27.478  31.138  1.00  0.00     0.029 A 
ATOM     58  C   UNL A   1      43.426  28.651  31.770  1.00  0.00     0.049 A 
ATOM     59  H   UNL A   1      41.710  29.838  31.458  1.00  0.00     0.167 HD
ATOM     60  C   UNL A   1      43.664  30.516  33.380  1.00  0.00     0.074 A 
ATOM     61  C   UNL A   1      44.358  31.226  34.434  1.00  0.00     0.031 C 
ATOM     62  C   UNL A   1      44.107  29.366  32.817  1.00  0.00     0.031 A 
BRANCH  49  63
ATOM     63  C   UNL A   1      40.361  27.125  28.454  1.00  0.00    -0.014 A 
ATOM     64  C   UNL A   1      39.556  26.029  28.807  1.00  0.00     0.009 A 
ATOM     65  C   UNL A   1      40.870  27.200  27.149  1.00  0.00     0.009 A 
ATOM     66  C   UNL A   1      39.299  25.014  27.883  1.00  0.00     0.001 A 
ATOM     67  C   UNL A   1      40.590  26.196  26.219  1.00  0.00     0.001 A 
ATOM     68  C   UNL A   1      39.813  25.100  26.590  1.00  0.00     0.000 A 
ENDBRANCH  49  63
BRANCH  50  69
ATOM     69  C   UNL A   1      41.752  34.480  35.017  1.00  0.00    -0.014 A 
ATOM     70  C   UNL A   1      42.483  35.627  34.673  1.00  0.00     0.009 A 
ATOM     71  C   UNL A   1      41.229  34.369  36.314  1.00  0.00     0.009 A 
ATOM     72  C   UNL A   1      42.704  36.633  35.616  1.00  0.00     0.001 A 
ATOM     73  C   UNL A   1      41.430  35.388  37.247  1.00  0.00     0.001 A 
ATOM     74  C   UNL A   1      42.174  36.516  36.901  1.00  0.00     0.000 A 
ENDBRANCH  50  69
BRANCH  62  75
ATOM     75  C   UNL A   1      45.417  28.820  33.306  1.00  0.00    -0.014 A 
ATOM     76  C   UNL A   1      46.634  29.229  32.739  1.00  0.00     0.009 A 
ATOM     77  C   UNL A   1      45.435  27.910  34.376  1.00  0.00     0.009 A 
ATOM     78  C   UNL A   1      47.842  28.717  33.217  1.00  0.00     0.001 A 
ATOM     79  C   UNL A   1      46.645  27.419  34.866  1.00  0.00     0.001 A 
ATOM     80  C   UNL A   1      47.847  27.816  34.282  1.00  0.00     0.000 A 
ENDBRANCH  62  75
ENDBRANCH  36  37
ENDBRANCH  28  31
ENDBRANCH  26  27
ENDBRANCH  25  26
ENDBRANCH   1  25
TORSDOF 13
ENDMDL
MODEL 3
REMARK VINA RESULT:     -11.5      1.019      6.081
REMARK SMILES C[C@H](NC(=O)N1CC[C@@H](C(=O)NCCCNC(=O)c2ccc(-c3c4nc(c(-c5ccccc5)c5ccc([nH]5)c(-c5ccccc5)c5nc(c(-c6ccccc6)c6ccc3[nH]6)C=C5)C=C4)cc2)[C@H]1C)c1ccc(Cl)cc1
REMARK SMILES IDX 13 1 12 2 10 3 11 4 9 6 6 7 7 8 67 9 8 10 68 11 4 12 3 13
REMARK SMILES IDX 5 15 2 16 1 17 69 18 70 19 75 20 71 21 74 22 72 23 73 24
REMARK SMILES IDX 14 25 15 26 16 27 17 28 18 30 19 31 20 32 66 33 21 34 65 35
REMARK SMILES IDX 22 36 23 37 24 38 59 39 25 40 64 41 58 42 60 43 26 44 63 45
REMARK SMILES IDX 57 46 56 47 27 49 49 50 34 51 48 52 35 53 38 54 47 55 61 56
REMARK SMILES IDX 36 57 37 58 46 60 62 61 39 62 28 63 29 64 33 65 30 66 32 67
REMARK SMILES IDX 31 68 50 69 51 70 55 71 52 72 54 73 53 74 40 75 41 76 45 77
REMARK SMILES IDX 42 78 44 79 43 80
REMARK H PARENT 12 5 3 14 16 29 60 48 38 59
REMARK Flexibility Score: inf
ROOT
ATOM      1  C   UNL A   1      36.336  20.669  24.735  1.00  0.00     0.117 C 
ENDROOT
BRANCH   1   2
ATOM      2  N   UNL A   1      35.648  21.071  25.959  1.00  0.00    -0.356 N 
ATOM      3  C   UNL A   1      34.549  21.818  26.244  1.00  0.00     0.225 C 
ATOM      4  O   UNL A   1      34.288  21.933  27.449  1.00  0.00    -0.275 OA
ATOM      5  H   UNL A   1      36.083  20.717  26.768  1.00  0.00     0.163 HD
BRANCH   3   6
ATOM      6  C   UNL A   1      33.658  22.541  25.233  1.00  0.00     0.102 C 
ATOM      7  N   UNL A   1      33.523  24.119  23.430  1.00  0.00    -0.321 N 
ATOM      8  C   UNL A   1      32.791  22.909  23.067  1.00  0.00     0.122 C 
ATOM      9  C   UNL A   1      34.025  23.991  24.816  1.00  0.00     0.096 C 
ATOM     10  C   UNL A   1      33.353  21.806  23.936  1.00  0.00     0.037 C 
ATOM     11  C   UNL A   1      35.492  24.272  24.977  1.00  0.00     0.032 C 
BRANCH   7  12
ATOM     12  C   UNL A   1      33.132  25.248  22.777  1.00  0.00     0.318 C 
ATOM     13  N   UNL A   1      32.233  26.127  23.225  1.00  0.00    -0.331 N 
ATOM     14  H   UNL A   1      32.027  26.759  22.499  1.00  0.00     0.165 HD
ATOM     15  O   UNL A   1      33.695  25.597  21.733  1.00  0.00    -0.249 OA
BRANCH  13  16
ATOM     16  C   UNL A   1      31.442  26.496  24.400  1.00  0.00     0.111 C 
ATOM     17  C   UNL A   1      30.769  25.316  25.112  1.00  0.00     0.036 C 
BRANCH  16  18
ATOM     18  C   UNL A   1      31.928  27.651  25.270  1.00  0.00    -0.026 A 
ATOM     19  C   UNL A   1      32.752  27.500  26.392  1.00  0.00     0.007 A 
ATOM     20  C   UNL A   1      31.569  28.967  24.906  1.00  0.00     0.007 A 
ATOM     21  C   UNL A   1      33.180  28.603  27.142  1.00  0.00     0.021 A 
ATOM     22  C   UNL A   1      32.019  30.076  25.632  1.00  0.00     0.021 A 
ATOM     23  C   UNL A   1      32.819  29.887  26.754  1.00  0.00     0.041 A 
ATOM     24  Cl  UNL A   1      33.374  31.243  27.653  1.00  0.00    -0.084 Cl
ENDBRANCH  16  18
ENDBRANCH  13  16
ENDBRANCH   7  12
ENDBRANCH   3   6
ENDBRANCH   1   2
BRANCH   1  25
ATOM     25  C   UNL A   1      37.527  19.732  24.975  1.00  0.00     0.042 C 
BRANCH  25  26
ATOM     26  C   UNL A   1      38.711  20.353  25.697  1.00  0.00     0.118 C 
BRANCH  26  27
ATOM     27  N   UNL A   1      39.817  19.421  25.826  1.00  0.00    -0.352 N 
ATOM     28  C   UNL A   1      41.150  19.632  26.074  1.00  0.00     0.251 C 
ATOM     29  H   UNL A   1      39.567  18.475  25.716  1.00  0.00     0.163 HD
ATOM     30  O   UNL A   1      41.931  18.696  25.883  1.00  0.00    -0.269 OA
BRANCH  28  31
ATOM     31  C   UNL A   1      41.691  20.930  26.559  1.00  0.00     0.039 A 
ATOM     32  C   UNL A   1      41.696  21.173  27.939  1.00  0.00     0.014 A 
ATOM     33  C   UNL A   1      42.077  21.959  25.695  1.00  0.00     0.014 A 
ATOM     34  C   UNL A   1      42.097  22.416  28.445  1.00  0.00     0.010 A 
ATOM     35  C   UNL A   1      42.561  23.169  26.203  1.00  0.00     0.010 A 
ATOM     36  C   UNL A   1      42.547  23.426  27.581  1.00  0.00    -0.014 A 
BRANCH  36  37
ATOM     37  C   UNL A   1      42.944  24.766  28.095  1.00  0.00     0.031 A 
ATOM     38  C   UNL A   1      41.896  25.819  28.364  1.00  0.00     0.074 A 
ATOM     39  C   UNL A   1      44.244  25.065  28.287  1.00  0.00     0.049 A 
ATOM     40  N   UNL A   1      42.049  27.062  28.750  1.00  0.00    -0.248 NA
ATOM     41  C   UNL A   1      40.493  25.430  28.151  1.00  0.00     0.031 C 
ATOM     42  C   UNL A   1      45.368  24.159  28.049  1.00  0.00     0.029 A 
ATOM     43  N   UNL A   1      44.839  26.224  28.725  1.00  0.00    -0.354 N 
ATOM     44  C   UNL A   1      40.771  27.607  28.795  1.00  0.00     0.074 A 
ATOM     45  C   UNL A   1      39.857  26.573  28.360  1.00  0.00     0.031 C 
ATOM     46  C   UNL A   1      46.512  24.786  28.367  1.00  0.00     0.029 A 
ATOM     47  C   UNL A   1      46.208  26.147  28.797  1.00  0.00     0.049 A 
ATOM     48  H   UNL A   1      44.331  27.032  28.966  1.00  0.00     0.167 HD
ATOM     49  C   UNL A   1      40.383  28.847  29.180  1.00  0.00     0.031 A 
ATOM     50  C   UNL A   1      47.121  27.069  29.161  1.00  0.00     0.031 A 
ATOM     51  C   UNL A   1      41.278  29.873  29.645  1.00  0.00     0.049 A 
ATOM     52  C   UNL A   1      46.668  28.438  29.587  1.00  0.00     0.074 A 
ATOM     53  C   UNL A   1      40.969  31.139  30.112  1.00  0.00     0.029 A 
ATOM     54  N   UNL A   1      42.655  29.746  29.711  1.00  0.00    -0.354 N 
ATOM     55  N   UNL A   1      45.451  28.917  29.666  1.00  0.00    -0.248 NA
ATOM     56  C   UNL A   1      47.718  29.388  29.985  1.00  0.00     0.031 C 
ATOM     57  C   UNL A   1      42.165  31.794  30.422  1.00  0.00     0.029 A 
ATOM     58  C   UNL A   1      43.214  30.918  30.192  1.00  0.00     0.049 A 
ATOM     59  H   UNL A   1      43.162  28.943  29.452  1.00  0.00     0.167 HD
ATOM     60  C   UNL A   1      45.586  30.214  30.145  1.00  0.00     0.074 A 
ATOM     61  C   UNL A   1      47.001  30.443  30.351  1.00  0.00     0.031 C 
ATOM     62  C   UNL A   1      44.622  31.133  30.394  1.00  0.00     0.031 A 
BRANCH  49  63
ATOM     63  C   UNL A   1      38.915  29.166  29.109  1.00  0.00    -0.014 A 
ATOM     64  C   UNL A   1      38.079  29.003  30.225  1.00  0.00     0.009 A 
ATOM     65  C   UNL A   1      38.368  29.671  27.919  1.00  0.00     0.009 A 
ATOM     66  C   UNL A   1      36.718  29.303  30.139  1.00  0.00     0.001 A 
ATOM     67  C   UNL A   1      37.011  29.995  27.844  1.00  0.00     0.001 A 
ATOM     68  C   UNL A   1      36.186  29.802  28.950  1.00  0.00     0.000 A 
ENDBRANCH  49  63
BRANCH  50  69
ATOM     69  C   UNL A   1      48.565  26.723  29.155  1.00  0.00    -0.014 A 
ATOM     70  C   UNL A   1      49.358  27.007  28.033  1.00  0.00     0.009 A 
ATOM     71  C   UNL A   1      49.157  26.103  30.267  1.00  0.00     0.009 A 
ATOM     72  C   UNL A   1      50.710  26.658  28.016  1.00  0.00     0.001 A 
ATOM     73  C   UNL A   1      50.514  25.778  30.256  1.00  0.00     0.001 A 
ATOM     74  C   UNL A   1      51.289  26.049  29.129  1.00  0.00     0.000 A 
ENDBRANCH  50  69
BRANCH  62  75
ATOM     75  C   UNL A   1      45.060  32.458  30.948  1.00  0.00    -0.014 A 
ATOM     76  C   UNL A   1      45.168  32.670  32.331  1.00  0.00     0.009 A 
ATOM     77  C   UNL A   1      45.406  33.498  30.069  1.00  0.00     0.009 A 
ATOM     78  C   UNL A   1      45.589  33.907  32.824  1.00  0.00     0.001 A 
ATOM     79  C   UNL A   1      45.848  34.725  30.565  1.00  0.00     0.001 A 
ATOM     80  C   UNL A   1      45.932  34.931  31.941  1.00  0.00     0.000 A 
ENDBRANCH  62  75
ENDBRANCH  36  37
ENDBRANCH  28  31
ENDBRANCH  26  27
ENDBRANCH  25  26
ENDBRANCH   1  25
TORSDOF 13
ENDMDL
