MODEL 1
REMARK VINA RESULT:     -11.7      0.000      0.000
REMARK SMILES CCc1cc(Nc2ccc(C(=O)NCCCNC(=O)c3ccc(-c4c5nc(c(-c6ccccc6)c6ccc([nH]6)c(-c6ccccc6)c6nc(c(-c7ccccc7)c7ccc4[nH]7)C=C6)C=C5)cc3)cc2)nc(C(C)C)n1
REMARK SMILES IDX 14 1 13 2 11 3 12 4 10 6 7 7 8 8 69 9 9 10 68 11 6 12 5 14
REMARK SMILES IDX 3 15 4 16 75 17 71 18 70 19 2 20 1 21 72 22 73 23 74 24
REMARK SMILES IDX 15 25 16 26 17 27 18 28 19 30 20 31 21 32 67 33 22 34 66 35
REMARK SMILES IDX 23 36 24 37 25 38 60 39 26 40 65 41 59 42 61 43 27 44 64 45
REMARK SMILES IDX 58 46 57 47 28 49 50 50 35 51 49 52 36 53 39 54 48 55 62 56
REMARK SMILES IDX 37 57 38 58 47 60 63 61 40 62 29 63 30 64 34 65 31 66 33 67
REMARK SMILES IDX 32 68 51 69 52 70 56 71 53 72 55 73 54 74 41 75 42 76 46 77
REMARK SMILES IDX 43 78 45 79 44 80
REMARK H PARENT 13 5 6 13 17 29 61 48 39 59
REMARK Flexibility Score: inf
ROOT
ATOM      1  C   UNL A   1      35.633  20.673  25.156  1.00  0.00     0.118 C 
ENDROOT
BRANCH   1   2
ATOM      2  N   UNL A   1      34.560  19.714  25.348  1.00  0.00    -0.352 N 
ATOM      3  C   UNL A   1      33.200  19.812  25.207  1.00  0.00     0.251 C 
ATOM      4  O   UNL A   1      32.534  18.794  25.393  1.00  0.00    -0.269 OA
ATOM      5  H   UNL A   1      34.868  18.823  25.634  1.00  0.00     0.163 HD
BRANCH   3   6
ATOM      6  C   UNL A   1      32.509  21.064  24.791  1.00  0.00     0.039 A 
ATOM      7  C   UNL A   1      31.075  23.420  24.165  1.00  0.00     0.040 A 
ATOM      8  C   UNL A   1      30.990  22.853  25.440  1.00  0.00     0.027 A 
ATOM      9  C   UNL A   1      31.903  22.810  23.219  1.00  0.00     0.027 A 
ATOM     10  C   UNL A   1      31.694  21.684  25.748  1.00  0.00     0.016 A 
ATOM     11  C   UNL A   1      32.644  21.667  23.540  1.00  0.00     0.016 A 
BRANCH   7  12
ATOM     12  N   UNL A   1      30.284  24.531  23.840  1.00  0.00    -0.340 N 
ATOM     13  H   UNL A   1      29.452  24.349  23.345  1.00  0.00     0.168 HD
BRANCH  12  14
ATOM     14  C   UNL A   1      30.550  25.882  24.145  1.00  0.00     0.134 A 
ATOM     15  C   UNL A   1      30.346  28.170  23.585  1.00  0.00     0.046 A 
ATOM     16  C   UNL A   1      30.034  26.854  23.307  1.00  0.00     0.071 A 
ATOM     17  N   UNL A   1      31.120  28.498  24.639  1.00  0.00    -0.238 NA
ATOM     18  C   UNL A   1      31.570  27.497  25.418  1.00  0.00     0.133 A 
ATOM     19  N   UNL A   1      31.294  26.199  25.216  1.00  0.00    -0.216 NA
BRANCH  15  20
ATOM     20  C   UNL A   1      29.868  29.334  22.753  1.00  0.00     0.053 C 
ATOM     21  C   UNL A   1      28.370  29.420  22.485  1.00  0.00     0.011 C 
ENDBRANCH  15  20
BRANCH  18  22
ATOM     22  C   UNL A   1      32.484  27.842  26.573  1.00  0.00     0.051 C 
ATOM     23  C   UNL A   1      33.900  28.134  26.075  1.00  0.00     0.016 C 
ATOM     24  C   UNL A   1      31.934  29.015  27.380  1.00  0.00     0.016 C 
ENDBRANCH  18  22
ENDBRANCH  12  14
ENDBRANCH   7  12
ENDBRANCH   3   6
ENDBRANCH   1   2
BRANCH   1  25
ATOM     25  C   UNL A   1      36.929  19.971  24.750  1.00  0.00     0.042 C 
BRANCH  25  26
ATOM     26  C   UNL A   1      38.168  20.555  25.423  1.00  0.00     0.118 C 
BRANCH  26  27
ATOM     27  N   UNL A   1      39.236  19.573  25.546  1.00  0.00    -0.352 N 
ATOM     28  C   UNL A   1      40.542  19.737  25.933  1.00  0.00     0.251 C 
ATOM     29  H   UNL A   1      38.982  18.650  25.316  1.00  0.00     0.163 HD
ATOM     30  O   UNL A   1      41.342  18.820  25.771  1.00  0.00    -0.269 OA
BRANCH  28  31
ATOM     31  C   UNL A   1      40.999  21.010  26.534  1.00  0.00     0.039 A 
ATOM     32  C   UNL A   1      41.542  21.989  25.696  1.00  0.00     0.014 A 
ATOM     33  C   UNL A   1      40.948  21.222  27.915  1.00  0.00     0.014 A 
ATOM     34  C   UNL A   1      41.991  23.197  26.236  1.00  0.00     0.010 A 
ATOM     35  C   UNL A   1      41.335  22.451  28.445  1.00  0.00     0.010 A 
ATOM     36  C   UNL A   1      41.869  23.447  27.612  1.00  0.00    -0.014 A 
BRANCH  36  37
ATOM     37  C   UNL A   1      42.303  24.738  28.199  1.00  0.00     0.031 A 
ATOM     38  C   UNL A   1      41.310  25.846  28.415  1.00  0.00     0.074 A 
ATOM     39  C   UNL A   1      43.605  24.935  28.483  1.00  0.00     0.049 A 
ATOM     40  N   UNL A   1      41.510  27.057  28.870  1.00  0.00    -0.248 NA
ATOM     41  C   UNL A   1      39.915  25.563  28.050  1.00  0.00     0.031 C 
ATOM     42  C   UNL A   1      44.672  23.951  28.294  1.00  0.00     0.029 A 
ATOM     43  N   UNL A   1      44.250  26.034  28.988  1.00  0.00    -0.354 N 
ATOM     44  C   UNL A   1      40.274  27.687  28.822  1.00  0.00     0.074 A 
ATOM     45  C   UNL A   1      39.339  26.738  28.256  1.00  0.00     0.031 C 
ATOM     46  C   UNL A   1      45.833  24.478  28.712  1.00  0.00     0.029 A 
ATOM     47  C   UNL A   1      45.600  25.849  29.158  1.00  0.00     0.049 A 
ATOM     48  H   UNL A   1      43.790  26.876  29.208  1.00  0.00     0.167 HD
ATOM     49  C   UNL A   1      39.941  28.937  29.223  1.00  0.00     0.031 A 
ATOM     50  C   UNL A   1      46.545  26.687  29.621  1.00  0.00     0.031 A 
ATOM     51  C   UNL A   1      40.867  29.876  29.798  1.00  0.00     0.049 A 
ATOM     52  C   UNL A   1      46.156  28.075  30.043  1.00  0.00     0.074 A 
ATOM     53  C   UNL A   1      40.614  31.141  30.302  1.00  0.00     0.029 A 
ATOM     54  N   UNL A   1      42.228  29.654  29.939  1.00  0.00    -0.354 N 
ATOM     55  N   UNL A   1      44.971  28.633  30.053  1.00  0.00    -0.248 NA
ATOM     56  C   UNL A   1      47.239  28.946  30.522  1.00  0.00     0.031 C 
ATOM     57  C   UNL A   1      41.831  31.703  30.703  1.00  0.00     0.029 A 
ATOM     58  C   UNL A   1      42.834  30.769  30.495  1.00  0.00     0.049 A 
ATOM     59  H   UNL A   1      42.695  28.827  29.682  1.00  0.00     0.167 HD
ATOM     60  C   UNL A   1      45.158  29.911  30.565  1.00  0.00     0.074 A 
ATOM     61  C   UNL A   1      46.572  30.040  30.861  1.00  0.00     0.031 C 
ATOM     62  C   UNL A   1      44.242  30.886  30.776  1.00  0.00     0.031 A 
BRANCH  49  63
ATOM     63  C   UNL A   1      38.512  29.363  29.030  1.00  0.00    -0.014 A 
ATOM     64  C   UNL A   1      38.053  29.845  27.793  1.00  0.00     0.009 A 
ATOM     65  C   UNL A   1      37.608  29.274  30.100  1.00  0.00     0.009 A 
ATOM     66  C   UNL A   1      36.732  30.274  27.646  1.00  0.00     0.001 A 
ATOM     67  C   UNL A   1      36.281  29.676  29.942  1.00  0.00     0.001 A 
ATOM     68  C   UNL A   1      35.847  30.187  28.720  1.00  0.00     0.000 A 
ENDBRANCH  49  63
BRANCH  50  69
ATOM     69  C   UNL A   1      47.949  26.221  29.746  1.00  0.00    -0.014 A 
ATOM     70  C   UNL A   1      48.438  25.787  30.987  1.00  0.00     0.009 A 
ATOM     71  C   UNL A   1      48.800  26.190  28.630  1.00  0.00     0.009 A 
ATOM     72  C   UNL A   1      49.757  25.346  31.114  1.00  0.00     0.001 A 
ATOM     73  C   UNL A   1      50.111  25.726  28.755  1.00  0.00     0.001 A 
ATOM     74  C   UNL A   1      50.590  25.311  29.997  1.00  0.00     0.000 A 
ENDBRANCH  50  69
BRANCH  62  75
ATOM     75  C   UNL A   1      44.734  32.168  31.384  1.00  0.00    -0.014 A 
ATOM     76  C   UNL A   1      44.794  32.337  32.776  1.00  0.00     0.009 A 
ATOM     77  C   UNL A   1      45.175  33.208  30.550  1.00  0.00     0.009 A 
ATOM     78  C   UNL A   1      45.258  33.537  33.319  1.00  0.00     0.001 A 
ATOM     79  C   UNL A   1      45.663  34.395  31.097  1.00  0.00     0.001 A 
ATOM     80  C   UNL A   1      45.696  34.562  32.481  1.00  0.00     0.000 A 
ENDBRANCH  62  75
ENDBRANCH  36  37
ENDBRANCH  28  31
ENDBRANCH  26  27
ENDBRANCH  25  26
ENDBRANCH   1  25
TORSDOF 14
ENDMDL
MODEL 2
REMARK VINA RESULT:     -11.6      2.320      7.864
REMARK SMILES CCc1cc(Nc2ccc(C(=O)NCCCNC(=O)c3ccc(-c4c5nc(c(-c6ccccc6)c6ccc([nH]6)c(-c6ccccc6)c6nc(c(-c7ccccc7)c7ccc4[nH]7)C=C6)C=C5)cc3)cc2)nc(C(C)C)n1
REMARK SMILES IDX 14 1 13 2 11 3 12 4 10 6 7 7 8 8 69 9 9 10 68 11 6 12 5 14
REMARK SMILES IDX 3 15 4 16 75 17 71 18 70 19 2 20 1 21 72 22 73 23 74 24
REMARK SMILES IDX 15 25 16 26 17 27 18 28 19 30 20 31 21 32 67 33 22 34 66 35
REMARK SMILES IDX 23 36 24 37 25 38 60 39 26 40 65 41 59 42 61 43 27 44 64 45
REMARK SMILES IDX 58 46 57 47 28 49 50 50 35 51 49 52 36 53 39 54 48 55 62 56
REMARK SMILES IDX 37 57 38 58 47 60 63 61 40 62 29 63 30 64 34 65 31 66 33 67
REMARK SMILES IDX 32 68 51 69 52 70 56 71 53 72 55 73 54 74 41 75 42 76 46 77
REMARK SMILES IDX 43 78 45 79 44 80
REMARK H PARENT 13 5 6 13 17 29 61 48 39 59
REMARK Flexibility Score: inf
ROOT
ATOM      1  C   UNL A   1      33.578  27.592  24.933  1.00  0.00     0.118 C 
ENDROOT
BRANCH   1   2
ATOM      2  N   UNL A   1      32.193  27.865  24.593  1.00  0.00    -0.352 N 
ATOM      3  C   UNL A   1      31.090  27.056  24.504  1.00  0.00     0.251 C 
ATOM      4  O   UNL A   1      30.014  27.590  24.238  1.00  0.00    -0.269 OA
ATOM      5  H   UNL A   1      32.012  28.811  24.387  1.00  0.00     0.163 HD
BRANCH   3   6
ATOM      6  C   UNL A   1      31.126  25.591  24.763  1.00  0.00     0.039 A 
ATOM      7  C   UNL A   1      31.270  22.849  25.440  1.00  0.00     0.040 A 
ATOM      8  C   UNL A   1      31.355  23.831  26.431  1.00  0.00     0.027 A 
ATOM      9  C   UNL A   1      31.088  23.252  24.115  1.00  0.00     0.027 A 
ATOM     10  C   UNL A   1      31.291  25.188  26.096  1.00  0.00     0.016 A 
ATOM     11  C   UNL A   1      30.976  24.607  23.784  1.00  0.00     0.016 A 
BRANCH   7  12
ATOM     12  N   UNL A   1      31.441  21.498  25.778  1.00  0.00    -0.340 N 
ATOM     13  H   UNL A   1      30.732  21.088  26.325  1.00  0.00     0.168 HD
BRANCH  12  14
ATOM     14  C   UNL A   1      32.520  20.663  25.420  1.00  0.00     0.134 A 
ATOM     15  C   UNL A   1      34.835  20.392  25.019  1.00  0.00     0.046 A 
ATOM     16  C   UNL A   1      33.793  21.204  25.424  1.00  0.00     0.071 A 
ATOM     17  N   UNL A   1      34.621  19.116  24.641  1.00  0.00    -0.238 NA
ATOM     18  C   UNL A   1      33.355  18.657  24.681  1.00  0.00     0.133 A 
ATOM     19  N   UNL A   1      32.299  19.384  25.077  1.00  0.00    -0.216 NA
BRANCH  15  20
ATOM     20  C   UNL A   1      36.271  20.847  24.959  1.00  0.00     0.053 C 
ATOM     21  C   UNL A   1      36.565  22.098  24.141  1.00  0.00     0.011 C 
ENDBRANCH  15  20
BRANCH  18  22
ATOM     22  C   UNL A   1      33.089  17.245  24.208  1.00  0.00     0.051 C 
ATOM     23  C   UNL A   1      34.057  16.856  23.089  1.00  0.00     0.016 C 
ATOM     24  C   UNL A   1      33.164  16.253  25.366  1.00  0.00     0.016 C 
ENDBRANCH  18  22
ENDBRANCH  12  14
ENDBRANCH   7  12
ENDBRANCH   3   6
ENDBRANCH   1   2
BRANCH   1  25
ATOM     25  C   UNL A   1      34.189  28.754  25.716  1.00  0.00     0.042 C 
BRANCH  25  26
ATOM     26  C   UNL A   1      33.763  28.785  27.182  1.00  0.00     0.118 C 
BRANCH  26  27
ATOM     27  N   UNL A   1      33.693  30.142  27.702  1.00  0.00    -0.352 N 
ATOM     28  C   UNL A   1      34.600  30.846  28.454  1.00  0.00     0.251 C 
ATOM     29  H   UNL A   1      32.867  30.630  27.481  1.00  0.00     0.163 HD
ATOM     30  O   UNL A   1      34.265  31.907  28.971  1.00  0.00    -0.269 OA
BRANCH  28  31
ATOM     31  C   UNL A   1      35.973  30.334  28.655  1.00  0.00     0.039 A 
ATOM     32  C   UNL A   1      36.890  30.444  27.603  1.00  0.00     0.014 A 
ATOM     33  C   UNL A   1      36.347  29.699  29.843  1.00  0.00     0.014 A 
ATOM     34  C   UNL A   1      38.191  29.961  27.759  1.00  0.00     0.010 A 
ATOM     35  C   UNL A   1      37.663  29.276  30.021  1.00  0.00     0.010 A 
ATOM     36  C   UNL A   1      38.595  29.394  28.978  1.00  0.00    -0.014 A 
BRANCH  36  37
ATOM     37  C   UNL A   1      39.983  28.911  29.177  1.00  0.00     0.031 A 
ATOM     38  C   UNL A   1      41.021  29.812  29.787  1.00  0.00     0.074 A 
ATOM     39  C   UNL A   1      40.325  27.679  28.754  1.00  0.00     0.049 A 
ATOM     40  N   UNL A   1      42.293  29.584  29.996  1.00  0.00    -0.248 NA
ATOM     41  C   UNL A   1      40.575  31.153  30.193  1.00  0.00     0.031 C 
ATOM     42  C   UNL A   1      39.420  26.717  28.123  1.00  0.00     0.029 A 
ATOM     43  N   UNL A   1      41.531  27.028  28.790  1.00  0.00    -0.354 N 
ATOM     44  C   UNL A   1      42.803  30.758  30.532  1.00  0.00     0.074 A 
ATOM     45  C   UNL A   1      41.713  31.709  30.580  1.00  0.00     0.031 C 
ATOM     46  C   UNL A   1      40.094  25.586  27.862  1.00  0.00     0.029 A 
ATOM     47  C   UNL A   1      41.485  25.758  28.271  1.00  0.00     0.049 A 
ATOM     48  H   UNL A   1      42.352  27.432  29.154  1.00  0.00     0.167 HD
ATOM     49  C   UNL A   1      44.062  31.020  30.960  1.00  0.00     0.031 A 
ATOM     50  C   UNL A   1      42.453  24.833  28.138  1.00  0.00     0.031 A 
ATOM     51  C   UNL A   1      45.142  30.071  30.925  1.00  0.00     0.049 A 
ATOM     52  C   UNL A   1      43.846  25.152  28.602  1.00  0.00     0.074 A 
ATOM     53  C   UNL A   1      46.435  30.216  31.401  1.00  0.00     0.029 A 
ATOM     54  N   UNL A   1      45.057  28.801  30.378  1.00  0.00    -0.354 N 
ATOM     55  N   UNL A   1      44.297  26.244  29.168  1.00  0.00    -0.248 NA
ATOM     56  C   UNL A   1      44.860  24.106  28.410  1.00  0.00     0.031 C 
ATOM     57  C   UNL A   1      47.146  29.050  31.096  1.00  0.00     0.029 A 
ATOM     58  C   UNL A   1      46.282  28.161  30.476  1.00  0.00     0.049 A 
ATOM     59  H   UNL A   1      44.247  28.411  29.979  1.00  0.00     0.167 HD
ATOM     60  C   UNL A   1      45.641  26.008  29.427  1.00  0.00     0.074 A 
ATOM     61  C   UNL A   1      45.928  24.665  28.963  1.00  0.00     0.031 C 
ATOM     62  C   UNL A   1      46.554  26.828  30.003  1.00  0.00     0.031 A 
BRANCH  49  63
ATOM     63  C   UNL A   1      44.336  32.403  31.482  1.00  0.00    -0.014 A 
ATOM     64  C   UNL A   1      44.215  32.707  32.848  1.00  0.00     0.009 A 
ATOM     65  C   UNL A   1      44.729  33.418  30.595  1.00  0.00     0.009 A 
ATOM     66  C   UNL A   1      44.433  34.008  33.307  1.00  0.00     0.001 A 
ATOM     67  C   UNL A   1      44.976  34.710  31.060  1.00  0.00     0.001 A 
ATOM     68  C   UNL A   1      44.816  35.007  32.412  1.00  0.00     0.000 A 
ENDBRANCH  49  63
BRANCH  50  69
ATOM     69  C   UNL A   1      42.129  23.500  27.571  1.00  0.00    -0.014 A 
ATOM     70  C   UNL A   1      42.358  23.239  26.211  1.00  0.00     0.009 A 
ATOM     71  C   UNL A   1      41.609  22.479  28.381  1.00  0.00     0.009 A 
ATOM     72  C   UNL A   1      42.058  21.988  25.670  1.00  0.00     0.001 A 
ATOM     73  C   UNL A   1      41.331  21.221  27.841  1.00  0.00     0.001 A 
ATOM     74  C   UNL A   1      41.550  20.979  26.485  1.00  0.00     0.000 A 
ENDBRANCH  50  69
BRANCH  62  75
ATOM     75  C   UNL A   1      47.940  26.283  30.191  1.00  0.00    -0.014 A 
ATOM     76  C   UNL A   1      48.900  26.366  29.170  1.00  0.00     0.009 A 
ATOM     77  C   UNL A   1      48.300  25.707  31.420  1.00  0.00     0.009 A 
ATOM     78  C   UNL A   1      50.184  25.855  29.367  1.00  0.00     0.001 A 
ATOM     79  C   UNL A   1      49.592  25.221  31.623  1.00  0.00     0.001 A 
ATOM     80  C   UNL A   1      50.530  25.288  30.594  1.00  0.00     0.000 A 
ENDBRANCH  62  75
ENDBRANCH  36  37
ENDBRANCH  28  31
ENDBRANCH  26  27
ENDBRANCH  25  26
ENDBRANCH   1  25
TORSDOF 14
ENDMDL
MODEL 3
REMARK VINA RESULT:     -11.5      0.781      6.179
REMARK SMILES CCc1cc(Nc2ccc(C(=O)NCCCNC(=O)c3ccc(-c4c5nc(c(-c6ccccc6)c6ccc([nH]6)c(-c6ccccc6)c6nc(c(-c7ccccc7)c7ccc4[nH]7)C=C6)C=C5)cc3)cc2)nc(C(C)C)n1
REMARK SMILES IDX 14 1 13 2 11 3 12 4 10 6 7 7 8 8 69 9 9 10 68 11 6 12 5 14
REMARK SMILES IDX 3 15 4 16 75 17 71 18 70 19 2 20 1 21 72 22 73 23 74 24
REMARK SMILES IDX 15 25 16 26 17 27 18 28 19 30 20 31 21 32 67 33 22 34 66 35
REMARK SMILES IDX 23 36 24 37 25 38 60 39 26 40 65 41 59 42 61 43 27 44 64 45
REMARK SMILES IDX 58 46 57 47 28 49 50 50 35 51 49 52 36 53 39 54 48 55 62 56
REMARK SMILES IDX 37 57 38 58 47 60 63 61 40 62 29 63 30 64 34 65 31 66 33 67
REMARK SMILES IDX 32 68 51 69 52 70 56 71 53 72 55 73 54 74 41 75 42 76 46 77
REMARK SMILES IDX 43 78 45 79 44 80
REMARK H PARENT 13 5 6 13 17 29 61 48 39 59
REMARK Flexibility Score: inf
ROOT
ATOM      1  C   UNL A   1      36.133  20.185  25.006  1.00  0.00     0.118 C 
ENDROOT
BRANCH   1   2
ATOM      2  N   UNL A   1      34.987  19.296  24.952  1.00  0.00    -0.352 N 
ATOM      3  C   UNL A   1      33.665  19.478  25.266  1.00  0.00     0.251 C 
ATOM      4  O   UNL A   1      32.898  18.536  25.065  1.00  0.00    -0.269 OA
ATOM      5  H   UNL A   1      35.199  18.390  24.629  1.00  0.00     0.163 HD
BRANCH   3   6
ATOM      6  C   UNL A   1      33.114  20.761  25.781  1.00  0.00     0.039 A 
ATOM      7  C   UNL A   1      31.962  23.215  26.586  1.00  0.00     0.040 A 
ATOM      8  C   UNL A   1      31.413  22.485  25.528  1.00  0.00     0.027 A 
ATOM      9  C   UNL A   1      33.075  22.693  27.249  1.00  0.00     0.027 A 
ATOM     10  C   UNL A   1      31.986  21.274  25.125  1.00  0.00     0.016 A 
ATOM     11  C   UNL A   1      33.621  21.459  26.879  1.00  0.00     0.016 A 
BRANCH   7  12
ATOM     12  N   UNL A   1      31.440  24.476  26.909  1.00  0.00    -0.340 N 
ATOM     13  H   UNL A   1      30.969  24.549  27.771  1.00  0.00     0.168 HD
BRANCH  12  14
ATOM     14  C   UNL A   1      31.517  25.652  26.134  1.00  0.00     0.134 A 
ATOM     15  C   UNL A   1      32.557  27.728  25.689  1.00  0.00     0.046 A 
ATOM     16  C   UNL A   1      32.524  26.557  26.418  1.00  0.00     0.071 A 
ATOM     17  N   UNL A   1      31.644  27.981  24.729  1.00  0.00    -0.238 NA
ATOM     18  C   UNL A   1      30.705  27.044  24.499  1.00  0.00     0.133 A 
ATOM     19  N   UNL A   1      30.623  25.878  25.159  1.00  0.00    -0.216 NA
BRANCH  15  20
ATOM     20  C   UNL A   1      33.586  28.811  25.896  1.00  0.00     0.053 C 
ATOM     21  C   UNL A   1      33.083  30.149  26.422  1.00  0.00     0.011 C 
ENDBRANCH  15  20
BRANCH  18  22
ATOM     22  C   UNL A   1      29.641  27.334  23.464  1.00  0.00     0.051 C 
ATOM     23  C   UNL A   1      28.298  26.735  23.884  1.00  0.00     0.016 C 
ATOM     24  C   UNL A   1      29.516  28.833  23.207  1.00  0.00     0.016 C 
ENDBRANCH  18  22
ENDBRANCH  12  14
ENDBRANCH   7  12
ENDBRANCH   3   6
ENDBRANCH   1   2
BRANCH   1  25
ATOM     25  C   UNL A   1      37.441  19.399  24.909  1.00  0.00     0.042 C 
BRANCH  25  26
ATOM     26  C   UNL A   1      38.647  20.163  25.448  1.00  0.00     0.118 C 
BRANCH  26  27
ATOM     27  N   UNL A   1      39.791  19.292  25.671  1.00  0.00    -0.352 N 
ATOM     28  C   UNL A   1      41.067  19.599  26.072  1.00  0.00     0.251 C 
ATOM     29  H   UNL A   1      39.624  18.336  25.507  1.00  0.00     0.163 HD
ATOM     30  O   UNL A   1      41.947  18.747  25.999  1.00  0.00    -0.269 OA
BRANCH  28  31
ATOM     31  C   UNL A   1      41.394  20.949  26.582  1.00  0.00     0.039 A 
ATOM     32  C   UNL A   1      41.177  21.223  27.937  1.00  0.00     0.014 A 
ATOM     33  C   UNL A   1      41.858  21.956  25.731  1.00  0.00     0.014 A 
ATOM     34  C   UNL A   1      41.467  22.492  28.446  1.00  0.00     0.010 A 
ATOM     35  C   UNL A   1      42.208  23.200  26.252  1.00  0.00     0.010 A 
ATOM     36  C   UNL A   1      42.007  23.483  27.612  1.00  0.00    -0.014 A 
BRANCH  36  37
ATOM     37  C   UNL A   1      42.359  24.824  28.142  1.00  0.00     0.031 A 
ATOM     38  C   UNL A   1      43.773  25.132  28.548  1.00  0.00     0.074 A 
ATOM     39  C   UNL A   1      41.392  25.745  28.313  1.00  0.00     0.049 A 
ATOM     40  N   UNL A   1      44.261  26.227  29.074  1.00  0.00    -0.248 NA
ATOM     41  C   UNL A   1      44.763  24.062  28.359  1.00  0.00     0.031 C 
ATOM     42  C   UNL A   1      39.977  25.561  27.984  1.00  0.00     0.029 A 
ATOM     43  N   UNL A   1      41.456  27.021  28.811  1.00  0.00    -0.354 N 
ATOM     44  C   UNL A   1      45.606  25.969  29.303  1.00  0.00     0.074 A 
ATOM     45  C   UNL A   1      45.848  24.602  28.895  1.00  0.00     0.031 C 
ATOM     46  C   UNL A   1      39.313  26.695  28.256  1.00  0.00     0.029 A 
ATOM     47  C   UNL A   1      40.246  27.670  28.815  1.00  0.00     0.049 A 
ATOM     48  H   UNL A   1      42.289  27.433  29.134  1.00  0.00     0.167 HD
ATOM     49  C   UNL A   1      46.558  26.798  29.795  1.00  0.00     0.031 A 
ATOM     50  C   UNL A   1      39.921  28.910  29.223  1.00  0.00     0.031 A 
ATOM     51  C   UNL A   1      46.320  28.161  30.188  1.00  0.00     0.049 A 
ATOM     52  C   UNL A   1      40.990  29.805  29.783  1.00  0.00     0.074 A 
ATOM     53  C   UNL A   1      47.233  29.104  30.631  1.00  0.00     0.029 A 
ATOM     54  N   UNL A   1      45.078  28.775  30.191  1.00  0.00    -0.354 N 
ATOM     55  N   UNL A   1      42.270  29.568  29.932  1.00  0.00    -0.248 NA
ATOM     56  C   UNL A   1      40.566  31.140  30.228  1.00  0.00     0.031 C 
ATOM     57  C   UNL A   1      46.533  30.273  30.949  1.00  0.00     0.029 A 
ATOM     58  C   UNL A   1      45.193  30.074  30.655  1.00  0.00     0.049 A 
ATOM     59  H   UNL A   1      44.238  28.350  29.904  1.00  0.00     0.167 HD
ATOM     60  C   UNL A   1      42.812  30.733  30.460  1.00  0.00     0.074 A 
ATOM     61  C   UNL A   1      41.720  31.677  30.597  1.00  0.00     0.031 C 
ATOM     62  C   UNL A   1      44.097  30.999  30.794  1.00  0.00     0.031 A 
BRANCH  49  63
ATOM     63  C   UNL A   1      47.943  26.234  29.955  1.00  0.00    -0.014 A 
ATOM     64  C   UNL A   1      48.807  26.095  28.857  1.00  0.00     0.009 A 
ATOM     65  C   UNL A   1      48.393  25.842  31.225  1.00  0.00     0.009 A 
ATOM     66  C   UNL A   1      50.074  25.531  29.020  1.00  0.00     0.001 A 
ATOM     67  C   UNL A   1      49.671  25.306  31.391  1.00  0.00     0.001 A 
ATOM     68  C   UNL A   1      50.506  25.139  30.287  1.00  0.00     0.000 A 
ENDBRANCH  49  63
BRANCH  50  69
ATOM     69  C   UNL A   1      38.525  29.393  29.082  1.00  0.00    -0.014 A 
ATOM     70  C   UNL A   1      38.083  29.919  27.858  1.00  0.00     0.009 A 
ATOM     71  C   UNL A   1      37.623  29.316  30.154  1.00  0.00     0.009 A 
ATOM     72  C   UNL A   1      36.771  30.374  27.715  1.00  0.00     0.001 A 
ATOM     73  C   UNL A   1      36.305  29.751  30.001  1.00  0.00     0.001 A 
ATOM     74  C   UNL A   1      35.882  30.285  28.785  1.00  0.00     0.000 A 
ENDBRANCH  50  69
BRANCH  62  75
ATOM     75  C   UNL A   1      44.399  32.375  31.314  1.00  0.00    -0.014 A 
ATOM     76  C   UNL A   1      44.372  32.656  32.689  1.00  0.00     0.009 A 
ATOM     77  C   UNL A   1      44.746  33.397  30.415  1.00  0.00     0.009 A 
ATOM     78  C   UNL A   1      44.658  33.943  33.150  1.00  0.00     0.001 A 
ATOM     79  C   UNL A   1      45.057  34.674  30.882  1.00  0.00     0.001 A 
ATOM     80  C   UNL A   1      45.004  34.948  32.248  1.00  0.00     0.000 A 
ENDBRANCH  62  75
ENDBRANCH  36  37
ENDBRANCH  28  31
ENDBRANCH  26  27
ENDBRANCH  25  26
ENDBRANCH   1  25
TORSDOF 14
ENDMDL
