MODEL 1
REMARK VINA RESULT:     -11.2      0.000      0.000
REMARK SMILES Cc1nc(C(=O)NCCCNC(=O)c2ccc(-c3c4nc(c(-c5ccccc5)c5ccc([nH]5)c(-c5ccccc5)c5nc(c(-c6ccccc6)c6ccc3[nH]6)C=C5)C=C4)cc2)nn1-c1cccc(C(F)(F)F)c1
REMARK SMILES IDX 9 1 8 2 7 3 5 4 6 5 4 7 1 8 2 9 3 10 63 11 62 12 64 13 65 14
REMARK SMILES IDX 73 15 66 16 68 17 67 18 69 19 70 20 71 21 72 22 10 23 11 24
REMARK SMILES IDX 12 25 13 27 14 28 15 29 61 30 16 31 60 32 17 33 18 34 19 35
REMARK SMILES IDX 54 36 20 37 59 38 53 39 55 40 21 41 58 42 52 43 51 44 22 46
REMARK SMILES IDX 44 47 29 48 43 49 30 50 33 51 42 52 56 53 31 54 32 55 41 57
REMARK SMILES IDX 57 58 34 59 23 60 24 61 28 62 25 63 27 64 26 65 45 66 46 67
REMARK SMILES IDX 50 68 47 69 49 70 48 71 35 72 36 73 40 74 37 75 39 76 38 77
REMARK H PARENT 7 6 11 26 55 45 33 56
REMARK Flexibility Score: inf
ROOT
ATOM      1  C   UNL A   1      34.325  35.726  28.374  1.00  0.00     0.042 C 
ENDROOT
BRANCH   1   2
ATOM      2  C   UNL A   1      32.904  35.536  28.914  1.00  0.00     0.118 C 
BRANCH   2   3
ATOM      3  N   UNL A   1      32.639  36.328  30.111  1.00  0.00    -0.349 N 
ATOM      4  C   UNL A   1      33.116  36.214  31.408  1.00  0.00     0.290 C 
ATOM      5  O   UNL A   1      32.669  37.017  32.232  1.00  0.00    -0.266 OA
ATOM      6  H   UNL A   1      32.012  37.073  29.973  1.00  0.00     0.163 HD
BRANCH   4   7
ATOM      7  C   UNL A   1      34.083  35.156  31.776  1.00  0.00     0.239 A 
ATOM      8  C   UNL A   1      35.294  31.796  31.959  1.00  0.00     0.090 C 
ATOM      9  C   UNL A   1      35.041  33.251  31.849  1.00  0.00     0.130 A 
ATOM     10  N   UNL A   1      33.926  33.824  31.434  1.00  0.00    -0.207 NA
ATOM     11  N   UNL A   1      35.886  34.228  32.330  1.00  0.00    -0.217 N 
ATOM     12  N   UNL A   1      35.199  35.373  32.487  1.00  0.00    -0.140 NA
BRANCH  11  13
ATOM     13  C   UNL A   1      37.285  34.244  32.517  1.00  0.00     0.067 A 
ATOM     14  C   UNL A   1      37.795  34.488  33.800  1.00  0.00     0.028 A 
ATOM     15  C   UNL A   1      38.148  34.172  31.418  1.00  0.00     0.041 A 
ATOM     16  C   UNL A   1      39.170  34.603  33.992  1.00  0.00     0.003 A 
ATOM     17  C   UNL A   1      39.531  34.343  31.600  1.00  0.00     0.058 A 
ATOM     18  C   UNL A   1      40.033  34.532  32.898  1.00  0.00     0.013 A 
BRANCH  17  19
ATOM     19  C   UNL A   1      40.472  34.370  30.419  1.00  0.00     0.416 C 
ATOM     20  F   UNL A   1      39.978  35.091  29.376  1.00  0.00    -0.166 F 
ATOM     21  F   UNL A   1      41.675  34.924  30.727  1.00  0.00    -0.166 F 
ATOM     22  F   UNL A   1      40.745  33.132  29.920  1.00  0.00    -0.166 F 
ENDBRANCH  17  19
ENDBRANCH  11  13
ENDBRANCH   4   7
ENDBRANCH   2   3
ENDBRANCH   1   2
BRANCH   1  23
ATOM     23  C   UNL A   1      34.993  34.391  28.084  1.00  0.00     0.118 C 
BRANCH  23  24
ATOM     24  N   UNL A   1      34.064  33.260  28.165  1.00  0.00    -0.352 N 
ATOM     25  C   UNL A   1      34.328  31.908  28.043  1.00  0.00     0.251 C 
ATOM     26  H   UNL A   1      33.122  33.495  28.328  1.00  0.00     0.163 HD
ATOM     27  O   UNL A   1      33.428  31.112  27.823  1.00  0.00    -0.269 OA
BRANCH  25  28
ATOM     28  C   UNL A   1      35.720  31.440  28.175  1.00  0.00     0.039 A 
ATOM     29  C   UNL A   1      36.728  32.288  28.644  1.00  0.00     0.014 A 
ATOM     30  C   UNL A   1      36.006  30.119  27.845  1.00  0.00     0.014 A 
ATOM     31  C   UNL A   1      37.998  31.761  28.860  1.00  0.00     0.010 A 
ATOM     32  C   UNL A   1      37.199  29.562  28.220  1.00  0.00     0.010 A 
ATOM     33  C   UNL A   1      38.219  30.386  28.673  1.00  0.00    -0.014 A 
BRANCH  33  34
ATOM     34  C   UNL A   1      39.467  29.762  29.095  1.00  0.00     0.031 A 
ATOM     35  C   UNL A   1      39.615  29.666  30.569  1.00  0.00     0.074 A 
ATOM     36  C   UNL A   1      40.308  29.122  28.251  1.00  0.00     0.049 A 
ATOM     37  N   UNL A   1      40.440  30.325  31.312  1.00  0.00    -0.248 NA
ATOM     38  C   UNL A   1      38.630  28.874  31.326  1.00  0.00     0.031 C 
ATOM     39  C   UNL A   1      40.129  28.859  26.818  1.00  0.00     0.029 A 
ATOM     40  N   UNL A   1      41.461  28.455  28.528  1.00  0.00    -0.354 N 
ATOM     41  C   UNL A   1      40.241  29.854  32.605  1.00  0.00     0.074 A 
ATOM     42  C   UNL A   1      38.992  29.135  32.584  1.00  0.00     0.031 C 
ATOM     43  C   UNL A   1      40.988  27.894  26.422  1.00  0.00     0.029 A 
ATOM     44  C   UNL A   1      41.888  27.593  27.520  1.00  0.00     0.049 A 
ATOM     45  H   UNL A   1      41.953  28.570  29.373  1.00  0.00     0.167 HD
ATOM     46  C   UNL A   1      41.267  29.835  33.501  1.00  0.00     0.031 A 
ATOM     47  C   UNL A   1      42.888  26.680  27.592  1.00  0.00     0.031 A 
ATOM     48  C   UNL A   1      42.365  30.663  33.063  1.00  0.00     0.049 A 
ATOM     49  C   UNL A   1      43.749  27.060  28.735  1.00  0.00     0.074 A 
ATOM     50  C   UNL A   1      42.498  31.989  32.696  1.00  0.00     0.029 A 
ATOM     51  N   UNL A   1      43.464  30.020  32.545  1.00  0.00    -0.354 N 
ATOM     52  N   UNL A   1      44.492  28.129  28.745  1.00  0.00    -0.248 NA
ATOM     53  C   UNL A   1      43.430  26.506  30.041  1.00  0.00     0.031 C 
ATOM     54  C   UNL A   1      43.383  31.971  31.578  1.00  0.00     0.029 A 
ATOM     55  C   UNL A   1      43.815  30.658  31.386  1.00  0.00     0.049 A 
ATOM     56  H   UNL A   1      43.918  29.239  32.937  1.00  0.00     0.167 HD
ATOM     57  C   UNL A   1      44.335  28.645  30.022  1.00  0.00     0.074 A 
ATOM     58  C   UNL A   1      43.759  27.551  30.805  1.00  0.00     0.031 C 
ATOM     59  C   UNL A   1      44.405  29.990  30.248  1.00  0.00     0.031 A 
BRANCH  46  60
ATOM     60  C   UNL A   1      41.471  28.711  34.493  1.00  0.00    -0.014 A 
ATOM     61  C   UNL A   1      41.950  29.034  35.777  1.00  0.00     0.009 A 
ATOM     62  C   UNL A   1      41.509  27.352  34.131  1.00  0.00     0.009 A 
ATOM     63  C   UNL A   1      42.531  28.064  36.602  1.00  0.00     0.001 A 
ATOM     64  C   UNL A   1      42.047  26.374  34.971  1.00  0.00     0.001 A 
ATOM     65  C   UNL A   1      42.590  26.736  36.193  1.00  0.00     0.000 A 
ENDBRANCH  46  60
BRANCH  47  66
ATOM     66  C   UNL A   1      43.037  25.376  26.907  1.00  0.00    -0.014 A 
ATOM     67  C   UNL A   1      42.186  24.301  27.218  1.00  0.00     0.009 A 
ATOM     68  C   UNL A   1      43.827  25.266  25.750  1.00  0.00     0.009 A 
ATOM     69  C   UNL A   1      42.090  23.185  26.374  1.00  0.00     0.001 A 
ATOM     70  C   UNL A   1      43.736  24.149  24.909  1.00  0.00     0.001 A 
ATOM     71  C   UNL A   1      42.854  23.117  25.212  1.00  0.00     0.000 A 
ENDBRANCH  47  66
BRANCH  59  72
ATOM     72  C   UNL A   1      44.914  30.878  29.138  1.00  0.00    -0.014 A 
ATOM     73  C   UNL A   1      46.277  31.148  28.919  1.00  0.00     0.009 A 
ATOM     74  C   UNL A   1      43.986  31.334  28.189  1.00  0.00     0.009 A 
ATOM     75  C   UNL A   1      46.690  31.878  27.798  1.00  0.00     0.001 A 
ATOM     76  C   UNL A   1      44.402  32.042  27.060  1.00  0.00     0.001 A 
ATOM     77  C   UNL A   1      45.752  32.321  26.867  1.00  0.00     0.000 A 
ENDBRANCH  59  72
ENDBRANCH  33  34
ENDBRANCH  25  28
ENDBRANCH  23  24
ENDBRANCH   1  23
TORSDOF 12
ENDMDL
MODEL 2
REMARK VINA RESULT:     -10.7      5.194      9.875
REMARK SMILES Cc1nc(C(=O)NCCCNC(=O)c2ccc(-c3c4nc(c(-c5ccccc5)c5ccc([nH]5)c(-c5ccccc5)c5nc(c(-c6ccccc6)c6ccc3[nH]6)C=C5)C=C4)cc2)nn1-c1cccc(C(F)(F)F)c1
REMARK SMILES IDX 9 1 8 2 7 3 5 4 6 5 4 7 1 8 2 9 3 10 63 11 62 12 64 13 65 14
REMARK SMILES IDX 73 15 66 16 68 17 67 18 69 19 70 20 71 21 72 22 10 23 11 24
REMARK SMILES IDX 12 25 13 27 14 28 15 29 61 30 16 31 60 32 17 33 18 34 19 35
REMARK SMILES IDX 54 36 20 37 59 38 53 39 55 40 21 41 58 42 52 43 51 44 22 46
REMARK SMILES IDX 44 47 29 48 43 49 30 50 33 51 42 52 56 53 31 54 32 55 41 57
REMARK SMILES IDX 57 58 34 59 23 60 24 61 28 62 25 63 27 64 26 65 45 66 46 67
REMARK SMILES IDX 50 68 47 69 49 70 48 71 35 72 36 73 40 74 37 75 39 76 38 77
REMARK H PARENT 7 6 11 26 55 45 33 56
REMARK Flexibility Score: inf
ROOT
ATOM      1  C   UNL A   1      37.890  19.883  24.850  1.00  0.00     0.042 C 
ENDROOT
BRANCH   1   2
ATOM      2  C   UNL A   1      36.721  20.864  24.995  1.00  0.00     0.118 C 
BRANCH   2   3
ATOM      3  N   UNL A   1      35.461  20.203  25.320  1.00  0.00    -0.349 N 
ATOM      4  C   UNL A   1      34.149  20.647  25.249  1.00  0.00     0.290 C 
ATOM      5  O   UNL A   1      33.280  19.864  25.642  1.00  0.00    -0.266 OA
ATOM      6  H   UNL A   1      35.560  19.280  25.647  1.00  0.00     0.163 HD
BRANCH   4   7
ATOM      7  C   UNL A   1      33.829  22.005  24.758  1.00  0.00     0.239 A 
ATOM      8  C   UNL A   1      33.007  24.439  22.269  1.00  0.00     0.090 C 
ATOM      9  C   UNL A   1      33.189  23.567  23.452  1.00  0.00     0.130 A 
ATOM     10  N   UNL A   1      33.506  22.286  23.441  1.00  0.00    -0.207 NA
ATOM     11  N   UNL A   1      33.218  24.016  24.755  1.00  0.00    -0.217 N 
ATOM     12  N   UNL A   1      33.830  23.103  25.528  1.00  0.00    -0.140 NA
BRANCH  11  13
ATOM     13  C   UNL A   1      32.611  25.132  25.373  1.00  0.00     0.067 A 
ATOM     14  C   UNL A   1      31.217  25.152  25.518  1.00  0.00     0.028 A 
ATOM     15  C   UNL A   1      33.368  26.264  25.692  1.00  0.00     0.041 A 
ATOM     16  C   UNL A   1      30.587  26.282  26.036  1.00  0.00     0.003 A 
ATOM     17  C   UNL A   1      32.731  27.425  26.162  1.00  0.00     0.058 A 
ATOM     18  C   UNL A   1      31.339  27.411  26.355  1.00  0.00     0.013 A 
BRANCH  17  19
ATOM     19  C   UNL A   1      33.512  28.691  26.419  1.00  0.00     0.416 C 
ATOM     20  F   UNL A   1      33.221  29.673  25.522  1.00  0.00    -0.166 F 
ATOM     21  F   UNL A   1      33.264  29.215  27.649  1.00  0.00    -0.166 F 
ATOM     22  F   UNL A   1      34.861  28.514  26.351  1.00  0.00    -0.166 F 
ENDBRANCH  17  19
ENDBRANCH  11  13
ENDBRANCH   4   7
ENDBRANCH   2   3
ENDBRANCH   1   2
BRANCH   1  23
ATOM     23  C   UNL A   1      38.979  20.161  25.874  1.00  0.00     0.118 C 
BRANCH  23  24
ATOM     24  N   UNL A   1      40.107  19.230  25.773  1.00  0.00    -0.352 N 
ATOM     25  C   UNL A   1      41.461  19.490  25.884  1.00  0.00     0.251 C 
ATOM     26  H   UNL A   1      39.867  18.290  25.603  1.00  0.00     0.163 HD
ATOM     27  O   UNL A   1      42.287  18.689  25.474  1.00  0.00    -0.269 OA
BRANCH  25  28
ATOM     28  C   UNL A   1      41.894  20.757  26.500  1.00  0.00     0.039 A 
ATOM     29  C   UNL A   1      42.222  21.868  25.718  1.00  0.00     0.014 A 
ATOM     30  C   UNL A   1      41.944  20.832  27.888  1.00  0.00     0.014 A 
ATOM     31  C   UNL A   1      42.510  23.073  26.354  1.00  0.00     0.010 A 
ATOM     32  C   UNL A   1      42.055  22.049  28.506  1.00  0.00     0.010 A 
ATOM     33  C   UNL A   1      42.395  23.163  27.752  1.00  0.00    -0.014 A 
BRANCH  33  34
ATOM     34  C   UNL A   1      42.474  24.451  28.430  1.00  0.00     0.031 A 
ATOM     35  C   UNL A   1      41.337  25.354  28.124  1.00  0.00     0.074 A 
ATOM     36  C   UNL A   1      43.358  24.725  29.416  1.00  0.00     0.049 A 
ATOM     37  N   UNL A   1      41.372  26.442  27.429  1.00  0.00    -0.248 NA
ATOM     38  C   UNL A   1      39.976  24.923  28.490  1.00  0.00     0.031 C 
ATOM     39  C   UNL A   1      44.327  23.820  30.044  1.00  0.00     0.029 A 
ATOM     40  N   UNL A   1      43.491  25.856  30.161  1.00  0.00    -0.354 N 
ATOM     41  C   UNL A   1      40.083  26.958  27.471  1.00  0.00     0.074 A 
ATOM     42  C   UNL A   1      39.237  25.892  27.945  1.00  0.00     0.031 C 
ATOM     43  C   UNL A   1      44.754  24.349  31.212  1.00  0.00     0.029 A 
ATOM     44  C   UNL A   1      44.225  25.695  31.333  1.00  0.00     0.049 A 
ATOM     45  H   UNL A   1      43.099  26.719  29.893  1.00  0.00     0.167 HD
ATOM     46  C   UNL A   1      39.871  28.302  27.406  1.00  0.00     0.031 A 
ATOM     47  C   UNL A   1      44.365  26.590  32.342  1.00  0.00     0.031 A 
ATOM     48  C   UNL A   1      41.046  28.998  26.934  1.00  0.00     0.049 A 
ATOM     49  C   UNL A   1      44.007  27.921  31.802  1.00  0.00     0.074 A 
ATOM     50  C   UNL A   1      41.845  28.907  25.810  1.00  0.00     0.029 A 
ATOM     51  N   UNL A   1      41.796  29.664  27.874  1.00  0.00    -0.354 N 
ATOM     52  N   UNL A   1      44.725  28.549  30.916  1.00  0.00    -0.248 NA
ATOM     53  C   UNL A   1      42.619  28.343  31.898  1.00  0.00     0.031 C 
ATOM     54  C   UNL A   1      43.177  29.069  26.295  1.00  0.00     0.029 A 
ATOM     55  C   UNL A   1      43.111  29.345  27.662  1.00  0.00     0.049 A 
ATOM     56  H   UNL A   1      41.451  30.263  28.575  1.00  0.00     0.167 HD
ATOM     57  C   UNL A   1      43.795  29.084  30.038  1.00  0.00     0.074 A 
ATOM     58  C   UNL A   1      42.518  29.017  30.749  1.00  0.00     0.031 C 
ATOM     59  C   UNL A   1      44.095  29.253  28.716  1.00  0.00     0.031 A 
BRANCH  46  60
ATOM     60  C   UNL A   1      38.807  29.008  28.216  1.00  0.00    -0.014 A 
ATOM     61  C   UNL A   1      38.727  28.734  29.594  1.00  0.00     0.009 A 
ATOM     62  C   UNL A   1      37.708  29.675  27.643  1.00  0.00     0.009 A 
ATOM     63  C   UNL A   1      37.569  29.017  30.327  1.00  0.00     0.001 A 
ATOM     64  C   UNL A   1      36.569  30.000  28.382  1.00  0.00     0.001 A 
ATOM     65  C   UNL A   1      36.485  29.639  29.717  1.00  0.00     0.000 A 
ENDBRANCH  46  60
BRANCH  47  66
ATOM     66  C   UNL A   1      44.555  26.366  33.794  1.00  0.00    -0.014 A 
ATOM     67  C   UNL A   1      43.506  25.871  34.587  1.00  0.00     0.009 A 
ATOM     68  C   UNL A   1      45.846  26.368  34.351  1.00  0.00     0.009 A 
ATOM     69  C   UNL A   1      43.748  25.350  35.866  1.00  0.00     0.001 A 
ATOM     70  C   UNL A   1      46.088  25.853  35.631  1.00  0.00     0.001 A 
ATOM     71  C   UNL A   1      45.041  25.327  36.381  1.00  0.00     0.000 A 
ENDBRANCH  47  66
BRANCH  59  72
ATOM     72  C   UNL A   1      45.532  29.093  28.281  1.00  0.00    -0.014 A 
ATOM     73  C   UNL A   1      46.453  30.154  28.229  1.00  0.00     0.009 A 
ATOM     74  C   UNL A   1      46.007  27.790  28.062  1.00  0.00     0.009 A 
ATOM     75  C   UNL A   1      47.802  29.917  27.936  1.00  0.00     0.001 A 
ATOM     76  C   UNL A   1      47.356  27.552  27.794  1.00  0.00     0.001 A 
ATOM     77  C   UNL A   1      48.252  28.616  27.723  1.00  0.00     0.000 A 
ENDBRANCH  59  72
ENDBRANCH  33  34
ENDBRANCH  25  28
ENDBRANCH  23  24
ENDBRANCH   1  23
TORSDOF 12
ENDMDL
MODEL 3
REMARK VINA RESULT:     -10.6      4.424      8.489
REMARK SMILES Cc1nc(C(=O)NCCCNC(=O)c2ccc(-c3c4nc(c(-c5ccccc5)c5ccc([nH]5)c(-c5ccccc5)c5nc(c(-c6ccccc6)c6ccc3[nH]6)C=C5)C=C4)cc2)nn1-c1cccc(C(F)(F)F)c1
REMARK SMILES IDX 9 1 8 2 7 3 5 4 6 5 4 7 1 8 2 9 3 10 63 11 62 12 64 13 65 14
REMARK SMILES IDX 73 15 66 16 68 17 67 18 69 19 70 20 71 21 72 22 10 23 11 24
REMARK SMILES IDX 12 25 13 27 14 28 15 29 61 30 16 31 60 32 17 33 18 34 19 35
REMARK SMILES IDX 54 36 20 37 59 38 53 39 55 40 21 41 58 42 52 43 51 44 22 46
REMARK SMILES IDX 44 47 29 48 43 49 30 50 33 51 42 52 56 53 31 54 32 55 41 57
REMARK SMILES IDX 57 58 34 59 23 60 24 61 28 62 25 63 27 64 26 65 45 66 46 67
REMARK SMILES IDX 50 68 47 69 49 70 48 71 35 72 36 73 40 74 37 75 39 76 38 77
REMARK H PARENT 7 6 11 26 55 45 33 56
REMARK Flexibility Score: inf
ROOT
ATOM      1  C   UNL A   1      31.412  31.785  26.509  1.00  0.00     0.042 C 
ENDROOT
BRANCH   1   2
ATOM      2  C   UNL A   1      31.771  30.440  25.867  1.00  0.00     0.118 C 
BRANCH   2   3
ATOM      3  N   UNL A   1      31.072  30.206  24.607  1.00  0.00    -0.349 N 
ATOM      4  C   UNL A   1      30.818  29.039  23.903  1.00  0.00     0.290 C 
ATOM      5  O   UNL A   1      30.233  29.162  22.824  1.00  0.00    -0.266 OA
ATOM      6  H   UNL A   1      30.720  31.021  24.182  1.00  0.00     0.163 HD
BRANCH   4   7
ATOM      7  C   UNL A   1      31.265  27.725  24.418  1.00  0.00     0.239 A 
ATOM      8  C   UNL A   1      30.879  24.635  26.176  1.00  0.00     0.090 C 
ATOM      9  C   UNL A   1      31.182  25.777  25.283  1.00  0.00     0.130 A 
ATOM     10  N   UNL A   1      30.439  26.853  25.107  1.00  0.00    -0.207 NA
ATOM     11  N   UNL A   1      32.381  25.957  24.627  1.00  0.00    -0.217 N 
ATOM     12  N   UNL A   1      32.511  27.250  24.284  1.00  0.00    -0.140 NA
BRANCH  11  13
ATOM     13  C   UNL A   1      33.340  25.030  24.163  1.00  0.00     0.067 A 
ATOM     14  C   UNL A   1      33.049  24.264  23.026  1.00  0.00     0.028 A 
ATOM     15  C   UNL A   1      34.493  24.770  24.912  1.00  0.00     0.041 A 
ATOM     16  C   UNL A   1      33.938  23.277  22.606  1.00  0.00     0.003 A 
ATOM     17  C   UNL A   1      35.364  23.738  24.522  1.00  0.00     0.058 A 
ATOM     18  C   UNL A   1      35.088  23.015  23.350  1.00  0.00     0.013 A 
BRANCH  17  19
ATOM     19  C   UNL A   1      36.561  23.371  25.367  1.00  0.00     0.416 C 
ATOM     20  F   UNL A   1      37.741  23.629  24.739  1.00  0.00    -0.166 F 
ATOM     21  F   UNL A   1      36.598  24.056  26.541  1.00  0.00    -0.166 F 
ATOM     22  F   UNL A   1      36.598  22.051  25.701  1.00  0.00    -0.166 F 
ENDBRANCH  17  19
ENDBRANCH  11  13
ENDBRANCH   4   7
ENDBRANCH   2   3
ENDBRANCH   1   2
BRANCH   1  23
ATOM     23  C   UNL A   1      32.606  32.394  27.227  1.00  0.00     0.118 C 
BRANCH  23  24
ATOM     24  N   UNL A   1      32.359  33.767  27.678  1.00  0.00    -0.352 N 
ATOM     25  C   UNL A   1      33.031  34.500  28.639  1.00  0.00     0.251 C 
ATOM     26  H   UNL A   1      31.612  34.231  27.235  1.00  0.00     0.163 HD
ATOM     27  O   UNL A   1      32.530  35.502  29.125  1.00  0.00    -0.269 OA
BRANCH  25  28
ATOM     28  C   UNL A   1      34.364  34.047  29.076  1.00  0.00     0.039 A 
ATOM     29  C   UNL A   1      34.519  33.229  30.199  1.00  0.00     0.014 A 
ATOM     30  C   UNL A   1      35.470  34.433  28.326  1.00  0.00     0.014 A 
ATOM     31  C   UNL A   1      35.786  32.735  30.497  1.00  0.00     0.010 A 
ATOM     32  C   UNL A   1      36.676  33.812  28.514  1.00  0.00     0.010 A 
ATOM     33  C   UNL A   1      36.857  33.008  29.629  1.00  0.00    -0.014 A 
BRANCH  33  34
ATOM     34  C   UNL A   1      38.141  32.335  29.787  1.00  0.00     0.031 A 
ATOM     35  C   UNL A   1      38.114  30.905  29.389  1.00  0.00     0.074 A 
ATOM     36  C   UNL A   1      39.300  32.982  30.044  1.00  0.00     0.049 A 
ATOM     37  N   UNL A   1      38.207  29.879  30.168  1.00  0.00    -0.248 NA
ATOM     38  C   UNL A   1      37.785  30.567  27.993  1.00  0.00     0.031 C 
ATOM     39  C   UNL A   1      39.530  34.428  30.141  1.00  0.00     0.029 A 
ATOM     40  N   UNL A   1      40.560  32.479  30.152  1.00  0.00    -0.354 N 
ATOM     41  C   UNL A   1      38.187  28.768  29.333  1.00  0.00     0.074 A 
ATOM     42  C   UNL A   1      37.717  29.235  28.053  1.00  0.00     0.031 C 
ATOM     43  C   UNL A   1      40.853  34.687  30.039  1.00  0.00     0.029 A 
ATOM     44  C   UNL A   1      41.574  33.427  30.042  1.00  0.00     0.049 A 
ATOM     45  H   UNL A   1      40.741  31.521  30.296  1.00  0.00     0.167 HD
ATOM     46  C   UNL A   1      38.849  27.629  29.679  1.00  0.00     0.031 A 
ATOM     47  C   UNL A   1      42.905  33.194  29.932  1.00  0.00     0.031 A 
ATOM     48  C   UNL A   1      39.197  27.627  31.080  1.00  0.00     0.049 A 
ATOM     49  C   UNL A   1      43.151  31.815  30.411  1.00  0.00     0.074 A 
ATOM     50  C   UNL A   1      38.489  27.765  32.259  1.00  0.00     0.029 A 
ATOM     51  N   UNL A   1      40.509  27.891  31.397  1.00  0.00    -0.354 N 
ATOM     52  N   UNL A   1      43.018  31.457  31.655  1.00  0.00    -0.248 NA
ATOM     53  C   UNL A   1      43.093  30.737  29.437  1.00  0.00     0.031 C 
ATOM     54  C   UNL A   1      39.317  28.580  33.088  1.00  0.00     0.029 A 
ATOM     55  C   UNL A   1      40.516  28.811  32.411  1.00  0.00     0.049 A 
ATOM     56  H   UNL A   1      41.301  27.491  30.971  1.00  0.00     0.167 HD
ATOM     57  C   UNL A   1      42.393  30.220  31.591  1.00  0.00     0.074 A 
ATOM     58  C   UNL A   1      42.561  29.781  30.205  1.00  0.00     0.031 C 
ATOM     59  C   UNL A   1      41.545  29.811  32.581  1.00  0.00     0.031 A 
BRANCH  46  60
ATOM     60  C   UNL A   1      39.593  26.774  28.677  1.00  0.00    -0.014 A 
ATOM     61  C   UNL A   1      40.500  27.405  27.806  1.00  0.00     0.009 A 
ATOM     62  C   UNL A   1      39.222  25.456  28.352  1.00  0.00     0.009 A 
ATOM     63  C   UNL A   1      40.922  26.788  26.623  1.00  0.00     0.001 A 
ATOM     64  C   UNL A   1      39.677  24.820  27.195  1.00  0.00     0.001 A 
ATOM     65  C   UNL A   1      40.501  25.499  26.312  1.00  0.00     0.000 A 
ENDBRANCH  46  60
BRANCH  47  66
ATOM     66  C   UNL A   1      43.953  33.972  29.232  1.00  0.00    -0.014 A 
ATOM     67  C   UNL A   1      45.285  33.951  29.684  1.00  0.00     0.009 A 
ATOM     68  C   UNL A   1      43.709  34.510  27.957  1.00  0.00     0.009 A 
ATOM     69  C   UNL A   1      46.333  34.401  28.870  1.00  0.00     0.001 A 
ATOM     70  C   UNL A   1      44.756  34.964  27.145  1.00  0.00     0.001 A 
ATOM     71  C   UNL A   1      46.070  34.893  27.594  1.00  0.00     0.000 A 
ENDBRANCH  47  66
BRANCH  59  72
ATOM     72  C   UNL A   1      41.504  30.606  33.863  1.00  0.00    -0.014 A 
ATOM     73  C   UNL A   1      40.761  31.790  34.023  1.00  0.00     0.009 A 
ATOM     74  C   UNL A   1      42.121  30.053  34.996  1.00  0.00     0.009 A 
ATOM     75  C   UNL A   1      40.666  32.412  35.274  1.00  0.00     0.001 A 
ATOM     76  C   UNL A   1      42.006  30.661  36.247  1.00  0.00     0.001 A 
ATOM     77  C   UNL A   1      41.286  31.845  36.385  1.00  0.00     0.000 A 
ENDBRANCH  59  72
ENDBRANCH  33  34
ENDBRANCH  25  28
ENDBRANCH  23  24
ENDBRANCH   1  23
TORSDOF 12
ENDMDL
