MODEL 1
REMARK VINA RESULT:     -11.6      0.000      0.000
REMARK SMILES CN(C)S(=O)(=O)c1ccc(-n2c(CCC(=O)NCCCNC(=O)c3ccc(-c4c5nc(c(-c6ccccc6)c6ccc([nH]6)c(-c6ccccc6)c6nc(c(-c7ccccc7)c7ccc4[nH]7)C=C6)C=C5)cc3)ccc2-c2ccc(F)cc2)cc1
REMARK SMILES IDX 15 1 16 2 17 3 14 5 13 6 12 7 11 8 74 9 72 10 73 11 10 12
REMARK SMILES IDX 7 13 8 14 83 15 9 16 82 17 4 18 5 19 6 20 2 21 1 22 3 23
REMARK SMILES IDX 75 24 76 25 81 26 77 27 80 28 78 29 79 30 18 31 19 32 20 33
REMARK SMILES IDX 21 34 22 35 23 37 24 38 25 39 71 40 26 41 70 42 27 43 28 44
REMARK SMILES IDX 29 45 64 46 30 47 69 48 63 49 65 50 31 51 68 52 62 53 61 54
REMARK SMILES IDX 32 56 54 57 39 58 53 59 40 60 43 61 52 62 66 63 41 64 42 65
REMARK SMILES IDX 51 67 67 68 44 69 33 70 34 71 38 72 35 73 37 74 36 75 55 76
REMARK SMILES IDX 56 77 60 78 57 79 59 80 58 81 45 82 46 83 50 84 47 85 49 86
REMARK SMILES IDX 48 87
REMARK H PARENT 17 4 21 36 65 55 43 66
REMARK Flexibility Score: inf
ROOT
ATOM      1  C   UNL A   1      35.680  30.891  27.743  1.00  0.00     0.220 C 
ATOM      2  O   UNL A   1      36.701  30.272  27.420  1.00  0.00    -0.275 OA
ATOM      3  N   UNL A   1      35.826  32.230  28.012  1.00  0.00    -0.356 N 
ATOM      4  H   UNL A   1      36.762  32.526  28.091  1.00  0.00     0.163 HD
ENDROOT
BRANCH   1   5
ATOM      5  C   UNL A   1      34.372  30.121  27.935  1.00  0.00     0.106 C 
BRANCH   5   6
ATOM      6  C   UNL A   1      34.203  28.816  27.117  1.00  0.00     0.064 C 
BRANCH   6   7
ATOM      7  C   UNL A   1      33.069  28.887  26.127  1.00  0.00     0.024 A 
ATOM      8  N   UNL A   1      32.710  27.954  25.118  1.00  0.00    -0.314 N 
ATOM      9  C   UNL A   1      31.600  28.575  24.442  1.00  0.00     0.053 A 
ATOM     10  C   UNL A   1      32.225  29.982  26.067  1.00  0.00     0.024 A 
ATOM     11  C   UNL A   1      31.301  29.778  25.052  1.00  0.00     0.029 A 
BRANCH   8  12
ATOM     12  C   UNL A   1      33.275  26.583  24.953  1.00  0.00     0.046 A 
ATOM     13  C   UNL A   1      34.070  23.783  24.824  1.00  0.00     0.082 A 
ATOM     14  C   UNL A   1      34.220  24.622  23.719  1.00  0.00     0.024 A 
ATOM     15  C   UNL A   1      33.583  24.345  25.986  1.00  0.00     0.024 A 
ATOM     16  C   UNL A   1      33.842  26.018  23.802  1.00  0.00     0.028 A 
ATOM     17  C   UNL A   1      33.225  25.693  26.021  1.00  0.00     0.028 A 
BRANCH  13  18
ATOM     18  S   UNL A   1      34.546  22.071  24.991  1.00  0.00     0.242 S 
ATOM     19  O   UNL A   1      34.710  21.819  26.399  1.00  0.00    -0.207 OA
ATOM     20  O   UNL A   1      35.657  21.873  24.064  1.00  0.00    -0.207 OA
BRANCH  18  21
ATOM     21  N   UNL A   1      33.271  21.050  24.488  1.00  0.00    -0.204 NA
ATOM     22  C   UNL A   1      33.681  19.611  24.603  1.00  0.00     0.124 C 
ATOM     23  C   UNL A   1      32.005  21.237  25.228  1.00  0.00     0.124 C 
ENDBRANCH  18  21
ENDBRANCH  13  18
ENDBRANCH   8  12
BRANCH   9  24
ATOM     24  C   UNL A   1      30.601  27.878  23.644  1.00  0.00    -0.001 A 
ATOM     25  C   UNL A   1      29.844  26.809  24.114  1.00  0.00     0.013 A 
ATOM     26  C   UNL A   1      30.174  28.605  22.568  1.00  0.00     0.013 A 
ATOM     27  C   UNL A   1      28.482  26.809  23.837  1.00  0.00     0.040 A 
ATOM     28  C   UNL A   1      28.845  28.855  22.653  1.00  0.00     0.040 A 
ATOM     29  C   UNL A   1      27.982  27.959  23.261  1.00  0.00     0.123 A 
ATOM     30  F   UNL A   1      26.746  28.360  23.565  1.00  0.00    -0.207 F 
ENDBRANCH   9  24
ENDBRANCH   6   7
ENDBRANCH   5   6
ENDBRANCH   1   5
BRANCH   3  31
ATOM     31  C   UNL A   1      34.845  33.291  28.201  1.00  0.00     0.117 C 
BRANCH  31  32
ATOM     32  C   UNL A   1      34.581  33.775  29.650  1.00  0.00     0.042 C 
BRANCH  32  33
ATOM     33  C   UNL A   1      34.532  32.825  30.890  1.00  0.00     0.118 C 
BRANCH  33  34
ATOM     34  N   UNL A   1      35.505  33.248  31.952  1.00  0.00    -0.352 N 
ATOM     35  C   UNL A   1      36.859  33.132  32.265  1.00  0.00     0.251 C 
ATOM     36  H   UNL A   1      35.042  33.772  32.644  1.00  0.00     0.163 HD
ATOM     37  O   UNL A   1      37.255  33.782  33.235  1.00  0.00    -0.269 OA
BRANCH  35  38
ATOM     38  C   UNL A   1      37.875  32.293  31.553  1.00  0.00     0.039 A 
ATOM     39  C   UNL A   1      38.232  32.454  30.213  1.00  0.00     0.014 A 
ATOM     40  C   UNL A   1      38.753  31.526  32.273  1.00  0.00     0.014 A 
ATOM     41  C   UNL A   1      39.333  31.744  29.666  1.00  0.00     0.010 A 
ATOM     42  C   UNL A   1      39.725  30.689  31.774  1.00  0.00     0.010 A 
ATOM     43  C   UNL A   1      40.049  30.820  30.447  1.00  0.00    -0.014 A 
BRANCH  43  44
ATOM     44  C   UNL A   1      41.135  29.940  29.961  1.00  0.00     0.031 A 
ATOM     45  C   UNL A   1      42.561  30.556  29.942  1.00  0.00     0.074 A 
ATOM     46  C   UNL A   1      40.703  28.664  29.726  1.00  0.00     0.049 A 
ATOM     47  N   UNL A   1      43.652  30.142  29.372  1.00  0.00    -0.248 NA
ATOM     48  C   UNL A   1      42.836  31.810  30.685  1.00  0.00     0.031 C 
ATOM     49  C   UNL A   1      39.317  28.185  29.977  1.00  0.00     0.029 A 
ATOM     50  N   UNL A   1      41.294  27.521  29.245  1.00  0.00    -0.354 N 
ATOM     51  C   UNL A   1      44.728  30.989  29.761  1.00  0.00     0.074 A 
ATOM     52  C   UNL A   1      44.162  31.979  30.623  1.00  0.00     0.031 C 
ATOM     53  C   UNL A   1      39.147  26.932  29.513  1.00  0.00     0.029 A 
ATOM     54  C   UNL A   1      40.387  26.478  28.928  1.00  0.00     0.049 A 
ATOM     55  H   UNL A   1      42.268  27.433  29.131  1.00  0.00     0.167 HD
ATOM     56  C   UNL A   1      46.023  30.804  29.354  1.00  0.00     0.031 A 
ATOM     57  C   UNL A   1      40.593  25.370  28.158  1.00  0.00     0.031 A 
ATOM     58  C   UNL A   1      46.066  29.794  28.358  1.00  0.00     0.049 A 
ATOM     59  C   UNL A   1      42.014  25.402  27.799  1.00  0.00     0.074 A 
ATOM     60  C   UNL A   1      45.628  29.772  27.059  1.00  0.00     0.029 A 
ATOM     61  N   UNL A   1      46.264  28.510  28.791  1.00  0.00    -0.354 N 
ATOM     62  N   UNL A   1      42.992  25.121  28.600  1.00  0.00    -0.248 NA
ATOM     63  C   UNL A   1      42.382  25.908  26.471  1.00  0.00     0.031 C 
ATOM     64  C   UNL A   1      45.022  28.502  26.969  1.00  0.00     0.029 A 
ATOM     65  C   UNL A   1      45.363  27.744  28.095  1.00  0.00     0.049 A 
ATOM     66  H   UNL A   1      46.916  28.201  29.462  1.00  0.00     0.167 HD
ATOM     67  C   UNL A   1      44.047  25.763  28.005  1.00  0.00     0.074 A 
ATOM     68  C   UNL A   1      43.703  25.927  26.609  1.00  0.00     0.031 C 
ATOM     69  C   UNL A   1      44.864  26.557  28.738  1.00  0.00     0.031 A 
BRANCH  56  70
ATOM     70  C   UNL A   1      47.363  31.332  29.808  1.00  0.00    -0.014 A 
ATOM     71  C   UNL A   1      48.261  31.776  28.798  1.00  0.00     0.009 A 
ATOM     72  C   UNL A   1      47.907  31.068  31.066  1.00  0.00     0.009 A 
ATOM     73  C   UNL A   1      49.643  31.815  28.991  1.00  0.00     0.001 A 
ATOM     74  C   UNL A   1      49.299  31.146  31.272  1.00  0.00     0.001 A 
ATOM     75  C   UNL A   1      50.166  31.477  30.228  1.00  0.00     0.000 A 
ENDBRANCH  56  70
BRANCH  57  76
ATOM     76  C   UNL A   1      39.749  24.329  27.478  1.00  0.00    -0.014 A 
ATOM     77  C   UNL A   1      38.543  24.550  26.810  1.00  0.00     0.009 A 
ATOM     78  C   UNL A   1      40.241  22.995  27.427  1.00  0.00     0.009 A 
ATOM     79  C   UNL A   1      37.938  23.528  26.046  1.00  0.00     0.001 A 
ATOM     80  C   UNL A   1      39.676  21.994  26.637  1.00  0.00     0.001 A 
ATOM     81  C   UNL A   1      38.525  22.269  25.927  1.00  0.00     0.000 A 
ENDBRANCH  57  76
BRANCH  69  82
ATOM     82  C   UNL A   1      44.858  26.312  30.240  1.00  0.00    -0.014 A 
ATOM     83  C   UNL A   1      44.023  27.089  31.059  1.00  0.00     0.009 A 
ATOM     84  C   UNL A   1      45.703  25.386  30.882  1.00  0.00     0.009 A 
ATOM     85  C   UNL A   1      44.031  26.953  32.453  1.00  0.00     0.001 A 
ATOM     86  C   UNL A   1      45.702  25.235  32.277  1.00  0.00     0.001 A 
ATOM     87  C   UNL A   1      44.864  26.021  33.063  1.00  0.00     0.000 A 
ENDBRANCH  69  82
ENDBRANCH  43  44
ENDBRANCH  35  38
ENDBRANCH  33  34
ENDBRANCH  32  33
ENDBRANCH  31  32
ENDBRANCH   3  31
TORSDOF 16
ENDMDL
MODEL 2
REMARK VINA RESULT:     -11.5      2.831      4.411
REMARK SMILES CN(C)S(=O)(=O)c1ccc(-n2c(CCC(=O)NCCCNC(=O)c3ccc(-c4c5nc(c(-c6ccccc6)c6ccc([nH]6)c(-c6ccccc6)c6nc(c(-c7ccccc7)c7ccc4[nH]7)C=C6)C=C5)cc3)ccc2-c2ccc(F)cc2)cc1
REMARK SMILES IDX 15 1 16 2 17 3 14 5 13 6 12 7 11 8 74 9 72 10 73 11 10 12
REMARK SMILES IDX 7 13 8 14 83 15 9 16 82 17 4 18 5 19 6 20 2 21 1 22 3 23
REMARK SMILES IDX 75 24 76 25 81 26 77 27 80 28 78 29 79 30 18 31 19 32 20 33
REMARK SMILES IDX 21 34 22 35 23 37 24 38 25 39 71 40 26 41 70 42 27 43 28 44
REMARK SMILES IDX 29 45 64 46 30 47 69 48 63 49 65 50 31 51 68 52 62 53 61 54
REMARK SMILES IDX 32 56 54 57 39 58 53 59 40 60 43 61 52 62 66 63 41 64 42 65
REMARK SMILES IDX 51 67 67 68 44 69 33 70 34 71 38 72 35 73 37 74 36 75 55 76
REMARK SMILES IDX 56 77 60 78 57 79 59 80 58 81 45 82 46 83 50 84 47 85 49 86
REMARK SMILES IDX 48 87
REMARK H PARENT 17 4 21 36 65 55 43 66
REMARK Flexibility Score: inf
ROOT
ATOM      1  C   UNL A   1      34.772  29.819  27.596  1.00  0.00     0.220 C 
ATOM      2  O   UNL A   1      35.755  29.329  28.162  1.00  0.00    -0.275 OA
ATOM      3  N   UNL A   1      34.279  30.992  28.113  1.00  0.00    -0.356 N 
ATOM      4  H   UNL A   1      34.652  31.233  28.991  1.00  0.00     0.163 HD
ENDROOT
BRANCH   1   5
ATOM      5  C   UNL A   1      34.107  29.044  26.455  1.00  0.00     0.106 C 
BRANCH   5   6
ATOM      6  C   UNL A   1      32.870  28.187  26.822  1.00  0.00     0.064 C 
BRANCH   6   7
ATOM      7  C   UNL A   1      32.797  26.899  26.043  1.00  0.00     0.024 A 
ATOM      8  N   UNL A   1      32.010  26.592  24.901  1.00  0.00    -0.314 N 
ATOM      9  C   UNL A   1      32.297  25.206  24.634  1.00  0.00     0.053 A 
ATOM     10  C   UNL A   1      33.516  25.778  26.424  1.00  0.00     0.024 A 
ATOM     11  C   UNL A   1      33.234  24.746  25.541  1.00  0.00     0.029 A 
BRANCH   8  12
ATOM     12  C   UNL A   1      31.218  27.570  24.098  1.00  0.00     0.046 A 
ATOM     13  C   UNL A   1      29.424  29.479  22.823  1.00  0.00     0.082 A 
ATOM     14  C   UNL A   1      30.808  29.643  22.758  1.00  0.00     0.024 A 
ATOM     15  C   UNL A   1      28.948  28.356  23.467  1.00  0.00     0.024 A 
ATOM     16  C   UNL A   1      31.692  28.675  23.377  1.00  0.00     0.028 A 
ATOM     17  C   UNL A   1      29.833  27.451  24.054  1.00  0.00     0.028 A 
BRANCH  13  18
ATOM     18  S   UNL A   1      28.151  30.476  22.069  1.00  0.00     0.242 S 
ATOM     19  O   UNL A   1      27.115  30.646  23.055  1.00  0.00    -0.207 OA
ATOM     20  O   UNL A   1      27.860  29.847  20.784  1.00  0.00    -0.207 OA
BRANCH  18  21
ATOM     21  N   UNL A   1      28.741  32.047  21.748  1.00  0.00    -0.204 NA
ATOM     22  C   UNL A   1      27.947  32.685  20.645  1.00  0.00     0.124 C 
ATOM     23  C   UNL A   1      28.738  32.956  22.914  1.00  0.00     0.124 C 
ENDBRANCH  18  21
ENDBRANCH  13  18
ENDBRANCH   8  12
BRANCH   9  24
ATOM     24  C   UNL A   1      32.108  24.536  23.356  1.00  0.00    -0.001 A 
ATOM     25  C   UNL A   1      33.150  24.206  22.494  1.00  0.00     0.013 A 
ATOM     26  C   UNL A   1      30.906  23.893  23.262  1.00  0.00     0.013 A 
ATOM     27  C   UNL A   1      33.140  22.940  21.922  1.00  0.00     0.040 A 
ATOM     28  C   UNL A   1      31.084  22.562  23.085  1.00  0.00     0.040 A 
ATOM     29  C   UNL A   1      32.180  22.069  22.398  1.00  0.00     0.123 A 
ATOM     30  F   UNL A   1      32.461  20.767  22.481  1.00  0.00    -0.207 F 
ENDBRANCH   9  24
ENDBRANCH   6   7
ENDBRANCH   5   6
ENDBRANCH   1   5
BRANCH   3  31
ATOM     31  C   UNL A   1      33.304  31.943  27.595  1.00  0.00     0.117 C 
BRANCH  31  32
ATOM     32  C   UNL A   1      33.328  33.382  28.172  1.00  0.00     0.042 C 
BRANCH  32  33
ATOM     33  C   UNL A   1      34.499  33.955  29.036  1.00  0.00     0.118 C 
BRANCH  33  34
ATOM     34  N   UNL A   1      34.425  33.476  30.457  1.00  0.00    -0.352 N 
ATOM     35  C   UNL A   1      35.195  32.785  31.391  1.00  0.00     0.251 C 
ATOM     36  H   UNL A   1      33.561  33.732  30.854  1.00  0.00     0.163 HD
ATOM     37  O   UNL A   1      34.745  32.727  32.538  1.00  0.00    -0.269 OA
BRANCH  35  38
ATOM     38  C   UNL A   1      36.503  32.098  31.143  1.00  0.00     0.039 A 
ATOM     39  C   UNL A   1      37.164  31.299  32.077  1.00  0.00     0.014 A 
ATOM     40  C   UNL A   1      36.964  31.952  29.861  1.00  0.00     0.014 A 
ATOM     41  C   UNL A   1      38.300  30.536  31.702  1.00  0.00     0.010 A 
ATOM     42  C   UNL A   1      38.147  31.369  29.467  1.00  0.00     0.010 A 
ATOM     43  C   UNL A   1      38.819  30.614  30.397  1.00  0.00    -0.014 A 
BRANCH  43  44
ATOM     44  C   UNL A   1      40.057  29.961  29.921  1.00  0.00     0.031 A 
ATOM     45  C   UNL A   1      41.335  30.845  29.899  1.00  0.00     0.074 A 
ATOM     46  C   UNL A   1      39.885  28.623  29.696  1.00  0.00     0.049 A 
ATOM     47  N   UNL A   1      42.488  30.648  29.334  1.00  0.00    -0.248 NA
ATOM     48  C   UNL A   1      41.356  32.135  30.631  1.00  0.00     0.031 C 
ATOM     49  C   UNL A   1      38.620  27.883  29.949  1.00  0.00     0.029 A 
ATOM     50  N   UNL A   1      40.690  27.614  29.227  1.00  0.00    -0.354 N 
ATOM     51  C   UNL A   1      43.375  31.694  29.718  1.00  0.00     0.074 A 
ATOM     52  C   UNL A   1      42.623  32.560  30.570  1.00  0.00     0.031 C 
ATOM     53  C   UNL A   1      38.700  26.617  29.496  1.00  0.00     0.029 A 
ATOM     54  C   UNL A   1      40.007  26.410  28.917  1.00  0.00     0.049 A 
ATOM     55  H   UNL A   1      41.664  27.718  29.115  1.00  0.00     0.167 HD
ATOM     56  C   UNL A   1      44.682  31.763  29.314  1.00  0.00     0.031 A 
ATOM     57  C   UNL A   1      40.429  25.358  28.158  1.00  0.00     0.031 A 
ATOM     58  C   UNL A   1      44.926  30.772  28.327  1.00  0.00     0.049 A 
ATOM     59  C   UNL A   1      41.817  25.666  27.801  1.00  0.00     0.074 A 
ATOM     60  C   UNL A   1      44.505  30.654  27.028  1.00  0.00     0.029 A 
ATOM     61  N   UNL A   1      45.371  29.556  28.772  1.00  0.00    -0.354 N 
ATOM     62  N   UNL A   1      42.829  25.589  28.606  1.00  0.00    -0.248 NA
ATOM     63  C   UNL A   1      42.083  26.223  26.469  1.00  0.00     0.031 C 
ATOM     64  C   UNL A   1      44.161  29.289  26.948  1.00  0.00     0.029 A 
ATOM     65  C   UNL A   1      44.641  28.622  28.081  1.00  0.00     0.049 A 
ATOM     66  H   UNL A   1      46.069  29.387  29.446  1.00  0.00     0.167 HD
ATOM     67  C   UNL A   1      43.740  26.421  28.006  1.00  0.00     0.074 A 
ATOM     68  C   UNL A   1      43.375  26.503  26.608  1.00  0.00     0.031 C 
ATOM     69  C   UNL A   1      44.382  27.366  28.734  1.00  0.00     0.031 A 
BRANCH  56  70
ATOM     70  C   UNL A   1      45.891  32.547  29.765  1.00  0.00    -0.014 A 
ATOM     71  C   UNL A   1      47.053  32.477  28.947  1.00  0.00     0.009 A 
ATOM     72  C   UNL A   1      46.066  33.007  31.072  1.00  0.00     0.009 A 
ATOM     73  C   UNL A   1      48.336  32.712  29.447  1.00  0.00     0.001 A 
ATOM     74  C   UNL A   1      47.356  33.284  31.564  1.00  0.00     0.001 A 
ATOM     75  C   UNL A   1      48.489  33.096  30.768  1.00  0.00     0.000 A 
ENDBRANCH  56  70
BRANCH  57  76
ATOM     76  C   UNL A   1      39.808  24.166  27.485  1.00  0.00    -0.014 A 
ATOM     77  C   UNL A   1      38.643  24.165  26.715  1.00  0.00     0.009 A 
ATOM     78  C   UNL A   1      40.494  22.922  27.559  1.00  0.00     0.009 A 
ATOM     79  C   UNL A   1      38.263  23.024  25.977  1.00  0.00     0.001 A 
ATOM     80  C   UNL A   1      40.152  21.807  26.795  1.00  0.00     0.001 A 
ATOM     81  C   UNL A   1      39.036  21.864  25.984  1.00  0.00     0.000 A 
ENDBRANCH  57  76
BRANCH  69  82
ATOM     82  C   UNL A   1      44.419  27.137  30.238  1.00  0.00    -0.014 A 
ATOM     83  C   UNL A   1      45.417  26.316  30.784  1.00  0.00     0.009 A 
ATOM     84  C   UNL A   1      43.455  27.651  31.127  1.00  0.00     0.009 A 
ATOM     85  C   UNL A   1      45.454  26.015  32.151  1.00  0.00     0.001 A 
ATOM     86  C   UNL A   1      43.497  27.366  32.501  1.00  0.00     0.001 A 
ATOM     87  C   UNL A   1      44.499  26.546  33.012  1.00  0.00     0.000 A 
ENDBRANCH  69  82
ENDBRANCH  43  44
ENDBRANCH  35  38
ENDBRANCH  33  34
ENDBRANCH  32  33
ENDBRANCH  31  32
ENDBRANCH   3  31
TORSDOF 16
ENDMDL
MODEL 3
REMARK VINA RESULT:     -11.4      3.196      7.236
REMARK SMILES CN(C)S(=O)(=O)c1ccc(-n2c(CCC(=O)NCCCNC(=O)c3ccc(-c4c5nc(c(-c6ccccc6)c6ccc([nH]6)c(-c6ccccc6)c6nc(c(-c7ccccc7)c7ccc4[nH]7)C=C6)C=C5)cc3)ccc2-c2ccc(F)cc2)cc1
REMARK SMILES IDX 15 1 16 2 17 3 14 5 13 6 12 7 11 8 74 9 72 10 73 11 10 12
REMARK SMILES IDX 7 13 8 14 83 15 9 16 82 17 4 18 5 19 6 20 2 21 1 22 3 23
REMARK SMILES IDX 75 24 76 25 81 26 77 27 80 28 78 29 79 30 18 31 19 32 20 33
REMARK SMILES IDX 21 34 22 35 23 37 24 38 25 39 71 40 26 41 70 42 27 43 28 44
REMARK SMILES IDX 29 45 64 46 30 47 69 48 63 49 65 50 31 51 68 52 62 53 61 54
REMARK SMILES IDX 32 56 54 57 39 58 53 59 40 60 43 61 52 62 66 63 41 64 42 65
REMARK SMILES IDX 51 67 67 68 44 69 33 70 34 71 38 72 35 73 37 74 36 75 55 76
REMARK SMILES IDX 56 77 60 78 57 79 59 80 58 81 45 82 46 83 50 84 47 85 49 86
REMARK SMILES IDX 48 87
REMARK H PARENT 17 4 21 36 65 55 43 66
REMARK Flexibility Score: inf
ROOT
ATOM      1  C   UNL A   1      34.870  31.872  27.765  1.00  0.00     0.220 C 
ATOM      2  O   UNL A   1      36.003  31.446  27.516  1.00  0.00    -0.275 OA
ATOM      3  N   UNL A   1      34.764  33.204  28.081  1.00  0.00    -0.356 N 
ATOM      4  H   UNL A   1      35.627  33.649  28.249  1.00  0.00     0.163 HD
ENDROOT
BRANCH   1   5
ATOM      5  C   UNL A   1      33.700  30.887  27.824  1.00  0.00     0.106 C 
BRANCH   5   6
ATOM      6  C   UNL A   1      33.779  29.652  26.891  1.00  0.00     0.064 C 
BRANCH   6   7
ATOM      7  C   UNL A   1      32.639  29.586  25.908  1.00  0.00     0.024 A 
ATOM      8  N   UNL A   1      32.336  28.569  24.965  1.00  0.00    -0.314 N 
ATOM      9  C   UNL A   1      31.185  29.073  24.259  1.00  0.00     0.053 A 
ATOM     10  C   UNL A   1      31.726  30.620  25.784  1.00  0.00     0.024 A 
ATOM     11  C   UNL A   1      30.813  30.292  24.793  1.00  0.00     0.029 A 
BRANCH   8  12
ATOM     12  C   UNL A   1      32.987  27.229  24.885  1.00  0.00     0.046 A 
ATOM     13  C   UNL A   1      33.941  24.475  24.896  1.00  0.00     0.082 A 
ATOM     14  C   UNL A   1      34.141  25.298  23.787  1.00  0.00     0.024 A 
ATOM     15  C   UNL A   1      33.324  25.034  25.996  1.00  0.00     0.024 A 
ATOM     16  C   UNL A   1      33.682  26.673  23.800  1.00  0.00     0.028 A 
ATOM     17  C   UNL A   1      32.892  26.360  25.967  1.00  0.00     0.028 A 
BRANCH  13  18
ATOM     18  S   UNL A   1      34.493  22.797  25.147  1.00  0.00     0.242 S 
ATOM     19  O   UNL A   1      34.014  22.029  24.026  1.00  0.00    -0.207 OA
ATOM     20  O   UNL A   1      34.102  22.448  26.510  1.00  0.00    -0.207 OA
BRANCH  18  21
ATOM     21  N   UNL A   1      36.198  22.715  25.065  1.00  0.00    -0.204 NA
ATOM     22  C   UNL A   1      36.646  22.638  23.635  1.00  0.00     0.124 C 
ATOM     23  C   UNL A   1      36.900  23.842  25.716  1.00  0.00     0.124 C 
ENDBRANCH  18  21
ENDBRANCH  13  18
ENDBRANCH   8  12
BRANCH   9  24
ATOM     24  C   UNL A   1      30.230  28.263  23.516  1.00  0.00    -0.001 A 
ATOM     25  C   UNL A   1      29.770  27.021  23.945  1.00  0.00     0.013 A 
ATOM     26  C   UNL A   1      29.515  28.984  22.601  1.00  0.00     0.013 A 
ATOM     27  C   UNL A   1      28.408  26.766  23.847  1.00  0.00     0.040 A 
ATOM     28  C   UNL A   1      28.191  28.946  22.886  1.00  0.00     0.040 A 
ATOM     29  C   UNL A   1      27.617  27.838  23.485  1.00  0.00     0.123 A 
ATOM     30  F   UNL A   1      26.387  27.944  23.991  1.00  0.00    -0.207 F 
ENDBRANCH   9  24
ENDBRANCH   6   7
ENDBRANCH   5   6
ENDBRANCH   1   5
BRANCH   3  31
ATOM     31  C   UNL A   1      33.606  34.079  28.213  1.00  0.00     0.117 C 
BRANCH  31  32
ATOM     32  C   UNL A   1      33.298  34.657  29.618  1.00  0.00     0.042 C 
BRANCH  32  33
ATOM     33  C   UNL A   1      32.915  36.149  29.881  1.00  0.00     0.118 C 
BRANCH  33  34
ATOM     34  N   UNL A   1      32.724  36.424  31.345  1.00  0.00    -0.352 N 
ATOM     35  C   UNL A   1      33.324  36.137  32.571  1.00  0.00     0.251 C 
ATOM     36  H   UNL A   1      31.925  36.982  31.482  1.00  0.00     0.163 HD
ATOM     37  O   UNL A   1      32.855  36.709  33.557  1.00  0.00    -0.269 OA
BRANCH  35  38
ATOM     38  C   UNL A   1      34.468  35.201  32.812  1.00  0.00     0.039 A 
ATOM     39  C   UNL A   1      34.361  33.984  33.488  1.00  0.00     0.014 A 
ATOM     40  C   UNL A   1      35.625  35.337  32.093  1.00  0.00     0.014 A 
ATOM     41  C   UNL A   1      35.448  33.072  33.512  1.00  0.00     0.010 A 
ATOM     42  C   UNL A   1      36.768  34.578  32.208  1.00  0.00     0.010 A 
ATOM     43  C   UNL A   1      36.674  33.399  32.906  1.00  0.00    -0.014 A 
BRANCH  43  44
ATOM     44  C   UNL A   1      37.908  32.586  32.963  1.00  0.00     0.031 A 
ATOM     45  C   UNL A   1      38.012  31.424  31.938  1.00  0.00     0.074 A 
ATOM     46  C   UNL A   1      38.821  33.090  33.846  1.00  0.00     0.049 A 
ATOM     47  N   UNL A   1      38.829  30.416  31.884  1.00  0.00    -0.248 NA
ATOM     48  C   UNL A   1      37.088  31.373  30.779  1.00  0.00     0.031 C 
ATOM     49  C   UNL A   1      38.635  34.343  34.628  1.00  0.00     0.029 A 
ATOM     50  N   UNL A   1      40.064  32.694  34.278  1.00  0.00    -0.354 N 
ATOM     51  C   UNL A   1      38.602  29.699  30.675  1.00  0.00     0.074 A 
ATOM     52  C   UNL A   1      37.539  30.379  30.005  1.00  0.00     0.031 C 
ATOM     53  C   UNL A   1      39.628  34.509  35.522  1.00  0.00     0.029 A 
ATOM     54  C   UNL A   1      40.548  33.400  35.409  1.00  0.00     0.049 A 
ATOM     55  H   UNL A   1      40.577  31.979  33.837  1.00  0.00     0.167 HD
ATOM     56  C   UNL A   1      39.323  28.595  30.302  1.00  0.00     0.031 A 
ATOM     57  C   UNL A   1      41.559  33.062  36.260  1.00  0.00     0.031 A 
ATOM     58  C   UNL A   1      40.156  28.188  31.378  1.00  0.00     0.049 A 
ATOM     59  C   UNL A   1      42.149  31.842  35.701  1.00  0.00     0.074 A 
ATOM     60  C   UNL A   1      39.866  27.620  32.591  1.00  0.00     0.029 A 
ATOM     61  N   UNL A   1      41.419  28.714  31.412  1.00  0.00    -0.354 N 
ATOM     62  N   UNL A   1      42.912  31.795  34.655  1.00  0.00    -0.248 NA
ATOM     63  C   UNL A   1      41.759  30.553  36.284  1.00  0.00     0.031 C 
ATOM     64  C   UNL A   1      40.708  28.338  33.466  1.00  0.00     0.029 A 
ATOM     65  C   UNL A   1      41.629  29.082  32.718  1.00  0.00     0.049 A 
ATOM     66  H   UNL A   1      42.046  28.810  30.659  1.00  0.00     0.167 HD
ATOM     67  C   UNL A   1      42.775  30.490  34.256  1.00  0.00     0.074 A 
ATOM     68  C   UNL A   1      42.356  29.738  35.420  1.00  0.00     0.031 C 
ATOM     69  C   UNL A   1      42.505  30.196  32.961  1.00  0.00     0.031 A 
BRANCH  56  70
ATOM     70  C   UNL A   1      39.506  27.835  29.011  1.00  0.00    -0.014 A 
ATOM     71  C   UNL A   1      39.440  26.416  29.079  1.00  0.00     0.009 A 
ATOM     72  C   UNL A   1      40.091  28.386  27.869  1.00  0.00     0.009 A 
ATOM     73  C   UNL A   1      40.053  25.591  28.133  1.00  0.00     0.001 A 
ATOM     74  C   UNL A   1      40.674  27.553  26.894  1.00  0.00     0.001 A 
ATOM     75  C   UNL A   1      40.692  26.165  27.047  1.00  0.00     0.000 A 
ENDBRANCH  56  70
BRANCH  57  76
ATOM     76  C   UNL A   1      42.039  33.481  37.622  1.00  0.00    -0.014 A 
ATOM     77  C   UNL A   1      42.639  34.698  37.948  1.00  0.00     0.009 A 
ATOM     78  C   UNL A   1      41.801  32.603  38.715  1.00  0.00     0.009 A 
ATOM     79  C   UNL A   1      42.873  35.054  39.294  1.00  0.00     0.001 A 
ATOM     80  C   UNL A   1      41.984  32.966  40.050  1.00  0.00     0.001 A 
ATOM     81  C   UNL A   1      42.508  34.210  40.341  1.00  0.00     0.000 A 
ENDBRANCH  57  76
BRANCH  69  82
ATOM     82  C   UNL A   1      42.844  31.281  31.949  1.00  0.00    -0.014 A 
ATOM     83  C   UNL A   1      41.820  32.104  31.456  1.00  0.00     0.009 A 
ATOM     84  C   UNL A   1      44.133  31.471  31.413  1.00  0.00     0.009 A 
ATOM     85  C   UNL A   1      42.065  33.069  30.471  1.00  0.00     0.001 A 
ATOM     86  C   UNL A   1      44.386  32.448  30.438  1.00  0.00     0.001 A 
ATOM     87  C   UNL A   1      43.349  33.248  29.967  1.00  0.00     0.000 A 
ENDBRANCH  69  82
ENDBRANCH  43  44
ENDBRANCH  35  38
ENDBRANCH  33  34
ENDBRANCH  32  33
ENDBRANCH  31  32
ENDBRANCH   3  31
TORSDOF 16
ENDMDL
