MODEL 1
REMARK VINA RESULT:     -12.1      0.000      0.000
REMARK SMILES C[C@@H](C(=O)NCCCNC(=O)c1ccc(-c2c3nc(c(-c4ccccc4)c4ccc([nH]4)c(-c4ccccc4)c4nc(c(-c5ccccc5)c5ccc2[nH]5)C=C4)C=C3)cc1)N1C(=O)/C(=C/c2nc3ccccc3[nH]2)SC1=S
REMARK SMILES IDX 7 1 6 2 5 3 3 4 4 5 2 7 1 8 60 9 61 10 75 11 62 12 63 13
REMARK SMILES IDX 74 14 76 15 64 16 65 17 66 18 73 19 67 20 72 21 68 23 71 24
REMARK SMILES IDX 69 25 70 26 8 27 9 28 10 29 11 31 12 32 13 33 59 34 14 35
REMARK SMILES IDX 58 36 15 37 16 38 17 39 52 40 18 41 57 42 51 43 53 44 19 45
REMARK SMILES IDX 56 46 50 47 49 48 20 50 42 51 27 52 41 53 28 54 31 55 40 56
REMARK SMILES IDX 54 57 29 58 30 59 39 61 55 62 32 63 21 64 22 65 26 66 23 67
REMARK SMILES IDX 25 68 24 69 43 70 44 71 48 72 45 73 47 74 46 75 33 76 34 77
REMARK SMILES IDX 38 78 35 79 37 80 36 81
REMARK H PARENT 5 6 73 22 9 30 53 49 31 60
REMARK Flexibility Score: inf
ROOT
ATOM      1  C   UNL A   1      36.918  20.336  24.981  1.00  0.00     0.042 C 
ENDROOT
BRANCH   1   2
ATOM      2  C   UNL A   1      35.815  21.218  25.557  1.00  0.00     0.117 C 
BRANCH   2   3
ATOM      3  N   UNL A   1      34.648  21.254  24.696  1.00  0.00    -0.354 N 
ATOM      4  C   UNL A   1      33.633  22.167  24.638  1.00  0.00     0.242 C 
ATOM      5  O   UNL A   1      32.766  21.993  23.778  1.00  0.00    -0.273 OA
ATOM      6  H   UNL A   1      34.577  20.510  24.056  1.00  0.00     0.163 HD
BRANCH   4   7
ATOM      7  C   UNL A   1      33.615  23.363  25.611  1.00  0.00     0.178 C 
ATOM      8  C   UNL A   1      33.430  22.966  27.073  1.00  0.00     0.042 C 
BRANCH   7   9
ATOM      9  N   UNL A   1      32.618  24.337  25.131  1.00  0.00    -0.281 N 
ATOM     10  C   UNL A   1      33.008  25.434  24.373  1.00  0.00     0.267 C 
ATOM     11  C   UNL A   1      31.290  24.292  25.505  1.00  0.00     0.149 C 
ATOM     12  O   UNL A   1      34.130  25.667  23.938  1.00  0.00    -0.268 OA
ATOM     13  C   UNL A   1      31.848  26.324  24.111  1.00  0.00     0.084 C 
ATOM     14  S   UNL A   1      30.423  25.618  24.774  1.00  0.00    -0.054 SA
ATOM     15  S   UNL A   1      30.511  23.172  26.469  1.00  0.00    -0.052 S 
ATOM     16  C   UNL A   1      31.961  27.480  23.434  1.00  0.00     0.068 C 
BRANCH  16  17
ATOM     17  C   UNL A   1      30.843  28.331  23.265  1.00  0.00     0.132 A 
ATOM     18  N   UNL A   1      29.920  28.309  22.327  1.00  0.00    -0.229 NA
ATOM     19  N   UNL A   1      30.650  29.404  24.104  1.00  0.00    -0.338 N 
ATOM     20  C   UNL A   1      29.238  29.483  22.443  1.00  0.00     0.089 A 
ATOM     21  C   UNL A   1      29.668  30.197  23.555  1.00  0.00     0.066 A 
ATOM     22  H   UNL A   1      31.129  29.575  24.947  1.00  0.00     0.168 HD
ATOM     23  C   UNL A   1      28.258  30.018  21.600  1.00  0.00     0.030 A 
ATOM     24  C   UNL A   1      29.147  31.447  23.895  1.00  0.00     0.028 A 
ATOM     25  C   UNL A   1      27.739  31.279  21.902  1.00  0.00     0.002 A 
ATOM     26  C   UNL A   1      28.174  31.976  23.032  1.00  0.00     0.002 A 
ENDBRANCH  16  17
ENDBRANCH   7   9
ENDBRANCH   4   7
ENDBRANCH   2   3
ENDBRANCH   1   2
BRANCH   1  27
ATOM     27  C   UNL A   1      38.329  20.871  25.211  1.00  0.00     0.118 C 
BRANCH  27  28
ATOM     28  N   UNL A   1      39.296  19.811  25.454  1.00  0.00    -0.352 N 
ATOM     29  C   UNL A   1      40.570  19.864  25.963  1.00  0.00     0.251 C 
ATOM     30  H   UNL A   1      38.986  18.908  25.214  1.00  0.00     0.163 HD
ATOM     31  O   UNL A   1      41.278  18.862  25.904  1.00  0.00    -0.269 OA
BRANCH  29  32
ATOM     32  C   UNL A   1      41.108  21.106  26.561  1.00  0.00     0.039 A 
ATOM     33  C   UNL A   1      41.698  22.048  25.713  1.00  0.00     0.014 A 
ATOM     34  C   UNL A   1      41.081  21.336  27.940  1.00  0.00     0.014 A 
ATOM     35  C   UNL A   1      42.199  23.241  26.238  1.00  0.00     0.010 A 
ATOM     36  C   UNL A   1      41.510  22.561  28.453  1.00  0.00     0.010 A 
ATOM     37  C   UNL A   1      42.073  23.527  27.607  1.00  0.00    -0.014 A 
BRANCH  37  38
ATOM     38  C   UNL A   1      42.498  24.845  28.148  1.00  0.00     0.031 A 
ATOM     39  C   UNL A   1      41.504  25.957  28.345  1.00  0.00     0.074 A 
ATOM     40  C   UNL A   1      43.800  25.049  28.433  1.00  0.00     0.049 A 
ATOM     41  N   UNL A   1      41.705  27.169  28.801  1.00  0.00    -0.248 NA
ATOM     42  C   UNL A   1      40.109  25.684  27.965  1.00  0.00     0.031 C 
ATOM     43  C   UNL A   1      44.872  24.068  28.248  1.00  0.00     0.029 A 
ATOM     44  N   UNL A   1      44.443  26.150  28.942  1.00  0.00    -0.354 N 
ATOM     45  C   UNL A   1      40.467  27.799  28.762  1.00  0.00     0.074 A 
ATOM     46  C   UNL A   1      39.532  26.856  28.187  1.00  0.00     0.031 C 
ATOM     47  C   UNL A   1      46.031  24.598  28.670  1.00  0.00     0.029 A 
ATOM     48  C   UNL A   1      45.795  25.968  29.111  1.00  0.00     0.049 A 
ATOM     49  H   UNL A   1      43.980  26.989  29.167  1.00  0.00     0.167 HD
ATOM     50  C   UNL A   1      40.132  29.041  29.186  1.00  0.00     0.031 A 
ATOM     51  C   UNL A   1      46.743  26.810  29.561  1.00  0.00     0.031 A 
ATOM     52  C   UNL A   1      41.061  29.985  29.754  1.00  0.00     0.049 A 
ATOM     53  C   UNL A   1      46.348  28.194  29.997  1.00  0.00     0.074 A 
ATOM     54  C   UNL A   1      40.808  31.253  30.248  1.00  0.00     0.029 A 
ATOM     55  N   UNL A   1      42.422  29.765  29.897  1.00  0.00    -0.354 N 
ATOM     56  N   UNL A   1      45.159  28.747  30.017  1.00  0.00    -0.248 NA
ATOM     57  C   UNL A   1      47.426  29.065  30.486  1.00  0.00     0.031 C 
ATOM     58  C   UNL A   1      42.024  31.823  30.637  1.00  0.00     0.029 A 
ATOM     59  C   UNL A   1      43.025  30.884  30.448  1.00  0.00     0.049 A 
ATOM     60  H   UNL A   1      42.891  28.937  29.647  1.00  0.00     0.167 HD
ATOM     61  C   UNL A   1      45.343  30.020  30.543  1.00  0.00     0.074 A 
ATOM     62  C   UNL A   1      46.752  30.144  30.855  1.00  0.00     0.031 C 
ATOM     63  C   UNL A   1      44.430  31.000  30.745  1.00  0.00     0.031 A 
BRANCH  50  64
ATOM     64  C   UNL A   1      38.692  29.458  29.054  1.00  0.00    -0.014 A 
ATOM     65  C   UNL A   1      38.198  29.988  27.852  1.00  0.00     0.009 A 
ATOM     66  C   UNL A   1      37.805  29.264  30.125  1.00  0.00     0.009 A 
ATOM     67  C   UNL A   1      36.851  30.342  27.734  1.00  0.00     0.001 A 
ATOM     68  C   UNL A   1      36.453  29.590  29.994  1.00  0.00     0.001 A 
ATOM     69  C   UNL A   1      35.980  30.136  28.802  1.00  0.00     0.000 A 
ENDBRANCH  50  64
BRANCH  51  70
ATOM     70  C   UNL A   1      48.165  26.377  29.622  1.00  0.00    -0.014 A 
ATOM     71  C   UNL A   1      49.021  26.569  28.527  1.00  0.00     0.009 A 
ATOM     72  C   UNL A   1      48.666  25.743  30.770  1.00  0.00     0.009 A 
ATOM     73  C   UNL A   1      50.336  26.100  28.565  1.00  0.00     0.001 A 
ATOM     74  C   UNL A   1      49.992  25.308  30.819  1.00  0.00     0.001 A 
ATOM     75  C   UNL A   1      50.822  25.474  29.712  1.00  0.00     0.000 A 
ENDBRANCH  51  70
BRANCH  63  76
ATOM     76  C   UNL A   1      44.926  32.281  31.358  1.00  0.00    -0.014 A 
ATOM     77  C   UNL A   1      45.370  33.349  30.562  1.00  0.00     0.009 A 
ATOM     78  C   UNL A   1      44.935  32.426  32.754  1.00  0.00     0.009 A 
ATOM     79  C   UNL A   1      45.857  34.517  31.153  1.00  0.00     0.001 A 
ATOM     80  C   UNL A   1      45.389  33.607  33.342  1.00  0.00     0.001 A 
ATOM     81  C   UNL A   1      45.863  34.646  32.542  1.00  0.00     0.000 A 
ENDBRANCH  63  76
ENDBRANCH  37  38
ENDBRANCH  29  32
ENDBRANCH  27  28
ENDBRANCH   1  27
TORSDOF 12
ENDMDL
MODEL 2
REMARK VINA RESULT:     -12.1      0.316      5.919
REMARK SMILES C[C@@H](C(=O)NCCCNC(=O)c1ccc(-c2c3nc(c(-c4ccccc4)c4ccc([nH]4)c(-c4ccccc4)c4nc(c(-c5ccccc5)c5ccc2[nH]5)C=C4)C=C3)cc1)N1C(=O)/C(=C/c2nc3ccccc3[nH]2)SC1=S
REMARK SMILES IDX 7 1 6 2 5 3 3 4 4 5 2 7 1 8 60 9 61 10 75 11 62 12 63 13
REMARK SMILES IDX 74 14 76 15 64 16 65 17 66 18 73 19 67 20 72 21 68 23 71 24
REMARK SMILES IDX 69 25 70 26 8 27 9 28 10 29 11 31 12 32 13 33 59 34 14 35
REMARK SMILES IDX 58 36 15 37 16 38 17 39 52 40 18 41 57 42 51 43 53 44 19 45
REMARK SMILES IDX 56 46 50 47 49 48 20 50 42 51 27 52 41 53 28 54 31 55 40 56
REMARK SMILES IDX 54 57 29 58 30 59 39 61 55 62 32 63 21 64 22 65 26 66 23 67
REMARK SMILES IDX 25 68 24 69 43 70 44 71 48 72 45 73 47 74 46 75 33 76 34 77
REMARK SMILES IDX 38 78 35 79 37 80 36 81
REMARK H PARENT 5 6 73 22 9 30 53 49 31 60
REMARK Flexibility Score: inf
ROOT
ATOM      1  C   UNL A   1      36.844  20.275  25.002  1.00  0.00     0.042 C 
ENDROOT
BRANCH   1   2
ATOM      2  C   UNL A   1      35.798  21.248  25.536  1.00  0.00     0.117 C 
BRANCH   2   3
ATOM      3  N   UNL A   1      34.595  21.247  24.725  1.00  0.00    -0.354 N 
ATOM      4  C   UNL A   1      33.555  22.132  24.704  1.00  0.00     0.242 C 
ATOM      5  O   UNL A   1      32.657  21.928  23.884  1.00  0.00    -0.273 OA
ATOM      6  H   UNL A   1      34.517  20.495  24.095  1.00  0.00     0.163 HD
BRANCH   4   7
ATOM      7  C   UNL A   1      33.546  23.336  25.668  1.00  0.00     0.178 C 
ATOM      8  C   UNL A   1      33.355  22.952  27.132  1.00  0.00     0.042 C 
BRANCH   7   9
ATOM      9  N   UNL A   1      32.559  24.316  25.179  1.00  0.00    -0.281 N 
ATOM     10  C   UNL A   1      32.963  25.409  24.423  1.00  0.00     0.267 C 
ATOM     11  C   UNL A   1      31.228  24.279  25.542  1.00  0.00     0.149 C 
ATOM     12  O   UNL A   1      34.089  25.635  23.997  1.00  0.00    -0.268 OA
ATOM     13  C   UNL A   1      31.810  26.306  24.151  1.00  0.00     0.084 C 
ATOM     14  S   UNL A   1      30.376  25.610  24.803  1.00  0.00    -0.054 SA
ATOM     15  S   UNL A   1      30.435  23.165  26.501  1.00  0.00    -0.052 S 
ATOM     16  C   UNL A   1      31.936  27.461  23.474  1.00  0.00     0.068 C 
BRANCH  16  17
ATOM     17  C   UNL A   1      30.824  28.318  23.295  1.00  0.00     0.132 A 
ATOM     18  N   UNL A   1      29.901  28.293  22.357  1.00  0.00    -0.229 NA
ATOM     19  N   UNL A   1      30.640  29.403  24.121  1.00  0.00    -0.338 N 
ATOM     20  C   UNL A   1      29.229  29.474  22.459  1.00  0.00     0.089 A 
ATOM     21  C   UNL A   1      29.664  30.198  23.563  1.00  0.00     0.066 A 
ATOM     22  H   UNL A   1      31.121  29.580  24.962  1.00  0.00     0.168 HD
ATOM     23  C   UNL A   1      28.252  30.006  21.610  1.00  0.00     0.030 A 
ATOM     24  C   UNL A   1      29.153  31.455  23.888  1.00  0.00     0.028 A 
ATOM     25  C   UNL A   1      27.743  31.275  21.897  1.00  0.00     0.002 A 
ATOM     26  C   UNL A   1      28.184  31.981  23.020  1.00  0.00     0.002 A 
ENDBRANCH  16  17
ENDBRANCH   7   9
ENDBRANCH   4   7
ENDBRANCH   2   3
ENDBRANCH   1   2
BRANCH   1  27
ATOM     27  C   UNL A   1      38.275  20.797  25.071  1.00  0.00     0.118 C 
BRANCH  27  28
ATOM     28  N   UNL A   1      39.239  19.750  25.375  1.00  0.00    -0.352 N 
ATOM     29  C   UNL A   1      40.489  19.823  25.939  1.00  0.00     0.251 C 
ATOM     30  H   UNL A   1      38.948  18.841  25.138  1.00  0.00     0.163 HD
ATOM     31  O   UNL A   1      41.207  18.827  25.929  1.00  0.00    -0.269 OA
BRANCH  29  32
ATOM     32  C   UNL A   1      40.991  21.080  26.538  1.00  0.00     0.039 A 
ATOM     33  C   UNL A   1      41.690  21.971  25.719  1.00  0.00     0.014 A 
ATOM     34  C   UNL A   1      40.822  21.373  27.895  1.00  0.00     0.014 A 
ATOM     35  C   UNL A   1      42.162  23.177  26.243  1.00  0.00     0.010 A 
ATOM     36  C   UNL A   1      41.223  22.611  28.398  1.00  0.00     0.010 A 
ATOM     37  C   UNL A   1      41.896  23.527  27.577  1.00  0.00    -0.014 A 
BRANCH  37  38
ATOM     38  C   UNL A   1      42.293  24.859  28.103  1.00  0.00     0.031 A 
ATOM     39  C   UNL A   1      43.725  25.156  28.459  1.00  0.00     0.074 A 
ATOM     40  C   UNL A   1      41.346  25.800  28.293  1.00  0.00     0.049 A 
ATOM     41  N   UNL A   1      44.243  26.261  28.934  1.00  0.00    -0.248 NA
ATOM     42  C   UNL A   1      44.699  24.068  28.276  1.00  0.00     0.031 C 
ATOM     43  C   UNL A   1      39.916  25.627  28.029  1.00  0.00     0.029 A 
ATOM     44  N   UNL A   1      41.444  27.090  28.750  1.00  0.00    -0.354 N 
ATOM     45  C   UNL A   1      45.597  26.002  29.106  1.00  0.00     0.074 A 
ATOM     46  C   UNL A   1      45.812  24.620  28.738  1.00  0.00     0.031 C 
ATOM     47  C   UNL A   1      39.277  26.777  28.296  1.00  0.00     0.029 A 
ATOM     48  C   UNL A   1      40.240  27.753  28.792  1.00  0.00     0.049 A 
ATOM     49  H   UNL A   1      42.295  27.503  29.022  1.00  0.00     0.167 HD
ATOM     50  C   UNL A   1      46.578  26.844  29.513  1.00  0.00     0.031 A 
ATOM     51  C   UNL A   1      39.941  29.003  29.191  1.00  0.00     0.031 A 
ATOM     52  C   UNL A   1      46.367  28.219  29.886  1.00  0.00     0.049 A 
ATOM     53  C   UNL A   1      41.045  29.905  29.667  1.00  0.00     0.074 A 
ATOM     54  C   UNL A   1      47.305  29.160  30.274  1.00  0.00     0.029 A 
ATOM     55  N   UNL A   1      45.133  28.847  29.923  1.00  0.00    -0.354 N 
ATOM     56  N   UNL A   1      42.331  29.663  29.756  1.00  0.00    -0.248 NA
ATOM     57  C   UNL A   1      40.657  31.260  30.084  1.00  0.00     0.031 C 
ATOM     58  C   UNL A   1      46.632  30.341  30.602  1.00  0.00     0.029 A 
ATOM     59  C   UNL A   1      45.282  30.156  30.353  1.00  0.00     0.049 A 
ATOM     60  H   UNL A   1      44.276  28.427  29.679  1.00  0.00     0.167 HD
ATOM     61  C   UNL A   1      42.906  30.841  30.215  1.00  0.00     0.074 A 
ATOM     62  C   UNL A   1      41.834  31.803  30.356  1.00  0.00     0.031 C 
ATOM     63  C   UNL A   1      44.206  31.102  30.499  1.00  0.00     0.031 A 
BRANCH  50  64
ATOM     64  C   UNL A   1      47.981  26.300  29.576  1.00  0.00    -0.014 A 
ATOM     65  C   UNL A   1      48.504  25.780  30.771  1.00  0.00     0.009 A 
ATOM     66  C   UNL A   1      48.767  26.253  28.414  1.00  0.00     0.009 A 
ATOM     67  C   UNL A   1      49.796  25.251  30.807  1.00  0.00     0.001 A 
ATOM     68  C   UNL A   1      50.048  25.695  28.447  1.00  0.00     0.001 A 
ATOM     69  C   UNL A   1      50.563  25.203  29.645  1.00  0.00     0.000 A 
ENDBRANCH  50  64
BRANCH  51  70
ATOM     70  C   UNL A   1      38.532  29.481  29.167  1.00  0.00    -0.014 A 
ATOM     71  C   UNL A   1      37.710  29.349  30.296  1.00  0.00     0.009 A 
ATOM     72  C   UNL A   1      37.996  30.050  28.001  1.00  0.00     0.009 A 
ATOM     73  C   UNL A   1      36.370  29.739  30.245  1.00  0.00     0.001 A 
ATOM     74  C   UNL A   1      36.666  30.473  27.964  1.00  0.00     0.001 A 
ATOM     75  C   UNL A   1      35.850  30.305  29.081  1.00  0.00     0.000 A 
ENDBRANCH  51  70
BRANCH  63  76
ATOM     76  C   UNL A   1      44.538  32.493  30.964  1.00  0.00    -0.014 A 
ATOM     77  C   UNL A   1      44.534  32.831  32.326  1.00  0.00     0.009 A 
ATOM     78  C   UNL A   1      44.874  33.479  30.022  1.00  0.00     0.009 A 
ATOM     79  C   UNL A   1      44.813  34.137  32.733  1.00  0.00     0.001 A 
ATOM     80  C   UNL A   1      45.187  34.776  30.433  1.00  0.00     0.001 A 
ATOM     81  C   UNL A   1      45.143  35.107  31.786  1.00  0.00     0.000 A 
ENDBRANCH  63  76
ENDBRANCH  37  38
ENDBRANCH  29  32
ENDBRANCH  27  28
ENDBRANCH   1  27
TORSDOF 12
ENDMDL
MODEL 3
REMARK VINA RESULT:     -12.0      3.186      9.183
REMARK SMILES C[C@@H](C(=O)NCCCNC(=O)c1ccc(-c2c3nc(c(-c4ccccc4)c4ccc([nH]4)c(-c4ccccc4)c4nc(c(-c5ccccc5)c5ccc2[nH]5)C=C4)C=C3)cc1)N1C(=O)/C(=C/c2nc3ccccc3[nH]2)SC1=S
REMARK SMILES IDX 7 1 6 2 5 3 3 4 4 5 2 7 1 8 60 9 61 10 75 11 62 12 63 13
REMARK SMILES IDX 74 14 76 15 64 16 65 17 66 18 73 19 67 20 72 21 68 23 71 24
REMARK SMILES IDX 69 25 70 26 8 27 9 28 10 29 11 31 12 32 13 33 59 34 14 35
REMARK SMILES IDX 58 36 15 37 16 38 17 39 52 40 18 41 57 42 51 43 53 44 19 45
REMARK SMILES IDX 56 46 50 47 49 48 20 50 42 51 27 52 41 53 28 54 31 55 40 56
REMARK SMILES IDX 54 57 29 58 30 59 39 61 55 62 32 63 21 64 22 65 26 66 23 67
REMARK SMILES IDX 25 68 24 69 43 70 44 71 48 72 45 73 47 74 46 75 33 76 34 77
REMARK SMILES IDX 38 78 35 79 37 80 36 81
REMARK H PARENT 5 6 73 22 9 30 53 49 31 60
REMARK Flexibility Score: inf
ROOT
ATOM      1  C   UNL A   1      31.473  30.828  25.946  1.00  0.00     0.042 C 
ENDROOT
BRANCH   1   2
ATOM      2  C   UNL A   1      32.124  29.762  25.071  1.00  0.00     0.117 C 
BRANCH   2   3
ATOM      3  N   UNL A   1      31.166  28.765  24.632  1.00  0.00    -0.354 N 
ATOM      4  C   UNL A   1      31.373  27.490  24.188  1.00  0.00     0.242 C 
ATOM      5  O   UNL A   1      30.377  26.820  23.910  1.00  0.00    -0.273 OA
ATOM      6  H   UNL A   1      30.225  29.050  24.659  1.00  0.00     0.163 HD
BRANCH   4   7
ATOM      7  C   UNL A   1      32.809  26.938  24.072  1.00  0.00     0.178 C 
ATOM      8  C   UNL A   1      33.639  27.606  22.980  1.00  0.00     0.042 C 
BRANCH   7   9
ATOM      9  N   UNL A   1      32.733  25.471  23.944  1.00  0.00    -0.281 N 
ATOM     10  C   UNL A   1      32.889  24.655  25.057  1.00  0.00     0.267 C 
ATOM     11  C   UNL A   1      32.635  24.831  22.724  1.00  0.00     0.149 C 
ATOM     12  O   UNL A   1      32.993  25.013  26.224  1.00  0.00    -0.268 OA
ATOM     13  C   UNL A   1      32.890  23.224  24.657  1.00  0.00     0.084 C 
ATOM     14  S   UNL A   1      32.606  23.103  22.962  1.00  0.00    -0.054 SA
ATOM     15  S   UNL A   1      32.519  25.501  21.198  1.00  0.00    -0.052 S 
ATOM     16  C   UNL A   1      33.067  22.226  25.539  1.00  0.00     0.068 C 
BRANCH  16  17
ATOM     17  C   UNL A   1      33.127  20.880  25.106  1.00  0.00     0.132 A 
ATOM     18  N   UNL A   1      32.169  19.978  25.070  1.00  0.00    -0.229 NA
ATOM     19  N   UNL A   1      34.325  20.324  24.720  1.00  0.00    -0.338 N 
ATOM     20  C   UNL A   1      32.785  18.784  24.845  1.00  0.00     0.089 A 
ATOM     21  C   UNL A   1      34.144  18.963  24.614  1.00  0.00     0.066 A 
ATOM     22  H   UNL A   1      35.163  20.812  24.549  1.00  0.00     0.168 HD
ATOM     23  C   UNL A   1      32.240  17.495  24.862  1.00  0.00     0.030 A 
ATOM     24  C   UNL A   1      35.015  17.898  24.376  1.00  0.00     0.028 A 
ATOM     25  C   UNL A   1      33.094  16.410  24.653  1.00  0.00     0.002 A 
ATOM     26  C   UNL A   1      34.455  16.612  24.409  1.00  0.00     0.002 A 
ENDBRANCH  16  17
ENDBRANCH   7   9
ENDBRANCH   4   7
ENDBRANCH   2   3
ENDBRANCH   1   2
BRANCH   1  27
ATOM     27  C   UNL A   1      32.370  31.349  27.065  1.00  0.00     0.118 C 
BRANCH  27  28
ATOM     28  N   UNL A   1      32.205  32.777  27.295  1.00  0.00    -0.352 N 
ATOM     29  C   UNL A   1      32.977  33.662  28.006  1.00  0.00     0.251 C 
ATOM     30  H   UNL A   1      31.410  33.173  26.872  1.00  0.00     0.163 HD
ATOM     31  O   UNL A   1      32.543  34.791  28.225  1.00  0.00    -0.269 OA
BRANCH  29  32
ATOM     32  C   UNL A   1      34.306  33.276  28.529  1.00  0.00     0.039 A 
ATOM     33  C   UNL A   1      34.370  32.633  29.769  1.00  0.00     0.014 A 
ATOM     34  C   UNL A   1      35.487  33.575  27.843  1.00  0.00     0.014 A 
ATOM     35  C   UNL A   1      35.604  32.235  30.286  1.00  0.00     0.010 A 
ATOM     36  C   UNL A   1      36.712  33.108  28.322  1.00  0.00     0.010 A 
ATOM     37  C   UNL A   1      36.783  32.432  29.548  1.00  0.00    -0.014 A 
BRANCH  37  38
ATOM     38  C   UNL A   1      38.083  31.904  30.041  1.00  0.00     0.031 A 
ATOM     39  C   UNL A   1      38.622  30.590  29.545  1.00  0.00     0.074 A 
ATOM     40  C   UNL A   1      38.766  32.603  30.971  1.00  0.00     0.049 A 
ATOM     41  N   UNL A   1      39.735  29.981  29.873  1.00  0.00    -0.248 NA
ATOM     42  C   UNL A   1      37.802  29.854  28.570  1.00  0.00     0.031 C 
ATOM     43  C   UNL A   1      38.333  33.869  31.566  1.00  0.00     0.029 A 
ATOM     44  N   UNL A   1      39.971  32.348  31.576  1.00  0.00    -0.354 N 
ATOM     45  C   UNL A   1      39.747  28.796  29.147  1.00  0.00     0.074 A 
ATOM     46  C   UNL A   1      38.507  28.744  28.405  1.00  0.00     0.031 C 
ATOM     47  C   UNL A   1      39.273  34.296  32.423  1.00  0.00     0.029 A 
ATOM     48  C   UNL A   1      40.351  33.316  32.475  1.00  0.00     0.049 A 
ATOM     49  H   UNL A   1      40.512  31.548  31.384  1.00  0.00     0.167 HD
ATOM     50  C   UNL A   1      40.712  27.847  29.087  1.00  0.00     0.031 A 
ATOM     51  C   UNL A   1      41.441  33.404  33.259  1.00  0.00     0.031 A 
ATOM     52  C   UNL A   1      41.945  27.892  29.830  1.00  0.00     0.049 A 
ATOM     53  C   UNL A   1      42.481  32.320  33.194  1.00  0.00     0.074 A 
ATOM     54  C   UNL A   1      43.000  26.996  29.804  1.00  0.00     0.029 A 
ATOM     55  N   UNL A   1      42.287  28.884  30.735  1.00  0.00    -0.354 N 
ATOM     56  N   UNL A   1      42.506  31.241  32.449  1.00  0.00    -0.248 NA
ATOM     57  C   UNL A   1      43.651  32.475  34.070  1.00  0.00     0.031 C 
ATOM     58  C   UNL A   1      43.954  27.414  30.737  1.00  0.00     0.029 A 
ATOM     59  C   UNL A   1      43.524  28.608  31.294  1.00  0.00     0.049 A 
ATOM     60  H   UNL A   1      41.733  29.669  30.949  1.00  0.00     0.167 HD
ATOM     61  C   UNL A   1      43.703  30.603  32.748  1.00  0.00     0.074 A 
ATOM     62  C   UNL A   1      44.388  31.432  33.719  1.00  0.00     0.031 C 
ATOM     63  C   UNL A   1      44.191  29.434  32.266  1.00  0.00     0.031 A 
BRANCH  50  64
ATOM     64  C   UNL A   1      40.474  26.668  28.181  1.00  0.00    -0.014 A 
ATOM     65  C   UNL A   1      39.723  25.563  28.611  1.00  0.00     0.009 A 
ATOM     66  C   UNL A   1      40.955  26.690  26.862  1.00  0.00     0.009 A 
ATOM     67  C   UNL A   1      39.484  24.490  27.749  1.00  0.00     0.001 A 
ATOM     68  C   UNL A   1      40.689  25.629  25.993  1.00  0.00     0.001 A 
ATOM     69  C   UNL A   1      39.961  24.527  26.440  1.00  0.00     0.000 A 
ENDBRANCH  50  64
BRANCH  51  70
ATOM     70  C   UNL A   1      41.610  34.558  34.183  1.00  0.00    -0.014 A 
ATOM     71  C   UNL A   1      41.111  34.506  35.493  1.00  0.00     0.009 A 
ATOM     72  C   UNL A   1      42.250  35.728  33.748  1.00  0.00     0.009 A 
ATOM     73  C   UNL A   1      41.213  35.617  36.335  1.00  0.00     0.001 A 
ATOM     74  C   UNL A   1      42.383  36.825  34.602  1.00  0.00     0.001 A 
ATOM     75  C   UNL A   1      41.853  36.773  35.890  1.00  0.00     0.000 A 
ENDBRANCH  51  70
BRANCH  63  76
ATOM     76  C   UNL A   1      45.543  29.000  32.764  1.00  0.00    -0.014 A 
ATOM     77  C   UNL A   1      45.681  28.232  33.931  1.00  0.00     0.009 A 
ATOM     78  C   UNL A   1      46.695  29.355  32.045  1.00  0.00     0.009 A 
ATOM     79  C   UNL A   1      46.947  27.868  34.393  1.00  0.00     0.001 A 
ATOM     80  C   UNL A   1      47.958  28.960  32.489  1.00  0.00     0.001 A 
ATOM     81  C   UNL A   1      48.084  28.230  33.669  1.00  0.00     0.000 A 
ENDBRANCH  63  76
ENDBRANCH  37  38
ENDBRANCH  29  32
ENDBRANCH  27  28
ENDBRANCH   1  27
TORSDOF 12
ENDMDL
