MODEL 1
REMARK VINA RESULT:     -12.0      0.000      0.000
REMARK SMILES CS(=O)(=O)c1ccc(/C=C(/C(=O)NCCCNC(=O)c2ccc(-c3c4nc(c(-c5ccccc5)c5ccc([nH]5)c(-c5ccccc5)c5nc(c(-c6ccccc6)c6ccc3[nH]6)C=C5)C=C4)cc2)c2ccc(F)cc2)cc1
REMARK SMILES IDX 15 1 14 2 13 3 11 4 12 5 10 7 9 8 8 9 5 10 6 11 76 12 7 13
REMARK SMILES IDX 75 14 2 15 1 16 3 17 4 18 68 19 69 20 74 21 70 22 73 23
REMARK SMILES IDX 71 24 72 25 16 26 17 27 18 28 19 30 20 31 21 32 67 33 22 34
REMARK SMILES IDX 66 35 23 36 24 37 25 38 60 39 26 40 65 41 59 42 61 43 27 44
REMARK SMILES IDX 64 45 58 46 57 47 28 49 50 50 35 51 49 52 36 53 39 54 48 55
REMARK SMILES IDX 62 56 37 57 38 58 47 60 63 61 40 62 29 63 30 64 34 65 31 66
REMARK SMILES IDX 33 67 32 68 51 69 52 70 56 71 53 72 55 73 54 74 41 75 42 76
REMARK SMILES IDX 46 77 43 78 45 79 44 80
REMARK H PARENT 13 6 17 29 61 48 39 59
REMARK Flexibility Score: inf
ROOT
ATOM      1  C   UNL A   1      35.734  24.018  25.685  1.00  0.00     0.042 C 
ENDROOT
BRANCH   1   2
ATOM      2  C   UNL A   1      34.362  23.790  25.044  1.00  0.00     0.118 C 
BRANCH   2   3
ATOM      3  N   UNL A   1      33.353  23.540  26.057  1.00  0.00    -0.352 N 
ATOM      4  C   UNL A   1      32.266  24.225  26.498  1.00  0.00     0.251 C 
ATOM      5  O   UNL A   1      31.635  23.704  27.421  1.00  0.00    -0.269 OA
ATOM      6  H   UNL A   1      33.486  22.685  26.528  1.00  0.00     0.163 HD
BRANCH   4   7
ATOM      7  C   UNL A   1      31.777  25.509  25.869  1.00  0.00     0.047 C 
ATOM      8  C   UNL A   1      31.014  25.505  24.751  1.00  0.00     0.022 C 
BRANCH   8   9
ATOM      9  C   UNL A   1      30.371  26.636  24.044  1.00  0.00    -0.025 A 
ATOM     10  C   UNL A   1      29.011  28.806  22.889  1.00  0.00     0.067 A 
ATOM     11  C   UNL A   1      30.404  28.769  22.869  1.00  0.00     0.021 A 
ATOM     12  C   UNL A   1      28.286  27.748  23.438  1.00  0.00     0.021 A 
ATOM     13  C   UNL A   1      31.074  27.669  23.411  1.00  0.00     0.009 A 
ATOM     14  C   UNL A   1      28.966  26.673  24.017  1.00  0.00     0.009 A 
BRANCH  10  15
ATOM     15  S   UNL A   1      28.146  30.204  22.218  1.00  0.00     0.175 S 
ATOM     16  C   UNL A   1      29.227  31.588  22.470  1.00  0.00     0.163 C 
ATOM     17  O   UNL A   1      26.964  30.392  23.037  1.00  0.00    -0.224 OA
ATOM     18  O   UNL A   1      28.043  30.000  20.786  1.00  0.00    -0.224 OA
ENDBRANCH  10  15
ENDBRANCH   8   9
BRANCH   7  19
ATOM     19  C   UNL A   1      32.322  26.775  26.422  1.00  0.00    -0.013 A 
ATOM     20  C   UNL A   1      33.645  27.136  26.099  1.00  0.00     0.012 A 
ATOM     21  C   UNL A   1      31.539  27.661  27.176  1.00  0.00     0.012 A 
ATOM     22  C   UNL A   1      34.162  28.371  26.488  1.00  0.00     0.040 A 
ATOM     23  C   UNL A   1      32.058  28.904  27.554  1.00  0.00     0.040 A 
ATOM     24  C   UNL A   1      33.359  29.249  27.201  1.00  0.00     0.123 A 
ATOM     25  F   UNL A   1      33.840  30.452  27.540  1.00  0.00    -0.207 F 
ENDBRANCH   7  19
ENDBRANCH   4   7
ENDBRANCH   2   3
ENDBRANCH   1   2
BRANCH   1  26
ATOM     26  C   UNL A   1      36.913  23.705  24.759  1.00  0.00     0.118 C 
BRANCH  26  27
ATOM     27  N   UNL A   1      37.765  22.653  25.288  1.00  0.00    -0.352 N 
ATOM     28  C   UNL A   1      38.907  22.724  26.041  1.00  0.00     0.251 C 
ATOM     29  H   UNL A   1      37.472  21.739  25.068  1.00  0.00     0.163 HD
ATOM     30  O   UNL A   1      39.580  21.708  26.197  1.00  0.00    -0.269 OA
BRANCH  28  31
ATOM     31  C   UNL A   1      39.352  23.993  26.662  1.00  0.00     0.039 A 
ATOM     32  C   UNL A   1      38.997  24.234  27.994  1.00  0.00     0.014 A 
ATOM     33  C   UNL A   1      40.033  24.976  25.939  1.00  0.00     0.014 A 
ATOM     34  C   UNL A   1      39.350  25.440  28.606  1.00  0.00     0.010 A 
ATOM     35  C   UNL A   1      40.441  26.154  26.570  1.00  0.00     0.010 A 
ATOM     36  C   UNL A   1      40.093  26.403  27.905  1.00  0.00    -0.014 A 
BRANCH  36  37
ATOM     37  C   UNL A   1      40.502  27.666  28.574  1.00  0.00     0.031 A 
ATOM     38  C   UNL A   1      41.909  27.854  29.073  1.00  0.00     0.074 A 
ATOM     39  C   UNL A   1      39.593  28.645  28.746  1.00  0.00     0.049 A 
ATOM     40  N   UNL A   1      42.449  28.906  29.638  1.00  0.00    -0.248 NA
ATOM     41  C   UNL A   1      42.823  26.708  28.942  1.00  0.00     0.031 C 
ATOM     42  C   UNL A   1      38.185  28.571  28.353  1.00  0.00     0.029 A 
ATOM     43  N   UNL A   1      39.723  29.899  29.290  1.00  0.00    -0.354 N 
ATOM     44  C   UNL A   1      43.758  28.547  29.937  1.00  0.00     0.074 A 
ATOM     45  C   UNL A   1      43.916  27.165  29.535  1.00  0.00     0.031 C 
ATOM     46  C   UNL A   1      37.590  29.743  28.632  1.00  0.00     0.029 A 
ATOM     47  C   UNL A   1      38.566  30.638  29.244  1.00  0.00     0.049 A 
ATOM     48  H   UNL A   1      40.564  30.236  29.674  1.00  0.00     0.167 HD
ATOM     49  C   UNL A   1      44.745  29.300  30.479  1.00  0.00     0.031 A 
ATOM     50  C   UNL A   1      38.320  31.900  29.640  1.00  0.00     0.031 A 
ATOM     51  C   UNL A   1      44.594  30.677  30.872  1.00  0.00     0.049 A 
ATOM     52  C   UNL A   1      39.435  32.723  30.218  1.00  0.00     0.074 A 
ATOM     53  C   UNL A   1      45.550  31.540  31.379  1.00  0.00     0.029 A 
ATOM     54  N   UNL A   1      43.408  31.391  30.803  1.00  0.00    -0.354 N 
ATOM     55  N   UNL A   1      40.686  32.390  30.424  1.00  0.00    -0.248 NA
ATOM     56  C   UNL A   1      39.106  34.103  30.600  1.00  0.00     0.031 C 
ATOM     57  C   UNL A   1      44.931  32.765  31.657  1.00  0.00     0.029 A 
ATOM     58  C   UNL A   1      43.603  32.678  31.276  1.00  0.00     0.049 A 
ATOM     59  H   UNL A   1      42.553  31.035  30.468  1.00  0.00     0.167 HD
ATOM     60  C   UNL A   1      41.298  33.525  30.939  1.00  0.00     0.074 A 
ATOM     61  C   UNL A   1      40.286  34.560  30.992  1.00  0.00     0.031 C 
ATOM     62  C   UNL A   1      42.584  33.694  31.334  1.00  0.00     0.031 A 
BRANCH  49  63
ATOM     63  C   UNL A   1      46.082  28.643  30.684  1.00  0.00    -0.014 A 
ATOM     64  C   UNL A   1      47.077  28.696  29.694  1.00  0.00     0.009 A 
ATOM     65  C   UNL A   1      46.364  27.991  31.893  1.00  0.00     0.009 A 
ATOM     66  C   UNL A   1      48.313  28.077  29.897  1.00  0.00     0.001 A 
ATOM     67  C   UNL A   1      47.610  27.395  32.105  1.00  0.00     0.001 A 
ATOM     68  C   UNL A   1      48.579  27.431  31.103  1.00  0.00     0.000 A 
ENDBRANCH  49  63
BRANCH  50  69
ATOM     69  C   UNL A   1      36.963  32.480  29.467  1.00  0.00    -0.014 A 
ATOM     70  C   UNL A   1      36.017  32.396  30.500  1.00  0.00     0.009 A 
ATOM     71  C   UNL A   1      36.607  33.119  28.269  1.00  0.00     0.009 A 
ATOM     72  C   UNL A   1      34.733  32.918  30.328  1.00  0.00     0.001 A 
ATOM     73  C   UNL A   1      35.332  33.664  28.109  1.00  0.00     0.001 A 
ATOM     74  C   UNL A   1      34.393  33.554  29.135  1.00  0.00     0.000 A 
ENDBRANCH  50  69
BRANCH  62  75
ATOM     75  C   UNL A   1      42.965  35.057  31.837  1.00  0.00    -0.014 A 
ATOM     76  C   UNL A   1      42.794  35.409  33.186  1.00  0.00     0.009 A 
ATOM     77  C   UNL A   1      43.508  36.000  30.952  1.00  0.00     0.009 A 
ATOM     78  C   UNL A   1      43.119  36.694  33.627  1.00  0.00     0.001 A 
ATOM     79  C   UNL A   1      43.858  37.274  31.401  1.00  0.00     0.001 A 
ATOM     80  C   UNL A   1      43.653  37.623  32.735  1.00  0.00     0.000 A 
ENDBRANCH  62  75
ENDBRANCH  36  37
ENDBRANCH  28  31
ENDBRANCH  26  27
ENDBRANCH   1  26
TORSDOF 13
ENDMDL
MODEL 2
REMARK VINA RESULT:     -11.9      0.462      5.901
REMARK SMILES CS(=O)(=O)c1ccc(/C=C(/C(=O)NCCCNC(=O)c2ccc(-c3c4nc(c(-c5ccccc5)c5ccc([nH]5)c(-c5ccccc5)c5nc(c(-c6ccccc6)c6ccc3[nH]6)C=C5)C=C4)cc2)c2ccc(F)cc2)cc1
REMARK SMILES IDX 15 1 14 2 13 3 11 4 12 5 10 7 9 8 8 9 5 10 6 11 76 12 7 13
REMARK SMILES IDX 75 14 2 15 1 16 3 17 4 18 68 19 69 20 74 21 70 22 73 23
REMARK SMILES IDX 71 24 72 25 16 26 17 27 18 28 19 30 20 31 21 32 67 33 22 34
REMARK SMILES IDX 66 35 23 36 24 37 25 38 60 39 26 40 65 41 59 42 61 43 27 44
REMARK SMILES IDX 64 45 58 46 57 47 28 49 50 50 35 51 49 52 36 53 39 54 48 55
REMARK SMILES IDX 62 56 37 57 38 58 47 60 63 61 40 62 29 63 30 64 34 65 31 66
REMARK SMILES IDX 33 67 32 68 51 69 52 70 56 71 53 72 55 73 54 74 41 75 42 76
REMARK SMILES IDX 46 77 43 78 45 79 44 80
REMARK H PARENT 13 6 17 29 61 48 39 59
REMARK Flexibility Score: inf
ROOT
ATOM      1  C   UNL A   1      35.670  23.885  25.906  1.00  0.00     0.042 C 
ENDROOT
BRANCH   1   2
ATOM      2  C   UNL A   1      34.333  23.692  25.186  1.00  0.00     0.118 C 
BRANCH   2   3
ATOM      3  N   UNL A   1      33.270  23.414  26.134  1.00  0.00    -0.352 N 
ATOM      4  C   UNL A   1      32.149  24.079  26.520  1.00  0.00     0.251 C 
ATOM      5  O   UNL A   1      31.472  23.536  27.396  1.00  0.00    -0.269 OA
ATOM      6  H   UNL A   1      33.386  22.554  26.600  1.00  0.00     0.163 HD
BRANCH   4   7
ATOM      7  C   UNL A   1      31.680  25.366  25.881  1.00  0.00     0.047 C 
ATOM      8  C   UNL A   1      30.888  25.364  24.784  1.00  0.00     0.022 C 
BRANCH   8   9
ATOM      9  C   UNL A   1      30.258  26.501  24.074  1.00  0.00    -0.025 A 
ATOM     10  C   UNL A   1      28.944  28.701  22.923  1.00  0.00     0.067 A 
ATOM     11  C   UNL A   1      30.324  28.567  22.785  1.00  0.00     0.021 A 
ATOM     12  C   UNL A   1      28.204  27.725  23.590  1.00  0.00     0.021 A 
ATOM     13  C   UNL A   1      30.967  27.451  23.328  1.00  0.00     0.009 A 
ATOM     14  C   UNL A   1      28.862  26.634  24.166  1.00  0.00     0.009 A 
BRANCH  10  15
ATOM     15  S   UNL A   1      28.115  30.122  22.254  1.00  0.00     0.175 S 
ATOM     16  C   UNL A   1      29.236  31.475  22.494  1.00  0.00     0.163 C 
ATOM     17  O   UNL A   1      26.945  30.346  23.081  1.00  0.00    -0.224 OA
ATOM     18  O   UNL A   1      27.996  29.917  20.823  1.00  0.00    -0.224 OA
ENDBRANCH  10  15
ENDBRANCH   8   9
BRANCH   7  19
ATOM     19  C   UNL A   1      32.277  26.624  26.397  1.00  0.00    -0.013 A 
ATOM     20  C   UNL A   1      33.591  26.953  26.013  1.00  0.00     0.012 A 
ATOM     21  C   UNL A   1      31.546  27.535  27.174  1.00  0.00     0.012 A 
ATOM     22  C   UNL A   1      34.152  28.179  26.366  1.00  0.00     0.040 A 
ATOM     23  C   UNL A   1      32.108  28.770  27.516  1.00  0.00     0.040 A 
ATOM     24  C   UNL A   1      33.400  29.082  27.104  1.00  0.00     0.123 A 
ATOM     25  F   UNL A   1      33.921  30.277  27.409  1.00  0.00    -0.207 F 
ENDBRANCH   7  19
ENDBRANCH   4   7
ENDBRANCH   2   3
ENDBRANCH   1   2
BRANCH   1  26
ATOM     26  C   UNL A   1      36.893  23.747  24.996  1.00  0.00     0.118 C 
BRANCH  26  27
ATOM     27  N   UNL A   1      37.815  22.726  25.463  1.00  0.00    -0.352 N 
ATOM     28  C   UNL A   1      39.000  22.836  26.143  1.00  0.00     0.251 C 
ATOM     29  H   UNL A   1      37.543  21.802  25.257  1.00  0.00     0.163 HD
ATOM     30  O   UNL A   1      39.719  21.845  26.250  1.00  0.00    -0.269 OA
BRANCH  28  31
ATOM     31  C   UNL A   1      39.435  24.119  26.743  1.00  0.00     0.039 A 
ATOM     32  C   UNL A   1      39.036  24.402  28.054  1.00  0.00     0.014 A 
ATOM     33  C   UNL A   1      40.151  25.074  26.016  1.00  0.00     0.014 A 
ATOM     34  C   UNL A   1      39.380  25.621  28.642  1.00  0.00     0.010 A 
ATOM     35  C   UNL A   1      40.549  26.266  26.627  1.00  0.00     0.010 A 
ATOM     36  C   UNL A   1      40.157  26.558  27.941  1.00  0.00    -0.014 A 
BRANCH  36  37
ATOM     37  C   UNL A   1      40.555  27.835  28.588  1.00  0.00     0.031 A 
ATOM     38  C   UNL A   1      39.564  28.953  28.766  1.00  0.00     0.074 A 
ATOM     39  C   UNL A   1      41.826  27.994  29.005  1.00  0.00     0.049 A 
ATOM     40  N   UNL A   1      39.728  30.115  29.349  1.00  0.00    -0.248 NA
ATOM     41  C   UNL A   1      38.221  28.750  28.200  1.00  0.00     0.031 C 
ATOM     42  C   UNL A   1      42.898  27.008  28.848  1.00  0.00     0.029 A 
ATOM     43  N   UNL A   1      42.429  29.042  29.654  1.00  0.00    -0.354 N 
ATOM     44  C   UNL A   1      38.517  30.783  29.211  1.00  0.00     0.074 A 
ATOM     45  C   UNL A   1      37.644  29.916  28.448  1.00  0.00     0.031 C 
ATOM     46  C   UNL A   1      44.016  27.482  29.422  1.00  0.00     0.029 A 
ATOM     47  C   UNL A   1      43.748  28.811  29.963  1.00  0.00     0.049 A 
ATOM     48  H   UNL A   1      41.961  29.879  29.879  1.00  0.00     0.167 HD
ATOM     49  C   UNL A   1      38.157  31.998  29.689  1.00  0.00     0.031 A 
ATOM     50  C   UNL A   1      44.639  29.576  30.617  1.00  0.00     0.031 A 
ATOM     51  C   UNL A   1      39.020  32.859  30.455  1.00  0.00     0.049 A 
ATOM     52  C   UNL A   1      44.210  30.911  31.157  1.00  0.00     0.074 A 
ATOM     53  C   UNL A   1      38.728  34.083  31.031  1.00  0.00     0.029 A 
ATOM     54  N   UNL A   1      40.345  32.584  30.752  1.00  0.00    -0.354 N 
ATOM     55  N   UNL A   1      43.038  31.494  31.082  1.00  0.00    -0.248 NA
ATOM     56  C   UNL A   1      45.223  31.682  31.890  1.00  0.00     0.031 C 
ATOM     57  C   UNL A   1      39.891  34.571  31.639  1.00  0.00     0.029 A 
ATOM     58  C   UNL A   1      40.891  33.625  31.485  1.00  0.00     0.049 A 
ATOM     59  H   UNL A   1      40.828  31.770  30.480  1.00  0.00     0.167 HD
ATOM     60  C   UNL A   1      43.168  32.690  31.775  1.00  0.00     0.074 A 
ATOM     61  C   UNL A   1      44.524  32.737  32.282  1.00  0.00     0.031 C 
ATOM     62  C   UNL A   1      42.245  33.663  31.973  1.00  0.00     0.031 A 
BRANCH  49  63
ATOM     63  C   UNL A   1      36.761  32.471  29.390  1.00  0.00    -0.014 A 
ATOM     64  C   UNL A   1      36.461  33.135  28.189  1.00  0.00     0.009 A 
ATOM     65  C   UNL A   1      35.725  32.223  30.303  1.00  0.00     0.009 A 
ATOM     66  C   UNL A   1      35.161  33.574  27.927  1.00  0.00     0.001 A 
ATOM     67  C   UNL A   1      34.421  32.638  30.028  1.00  0.00     0.001 A 
ATOM     68  C   UNL A   1      34.142  33.321  28.845  1.00  0.00     0.000 A 
ENDBRANCH  49  63
BRANCH  50  69
ATOM     69  C   UNL A   1      46.023  29.083  30.834  1.00  0.00    -0.014 A 
ATOM     70  C   UNL A   1      47.030  29.352  29.894  1.00  0.00     0.009 A 
ATOM     71  C   UNL A   1      46.345  28.340  31.980  1.00  0.00     0.009 A 
ATOM     72  C   UNL A   1      48.325  28.865  30.085  1.00  0.00     0.001 A 
ATOM     73  C   UNL A   1      47.647  27.877  32.182  1.00  0.00     0.001 A 
ATOM     74  C   UNL A   1      48.633  28.132  31.230  1.00  0.00     0.000 A 
ENDBRANCH  50  69
BRANCH  62  75
ATOM     75  C   UNL A   1      42.675  34.849  32.790  1.00  0.00    -0.014 A 
ATOM     76  C   UNL A   1      43.337  35.938  32.201  1.00  0.00     0.009 A 
ATOM     77  C   UNL A   1      42.408  34.879  34.167  1.00  0.00     0.009 A 
ATOM     78  C   UNL A   1      43.762  37.013  32.984  1.00  0.00     0.001 A 
ATOM     79  C   UNL A   1      42.809  35.968  34.942  1.00  0.00     0.001 A 
ATOM     80  C   UNL A   1      43.496  37.028  34.352  1.00  0.00     0.000 A 
ENDBRANCH  62  75
ENDBRANCH  36  37
ENDBRANCH  28  31
ENDBRANCH  26  27
ENDBRANCH   1  26
TORSDOF 13
ENDMDL
MODEL 3
REMARK VINA RESULT:     -11.6      3.416      8.166
REMARK SMILES CS(=O)(=O)c1ccc(/C=C(/C(=O)NCCCNC(=O)c2ccc(-c3c4nc(c(-c5ccccc5)c5ccc([nH]5)c(-c5ccccc5)c5nc(c(-c6ccccc6)c6ccc3[nH]6)C=C5)C=C4)cc2)c2ccc(F)cc2)cc1
REMARK SMILES IDX 15 1 14 2 13 3 11 4 12 5 10 7 9 8 8 9 5 10 6 11 76 12 7 13
REMARK SMILES IDX 75 14 2 15 1 16 3 17 4 18 68 19 69 20 74 21 70 22 73 23
REMARK SMILES IDX 71 24 72 25 16 26 17 27 18 28 19 30 20 31 21 32 67 33 22 34
REMARK SMILES IDX 66 35 23 36 24 37 25 38 60 39 26 40 65 41 59 42 61 43 27 44
REMARK SMILES IDX 64 45 58 46 57 47 28 49 50 50 35 51 49 52 36 53 39 54 48 55
REMARK SMILES IDX 62 56 37 57 38 58 47 60 63 61 40 62 29 63 30 64 34 65 31 66
REMARK SMILES IDX 33 67 32 68 51 69 52 70 56 71 53 72 55 73 54 74 41 75 42 76
REMARK SMILES IDX 46 77 43 78 45 79 44 80
REMARK H PARENT 13 6 17 29 61 48 39 59
REMARK Flexibility Score: inf
ROOT
ATOM      1  C   UNL A   1      31.943  27.793  27.204  1.00  0.00     0.042 C 
ENDROOT
BRANCH   1   2
ATOM      2  C   UNL A   1      31.818  26.602  26.250  1.00  0.00     0.118 C 
BRANCH   2   3
ATOM      3  N   UNL A   1      32.388  26.916  24.953  1.00  0.00    -0.352 N 
ATOM      4  C   UNL A   1      33.062  26.197  24.017  1.00  0.00     0.251 C 
ATOM      5  O   UNL A   1      33.429  26.818  23.017  1.00  0.00    -0.269 OA
ATOM      6  H   UNL A   1      32.259  27.857  24.694  1.00  0.00     0.163 HD
BRANCH   4   7
ATOM      7  C   UNL A   1      33.295  24.707  24.118  1.00  0.00     0.047 C 
ATOM      8  C   UNL A   1      32.267  23.827  24.114  1.00  0.00     0.022 C 
BRANCH   8   9
ATOM      9  C   UNL A   1      32.292  22.346  24.113  1.00  0.00    -0.025 A 
ATOM     10  C   UNL A   1      32.503  19.550  23.944  1.00  0.00     0.067 A 
ATOM     11  C   UNL A   1      32.523  20.174  25.190  1.00  0.00     0.021 A 
ATOM     12  C   UNL A   1      32.332  20.302  22.782  1.00  0.00     0.021 A 
ATOM     13  C   UNL A   1      32.380  21.562  25.270  1.00  0.00     0.009 A 
ATOM     14  C   UNL A   1      32.233  21.694  22.870  1.00  0.00     0.009 A 
BRANCH  10  15
ATOM     15  S   UNL A   1      32.701  17.789  23.825  1.00  0.00     0.175 S 
ATOM     16  C   UNL A   1      34.394  17.478  24.253  1.00  0.00     0.163 C 
ATOM     17  O   UNL A   1      32.511  17.445  22.430  1.00  0.00    -0.224 OA
ATOM     18  O   UNL A   1      31.883  17.193  24.864  1.00  0.00    -0.224 OA
ENDBRANCH  10  15
ENDBRANCH   8   9
BRANCH   7  19
ATOM     19  C   UNL A   1      34.683  24.266  24.408  1.00  0.00    -0.013 A 
ATOM     20  C   UNL A   1      35.194  24.461  25.706  1.00  0.00     0.012 A 
ATOM     21  C   UNL A   1      35.463  23.582  23.465  1.00  0.00     0.012 A 
ATOM     22  C   UNL A   1      36.442  23.955  26.065  1.00  0.00     0.040 A 
ATOM     23  C   UNL A   1      36.710  23.064  23.833  1.00  0.00     0.040 A 
ATOM     24  C   UNL A   1      37.182  23.249  25.128  1.00  0.00     0.123 A 
ATOM     25  F   UNL A   1      38.363  22.726  25.484  1.00  0.00    -0.207 F 
ENDBRANCH   7  19
ENDBRANCH   4   7
ENDBRANCH   2   3
ENDBRANCH   1   2
BRANCH   1  26
ATOM     26  C   UNL A   1      33.347  28.402  27.258  1.00  0.00     0.118 C 
BRANCH  26  27
ATOM     27  N   UNL A   1      33.317  29.838  27.481  1.00  0.00    -0.352 N 
ATOM     28  C   UNL A   1      34.255  30.677  28.022  1.00  0.00     0.251 C 
ATOM     29  H   UNL A   1      32.484  30.280  27.195  1.00  0.00     0.163 HD
ATOM     30  O   UNL A   1      33.930  31.828  28.306  1.00  0.00    -0.269 OA
BRANCH  28  31
ATOM     31  C   UNL A   1      35.643  30.230  28.278  1.00  0.00     0.039 A 
ATOM     32  C   UNL A   1      35.957  29.755  29.556  1.00  0.00     0.014 A 
ATOM     33  C   UNL A   1      36.651  30.346  27.316  1.00  0.00     0.014 A 
ATOM     34  C   UNL A   1      37.266  29.369  29.858  1.00  0.00     0.010 A 
ATOM     35  C   UNL A   1      37.945  29.900  27.599  1.00  0.00     0.010 A 
ATOM     36  C   UNL A   1      38.268  29.420  28.876  1.00  0.00    -0.014 A 
BRANCH  36  37
ATOM     37  C   UNL A   1      39.649  28.969  29.191  1.00  0.00     0.031 A 
ATOM     38  C   UNL A   1      40.589  29.847  29.971  1.00  0.00     0.074 A 
ATOM     39  C   UNL A   1      40.063  27.763  28.757  1.00  0.00     0.049 A 
ATOM     40  N   UNL A   1      41.810  29.594  30.374  1.00  0.00    -0.248 NA
ATOM     41  C   UNL A   1      40.106  31.190  30.328  1.00  0.00     0.031 C 
ATOM     42  C   UNL A   1      39.268  26.835  27.950  1.00  0.00     0.029 A 
ATOM     43  N   UNL A   1      41.255  27.108  28.943  1.00  0.00    -0.354 N 
ATOM     44  C   UNL A   1      42.243  30.745  31.020  1.00  0.00     0.074 A 
ATOM     45  C   UNL A   1      41.172  31.714  30.915  1.00  0.00     0.031 C 
ATOM     46  C   UNL A   1      39.979  25.714  27.744  1.00  0.00     0.029 A 
ATOM     47  C   UNL A   1      41.285  25.854  28.380  1.00  0.00     0.049 A 
ATOM     48  H   UNL A   1      42.014  27.497  29.433  1.00  0.00     0.167 HD
ATOM     49  C   UNL A   1      43.415  30.973  31.660  1.00  0.00     0.031 A 
ATOM     50  C   UNL A   1      42.249  24.917  28.386  1.00  0.00     0.031 A 
ATOM     51  C   UNL A   1      44.479  30.009  31.774  1.00  0.00     0.049 A 
ATOM     52  C   UNL A   1      43.533  25.184  29.120  1.00  0.00     0.074 A 
ATOM     53  C   UNL A   1      45.682  30.126  32.450  1.00  0.00     0.029 A 
ATOM     54  N   UNL A   1      44.467  28.749  31.197  1.00  0.00    -0.354 N 
ATOM     55  N   UNL A   1      43.895  26.251  29.790  1.00  0.00    -0.248 NA
ATOM     56  C   UNL A   1      44.531  24.107  29.114  1.00  0.00     0.031 C 
ATOM     57  C   UNL A   1      46.416  28.952  32.245  1.00  0.00     0.029 A 
ATOM     58  C   UNL A   1      45.649  28.086  31.484  1.00  0.00     0.049 A 
ATOM     59  H   UNL A   1      43.727  28.381  30.661  1.00  0.00     0.167 HD
ATOM     60  C   UNL A   1      45.153  25.965  30.302  1.00  0.00     0.074 A 
ATOM     61  C   UNL A   1      45.480  24.617  29.885  1.00  0.00     0.031 C 
ATOM     62  C   UNL A   1      45.966  26.750  31.051  1.00  0.00     0.031 A 
BRANCH  49  63
ATOM     63  C   UNL A   1      43.610  32.327  32.284  1.00  0.00    -0.014 A 
ATOM     64  C   UNL A   1      44.182  33.385  31.560  1.00  0.00     0.009 A 
ATOM     65  C   UNL A   1      43.187  32.559  33.602  1.00  0.00     0.009 A 
ATOM     66  C   UNL A   1      44.362  34.636  32.155  1.00  0.00     0.001 A 
ATOM     67  C   UNL A   1      43.343  33.818  34.186  1.00  0.00     0.001 A 
ATOM     68  C   UNL A   1      43.939  34.852  33.466  1.00  0.00     0.000 A 
ENDBRANCH  49  63
BRANCH  50  69
ATOM     69  C   UNL A   1      42.025  23.617  27.702  1.00  0.00    -0.014 A 
ATOM     70  C   UNL A   1      42.425  23.437  26.369  1.00  0.00     0.009 A 
ATOM     71  C   UNL A   1      41.410  22.553  28.378  1.00  0.00     0.009 A 
ATOM     72  C   UNL A   1      42.190  22.224  25.718  1.00  0.00     0.001 A 
ATOM     73  C   UNL A   1      41.200  21.332  27.733  1.00  0.00     0.001 A 
ATOM     74  C   UNL A   1      41.582  21.172  26.402  1.00  0.00     0.000 A 
ENDBRANCH  50  69
BRANCH  62  75
ATOM     75  C   UNL A   1      47.277  26.155  31.480  1.00  0.00    -0.014 A 
ATOM     76  C   UNL A   1      48.398  26.178  30.635  1.00  0.00     0.009 A 
ATOM     77  C   UNL A   1      47.394  25.567  32.748  1.00  0.00     0.009 A 
ATOM     78  C   UNL A   1      49.597  25.586  31.036  1.00  0.00     0.001 A 
ATOM     79  C   UNL A   1      48.602  25.001  33.158  1.00  0.00     0.001 A 
ATOM     80  C   UNL A   1      49.698  25.000  32.297  1.00  0.00     0.000 A 
ENDBRANCH  62  75
ENDBRANCH  36  37
ENDBRANCH  28  31
ENDBRANCH  26  27
ENDBRANCH   1  26
TORSDOF 13
ENDMDL
