MODEL 1
REMARK VINA RESULT:     -11.1      0.000      0.000
REMARK SMILES CC(=O)c1cc2c(cc1NC(=O)/C=C/C(=O)NCCCNC(=O)c1ccc(-c3c4nc(c(-c5ccccc5)c5ccc([nH]5)c(-c5ccccc5)c5nc(c(-c6ccccc6)c6ccc3[nH]6)C=C5)C=C4)cc1)OCO2
REMARK SMILES IDX 18 1 17 2 15 3 16 4 14 6 13 7 11 8 10 9 12 11 9 12 4 13 5 14
REMARK SMILES IDX 6 15 8 16 7 17 74 18 72 19 73 20 2 21 1 22 3 23 19 24 20 25
REMARK SMILES IDX 21 26 22 27 23 29 24 30 25 31 71 32 26 33 70 34 27 35 28 36
REMARK SMILES IDX 29 37 64 38 30 39 69 40 63 41 65 42 31 43 68 44 62 45 61 46
REMARK SMILES IDX 32 48 54 49 39 50 53 51 40 52 43 53 52 54 66 55 41 56 42 57
REMARK SMILES IDX 51 59 67 60 44 61 33 62 34 63 38 64 35 65 37 66 36 67 55 68
REMARK SMILES IDX 56 69 60 70 57 71 59 72 58 73 45 74 46 75 50 76 47 77 49 78
REMARK SMILES IDX 48 79
REMARK H PARENT 17 5 10 10 21 28 65 47 43 58
REMARK Flexibility Score: inf
ROOT
ATOM      1  C   UNL A   1      31.777  28.125  25.637  1.00  0.00     0.118 C 
ENDROOT
BRANCH   1   2
ATOM      2  N   UNL A   1      30.874  27.524  24.675  1.00  0.00    -0.352 N 
ATOM      3  C   UNL A   1      30.156  26.376  24.761  1.00  0.00     0.244 C 
ATOM      4  O   UNL A   1      29.305  26.118  23.916  1.00  0.00    -0.270 OA
ATOM      5  H   UNL A   1      30.765  28.022  23.833  1.00  0.00     0.163 HD
BRANCH   3   6
ATOM      6  C   UNL A   1      30.382  25.441  25.876  1.00  0.00     0.077 C 
ATOM      7  C   UNL A   1      30.942  24.242  25.660  1.00  0.00     0.077 C 
BRANCH   7   8
ATOM      8  C   UNL A   1      30.934  23.223  26.722  1.00  0.00     0.248 C 
ATOM      9  N   UNL A   1      32.021  22.414  26.912  1.00  0.00    -0.322 N 
ATOM     10  H   UNL A   1      31.889  21.732  27.609  1.00  0.00     0.170 HD
ATOM     11  O   UNL A   1      29.930  23.117  27.422  1.00  0.00    -0.270 OA
BRANCH   9  12
ATOM     12  C   UNL A   1      33.301  22.366  26.302  1.00  0.00     0.056 A 
ATOM     13  C   UNL A   1      33.432  21.783  25.012  1.00  0.00     0.045 A 
ATOM     14  C   UNL A   1      34.598  21.960  24.248  1.00  0.00     0.064 A 
ATOM     15  C   UNL A   1      35.627  22.670  24.818  1.00  0.00     0.166 A 
ATOM     16  C   UNL A   1      34.444  22.908  26.896  1.00  0.00     0.077 A 
ATOM     17  C   UNL A   1      35.567  23.091  26.121  1.00  0.00     0.167 A 
ATOM     18  O   UNL A   1      36.795  23.026  24.220  1.00  0.00    -0.454 OA
ATOM     19  O   UNL A   1      36.701  23.726  26.518  1.00  0.00    -0.454 OA
ATOM     20  C   UNL A   1      37.380  23.854  25.254  1.00  0.00     0.468 C 
BRANCH  13  21
ATOM     21  C   UNL A   1      32.337  20.945  24.458  1.00  0.00     0.162 C 
ATOM     22  C   UNL A   1      32.051  21.069  22.983  1.00  0.00     0.093 C 
ATOM     23  O   UNL A   1      31.785  20.110  25.169  1.00  0.00    -0.294 OA
ENDBRANCH  13  21
ENDBRANCH   9  12
ENDBRANCH   7   8
ENDBRANCH   3   6
ENDBRANCH   1   2
BRANCH   1  24
ATOM     24  C   UNL A   1      33.114  27.395  25.686  1.00  0.00     0.042 C 
BRANCH  24  25
ATOM     25  C   UNL A   1      34.107  28.006  26.671  1.00  0.00     0.118 C 
BRANCH  25  26
ATOM     26  N   UNL A   1      33.803  29.402  26.968  1.00  0.00    -0.352 N 
ATOM     27  C   UNL A   1      34.480  30.303  27.744  1.00  0.00     0.251 C 
ATOM     28  H   UNL A   1      32.984  29.748  26.544  1.00  0.00     0.163 HD
ATOM     29  O   UNL A   1      33.929  31.345  28.104  1.00  0.00    -0.269 OA
BRANCH  27  30
ATOM     30  C   UNL A   1      35.867  30.025  28.157  1.00  0.00     0.039 A 
ATOM     31  C   UNL A   1      36.116  29.556  29.450  1.00  0.00     0.014 A 
ATOM     32  C   UNL A   1      36.924  30.242  27.269  1.00  0.00     0.014 A 
ATOM     33  C   UNL A   1      37.419  29.224  29.821  1.00  0.00     0.010 A 
ATOM     34  C   UNL A   1      38.209  29.843  27.615  1.00  0.00     0.010 A 
ATOM     35  C   UNL A   1      38.468  29.322  28.892  1.00  0.00    -0.014 A 
BRANCH  35  36
ATOM     36  C   UNL A   1      39.834  28.845  29.215  1.00  0.00     0.031 A 
ATOM     37  C   UNL A   1      40.817  29.758  29.894  1.00  0.00     0.074 A 
ATOM     38  C   UNL A   1      40.212  27.613  28.821  1.00  0.00     0.049 A 
ATOM     39  N   UNL A   1      42.078  29.550  30.172  1.00  0.00    -0.248 NA
ATOM     40  C   UNL A   1      40.323  31.087  30.296  1.00  0.00     0.031 C 
ATOM     41  C   UNL A   1      39.360  26.649  28.119  1.00  0.00     0.029 A 
ATOM     42  N   UNL A   1      41.415  26.964  28.941  1.00  0.00    -0.354 N 
ATOM     43  C   UNL A   1      42.531  30.719  30.771  1.00  0.00     0.074 A 
ATOM     44  C   UNL A   1      41.424  31.651  30.772  1.00  0.00     0.031 C 
ATOM     45  C   UNL A   1      40.061  25.525  27.894  1.00  0.00     0.029 A 
ATOM     46  C   UNL A   1      41.420  25.707  28.387  1.00  0.00     0.049 A 
ATOM     47  H   UNL A   1      42.200  27.363  29.382  1.00  0.00     0.167 HD
ATOM     48  C   UNL A   1      43.753  30.983  31.291  1.00  0.00     0.031 A 
ATOM     49  C   UNL A   1      42.415  24.807  28.273  1.00  0.00     0.031 A 
ATOM     50  C   UNL A   1      44.850  30.054  31.290  1.00  0.00     0.049 A 
ATOM     51  C   UNL A   1      43.774  25.148  28.819  1.00  0.00     0.074 A 
ATOM     52  C   UNL A   1      46.113  30.214  31.833  1.00  0.00     0.029 A 
ATOM     53  N   UNL A   1      44.816  28.794  30.715  1.00  0.00    -0.354 N 
ATOM     54  N   UNL A   1      44.166  26.233  29.443  1.00  0.00    -0.248 NA
ATOM     55  C   UNL A   1      44.828  24.138  28.646  1.00  0.00     0.031 C 
ATOM     56  C   UNL A   1      46.861  29.069  31.540  1.00  0.00     0.029 A 
ATOM     57  C   UNL A   1      46.046  28.176  30.863  1.00  0.00     0.049 A 
ATOM     58  H   UNL A   1      44.034  28.397  30.268  1.00  0.00     0.167 HD
ATOM     59  C   UNL A   1      45.502  26.027  29.756  1.00  0.00     0.074 A 
ATOM     60  C   UNL A   1      45.847  24.704  29.277  1.00  0.00     0.031 C 
ATOM     61  C   UNL A   1      46.370  26.860  30.379  1.00  0.00     0.031 A 
BRANCH  48  62
ATOM     62  C   UNL A   1      43.969  32.336  31.911  1.00  0.00    -0.014 A 
ATOM     63  C   UNL A   1      43.734  32.550  33.278  1.00  0.00     0.009 A 
ATOM     64  C   UNL A   1      44.475  33.391  31.135  1.00  0.00     0.009 A 
ATOM     65  C   UNL A   1      43.979  33.800  33.851  1.00  0.00     0.001 A 
ATOM     66  C   UNL A   1      44.744  34.632  31.715  1.00  0.00     0.001 A 
ATOM     67  C   UNL A   1      44.490  34.838  33.071  1.00  0.00     0.000 A 
ENDBRANCH  48  62
BRANCH  49  68
ATOM     68  C   UNL A   1      42.177  23.500  27.605  1.00  0.00    -0.014 A 
ATOM     69  C   UNL A   1      41.715  22.397  28.342  1.00  0.00     0.009 A 
ATOM     70  C   UNL A   1      42.440  23.337  26.237  1.00  0.00     0.009 A 
ATOM     71  C   UNL A   1      41.560  21.151  27.729  1.00  0.00     0.001 A 
ATOM     72  C   UNL A   1      42.251  22.099  25.619  1.00  0.00     0.001 A 
ATOM     73  C   UNL A   1      41.824  21.003  26.368  1.00  0.00     0.000 A 
ENDBRANCH  49  68
BRANCH  61  74
ATOM     74  C   UNL A   1      47.767  26.355  30.597  1.00  0.00    -0.014 A 
ATOM     75  C   UNL A   1      48.135  25.737  31.803  1.00  0.00     0.009 A 
ATOM     76  C   UNL A   1      48.716  26.464  29.570  1.00  0.00     0.009 A 
ATOM     77  C   UNL A   1      49.436  25.265  31.985  1.00  0.00     0.001 A 
ATOM     78  C   UNL A   1      50.008  25.964  29.743  1.00  0.00     0.001 A 
ATOM     79  C   UNL A   1      50.369  25.373  30.953  1.00  0.00     0.000 A 
ENDBRANCH  61  74
ENDBRANCH  35  36
ENDBRANCH  27  30
ENDBRANCH  25  26
ENDBRANCH  24  25
ENDBRANCH   1  24
TORSDOF 13
ENDMDL
MODEL 2
REMARK VINA RESULT:     -10.9      3.699      7.708
REMARK SMILES CC(=O)c1cc2c(cc1NC(=O)/C=C/C(=O)NCCCNC(=O)c1ccc(-c3c4nc(c(-c5ccccc5)c5ccc([nH]5)c(-c5ccccc5)c5nc(c(-c6ccccc6)c6ccc3[nH]6)C=C5)C=C4)cc1)OCO2
REMARK SMILES IDX 18 1 17 2 15 3 16 4 14 6 13 7 11 8 10 9 12 11 9 12 4 13 5 14
REMARK SMILES IDX 6 15 8 16 7 17 74 18 72 19 73 20 2 21 1 22 3 23 19 24 20 25
REMARK SMILES IDX 21 26 22 27 23 29 24 30 25 31 71 32 26 33 70 34 27 35 28 36
REMARK SMILES IDX 29 37 64 38 30 39 69 40 63 41 65 42 31 43 68 44 62 45 61 46
REMARK SMILES IDX 32 48 54 49 39 50 53 51 40 52 43 53 52 54 66 55 41 56 42 57
REMARK SMILES IDX 51 59 67 60 44 61 33 62 34 63 38 64 35 65 37 66 36 67 55 68
REMARK SMILES IDX 56 69 60 70 57 71 59 72 58 73 45 74 46 75 50 76 47 77 49 78
REMARK SMILES IDX 48 79
REMARK H PARENT 17 5 10 10 21 28 65 47 43 58
REMARK Flexibility Score: inf
ROOT
ATOM      1  C   UNL A   1      31.738  30.670  26.059  1.00  0.00     0.118 C 
ENDROOT
BRANCH   1   2
ATOM      2  N   UNL A   1      33.098  30.262  26.356  1.00  0.00    -0.352 N 
ATOM      3  C   UNL A   1      33.586  29.032  26.656  1.00  0.00     0.244 C 
ATOM      4  O   UNL A   1      34.798  28.847  26.703  1.00  0.00    -0.270 OA
ATOM      5  H   UNL A   1      33.766  30.984  26.338  1.00  0.00     0.163 HD
BRANCH   3   6
ATOM      6  C   UNL A   1      32.668  27.910  26.912  1.00  0.00     0.077 C 
ATOM      7  C   UNL A   1      32.678  26.825  26.124  1.00  0.00     0.077 C 
BRANCH   7   8
ATOM      8  C   UNL A   1      31.600  25.828  26.228  1.00  0.00     0.248 C 
ATOM      9  N   UNL A   1      31.719  24.615  25.608  1.00  0.00    -0.322 N 
ATOM     10  H   UNL A   1      30.919  24.047  25.694  1.00  0.00     0.170 HD
ATOM     11  O   UNL A   1      30.598  26.118  26.875  1.00  0.00    -0.270 OA
BRANCH   9  12
ATOM     12  C   UNL A   1      32.768  24.013  24.866  1.00  0.00     0.056 A 
ATOM     13  C   UNL A   1      32.872  24.278  23.473  1.00  0.00     0.045 A 
ATOM     14  C   UNL A   1      34.034  23.949  22.753  1.00  0.00     0.064 A 
ATOM     15  C   UNL A   1      35.042  23.311  23.436  1.00  0.00     0.166 A 
ATOM     16  C   UNL A   1      33.740  23.197  25.452  1.00  0.00     0.077 A 
ATOM     17  C   UNL A   1      34.879  22.908  24.735  1.00  0.00     0.167 A 
ATOM     18  O   UNL A   1      36.271  22.989  22.951  1.00  0.00    -0.454 OA
ATOM     19  O   UNL A   1      35.964  22.247  25.217  1.00  0.00    -0.454 OA
ATOM     20  C   UNL A   1      36.903  22.484  24.151  1.00  0.00     0.468 C 
BRANCH  13  21
ATOM     21  C   UNL A   1      31.731  24.888  22.743  1.00  0.00     0.162 C 
ATOM     22  C   UNL A   1      32.052  25.936  21.709  1.00  0.00     0.093 C 
ATOM     23  O   UNL A   1      30.594  24.454  22.911  1.00  0.00    -0.294 OA
ENDBRANCH  13  21
ENDBRANCH   9  12
ENDBRANCH   7   8
ENDBRANCH   3   6
ENDBRANCH   1   2
BRANCH   1  24
ATOM     24  C   UNL A   1      31.453  32.081  26.558  1.00  0.00     0.042 C 
BRANCH  24  25
ATOM     25  C   UNL A   1      32.596  32.683  27.372  1.00  0.00     0.118 C 
BRANCH  25  26
ATOM     26  N   UNL A   1      32.421  34.113  27.596  1.00  0.00    -0.352 N 
ATOM     27  C   UNL A   1      32.989  34.932  28.535  1.00  0.00     0.251 C 
ATOM     28  H   UNL A   1      31.797  34.559  26.977  1.00  0.00     0.163 HD
ATOM     29  O   UNL A   1      32.513  36.047  28.751  1.00  0.00    -0.269 OA
BRANCH  27  30
ATOM     30  C   UNL A   1      34.167  34.476  29.294  1.00  0.00     0.039 A 
ATOM     31  C   UNL A   1      33.996  33.962  30.582  1.00  0.00     0.014 A 
ATOM     32  C   UNL A   1      35.445  34.572  28.736  1.00  0.00     0.014 A 
ATOM     33  C   UNL A   1      35.099  33.465  31.276  1.00  0.00     0.010 A 
ATOM     34  C   UNL A   1      36.530  34.010  29.397  1.00  0.00     0.010 A 
ATOM     35  C   UNL A   1      36.366  33.443  30.671  1.00  0.00    -0.014 A 
BRANCH  35  36
ATOM     36  C   UNL A   1      37.526  32.794  31.328  1.00  0.00     0.031 A 
ATOM     37  C   UNL A   1      38.176  31.589  30.708  1.00  0.00     0.074 A 
ATOM     38  C   UNL A   1      37.940  33.247  32.528  1.00  0.00     0.049 A 
ATOM     39  N   UNL A   1      39.136  30.837  31.180  1.00  0.00    -0.248 NA
ATOM     40  C   UNL A   1      37.666  31.160  29.394  1.00  0.00     0.031 C 
ATOM     41  C   UNL A   1      37.364  34.385  33.250  1.00  0.00     0.029 A 
ATOM     42  N   UNL A   1      38.933  32.797  33.361  1.00  0.00    -0.354 N 
ATOM     43  C   UNL A   1      39.340  29.844  30.230  1.00  0.00     0.074 A 
ATOM     44  C   UNL A   1      38.372  30.059  29.177  1.00  0.00     0.031 C 
ATOM     45  C   UNL A   1      38.030  34.557  34.404  1.00  0.00     0.029 A 
ATOM     46  C   UNL A   1      39.042  33.515  34.527  1.00  0.00     0.049 A 
ATOM     47  H   UNL A   1      39.514  32.032  33.142  1.00  0.00     0.167 HD
ATOM     48  C   UNL A   1      40.265  28.855  30.226  1.00  0.00     0.031 A 
ATOM     49  C   UNL A   1      39.855  33.342  35.587  1.00  0.00     0.031 A 
ATOM     50  C   UNL A   1      41.228  28.645  31.273  1.00  0.00     0.049 A 
ATOM     51  C   UNL A   1      40.840  32.207  35.573  1.00  0.00     0.074 A 
ATOM     52  C   UNL A   1      42.235  27.697  31.338  1.00  0.00     0.029 A 
ATOM     53  N   UNL A   1      41.301  29.390  32.439  1.00  0.00    -0.354 N 
ATOM     54  N   UNL A   1      41.064  31.318  34.635  1.00  0.00    -0.248 NA
ATOM     55  C   UNL A   1      41.686  32.052  36.766  1.00  0.00     0.031 C 
ATOM     56  C   UNL A   1      42.884  27.837  32.569  1.00  0.00     0.029 A 
ATOM     57  C   UNL A   1      42.317  28.905  33.244  1.00  0.00     0.049 A 
ATOM     58  H   UNL A   1      40.718  30.151  32.661  1.00  0.00     0.167 HD
ATOM     59  C   UNL A   1      42.090  30.515  35.114  1.00  0.00     0.074 A 
ATOM     60  C   UNL A   1      42.461  31.036  36.413  1.00  0.00     0.031 C 
ATOM     61  C   UNL A   1      42.670  29.438  34.534  1.00  0.00     0.031 A 
BRANCH  48  62
ATOM     62  C   UNL A   1      40.284  27.922  29.047  1.00  0.00    -0.014 A 
ATOM     63  C   UNL A   1      41.036  28.222  27.900  1.00  0.00     0.009 A 
ATOM     64  C   UNL A   1      39.597  26.700  29.108  1.00  0.00     0.009 A 
ATOM     65  C   UNL A   1      41.079  27.328  26.828  1.00  0.00     0.001 A 
ATOM     66  C   UNL A   1      39.663  25.795  28.047  1.00  0.00     0.001 A 
ATOM     67  C   UNL A   1      40.399  26.112  26.905  1.00  0.00     0.000 A 
ENDBRANCH  48  62
BRANCH  49  68
ATOM     68  C   UNL A   1      39.770  34.254  36.758  1.00  0.00    -0.014 A 
ATOM     69  C   UNL A   1      40.530  35.434  36.800  1.00  0.00     0.009 A 
ATOM     70  C   UNL A   1      38.955  33.936  37.855  1.00  0.00     0.009 A 
ATOM     71  C   UNL A   1      40.505  36.253  37.931  1.00  0.00     0.001 A 
ATOM     72  C   UNL A   1      38.905  34.774  38.971  1.00  0.00     0.001 A 
ATOM     73  C   UNL A   1      39.690  35.925  39.014  1.00  0.00     0.000 A 
ENDBRANCH  49  68
BRANCH  61  74
ATOM     74  C   UNL A   1      43.781  28.766  35.291  1.00  0.00    -0.014 A 
ATOM     75  C   UNL A   1      45.115  29.172  35.131  1.00  0.00     0.009 A 
ATOM     76  C   UNL A   1      43.483  27.743  36.203  1.00  0.00     0.009 A 
ATOM     77  C   UNL A   1      46.133  28.543  35.851  1.00  0.00     0.001 A 
ATOM     78  C   UNL A   1      44.500  27.137  36.943  1.00  0.00     0.001 A 
ATOM     79  C   UNL A   1      45.824  27.531  36.759  1.00  0.00     0.000 A 
ENDBRANCH  61  74
ENDBRANCH  35  36
ENDBRANCH  27  30
ENDBRANCH  25  26
ENDBRANCH  24  25
ENDBRANCH   1  24
TORSDOF 13
ENDMDL
MODEL 3
REMARK VINA RESULT:     -10.9      2.552      7.507
REMARK SMILES CC(=O)c1cc2c(cc1NC(=O)/C=C/C(=O)NCCCNC(=O)c1ccc(-c3c4nc(c(-c5ccccc5)c5ccc([nH]5)c(-c5ccccc5)c5nc(c(-c6ccccc6)c6ccc3[nH]6)C=C5)C=C4)cc1)OCO2
REMARK SMILES IDX 18 1 17 2 15 3 16 4 14 6 13 7 11 8 10 9 12 11 9 12 4 13 5 14
REMARK SMILES IDX 6 15 8 16 7 17 74 18 72 19 73 20 2 21 1 22 3 23 19 24 20 25
REMARK SMILES IDX 21 26 22 27 23 29 24 30 25 31 71 32 26 33 70 34 27 35 28 36
REMARK SMILES IDX 29 37 64 38 30 39 69 40 63 41 65 42 31 43 68 44 62 45 61 46
REMARK SMILES IDX 32 48 54 49 39 50 53 51 40 52 43 53 52 54 66 55 41 56 42 57
REMARK SMILES IDX 51 59 67 60 44 61 33 62 34 63 38 64 35 65 37 66 36 67 55 68
REMARK SMILES IDX 56 69 60 70 57 71 59 72 58 73 45 74 46 75 50 76 47 77 49 78
REMARK SMILES IDX 48 79
REMARK H PARENT 17 5 10 10 21 28 65 47 43 58
REMARK Flexibility Score: inf
ROOT
ATOM      1  C   UNL A   1      35.454  21.752  24.555  1.00  0.00     0.118 C 
ENDROOT
BRANCH   1   2
ATOM      2  N   UNL A   1      35.347  21.640  25.998  1.00  0.00    -0.352 N 
ATOM      3  C   UNL A   1      34.293  21.903  26.810  1.00  0.00     0.244 C 
ATOM      4  O   UNL A   1      34.333  21.578  27.993  1.00  0.00    -0.270 OA
ATOM      5  H   UNL A   1      36.160  21.327  26.455  1.00  0.00     0.163 HD
BRANCH   3   6
ATOM      6  C   UNL A   1      33.091  22.565  26.277  1.00  0.00     0.077 C 
ATOM      7  C   UNL A   1      32.505  23.565  26.951  1.00  0.00     0.077 C 
BRANCH   7   8
ATOM      8  C   UNL A   1      31.175  24.048  26.545  1.00  0.00     0.248 C 
ATOM      9  N   UNL A   1      31.048  24.927  25.505  1.00  0.00    -0.322 N 
ATOM     10  H   UNL A   1      30.123  25.228  25.354  1.00  0.00     0.170 HD
ATOM     11  O   UNL A   1      30.194  23.648  27.167  1.00  0.00    -0.270 OA
BRANCH   9  12
ATOM     12  C   UNL A   1      31.985  25.487  24.600  1.00  0.00     0.056 A 
ATOM     13  C   UNL A   1      32.119  24.921  23.302  1.00  0.00     0.045 A 
ATOM     14  C   UNL A   1      32.809  25.597  22.281  1.00  0.00     0.064 A 
ATOM     15  C   UNL A   1      33.399  26.797  22.601  1.00  0.00     0.166 A 
ATOM     16  C   UNL A   1      32.763  26.607  24.910  1.00  0.00     0.077 A 
ATOM     17  C   UNL A   1      33.412  27.263  23.889  1.00  0.00     0.167 A 
ATOM     18  O   UNL A   1      34.032  27.642  21.745  1.00  0.00    -0.454 OA
ATOM     19  O   UNL A   1      34.088  28.435  24.013  1.00  0.00    -0.454 OA
ATOM     20  C   UNL A   1      34.297  28.760  22.626  1.00  0.00     0.468 C 
BRANCH  13  21
ATOM     21  C   UNL A   1      31.548  23.581  23.010  1.00  0.00     0.162 C 
ATOM     22  C   UNL A   1      32.514  22.483  22.645  1.00  0.00     0.093 C 
ATOM     23  O   UNL A   1      30.350  23.375  23.181  1.00  0.00    -0.294 OA
ENDBRANCH  13  21
ENDBRANCH   9  12
ENDBRANCH   7   8
ENDBRANCH   3   6
ENDBRANCH   1   2
BRANCH   1  24
ATOM     24  C   UNL A   1      36.526  22.756  24.147  1.00  0.00     0.042 C 
BRANCH  24  25
ATOM     25  C   UNL A   1      37.302  23.333  25.329  1.00  0.00     0.118 C 
BRANCH  25  26
ATOM     26  N   UNL A   1      38.490  22.548  25.646  1.00  0.00    -0.352 N 
ATOM     27  C   UNL A   1      39.686  22.943  26.182  1.00  0.00     0.251 C 
ATOM     28  H   UNL A   1      38.420  21.587  25.442  1.00  0.00     0.163 HD
ATOM     29  O   UNL A   1      40.666  22.198  26.119  1.00  0.00    -0.269 OA
BRANCH  27  30
ATOM     30  C   UNL A   1      39.805  24.261  26.830  1.00  0.00     0.039 A 
ATOM     31  C   UNL A   1      39.275  24.445  28.110  1.00  0.00     0.014 A 
ATOM     32  C   UNL A   1      40.429  25.319  26.165  1.00  0.00     0.014 A 
ATOM     33  C   UNL A   1      39.447  25.670  28.754  1.00  0.00     0.010 A 
ATOM     34  C   UNL A   1      40.664  26.513  26.836  1.00  0.00     0.010 A 
ATOM     35  C   UNL A   1      40.183  26.697  28.141  1.00  0.00    -0.014 A 
BRANCH  35  36
ATOM     36  C   UNL A   1      40.501  27.955  28.858  1.00  0.00     0.031 A 
ATOM     37  C   UNL A   1      41.805  28.104  29.592  1.00  0.00     0.074 A 
ATOM     38  C   UNL A   1      39.576  28.934  28.913  1.00  0.00     0.049 A 
ATOM     39  N   UNL A   1      42.217  29.089  30.347  1.00  0.00    -0.248 NA
ATOM     40  C   UNL A   1      42.763  26.991  29.478  1.00  0.00     0.031 C 
ATOM     41  C   UNL A   1      38.258  28.891  28.273  1.00  0.00     0.029 A 
ATOM     42  N   UNL A   1      39.595  30.149  29.547  1.00  0.00    -0.354 N 
ATOM     43  C   UNL A   1      43.473  28.713  30.806  1.00  0.00     0.074 A 
ATOM     44  C   UNL A   1      43.737  27.390  30.284  1.00  0.00     0.031 C 
ATOM     45  C   UNL A   1      37.607  30.038  28.529  1.00  0.00     0.029 A 
ATOM     46  C   UNL A   1      38.437  30.873  29.388  1.00  0.00     0.049 A 
ATOM     47  H   UNL A   1      40.366  30.474  30.067  1.00  0.00     0.167 HD
ATOM     48  C   UNL A   1      44.337  29.417  31.575  1.00  0.00     0.031 A 
ATOM     49  C   UNL A   1      38.077  32.067  29.894  1.00  0.00     0.031 A 
ATOM     50  C   UNL A   1      44.074  30.734  32.090  1.00  0.00     0.049 A 
ATOM     51  C   UNL A   1      39.041  32.804  30.782  1.00  0.00     0.074 A 
ATOM     52  C   UNL A   1      44.905  31.546  32.841  1.00  0.00     0.029 A 
ATOM     53  N   UNL A   1      42.888  31.428  31.910  1.00  0.00    -0.354 N 
ATOM     54  N   UNL A   1      40.252  32.463  31.150  1.00  0.00    -0.248 NA
ATOM     55  C   UNL A   1      38.585  34.092  31.325  1.00  0.00     0.031 C 
ATOM     56  C   UNL A   1      44.202  32.712  33.160  1.00  0.00     0.029 A 
ATOM     57  C   UNL A   1      42.954  32.647  32.562  1.00  0.00     0.049 A 
ATOM     58  H   UNL A   1      42.115  31.102  31.396  1.00  0.00     0.167 HD
ATOM     59  C   UNL A   1      40.711  33.503  31.946  1.00  0.00     0.074 A 
ATOM     60  C   UNL A   1      39.659  34.498  31.987  1.00  0.00     0.031 C 
ATOM     61  C   UNL A   1      41.896  33.623  32.592  1.00  0.00     0.031 A 
BRANCH  48  62
ATOM     62  C   UNL A   1      45.658  28.777  31.905  1.00  0.00    -0.014 A 
ATOM     63  C   UNL A   1      45.803  27.963  33.038  1.00  0.00     0.009 A 
ATOM     64  C   UNL A   1      46.751  28.936  31.038  1.00  0.00     0.009 A 
ATOM     65  C   UNL A   1      47.023  27.340  33.312  1.00  0.00     0.001 A 
ATOM     66  C   UNL A   1      47.961  28.292  31.298  1.00  0.00     0.001 A 
ATOM     67  C   UNL A   1      48.098  27.499  32.438  1.00  0.00     0.000 A 
ENDBRANCH  48  62
BRANCH  49  68
ATOM     68  C   UNL A   1      36.741  32.643  29.587  1.00  0.00    -0.014 A 
ATOM     69  C   UNL A   1      36.526  33.350  28.394  1.00  0.00     0.009 A 
ATOM     70  C   UNL A   1      35.682  32.519  30.500  1.00  0.00     0.009 A 
ATOM     71  C   UNL A   1      35.291  33.952  28.139  1.00  0.00     0.001 A 
ATOM     72  C   UNL A   1      34.438  33.094  30.228  1.00  0.00     0.001 A 
ATOM     73  C   UNL A   1      34.247  33.821  29.054  1.00  0.00     0.000 A 
ENDBRANCH  49  68
BRANCH  61  74
ATOM     74  C   UNL A   1      42.124  34.883  33.377  1.00  0.00    -0.014 A 
ATOM     75  C   UNL A   1      41.618  35.027  34.679  1.00  0.00     0.009 A 
ATOM     76  C   UNL A   1      42.888  35.921  32.823  1.00  0.00     0.009 A 
ATOM     77  C   UNL A   1      41.848  36.202  35.398  1.00  0.00     0.001 A 
ATOM     78  C   UNL A   1      43.143  37.081  33.556  1.00  0.00     0.001 A 
ATOM     79  C   UNL A   1      42.614  37.224  34.839  1.00  0.00     0.000 A 
ENDBRANCH  61  74
ENDBRANCH  35  36
ENDBRANCH  27  30
ENDBRANCH  25  26
ENDBRANCH  24  25
ENDBRANCH   1  24
TORSDOF 13
ENDMDL
