MODEL 1
REMARK VINA RESULT:      -9.1      0.000      0.000
REMARK SMILES NC(=S)S/C=C/C(=O)NCCCNC(=O)c1ccc(-c2c3nc(c(-c4ccccc4)c4ccc([nH]4)c(-c4ccccc4)c4nc(c(-c5ccccc5)c5ccc2[nH]5)C=C4)C=C3)cc1
REMARK SMILES IDX 10 1 9 2 7 3 8 4 6 6 5 7 4 8 2 9 3 10 1 11 11 14 12 15 13 16
REMARK SMILES IDX 14 17 15 19 16 20 17 21 63 22 18 23 62 24 19 25 20 26 21 27
REMARK SMILES IDX 56 28 22 29 61 30 55 31 57 32 23 33 60 34 54 35 53 36 24 38
REMARK SMILES IDX 46 39 31 40 45 41 32 42 35 43 44 44 58 45 33 46 34 47 43 49
REMARK SMILES IDX 59 50 36 51 25 52 26 53 30 54 27 55 29 56 28 57 47 58 48 59
REMARK SMILES IDX 52 60 49 61 51 62 50 63 37 64 38 65 42 66 39 67 41 68 40 69
REMARK H PARENT 9 5 1 12 1 13 13 18 57 37 35 48
REMARK Flexibility Score: inf
ROOT
ATOM      1  C   UNL A   1      34.356  24.151  25.622  1.00  0.00     0.118 C 
ENDROOT
BRANCH   1   2
ATOM      2  N   UNL A   1      33.267  23.970  26.568  1.00  0.00    -0.352 N 
ATOM      3  C   UNL A   1      32.257  23.058  26.580  1.00  0.00     0.244 C 
ATOM      4  O   UNL A   1      31.491  23.001  27.536  1.00  0.00    -0.270 OA
ATOM      5  H   UNL A   1      33.258  24.608  27.318  1.00  0.00     0.163 HD
BRANCH   3   6
ATOM      6  C   UNL A   1      32.153  22.081  25.482  1.00  0.00     0.078 C 
ATOM      7  C   UNL A   1      32.736  20.878  25.558  1.00  0.00     0.054 C 
BRANCH   7   8
ATOM      8  S   UNL A   1      32.576  19.686  24.315  1.00  0.00    -0.069 SA
BRANCH   8   9
ATOM      9  C   UNL A   1      33.018  18.156  25.030  1.00  0.00     0.135 C 
ATOM     10  S   UNL A   1      33.679  16.798  24.344  1.00  0.00    -0.053 S 
BRANCH   9  11
ATOM     11  N   UNL A   1      32.733  18.171  26.360  1.00  0.00    -0.384 N 
ATOM     12  H   UNL A   1      32.021  18.757  26.704  1.00  0.00     0.158 HD
ATOM     13  H   UNL A   1      33.241  17.598  26.979  1.00  0.00     0.158 HD
ENDBRANCH   9  11
ENDBRANCH   8   9
ENDBRANCH   7   8
ENDBRANCH   3   6
ENDBRANCH   1   2
BRANCH   1  14
ATOM     14  C   UNL A   1      35.639  23.485  26.112  1.00  0.00     0.042 C 
BRANCH  14  15
ATOM     15  C   UNL A   1      36.848  23.726  25.209  1.00  0.00     0.118 C 
BRANCH  15  16
ATOM     16  N   UNL A   1      37.899  22.741  25.419  1.00  0.00    -0.352 N 
ATOM     17  C   UNL A   1      39.146  22.873  25.974  1.00  0.00     0.251 C 
ATOM     18  H   UNL A   1      37.679  21.832  25.113  1.00  0.00     0.163 HD
ATOM     19  O   UNL A   1      39.947  21.948  25.866  1.00  0.00    -0.269 OA
BRANCH  17  20
ATOM     20  C   UNL A   1      39.549  24.103  26.694  1.00  0.00     0.039 A 
ATOM     21  C   UNL A   1      39.087  24.285  28.002  1.00  0.00     0.014 A 
ATOM     22  C   UNL A   1      40.295  25.111  26.077  1.00  0.00     0.014 A 
ATOM     23  C   UNL A   1      39.393  25.458  28.696  1.00  0.00     0.010 A 
ATOM     24  C   UNL A   1      40.656  26.253  26.793  1.00  0.00     0.010 A 
ATOM     25  C   UNL A   1      40.192  26.447  28.103  1.00  0.00    -0.014 A 
BRANCH  25  26
ATOM     26  C   UNL A   1      40.519  27.696  28.837  1.00  0.00     0.031 A 
ATOM     27  C   UNL A   1      41.865  27.870  29.486  1.00  0.00     0.074 A 
ATOM     28  C   UNL A   1      39.593  28.668  28.942  1.00  0.00     0.049 A 
ATOM     29  N   UNL A   1      42.332  28.893  30.160  1.00  0.00    -0.248 NA
ATOM     30  C   UNL A   1      42.804  26.742  29.385  1.00  0.00     0.031 C 
ATOM     31  C   UNL A   1      38.237  28.609  28.396  1.00  0.00     0.029 A 
ATOM     32  N   UNL A   1      39.658  29.900  29.543  1.00  0.00    -0.354 N 
ATOM     33  C   UNL A   1      43.605  28.524  30.575  1.00  0.00     0.074 A 
ATOM     34  C   UNL A   1      43.821  27.168  30.118  1.00  0.00     0.031 C 
ATOM     35  C   UNL A   1      37.608  29.767  28.658  1.00  0.00     0.029 A 
ATOM     36  C   UNL A   1      38.504  30.636  29.413  1.00  0.00     0.049 A 
ATOM     37  H   UNL A   1      40.454  30.226  30.022  1.00  0.00     0.167 HD
ATOM     38  C   UNL A   1      44.521  29.251  31.259  1.00  0.00     0.031 A 
ATOM     39  C   UNL A   1      38.207  31.875  29.846  1.00  0.00     0.031 A 
ATOM     40  C   UNL A   1      44.317  30.605  31.703  1.00  0.00     0.049 A 
ATOM     41  C   UNL A   1      39.246  32.669  30.583  1.00  0.00     0.074 A 
ATOM     42  C   UNL A   1      45.204  31.443  32.356  1.00  0.00     0.029 A 
ATOM     43  N   UNL A   1      43.141  31.319  31.538  1.00  0.00    -0.354 N 
ATOM     44  N   UNL A   1      40.468  32.329  30.910  1.00  0.00    -0.248 NA
ATOM     45  C   UNL A   1      38.866  34.029  30.995  1.00  0.00     0.031 C 
ATOM     46  C   UNL A   1      44.550  32.652  32.620  1.00  0.00     0.029 A 
ATOM     47  C   UNL A   1      43.273  32.582  32.089  1.00  0.00     0.049 A 
ATOM     48  H   UNL A   1      42.331  30.978  31.093  1.00  0.00     0.167 HD
ATOM     49  C   UNL A   1      41.013  33.438  31.543  1.00  0.00     0.074 A 
ATOM     50  C   UNL A   1      39.994  34.468  31.536  1.00  0.00     0.031 C 
ATOM     51  C   UNL A   1      42.248  33.592  32.080  1.00  0.00     0.031 A 
BRANCH  38  52
ATOM     52  C   UNL A   1      45.833  28.586  31.575  1.00  0.00    -0.014 A 
ATOM     53  C   UNL A   1      46.929  28.690  30.703  1.00  0.00     0.009 A 
ATOM     54  C   UNL A   1      45.981  27.864  32.768  1.00  0.00     0.009 A 
ATOM     55  C   UNL A   1      48.134  28.051  31.002  1.00  0.00     0.001 A 
ATOM     56  C   UNL A   1      47.197  27.249  33.079  1.00  0.00     0.001 A 
ATOM     57  C   UNL A   1      48.268  27.334  32.190  1.00  0.00     0.000 A 
ENDBRANCH  38  52
BRANCH  39  58
ATOM     58  C   UNL A   1      36.870  32.457  29.560  1.00  0.00    -0.014 A 
ATOM     59  C   UNL A   1      36.661  33.218  28.400  1.00  0.00     0.009 A 
ATOM     60  C   UNL A   1      35.800  32.257  30.445  1.00  0.00     0.009 A 
ATOM     61  C   UNL A   1      35.412  33.789  28.145  1.00  0.00     0.001 A 
ATOM     62  C   UNL A   1      34.545  32.807  30.173  1.00  0.00     0.001 A 
ATOM     63  C   UNL A   1      34.355  33.580  29.029  1.00  0.00     0.000 A 
ENDBRANCH  39  58
BRANCH  51  64
ATOM     64  C   UNL A   1      42.567  34.933  32.679  1.00  0.00    -0.014 A 
ATOM     65  C   UNL A   1      43.342  35.876  31.986  1.00  0.00     0.009 A 
ATOM     66  C   UNL A   1      42.072  35.261  33.950  1.00  0.00     0.009 A 
ATOM     67  C   UNL A   1      43.649  37.104  32.572  1.00  0.00     0.001 A 
ATOM     68  C   UNL A   1      42.359  36.500  34.523  1.00  0.00     0.001 A 
ATOM     69  C   UNL A   1      43.156  37.416  33.838  1.00  0.00     0.000 A 
ENDBRANCH  51  64
ENDBRANCH  25  26
ENDBRANCH  17  20
ENDBRANCH  15  16
ENDBRANCH  14  15
ENDBRANCH   1  14
TORSDOF 13
ENDMDL
MODEL 2
REMARK VINA RESULT:      -9.0      3.526      8.175
REMARK SMILES NC(=S)S/C=C/C(=O)NCCCNC(=O)c1ccc(-c2c3nc(c(-c4ccccc4)c4ccc([nH]4)c(-c4ccccc4)c4nc(c(-c5ccccc5)c5ccc2[nH]5)C=C4)C=C3)cc1
REMARK SMILES IDX 10 1 9 2 7 3 8 4 6 6 5 7 4 8 2 9 3 10 1 11 11 14 12 15 13 16
REMARK SMILES IDX 14 17 15 19 16 20 17 21 63 22 18 23 62 24 19 25 20 26 21 27
REMARK SMILES IDX 56 28 22 29 61 30 55 31 57 32 23 33 60 34 54 35 53 36 24 38
REMARK SMILES IDX 46 39 31 40 45 41 32 42 35 43 44 44 58 45 33 46 34 47 43 49
REMARK SMILES IDX 59 50 36 51 25 52 26 53 30 54 27 55 29 56 28 57 47 58 48 59
REMARK SMILES IDX 52 60 49 61 51 62 50 63 37 64 38 65 42 66 39 67 41 68 40 69
REMARK H PARENT 9 5 1 12 1 13 13 18 57 37 35 48
REMARK Flexibility Score: inf
ROOT
ATOM      1  C   UNL A   1      32.979  30.087  27.296  1.00  0.00     0.118 C 
ENDROOT
BRANCH   1   2
ATOM      2  N   UNL A   1      32.274  28.842  27.551  1.00  0.00    -0.352 N 
ATOM      3  C   UNL A   1      31.704  27.962  26.683  1.00  0.00     0.244 C 
ATOM      4  O   UNL A   1      31.248  26.901  27.094  1.00  0.00    -0.270 OA
ATOM      5  H   UNL A   1      32.198  28.595  28.501  1.00  0.00     0.163 HD
BRANCH   3   6
ATOM      6  C   UNL A   1      31.726  28.254  25.239  1.00  0.00     0.078 C 
ATOM      7  C   UNL A   1      31.405  27.323  24.332  1.00  0.00     0.054 C 
BRANCH   7   8
ATOM      8  S   UNL A   1      31.357  27.655  22.636  1.00  0.00    -0.069 SA
BRANCH   8   9
ATOM      9  C   UNL A   1      30.293  29.023  22.423  1.00  0.00     0.135 C 
ATOM     10  S   UNL A   1      28.727  29.256  22.917  1.00  0.00    -0.053 S 
BRANCH   9  11
ATOM     11  N   UNL A   1      30.935  30.000  21.728  1.00  0.00    -0.384 N 
ATOM     12  H   UNL A   1      31.036  30.898  22.119  1.00  0.00     0.158 HD
ATOM     13  H   UNL A   1      31.300  29.810  20.833  1.00  0.00     0.158 HD
ENDBRANCH   9  11
ENDBRANCH   8   9
ENDBRANCH   7   8
ENDBRANCH   3   6
ENDBRANCH   1   2
BRANCH   1  14
ATOM     14  C   UNL A   1      32.030  31.283  27.319  1.00  0.00     0.042 C 
BRANCH  14  15
ATOM     15  C   UNL A   1      32.581  32.528  26.626  1.00  0.00     0.118 C 
BRANCH  15  16
ATOM     16  N   UNL A   1      32.353  33.738  27.401  1.00  0.00    -0.352 N 
ATOM     17  C   UNL A   1      33.026  34.245  28.483  1.00  0.00     0.251 C 
ATOM     18  H   UNL A   1      31.590  34.282  27.100  1.00  0.00     0.163 HD
ATOM     19  O   UNL A   1      32.533  35.182  29.106  1.00  0.00    -0.269 OA
BRANCH  17  20
ATOM     20  C   UNL A   1      34.327  33.687  28.918  1.00  0.00     0.039 A 
ATOM     21  C   UNL A   1      35.460  33.972  28.148  1.00  0.00     0.014 A 
ATOM     22  C   UNL A   1      34.433  32.823  30.012  1.00  0.00     0.014 A 
ATOM     23  C   UNL A   1      36.696  33.418  28.488  1.00  0.00     0.010 A 
ATOM     24  C   UNL A   1      35.680  32.322  30.390  1.00  0.00     0.010 A 
ATOM     25  C   UNL A   1      36.821  32.598  29.620  1.00  0.00    -0.014 A 
BRANCH  25  26
ATOM     26  C   UNL A   1      38.132  32.005  29.984  1.00  0.00     0.031 A 
ATOM     27  C   UNL A   1      39.067  32.731  30.914  1.00  0.00     0.074 A 
ATOM     28  C   UNL A   1      38.497  30.821  29.458  1.00  0.00     0.049 A 
ATOM     29  N   UNL A   1      40.247  32.366  31.351  1.00  0.00    -0.248 NA
ATOM     30  C   UNL A   1      38.631  34.050  31.400  1.00  0.00     0.031 C 
ATOM     31  C   UNL A   1      37.703  30.033  28.513  1.00  0.00     0.029 A 
ATOM     32  N   UNL A   1      39.629  30.070  29.649  1.00  0.00    -0.354 N 
ATOM     33  C   UNL A   1      40.698  33.413  32.145  1.00  0.00     0.074 A 
ATOM     34  C   UNL A   1      39.687  34.447  32.093  1.00  0.00     0.031 C 
ATOM     35  C   UNL A   1      38.359  28.895  28.233  1.00  0.00     0.029 A 
ATOM     36  C   UNL A   1      39.628  28.885  28.954  1.00  0.00     0.049 A 
ATOM     37  H   UNL A   1      40.373  30.354  30.229  1.00  0.00     0.167 HD
ATOM     38  C   UNL A   1      41.841  33.501  32.867  1.00  0.00     0.031 A 
ATOM     39  C   UNL A   1      40.541  27.898  28.909  1.00  0.00     0.031 A 
ATOM     40  C   UNL A   1      42.842  32.470  32.934  1.00  0.00     0.049 A 
ATOM     41  C   UNL A   1      41.790  28.010  29.735  1.00  0.00     0.074 A 
ATOM     42  C   UNL A   1      44.008  32.445  33.680  1.00  0.00     0.029 A 
ATOM     43  N   UNL A   1      42.795  31.279  32.227  1.00  0.00    -0.354 N 
ATOM     44  N   UNL A   1      42.170  28.978  30.532  1.00  0.00    -0.248 NA
ATOM     45  C   UNL A   1      42.728  26.880  29.668  1.00  0.00     0.031 C 
ATOM     46  C   UNL A   1      44.686  31.254  33.393  1.00  0.00     0.029 A 
ATOM     47  C   UNL A   1      43.917  30.518  32.506  1.00  0.00     0.049 A 
ATOM     48  H   UNL A   1      42.069  31.014  31.615  1.00  0.00     0.167 HD
ATOM     49  C   UNL A   1      43.377  28.565  31.080  1.00  0.00     0.074 A 
ATOM     50  C   UNL A   1      43.655  27.251  30.539  1.00  0.00     0.031 C 
ATOM     51  C   UNL A   1      44.183  29.216  31.955  1.00  0.00     0.031 A 
BRANCH  38  52
ATOM     52  C   UNL A   1      42.069  34.770  33.643  1.00  0.00    -0.014 A 
ATOM     53  C   UNL A   1      41.580  34.920  34.951  1.00  0.00     0.009 A 
ATOM     54  C   UNL A   1      42.799  35.820  33.067  1.00  0.00     0.009 A 
ATOM     55  C   UNL A   1      41.785  36.112  35.650  1.00  0.00     0.001 A 
ATOM     56  C   UNL A   1      43.027  37.000  33.779  1.00  0.00     0.001 A 
ATOM     57  C   UNL A   1      42.510  37.149  35.066  1.00  0.00     0.000 A 
ENDBRANCH  38  52
BRANCH  39  58
ATOM     58  C   UNL A   1      40.291  26.695  28.073  1.00  0.00    -0.014 A 
ATOM     59  C   UNL A   1      40.816  26.611  26.775  1.00  0.00     0.009 A 
ATOM     60  C   UNL A   1      39.527  25.628  28.569  1.00  0.00     0.009 A 
ATOM     61  C   UNL A   1      40.558  25.493  25.979  1.00  0.00     0.001 A 
ATOM     62  C   UNL A   1      39.292  24.500  27.780  1.00  0.00     0.001 A 
ATOM     63  C   UNL A   1      39.801  24.437  26.483  1.00  0.00     0.000 A 
ENDBRANCH  39  58
BRANCH  51  64
ATOM     64  C   UNL A   1      45.426  28.497  32.398  1.00  0.00    -0.014 A 
ATOM     65  C   UNL A   1      45.416  27.639  33.510  1.00  0.00     0.009 A 
ATOM     66  C   UNL A   1      46.621  28.672  31.684  1.00  0.00     0.009 A 
ATOM     67  C   UNL A   1      46.588  27.004  33.920  1.00  0.00     0.001 A 
ATOM     68  C   UNL A   1      47.785  28.014  32.080  1.00  0.00     0.001 A 
ATOM     69  C   UNL A   1      47.771  27.189  33.205  1.00  0.00     0.000 A 
ENDBRANCH  51  64
ENDBRANCH  25  26
ENDBRANCH  17  20
ENDBRANCH  15  16
ENDBRANCH  14  15
ENDBRANCH   1  14
TORSDOF 13
ENDMDL
MODEL 3
REMARK VINA RESULT:      -9.0      2.448      3.814
REMARK SMILES NC(=S)S/C=C/C(=O)NCCCNC(=O)c1ccc(-c2c3nc(c(-c4ccccc4)c4ccc([nH]4)c(-c4ccccc4)c4nc(c(-c5ccccc5)c5ccc2[nH]5)C=C4)C=C3)cc1
REMARK SMILES IDX 10 1 9 2 7 3 8 4 6 6 5 7 4 8 2 9 3 10 1 11 11 14 12 15 13 16
REMARK SMILES IDX 14 17 15 19 16 20 17 21 63 22 18 23 62 24 19 25 20 26 21 27
REMARK SMILES IDX 56 28 22 29 61 30 55 31 57 32 23 33 60 34 54 35 53 36 24 38
REMARK SMILES IDX 46 39 31 40 45 41 32 42 35 43 44 44 58 45 33 46 34 47 43 49
REMARK SMILES IDX 59 50 36 51 25 52 26 53 30 54 27 55 29 56 28 57 47 58 48 59
REMARK SMILES IDX 52 60 49 61 51 62 50 63 37 64 38 65 42 66 39 67 41 68 40 69
REMARK H PARENT 9 5 1 12 1 13 13 18 57 37 35 48
REMARK Flexibility Score: inf
ROOT
ATOM      1  C   UNL A   1      37.868  21.809  25.404  1.00  0.00     0.118 C 
ENDROOT
BRANCH   1   2
ATOM      2  N   UNL A   1      37.388  22.491  24.214  1.00  0.00    -0.352 N 
ATOM      3  C   UNL A   1      36.127  22.607  23.717  1.00  0.00     0.244 C 
ATOM      4  O   UNL A   1      35.911  23.325  22.747  1.00  0.00    -0.270 OA
ATOM      5  H   UNL A   1      38.085  22.942  23.684  1.00  0.00     0.163 HD
BRANCH   3   6
ATOM      6  C   UNL A   1      35.013  21.937  24.410  1.00  0.00     0.078 C 
ATOM      7  C   UNL A   1      33.807  22.512  24.516  1.00  0.00     0.054 C 
BRANCH   7   8
ATOM      8  S   UNL A   1      32.463  21.723  25.265  1.00  0.00    -0.069 SA
BRANCH   8   9
ATOM      9  C   UNL A   1      32.844  20.020  25.311  1.00  0.00     0.135 C 
ATOM     10  S   UNL A   1      32.792  18.873  24.114  1.00  0.00    -0.053 S 
BRANCH   9  11
ATOM     11  N   UNL A   1      33.230  19.670  26.568  1.00  0.00    -0.384 N 
ATOM     12  H   UNL A   1      33.767  18.857  26.710  1.00  0.00     0.158 HD
ATOM     13  H   UNL A   1      32.971  20.229  27.336  1.00  0.00     0.158 HD
ENDBRANCH   9  11
ENDBRANCH   8   9
ENDBRANCH   7   8
ENDBRANCH   3   6
ENDBRANCH   1   2
BRANCH   1  14
ATOM     14  C   UNL A   1      38.589  20.510  25.054  1.00  0.00     0.042 C 
BRANCH  14  15
ATOM     15  C   UNL A   1      39.256  19.828  26.247  1.00  0.00     0.118 C 
BRANCH  15  16
ATOM     16  N   UNL A   1      40.518  19.198  25.888  1.00  0.00    -0.352 N 
ATOM     17  C   UNL A   1      41.788  19.713  25.831  1.00  0.00     0.251 C 
ATOM     18  H   UNL A   1      40.449  18.247  25.646  1.00  0.00     0.163 HD
ATOM     19  O   UNL A   1      42.677  19.049  25.305  1.00  0.00    -0.269 OA
BRANCH  17  20
ATOM     20  C   UNL A   1      42.108  21.049  26.384  1.00  0.00     0.039 A 
ATOM     21  C   UNL A   1      42.134  21.201  27.774  1.00  0.00     0.014 A 
ATOM     22  C   UNL A   1      42.296  22.164  25.562  1.00  0.00     0.014 A 
ATOM     23  C   UNL A   1      42.373  22.456  28.338  1.00  0.00     0.010 A 
ATOM     24  C   UNL A   1      42.600  23.405  26.124  1.00  0.00     0.010 A 
ATOM     25  C   UNL A   1      42.622  23.568  27.518  1.00  0.00    -0.014 A 
BRANCH  25  26
ATOM     26  C   UNL A   1      42.875  24.905  28.113  1.00  0.00     0.031 A 
ATOM     27  C   UNL A   1      44.263  25.303  28.534  1.00  0.00     0.074 A 
ATOM     28  C   UNL A   1      41.848  25.756  28.299  1.00  0.00     0.049 A 
ATOM     29  N   UNL A   1      44.676  26.429  29.062  1.00  0.00    -0.248 NA
ATOM     30  C   UNL A   1      45.325  24.299  28.361  1.00  0.00     0.031 C 
ATOM     31  C   UNL A   1      40.448  25.479  27.973  1.00  0.00     0.029 A 
ATOM     32  N   UNL A   1      41.827  27.032  28.804  1.00  0.00    -0.354 N 
ATOM     33  C   UNL A   1      46.035  26.261  29.298  1.00  0.00     0.074 A 
ATOM     34  C   UNL A   1      46.368  24.911  28.900  1.00  0.00     0.031 C 
ATOM     35  C   UNL A   1      39.710  26.565  28.256  1.00  0.00     0.029 A 
ATOM     36  C   UNL A   1      40.577  27.601  28.808  1.00  0.00     0.049 A 
ATOM     37  H   UNL A   1      42.631  27.495  29.132  1.00  0.00     0.167 HD
ATOM     38  C   UNL A   1      46.930  27.154  29.786  1.00  0.00     0.031 A 
ATOM     39  C   UNL A   1      40.175  28.823  29.202  1.00  0.00     0.031 A 
ATOM     40  C   UNL A   1      46.606  28.502  30.170  1.00  0.00     0.049 A 
ATOM     41  C   UNL A   1      41.190  29.802  29.719  1.00  0.00     0.074 A 
ATOM     42  C   UNL A   1      47.454  29.498  30.624  1.00  0.00     0.029 A 
ATOM     43  N   UNL A   1      45.331  29.044  30.143  1.00  0.00    -0.354 N 
ATOM     44  N   UNL A   1      42.482  29.649  29.874  1.00  0.00    -0.248 NA
ATOM     45  C   UNL A   1      40.689  31.131  30.098  1.00  0.00     0.031 C 
ATOM     46  C   UNL A   1      46.684  30.632  30.910  1.00  0.00     0.029 A 
ATOM     47  C   UNL A   1      45.365  30.355  30.587  1.00  0.00     0.049 A 
ATOM     48  H   UNL A   1      44.521  28.567  29.852  1.00  0.00     0.167 HD
ATOM     49  C   UNL A   1      42.953  30.868  30.344  1.00  0.00     0.074 A 
ATOM     50  C   UNL A   1      41.811  31.754  30.431  1.00  0.00     0.031 C 
ATOM     51  C   UNL A   1      44.220  31.222  30.674  1.00  0.00     0.031 A 
BRANCH  38  52
ATOM     52  C   UNL A   1      48.353  26.690  29.936  1.00  0.00    -0.014 A 
ATOM     53  C   UNL A   1      48.786  26.041  31.103  1.00  0.00     0.009 A 
ATOM     54  C   UNL A   1      49.266  26.883  28.889  1.00  0.00     0.009 A 
ATOM     55  C   UNL A   1      50.116  25.632  31.234  1.00  0.00     0.001 A 
ATOM     56  C   UNL A   1      50.588  26.448  29.010  1.00  0.00     0.001 A 
ATOM     57  C   UNL A   1      51.014  25.833  30.187  1.00  0.00     0.000 A 
ENDBRANCH  38  52
BRANCH  39  58
ATOM     58  C   UNL A   1      38.743  29.204  29.091  1.00  0.00    -0.014 A 
ATOM     59  C   UNL A   1      37.880  29.046  30.185  1.00  0.00     0.009 A 
ATOM     60  C   UNL A   1      38.235  29.725  27.892  1.00  0.00     0.009 A 
ATOM     61  C   UNL A   1      36.528  29.377  30.072  1.00  0.00     0.001 A 
ATOM     62  C   UNL A   1      36.888  30.081  27.791  1.00  0.00     0.001 A 
ATOM     63  C   UNL A   1      36.034  29.899  28.878  1.00  0.00     0.000 A 
ENDBRANCH  39  58
BRANCH  51  64
ATOM     64  C   UNL A   1      44.433  32.637  31.131  1.00  0.00    -0.014 A 
ATOM     65  C   UNL A   1      44.712  33.665  30.216  1.00  0.00     0.009 A 
ATOM     66  C   UNL A   1      44.339  32.948  32.496  1.00  0.00     0.009 A 
ATOM     67  C   UNL A   1      44.934  34.968  30.665  1.00  0.00     0.001 A 
ATOM     68  C   UNL A   1      44.535  34.256  32.939  1.00  0.00     0.001 A 
ATOM     69  C   UNL A   1      44.843  35.263  32.025  1.00  0.00     0.000 A 
ENDBRANCH  51  64
ENDBRANCH  25  26
ENDBRANCH  17  20
ENDBRANCH  15  16
ENDBRANCH  14  15
ENDBRANCH   1  14
TORSDOF 13
ENDMDL
