MODEL 1
REMARK VINA RESULT:     -12.7      0.000      0.000
REMARK SMILES O=C(C[C@@H]1C(=O)NCCN1C(=O)OCC1c2ccccc2-c2ccccc21)NCCCNC(=O)c1ccc(-c2c3nc(c(-c4ccccc4)c4ccc([nH]4)c(-c4ccccc4)c4nc(c(-c5ccccc5)c5ccc2[nH]5)C=C4)C=C3)cc1
REMARK SMILES IDX 1 1 2 2 28 3 3 5 4 6 5 7 10 8 6 9 7 10 9 11 8 12 11 14 12 15
REMARK SMILES IDX 13 16 14 17 15 18 16 19 27 20 17 21 21 22 22 23 26 24 18 25
REMARK SMILES IDX 20 26 23 27 25 28 19 29 24 30 29 31 30 32 31 33 32 34 33 35
REMARK SMILES IDX 34 37 35 38 36 39 82 40 37 41 81 42 38 43 39 44 40 45 75 46
REMARK SMILES IDX 41 47 80 48 74 49 76 50 42 51 79 52 73 53 72 54 43 56 65 57
REMARK SMILES IDX 50 58 64 59 51 60 54 61 63 62 77 63 52 64 53 65 62 67 78 68
REMARK SMILES IDX 55 69 44 70 45 71 49 72 46 73 48 74 47 75 66 76 67 77 71 78
REMARK SMILES IDX 68 79 70 80 69 81 56 82 57 83 61 84 58 85 60 86 59 87
REMARK H PARENT 28 4 7 13 32 36 76 55 54 66
REMARK Flexibility Score: inf
ROOT
ATOM      1  O   UNL A   1      33.606  28.899  25.377  1.00  0.00    -0.275 OA
ATOM      2  C   UNL A   1      32.691  29.271  24.649  1.00  0.00     0.222 C 
ATOM      3  N   UNL A   1      31.675  30.079  25.084  1.00  0.00    -0.356 N 
ATOM      4  H   UNL A   1      30.987  30.352  24.435  1.00  0.00     0.163 HD
ENDROOT
BRANCH   2   5
ATOM      5  C   UNL A   1      32.677  28.960  23.163  1.00  0.00     0.135 C 
BRANCH   5   6
ATOM      6  C   UNL A   1      31.774  27.833  22.614  1.00  0.00     0.187 C 
ATOM      7  C   UNL A   1      30.290  28.298  22.521  1.00  0.00     0.243 C 
ATOM      8  N   UNL A   1      31.944  26.468  23.202  1.00  0.00    -0.294 N 
ATOM      9  O   UNL A   1      29.953  29.256  21.820  1.00  0.00    -0.273 OA
ATOM     10  N   UNL A   1      29.354  27.660  23.288  1.00  0.00    -0.353 N 
ATOM     11  C   UNL A   1      30.737  25.655  23.320  1.00  0.00     0.145 C 
ATOM     12  C   UNL A   1      29.643  26.448  24.020  1.00  0.00     0.137 C 
ATOM     13  H   UNL A   1      28.449  28.042  23.344  1.00  0.00     0.163 HD
BRANCH   8  14
ATOM     14  C   UNL A   1      33.147  25.806  23.392  1.00  0.00     0.410 C 
ATOM     15  O   UNL A   1      33.836  25.369  22.475  1.00  0.00    -0.224 OA
BRANCH  14  16
ATOM     16  O   UNL A   1      33.458  25.628  24.696  1.00  0.00    -0.448 OA
BRANCH  16  17
ATOM     17  C   UNL A   1      34.759  25.079  24.981  1.00  0.00     0.248 C 
BRANCH  17  18
ATOM     18  C   UNL A   1      34.782  23.776  25.828  1.00  0.00     0.088 C 
ATOM     19  C   UNL A   1      33.750  22.705  25.491  1.00  0.00    -0.029 A 
ATOM     20  C   UNL A   1      36.087  22.999  25.664  1.00  0.00    -0.029 A 
ATOM     21  C   UNL A   1      32.370  22.772  25.565  1.00  0.00     0.005 A 
ATOM     22  C   UNL A   1      34.394  21.521  25.066  1.00  0.00    -0.014 A 
ATOM     23  C   UNL A   1      35.823  21.690  25.208  1.00  0.00    -0.014 A 
ATOM     24  C   UNL A   1      37.379  23.418  25.944  1.00  0.00     0.005 A 
ATOM     25  C   UNL A   1      31.626  21.679  25.114  1.00  0.00     0.000 A 
ATOM     26  C   UNL A   1      33.657  20.432  24.625  1.00  0.00     0.009 A 
ATOM     27  C   UNL A   1      36.858  20.789  25.017  1.00  0.00     0.009 A 
ATOM     28  C   UNL A   1      38.421  22.509  25.752  1.00  0.00     0.000 A 
ATOM     29  C   UNL A   1      32.262  20.524  24.634  1.00  0.00     0.001 A 
ATOM     30  C   UNL A   1      38.164  21.208  25.293  1.00  0.00     0.001 A 
ENDBRANCH  17  18
ENDBRANCH  16  17
ENDBRANCH  14  16
ENDBRANCH   8  14
ENDBRANCH   5   6
ENDBRANCH   2   5
BRANCH   3  31
ATOM     31  C   UNL A   1      31.559  30.552  26.447  1.00  0.00     0.117 C 
BRANCH  31  32
ATOM     32  C   UNL A   1      31.485  32.072  26.512  1.00  0.00     0.042 C 
BRANCH  32  33
ATOM     33  C   UNL A   1      32.642  32.729  27.257  1.00  0.00     0.118 C 
BRANCH  33  34
ATOM     34  N   UNL A   1      32.382  34.115  27.623  1.00  0.00    -0.352 N 
ATOM     35  C   UNL A   1      32.988  34.907  28.569  1.00  0.00     0.251 C 
ATOM     36  H   UNL A   1      31.660  34.551  27.114  1.00  0.00     0.163 HD
ATOM     37  O   UNL A   1      32.528  36.012  28.837  1.00  0.00    -0.269 OA
BRANCH  35  38
ATOM     38  C   UNL A   1      34.180  34.415  29.293  1.00  0.00     0.039 A 
ATOM     39  C   UNL A   1      34.009  33.817  30.544  1.00  0.00     0.014 A 
ATOM     40  C   UNL A   1      35.459  34.530  28.741  1.00  0.00     0.014 A 
ATOM     41  C   UNL A   1      35.105  33.249  31.196  1.00  0.00     0.010 A 
ATOM     42  C   UNL A   1      36.536  33.893  29.354  1.00  0.00     0.010 A 
ATOM     43  C   UNL A   1      36.368  33.234  30.581  1.00  0.00    -0.014 A 
BRANCH  43  44
ATOM     44  C   UNL A   1      37.510  32.496  31.182  1.00  0.00     0.031 A 
ATOM     45  C   UNL A   1      38.153  32.982  32.451  1.00  0.00     0.074 A 
ATOM     46  C   UNL A   1      38.017  31.424  30.540  1.00  0.00     0.049 A 
ATOM     47  N   UNL A   1      39.200  32.508  33.079  1.00  0.00    -0.248 NA
ATOM     48  C   UNL A   1      37.554  34.165  33.088  1.00  0.00     0.031 C 
ATOM     49  C   UNL A   1      37.508  30.867  29.285  1.00  0.00     0.029 A 
ATOM     50  N   UNL A   1      39.082  30.615  30.852  1.00  0.00    -0.354 N 
ATOM     51  C   UNL A   1      39.393  33.340  34.174  1.00  0.00     0.074 A 
ATOM     52  C   UNL A   1      38.384  34.376  34.098  1.00  0.00     0.031 C 
ATOM     53  C   UNL A   1      38.241  29.794  28.949  1.00  0.00     0.029 A 
ATOM     54  C   UNL A   1      39.304  29.617  29.933  1.00  0.00     0.049 A 
ATOM     55  H   UNL A   1      39.632  30.737  31.659  1.00  0.00     0.167 HD
ATOM     56  C   UNL A   1      40.314  33.243  35.162  1.00  0.00     0.031 A 
ATOM     57  C   UNL A   1      40.265  28.676  29.876  1.00  0.00     0.031 A 
ATOM     58  C   UNL A   1      41.321  32.217  35.234  1.00  0.00     0.049 A 
ATOM     59  C   UNL A   1      41.307  28.621  30.958  1.00  0.00     0.074 A 
ATOM     60  C   UNL A   1      42.267  32.007  36.223  1.00  0.00     0.029 A 
ATOM     61  N   UNL A   1      41.522  31.235  34.276  1.00  0.00    -0.354 N 
ATOM     62  N   UNL A   1      41.430  29.373  32.025  1.00  0.00    -0.248 NA
ATOM     63  C   UNL A   1      42.339  27.582  30.831  1.00  0.00     0.031 C 
ATOM     64  C   UNL A   1      43.083  30.941  35.829  1.00  0.00     0.029 A 
ATOM     65  C   UNL A   1      42.601  30.442  34.631  1.00  0.00     0.049 A 
ATOM     66  H   UNL A   1      40.978  31.119  33.463  1.00  0.00     0.167 HD
ATOM     67  C   UNL A   1      42.537  28.882  32.708  1.00  0.00     0.074 A 
ATOM     68  C   UNL A   1      43.033  27.755  31.946  1.00  0.00     0.031 C 
ATOM     69  C   UNL A   1      43.092  29.327  33.861  1.00  0.00     0.031 A 
BRANCH  56  70
ATOM     70  C   UNL A   1      40.287  34.291  36.242  1.00  0.00    -0.014 A 
ATOM     71  C   UNL A   1      41.062  35.457  36.146  1.00  0.00     0.009 A 
ATOM     72  C   UNL A   1      39.443  34.128  37.351  1.00  0.00     0.009 A 
ATOM     73  C   UNL A   1      41.022  36.421  37.157  1.00  0.00     0.001 A 
ATOM     74  C   UNL A   1      39.378  35.108  38.345  1.00  0.00     0.001 A 
ATOM     75  C   UNL A   1      40.176  36.248  38.252  1.00  0.00     0.000 A 
ENDBRANCH  56  70
BRANCH  57  76
ATOM     76  C   UNL A   1      40.296  27.707  28.747  1.00  0.00    -0.014 A 
ATOM     77  C   UNL A   1      39.675  26.454  28.866  1.00  0.00     0.009 A 
ATOM     78  C   UNL A   1      40.959  28.024  27.551  1.00  0.00     0.009 A 
ATOM     79  C   UNL A   1      39.745  25.528  27.822  1.00  0.00     0.001 A 
ATOM     80  C   UNL A   1      40.997  27.109  26.496  1.00  0.00     0.001 A 
ATOM     81  C   UNL A   1      40.401  25.857  26.637  1.00  0.00     0.000 A 
ENDBRANCH  57  76
BRANCH  69  82
ATOM     82  C   UNL A   1      44.286  28.576  34.386  1.00  0.00    -0.014 A 
ATOM     83  C   UNL A   1      45.595  28.971  34.070  1.00  0.00     0.009 A 
ATOM     84  C   UNL A   1      44.095  27.478  35.240  1.00  0.00     0.009 A 
ATOM     85  C   UNL A   1      46.688  28.260  34.570  1.00  0.00     0.001 A 
ATOM     86  C   UNL A   1      45.190  26.790  35.766  1.00  0.00     0.001 A 
ATOM     87  C   UNL A   1      46.485  27.175  35.423  1.00  0.00     0.000 A 
ENDBRANCH  69  82
ENDBRANCH  43  44
ENDBRANCH  35  38
ENDBRANCH  33  34
ENDBRANCH  32  33
ENDBRANCH  31  32
ENDBRANCH   3  31
TORSDOF 15
ENDMDL
MODEL 2
REMARK VINA RESULT:     -12.6      4.958      9.750
REMARK SMILES O=C(C[C@@H]1C(=O)NCCN1C(=O)OCC1c2ccccc2-c2ccccc21)NCCCNC(=O)c1ccc(-c2c3nc(c(-c4ccccc4)c4ccc([nH]4)c(-c4ccccc4)c4nc(c(-c5ccccc5)c5ccc2[nH]5)C=C4)C=C3)cc1
REMARK SMILES IDX 1 1 2 2 28 3 3 5 4 6 5 7 10 8 6 9 7 10 9 11 8 12 11 14 12 15
REMARK SMILES IDX 13 16 14 17 15 18 16 19 27 20 17 21 21 22 22 23 26 24 18 25
REMARK SMILES IDX 20 26 23 27 25 28 19 29 24 30 29 31 30 32 31 33 32 34 33 35
REMARK SMILES IDX 34 37 35 38 36 39 82 40 37 41 81 42 38 43 39 44 40 45 75 46
REMARK SMILES IDX 41 47 80 48 74 49 76 50 42 51 79 52 73 53 72 54 43 56 65 57
REMARK SMILES IDX 50 58 64 59 51 60 54 61 63 62 77 63 52 64 53 65 62 67 78 68
REMARK SMILES IDX 55 69 44 70 45 71 49 72 46 73 48 74 47 75 66 76 67 77 71 78
REMARK SMILES IDX 68 79 70 80 69 81 56 82 57 83 61 84 58 85 60 86 59 87
REMARK H PARENT 28 4 7 13 32 36 76 55 54 66
REMARK Flexibility Score: inf
ROOT
ATOM      1  O   UNL A   1      35.341  22.948  26.212  1.00  0.00    -0.275 OA
ATOM      2  C   UNL A   1      34.961  21.796  26.023  1.00  0.00     0.222 C 
ATOM      3  N   UNL A   1      35.726  20.855  25.388  1.00  0.00    -0.356 N 
ATOM      4  H   UNL A   1      35.361  19.946  25.292  1.00  0.00     0.163 HD
ENDROOT
BRANCH   2   5
ATOM      5  C   UNL A   1      33.648  21.286  26.588  1.00  0.00     0.135 C 
BRANCH   5   6
ATOM      6  C   UNL A   1      32.332  21.495  25.806  1.00  0.00     0.187 C 
ATOM      7  C   UNL A   1      32.250  20.536  24.581  1.00  0.00     0.243 C 
ATOM      8  N   UNL A   1      31.932  22.904  25.498  1.00  0.00    -0.294 N 
ATOM      9  O   UNL A   1      32.272  19.309  24.715  1.00  0.00    -0.273 OA
ATOM     10  N   UNL A   1      32.213  21.077  23.326  1.00  0.00    -0.353 N 
ATOM     11  C   UNL A   1      31.246  23.122  24.228  1.00  0.00     0.145 C 
ATOM     12  C   UNL A   1      32.041  22.494  23.094  1.00  0.00     0.137 C 
ATOM     13  H   UNL A   1      32.309  20.479  22.550  1.00  0.00     0.163 HD
BRANCH   8  14
ATOM     14  C   UNL A   1      31.902  23.957  26.399  1.00  0.00     0.410 C 
ATOM     15  O   UNL A   1      31.744  23.817  27.607  1.00  0.00    -0.224 OA
BRANCH  14  16
ATOM     16  O   UNL A   1      31.997  25.169  25.805  1.00  0.00    -0.448 OA
BRANCH  16  17
ATOM     17  C   UNL A   1      33.265  25.844  25.914  1.00  0.00     0.248 C 
BRANCH  17  18
ATOM     18  C   UNL A   1      33.420  27.149  25.084  1.00  0.00     0.088 C 
ATOM     19  C   UNL A   1      32.319  27.473  24.080  1.00  0.00    -0.029 A 
ATOM     20  C   UNL A   1      33.405  28.400  25.960  1.00  0.00    -0.029 A 
ATOM     21  C   UNL A   1      31.928  26.763  22.958  1.00  0.00     0.005 A 
ATOM     22  C   UNL A   1      31.683  28.686  24.425  1.00  0.00    -0.014 A 
ATOM     23  C   UNL A   1      32.372  29.271  25.554  1.00  0.00    -0.014 A 
ATOM     24  C   UNL A   1      34.270  28.739  26.991  1.00  0.00     0.005 A 
ATOM     25  C   UNL A   1      30.824  27.220  22.234  1.00  0.00     0.000 A 
ATOM     26  C   UNL A   1      30.591  29.144  23.703  1.00  0.00     0.009 A 
ATOM     27  C   UNL A   1      32.188  30.489  26.187  1.00  0.00     0.009 A 
ATOM     28  C   UNL A   1      34.084  29.967  27.628  1.00  0.00     0.000 A 
ATOM     29  C   UNL A   1      30.151  28.392  22.610  1.00  0.00     0.001 A 
ATOM     30  C   UNL A   1      33.053  30.834  27.231  1.00  0.00     0.001 A 
ENDBRANCH  17  18
ENDBRANCH  16  17
ENDBRANCH  14  16
ENDBRANCH   8  14
ENDBRANCH   5   6
ENDBRANCH   2   5
BRANCH   3  31
ATOM     31  C   UNL A   1      37.044  21.126  24.853  1.00  0.00     0.117 C 
BRANCH  31  32
ATOM     32  C   UNL A   1      37.983  19.941  25.039  1.00  0.00     0.042 C 
BRANCH  32  33
ATOM     33  C   UNL A   1      39.236  20.250  25.851  1.00  0.00     0.118 C 
BRANCH  33  34
ATOM     34  N   UNL A   1      40.193  19.153  25.877  1.00  0.00    -0.352 N 
ATOM     35  C   UNL A   1      41.551  19.169  26.096  1.00  0.00     0.251 C 
ATOM     36  H   UNL A   1      39.808  18.261  25.713  1.00  0.00     0.163 HD
ATOM     37  O   UNL A   1      42.216  18.152  25.931  1.00  0.00    -0.269 OA
BRANCH  35  38
ATOM     38  C   UNL A   1      42.221  20.425  26.499  1.00  0.00     0.039 A 
ATOM     39  C   UNL A   1      42.955  21.132  25.544  1.00  0.00     0.014 A 
ATOM     40  C   UNL A   1      42.117  20.912  27.804  1.00  0.00     0.014 A 
ATOM     41  C   UNL A   1      43.505  22.373  25.872  1.00  0.00     0.010 A 
ATOM     42  C   UNL A   1      42.596  22.184  28.108  1.00  0.00     0.010 A 
ATOM     43  C   UNL A   1      43.282  22.935  27.140  1.00  0.00    -0.014 A 
BRANCH  43  44
ATOM     44  C   UNL A   1      43.720  24.320  27.458  1.00  0.00     0.031 A 
ATOM     45  C   UNL A   1      42.719  25.364  27.867  1.00  0.00     0.074 A 
ATOM     46  C   UNL A   1      45.017  24.656  27.305  1.00  0.00     0.049 A 
ATOM     47  N   UNL A   1      42.909  26.636  28.113  1.00  0.00    -0.248 NA
ATOM     48  C   UNL A   1      41.321  24.927  28.001  1.00  0.00     0.031 C 
ATOM     49  C   UNL A   1      46.085  23.748  26.882  1.00  0.00     0.029 A 
ATOM     50  N   UNL A   1      45.656  25.859  27.479  1.00  0.00    -0.354 N 
ATOM     51  C   UNL A   1      41.656  27.154  28.416  1.00  0.00     0.074 A 
ATOM     52  C   UNL A   1      40.708  26.069  28.276  1.00  0.00     0.031 C 
ATOM     53  C   UNL A   1      47.248  24.416  26.856  1.00  0.00     0.029 A 
ATOM     54  C   UNL A   1      47.003  25.811  27.208  1.00  0.00     0.049 A 
ATOM     55  H   UNL A   1      45.194  26.677  27.772  1.00  0.00     0.167 HD
ATOM     56  C   UNL A   1      41.326  28.412  28.791  1.00  0.00     0.031 A 
ATOM     57  C   UNL A   1      47.935  26.783  27.222  1.00  0.00     0.031 A 
ATOM     58  C   UNL A   1      42.267  29.493  28.923  1.00  0.00     0.049 A 
ATOM     59  C   UNL A   1      47.532  28.183  27.592  1.00  0.00     0.074 A 
ATOM     60  C   UNL A   1      42.035  30.791  29.346  1.00  0.00     0.029 A 
ATOM     61  N   UNL A   1      43.618  29.407  28.625  1.00  0.00    -0.354 N 
ATOM     62  N   UNL A   1      46.355  28.638  27.946  1.00  0.00    -0.248 NA
ATOM     63  C   UNL A   1      48.591  29.202  27.572  1.00  0.00     0.031 C 
ATOM     64  C   UNL A   1      43.231  31.508  29.238  1.00  0.00     0.029 A 
ATOM     65  C   UNL A   1      44.224  30.639  28.816  1.00  0.00     0.049 A 
ATOM     66  H   UNL A   1      44.080  28.592  28.322  1.00  0.00     0.167 HD
ATOM     67  C   UNL A   1      46.537  29.990  28.213  1.00  0.00     0.074 A 
ATOM     68  C   UNL A   1      47.941  30.273  28.004  1.00  0.00     0.031 C 
ATOM     69  C   UNL A   1      45.622  30.913  28.597  1.00  0.00     0.031 A 
BRANCH  56  70
ATOM     70  C   UNL A   1      39.874  28.696  29.070  1.00  0.00    -0.014 A 
ATOM     71  C   UNL A   1      39.021  29.186  28.068  1.00  0.00     0.009 A 
ATOM     72  C   UNL A   1      39.342  28.428  30.341  1.00  0.00     0.009 A 
ATOM     73  C   UNL A   1      37.675  29.439  28.345  1.00  0.00     0.001 A 
ATOM     74  C   UNL A   1      37.989  28.651  30.606  1.00  0.00     0.001 A 
ATOM     75  C   UNL A   1      37.160  29.167  29.611  1.00  0.00     0.000 A 
ENDBRANCH  56  70
BRANCH  57  76
ATOM     76  C   UNL A   1      49.345  26.470  26.865  1.00  0.00    -0.014 A 
ATOM     77  C   UNL A   1      49.790  26.598  25.540  1.00  0.00     0.009 A 
ATOM     78  C   UNL A   1      50.249  26.027  27.843  1.00  0.00     0.009 A 
ATOM     79  C   UNL A   1      51.102  26.260  25.198  1.00  0.00     0.001 A 
ATOM     80  C   UNL A   1      51.569  25.723  27.505  1.00  0.00     0.001 A 
ATOM     81  C   UNL A   1      51.992  25.827  26.180  1.00  0.00     0.000 A 
ENDBRANCH  57  76
BRANCH  69  82
ATOM     82  C   UNL A   1      46.115  32.313  28.842  1.00  0.00    -0.014 A 
ATOM     83  C   UNL A   1      46.105  33.281  27.826  1.00  0.00     0.009 A 
ATOM     84  C   UNL A   1      46.564  32.677  30.123  1.00  0.00     0.009 A 
ATOM     85  C   UNL A   1      46.566  34.575  28.077  1.00  0.00     0.001 A 
ATOM     86  C   UNL A   1      46.992  33.980  30.379  1.00  0.00     0.001 A 
ATOM     87  C   UNL A   1      47.003  34.925  29.355  1.00  0.00     0.000 A 
ENDBRANCH  69  82
ENDBRANCH  43  44
ENDBRANCH  35  38
ENDBRANCH  33  34
ENDBRANCH  32  33
ENDBRANCH  31  32
ENDBRANCH   3  31
TORSDOF 15
ENDMDL
MODEL 3
REMARK VINA RESULT:     -12.6      1.626      6.185
REMARK SMILES O=C(C[C@@H]1C(=O)NCCN1C(=O)OCC1c2ccccc2-c2ccccc21)NCCCNC(=O)c1ccc(-c2c3nc(c(-c4ccccc4)c4ccc([nH]4)c(-c4ccccc4)c4nc(c(-c5ccccc5)c5ccc2[nH]5)C=C4)C=C3)cc1
REMARK SMILES IDX 1 1 2 2 28 3 3 5 4 6 5 7 10 8 6 9 7 10 9 11 8 12 11 14 12 15
REMARK SMILES IDX 13 16 14 17 15 18 16 19 27 20 17 21 21 22 22 23 26 24 18 25
REMARK SMILES IDX 20 26 23 27 25 28 19 29 24 30 29 31 30 32 31 33 32 34 33 35
REMARK SMILES IDX 34 37 35 38 36 39 82 40 37 41 81 42 38 43 39 44 40 45 75 46
REMARK SMILES IDX 41 47 80 48 74 49 76 50 42 51 79 52 73 53 72 54 43 56 65 57
REMARK SMILES IDX 50 58 64 59 51 60 54 61 63 62 77 63 52 64 53 65 62 67 78 68
REMARK SMILES IDX 55 69 44 70 45 71 49 72 46 73 48 74 47 75 66 76 67 77 71 78
REMARK SMILES IDX 68 79 70 80 69 81 56 82 57 83 61 84 58 85 60 86 59 87
REMARK H PARENT 28 4 7 13 32 36 76 55 54 66
REMARK Flexibility Score: inf
ROOT
ATOM      1  O   UNL A   1      33.832  28.931  23.706  1.00  0.00    -0.275 OA
ATOM      2  C   UNL A   1      33.415  28.141  24.548  1.00  0.00     0.222 C 
ATOM      3  N   UNL A   1      32.386  28.436  25.401  1.00  0.00    -0.356 N 
ATOM      4  H   UNL A   1      32.094  27.743  26.036  1.00  0.00     0.163 HD
ENDROOT
BRANCH   2   5
ATOM      5  C   UNL A   1      33.933  26.715  24.630  1.00  0.00     0.135 C 
BRANCH   5   6
ATOM      6  C   UNL A   1      33.148  25.564  23.964  1.00  0.00     0.187 C 
ATOM      7  C   UNL A   1      32.846  25.882  22.469  1.00  0.00     0.243 C 
ATOM      8  N   UNL A   1      31.977  25.008  24.712  1.00  0.00    -0.294 N 
ATOM      9  O   UNL A   1      33.751  26.076  21.652  1.00  0.00    -0.273 OA
ATOM     10  N   UNL A   1      31.543  26.006  22.075  1.00  0.00    -0.353 N 
ATOM     11  C   UNL A   1      30.844  24.560  23.907  1.00  0.00     0.145 C 
ATOM     12  C   UNL A   1      30.434  25.655  22.934  1.00  0.00     0.137 C 
ATOM     13  H   UNL A   1      31.352  26.349  21.173  1.00  0.00     0.163 HD
BRANCH   8  14
ATOM     14  C   UNL A   1      31.966  24.630  26.046  1.00  0.00     0.410 C 
ATOM     15  O   UNL A   1      31.169  25.065  26.871  1.00  0.00    -0.224 OA
BRANCH  14  16
ATOM     16  O   UNL A   1      32.969  23.780  26.366  1.00  0.00    -0.448 OA
BRANCH  16  17
ATOM     17  C   UNL A   1      32.775  22.394  26.024  1.00  0.00     0.248 C 
BRANCH  17  18
ATOM     18  C   UNL A   1      33.608  21.862  24.825  1.00  0.00     0.088 C 
ATOM     19  C   UNL A   1      35.122  22.031  24.895  1.00  0.00    -0.029 A 
ATOM     20  C   UNL A   1      33.483  20.349  24.657  1.00  0.00    -0.029 A 
ATOM     21  C   UNL A   1      35.866  23.198  24.941  1.00  0.00     0.005 A 
ATOM     22  C   UNL A   1      35.757  20.769  24.898  1.00  0.00    -0.014 A 
ATOM     23  C   UNL A   1      34.755  19.742  24.715  1.00  0.00    -0.014 A 
ATOM     24  C   UNL A   1      32.338  19.600  24.426  1.00  0.00     0.005 A 
ATOM     25  C   UNL A   1      37.250  23.097  25.093  1.00  0.00     0.000 A 
ATOM     26  C   UNL A   1      37.133  20.669  25.041  1.00  0.00     0.009 A 
ATOM     27  C   UNL A   1      34.891  18.373  24.553  1.00  0.00     0.009 A 
ATOM     28  C   UNL A   1      32.476  18.221  24.263  1.00  0.00     0.000 A 
ATOM     29  C   UNL A   1      37.879  21.845  25.157  1.00  0.00     0.001 A 
ATOM     30  C   UNL A   1      33.740  17.613  24.326  1.00  0.00     0.001 A 
ENDBRANCH  17  18
ENDBRANCH  16  17
ENDBRANCH  14  16
ENDBRANCH   8  14
ENDBRANCH   5   6
ENDBRANCH   2   5
BRANCH   3  31
ATOM     31  C   UNL A   1      31.706  29.714  25.419  1.00  0.00     0.117 C 
BRANCH  31  32
ATOM     32  C   UNL A   1      31.776  30.372  26.790  1.00  0.00     0.042 C 
BRANCH  32  33
ATOM     33  C   UNL A   1      32.931  31.354  26.960  1.00  0.00     0.118 C 
BRANCH  33  34
ATOM     34  N   UNL A   1      32.500  32.694  27.335  1.00  0.00    -0.352 N 
ATOM     35  C   UNL A   1      33.095  33.612  28.168  1.00  0.00     0.251 C 
ATOM     36  H   UNL A   1      31.652  32.987  26.929  1.00  0.00     0.163 HD
ATOM     37  O   UNL A   1      32.502  34.640  28.480  1.00  0.00    -0.269 OA
BRANCH  35  38
ATOM     38  C   UNL A   1      34.442  33.349  28.719  1.00  0.00     0.039 A 
ATOM     39  C   UNL A   1      34.551  32.670  29.936  1.00  0.00     0.014 A 
ATOM     40  C   UNL A   1      35.593  33.755  28.039  1.00  0.00     0.014 A 
ATOM     41  C   UNL A   1      35.811  32.315  30.420  1.00  0.00     0.010 A 
ATOM     42  C   UNL A   1      36.844  33.331  28.482  1.00  0.00     0.010 A 
ATOM     43  C   UNL A   1      36.965  32.594  29.670  1.00  0.00    -0.014 A 
BRANCH  43  44
ATOM     44  C   UNL A   1      38.299  32.086  30.088  1.00  0.00     0.031 A 
ATOM     45  C   UNL A   1      38.820  30.780  29.558  1.00  0.00     0.074 A 
ATOM     46  C   UNL A   1      39.010  32.771  31.006  1.00  0.00     0.049 A 
ATOM     47  N   UNL A   1      39.926  30.148  29.865  1.00  0.00    -0.248 NA
ATOM     48  C   UNL A   1      37.984  30.082  28.569  1.00  0.00     0.031 C 
ATOM     49  C   UNL A   1      38.604  34.034  31.625  1.00  0.00     0.029 A 
ATOM     50  N   UNL A   1      40.223  32.493  31.587  1.00  0.00    -0.354 N 
ATOM     51  C   UNL A   1      39.912  28.976  29.119  1.00  0.00     0.074 A 
ATOM     52  C   UNL A   1      38.665  28.962  28.382  1.00  0.00     0.031 C 
ATOM     53  C   UNL A   1      39.561  34.436  32.476  1.00  0.00     0.029 A 
ATOM     54  C   UNL A   1      40.622  33.435  32.505  1.00  0.00     0.049 A 
ATOM     55  H   UNL A   1      40.756  31.696  31.366  1.00  0.00     0.167 HD
ATOM     56  C   UNL A   1      40.855  28.008  29.041  1.00  0.00     0.031 A 
ATOM     57  C   UNL A   1      41.710  33.482  33.297  1.00  0.00     0.031 A 
ATOM     58  C   UNL A   1      42.091  28.019  29.779  1.00  0.00     0.049 A 
ATOM     59  C   UNL A   1      42.718  32.368  33.229  1.00  0.00     0.074 A 
ATOM     60  C   UNL A   1      43.132  27.107  29.729  1.00  0.00     0.029 A 
ATOM     61  N   UNL A   1      42.450  28.983  30.709  1.00  0.00    -0.354 N 
ATOM     62  N   UNL A   1      42.722  31.303  32.464  1.00  0.00    -0.248 NA
ATOM     63  C   UNL A   1      43.875  32.468  34.129  1.00  0.00     0.031 C 
ATOM     64  C   UNL A   1      44.089  27.482  30.678  1.00  0.00     0.029 A 
ATOM     65  C   UNL A   1      43.678  28.666  31.267  1.00  0.00     0.049 A 
ATOM     66  H   UNL A   1      41.912  29.775  30.938  1.00  0.00     0.167 HD
ATOM     67  C   UNL A   1      43.892  30.620  32.774  1.00  0.00     0.074 A 
ATOM     68  C   UNL A   1      44.582  31.403  33.777  1.00  0.00     0.031 C 
ATOM     69  C   UNL A   1      44.353  29.449  32.272  1.00  0.00     0.031 A 
BRANCH  56  70
ATOM     70  C   UNL A   1      40.577  26.839  28.135  1.00  0.00    -0.014 A 
ATOM     71  C   UNL A   1      41.076  26.798  26.823  1.00  0.00     0.009 A 
ATOM     72  C   UNL A   1      39.842  25.743  28.615  1.00  0.00     0.009 A 
ATOM     73  C   UNL A   1      40.811  25.702  25.998  1.00  0.00     0.001 A 
ATOM     74  C   UNL A   1      39.607  24.634  27.799  1.00  0.00     0.001 A 
ATOM     75  C   UNL A   1      40.081  24.620  26.488  1.00  0.00     0.000 A 
ENDBRANCH  56  70
BRANCH  57  76
ATOM     76  C   UNL A   1      41.905  34.621  34.233  1.00  0.00    -0.014 A 
ATOM     77  C   UNL A   1      41.417  34.556  35.548  1.00  0.00     0.009 A 
ATOM     78  C   UNL A   1      42.564  35.788  33.814  1.00  0.00     0.009 A 
ATOM     79  C   UNL A   1      41.560  35.645  36.411  1.00  0.00     0.001 A 
ATOM     80  C   UNL A   1      42.735  36.862  34.689  1.00  0.00     0.001 A 
ATOM     81  C   UNL A   1      42.222  36.795  35.984  1.00  0.00     0.000 A 
ENDBRANCH  57  76
BRANCH  69  82
ATOM     82  C   UNL A   1      45.679  28.954  32.781  1.00  0.00    -0.014 A 
ATOM     83  C   UNL A   1      45.764  28.087  33.882  1.00  0.00     0.009 A 
ATOM     84  C   UNL A   1      46.861  29.334  32.124  1.00  0.00     0.009 A 
ATOM     85  C   UNL A   1      47.006  27.640  34.336  1.00  0.00     0.001 A 
ATOM     86  C   UNL A   1      48.099  28.858  32.559  1.00  0.00     0.001 A 
ATOM     87  C   UNL A   1      48.172  28.020  33.670  1.00  0.00     0.000 A 
ENDBRANCH  69  82
ENDBRANCH  43  44
ENDBRANCH  35  38
ENDBRANCH  33  34
ENDBRANCH  32  33
ENDBRANCH  31  32
ENDBRANCH   3  31
TORSDOF 15
ENDMDL
