MODEL 1
REMARK VINA RESULT:     -10.8      0.000      0.000
REMARK SMILES CN(CC(N)=O)C(=O)Cn1cccc1C(=O)NCCCNC(=O)c1ccc(-c2c3nc(c(-c4ccccc4)c4ccc([nH]4)c(-c4ccccc4)c4nc(c(-c5ccccc5)c5ccc2[nH]5)C=C4)C=C3)cc1
REMARK SMILES IDX 15 1 16 2 17 3 14 5 10 6 11 7 12 8 13 9 9 10 7 11 8 12 2 13
REMARK SMILES IDX 1 14 3 15 4 16 5 17 6 18 18 21 19 22 20 23 21 24 22 25 23 27
REMARK SMILES IDX 24 28 25 29 71 30 26 31 70 32 27 33 28 34 29 35 64 36 30 37
REMARK SMILES IDX 69 38 63 39 65 40 31 41 68 42 62 43 61 44 32 46 54 47 39 48
REMARK SMILES IDX 53 49 40 50 43 51 52 52 66 53 41 54 42 55 51 57 67 58 44 59
REMARK SMILES IDX 33 60 34 61 38 62 35 63 37 64 36 65 55 66 56 67 60 68 57 69
REMARK SMILES IDX 59 70 58 71 45 72 46 73 50 74 47 75 49 76 48 77
REMARK H PARENT 17 4 5 19 5 20 21 26 65 45 43 56
REMARK Flexibility Score: inf
ROOT
ATOM      1  C   UNL A   1      34.809  21.175  25.848  1.00  0.00     0.267 C 
ATOM      2  O   UNL A   1      34.426  21.472  26.988  1.00  0.00    -0.268 OA
ATOM      3  N   UNL A   1      36.167  21.206  25.722  1.00  0.00    -0.351 N 
ATOM      4  H   UNL A   1      36.607  21.475  26.560  1.00  0.00     0.163 HD
ENDROOT
BRANCH   1   5
ATOM      5  C   UNL A   1      33.839  20.780  24.838  1.00  0.00     0.107 A 
ATOM      6  N   UNL A   1      33.157  21.447  23.832  1.00  0.00    -0.334 N 
ATOM      7  C   UNL A   1      32.207  20.580  23.299  1.00  0.00     0.087 A 
ATOM      8  C   UNL A   1      32.493  19.306  23.702  1.00  0.00     0.020 A 
ATOM      9  C   UNL A   1      33.549  19.425  24.619  1.00  0.00     0.033 A 
BRANCH   6  10
ATOM     10  C   UNL A   1      33.123  22.849  23.451  1.00  0.00     0.222 C 
BRANCH  10  11
ATOM     11  C   UNL A   1      32.283  23.933  24.103  1.00  0.00     0.242 C 
ATOM     12  O   UNL A   1      31.396  24.381  23.346  1.00  0.00    -0.273 OA
BRANCH  11  13
ATOM     13  N   UNL A   1      32.296  24.395  25.404  1.00  0.00    -0.335 N 
ATOM     14  C   UNL A   1      32.791  25.766  25.560  1.00  0.00     0.147 C 
BRANCH  13  15
ATOM     15  C   UNL A   1      31.853  23.777  26.660  1.00  0.00     0.218 C 
BRANCH  15  16
ATOM     16  C   UNL A   1      30.476  23.071  26.576  1.00  0.00     0.237 C 
ATOM     17  N   UNL A   1      29.402  23.764  27.055  1.00  0.00    -0.368 N 
ATOM     18  O   UNL A   1      30.286  21.973  26.059  1.00  0.00    -0.273 OA
ATOM     19  H   UNL A   1      29.532  24.646  27.473  1.00  0.00     0.159 HD
ATOM     20  H   UNL A   1      28.497  23.382  26.983  1.00  0.00     0.159 HD
ENDBRANCH  15  16
ENDBRANCH  13  15
ENDBRANCH  11  13
ENDBRANCH  10  11
ENDBRANCH   6  10
ENDBRANCH   1   5
BRANCH   3  21
ATOM     21  C   UNL A   1      37.126  20.944  24.670  1.00  0.00     0.118 C 
BRANCH  21  22
ATOM     22  C   UNL A   1      38.055  19.774  25.004  1.00  0.00     0.042 C 
BRANCH  22  23
ATOM     23  C   UNL A   1      39.233  20.138  25.914  1.00  0.00     0.118 C 
BRANCH  23  24
ATOM     24  N   UNL A   1      40.256  19.105  25.942  1.00  0.00    -0.352 N 
ATOM     25  C   UNL A   1      41.623  19.245  26.067  1.00  0.00     0.251 C 
ATOM     26  H   UNL A   1      39.929  18.180  25.860  1.00  0.00     0.163 HD
ATOM     27  O   UNL A   1      42.363  18.315  25.799  1.00  0.00    -0.269 OA
BRANCH  25  28
ATOM     28  C   UNL A   1      42.203  20.539  26.498  1.00  0.00     0.039 A 
ATOM     29  C   UNL A   1      42.770  21.373  25.527  1.00  0.00     0.014 A 
ATOM     30  C   UNL A   1      42.242  20.901  27.850  1.00  0.00     0.014 A 
ATOM     31  C   UNL A   1      43.295  22.606  25.901  1.00  0.00     0.010 A 
ATOM     32  C   UNL A   1      42.756  22.140  28.227  1.00  0.00     0.010 A 
ATOM     33  C   UNL A   1      43.253  23.007  27.247  1.00  0.00    -0.014 A 
BRANCH  33  34
ATOM     34  C   UNL A   1      43.520  24.434  27.557  1.00  0.00     0.031 A 
ATOM     35  C   UNL A   1      42.203  25.231  27.676  1.00  0.00     0.074 A 
ATOM     36  C   UNL A   1      44.823  24.844  27.624  1.00  0.00     0.049 A 
ATOM     37  N   UNL A   1      41.959  26.479  27.425  1.00  0.00    -0.248 NA
ATOM     38  C   UNL A   1      40.955  24.516  28.071  1.00  0.00     0.031 C 
ATOM     39  C   UNL A   1      45.993  23.940  27.571  1.00  0.00     0.029 A 
ATOM     40  N   UNL A   1      45.439  26.076  27.742  1.00  0.00    -0.354 N 
ATOM     41  C   UNL A   1      40.603  26.733  27.739  1.00  0.00     0.074 A 
ATOM     42  C   UNL A   1      40.018  25.466  28.058  1.00  0.00     0.031 C 
ATOM     43  C   UNL A   1      47.150  24.641  27.574  1.00  0.00     0.029 A 
ATOM     44  C   UNL A   1      46.855  26.060  27.619  1.00  0.00     0.049 A 
ATOM     45  H   UNL A   1      44.933  26.905  27.900  1.00  0.00     0.167 HD
ATOM     46  C   UNL A   1      40.075  27.991  27.821  1.00  0.00     0.031 A 
ATOM     47  C   UNL A   1      47.728  27.109  27.497  1.00  0.00     0.031 A 
ATOM     48  C   UNL A   1      41.041  28.952  27.417  1.00  0.00     0.049 A 
ATOM     49  C   UNL A   1      46.916  28.325  27.633  1.00  0.00     0.074 A 
ATOM     50  C   UNL A   1      41.583  29.273  26.201  1.00  0.00     0.029 A 
ATOM     51  N   UNL A   1      41.830  29.466  28.415  1.00  0.00    -0.354 N 
ATOM     52  N   UNL A   1      46.453  28.792  28.749  1.00  0.00    -0.248 NA
ATOM     53  C   UNL A   1      46.543  29.059  26.416  1.00  0.00     0.031 C 
ATOM     54  C   UNL A   1      42.938  29.517  26.512  1.00  0.00     0.029 A 
ATOM     55  C   UNL A   1      43.097  29.554  27.902  1.00  0.00     0.049 A 
ATOM     56  H   UNL A   1      41.542  29.721  29.321  1.00  0.00     0.167 HD
ATOM     57  C   UNL A   1      45.443  29.611  28.315  1.00  0.00     0.074 A 
ATOM     58  C   UNL A   1      45.769  29.993  26.960  1.00  0.00     0.031 C 
ATOM     59  C   UNL A   1      44.196  29.460  28.828  1.00  0.00     0.031 A 
BRANCH  46  60
ATOM     60  C   UNL A   1      38.825  28.518  28.475  1.00  0.00    -0.014 A 
ATOM     61  C   UNL A   1      38.178  29.616  27.853  1.00  0.00     0.009 A 
ATOM     62  C   UNL A   1      38.463  28.232  29.794  1.00  0.00     0.009 A 
ATOM     63  C   UNL A   1      37.324  30.469  28.554  1.00  0.00     0.001 A 
ATOM     64  C   UNL A   1      37.571  29.066  30.488  1.00  0.00     0.001 A 
ATOM     65  C   UNL A   1      37.036  30.203  29.883  1.00  0.00     0.000 A 
ENDBRANCH  46  60
BRANCH  47  66
ATOM     66  C   UNL A   1      49.188  27.351  27.189  1.00  0.00    -0.014 A 
ATOM     67  C   UNL A   1      50.099  28.050  27.983  1.00  0.00     0.009 A 
ATOM     68  C   UNL A   1      49.728  26.808  25.986  1.00  0.00     0.009 A 
ATOM     69  C   UNL A   1      51.467  28.122  27.630  1.00  0.00     0.001 A 
ATOM     70  C   UNL A   1      51.083  26.839  25.651  1.00  0.00     0.001 A 
ATOM     71  C   UNL A   1      51.964  27.492  26.487  1.00  0.00     0.000 A 
ENDBRANCH  47  66
BRANCH  59  72
ATOM     72  C   UNL A   1      44.137  28.802  30.196  1.00  0.00    -0.014 A 
ATOM     73  C   UNL A   1      43.835  27.435  30.294  1.00  0.00     0.009 A 
ATOM     74  C   UNL A   1      44.260  29.522  31.400  1.00  0.00     0.009 A 
ATOM     75  C   UNL A   1      43.648  26.816  31.535  1.00  0.00     0.001 A 
ATOM     76  C   UNL A   1      44.074  28.904  32.646  1.00  0.00     0.001 A 
ATOM     77  C   UNL A   1      43.765  27.549  32.713  1.00  0.00     0.000 A 
ENDBRANCH  59  72
ENDBRANCH  33  34
ENDBRANCH  25  28
ENDBRANCH  23  24
ENDBRANCH  22  23
ENDBRANCH  21  22
ENDBRANCH   3  21
TORSDOF 15
ENDMDL
MODEL 2
REMARK VINA RESULT:     -10.3      4.423      8.702
REMARK SMILES CN(CC(N)=O)C(=O)Cn1cccc1C(=O)NCCCNC(=O)c1ccc(-c2c3nc(c(-c4ccccc4)c4ccc([nH]4)c(-c4ccccc4)c4nc(c(-c5ccccc5)c5ccc2[nH]5)C=C4)C=C3)cc1
REMARK SMILES IDX 15 1 16 2 17 3 14 5 10 6 11 7 12 8 13 9 9 10 7 11 8 12 2 13
REMARK SMILES IDX 1 14 3 15 4 16 5 17 6 18 18 21 19 22 20 23 21 24 22 25 23 27
REMARK SMILES IDX 24 28 25 29 71 30 26 31 70 32 27 33 28 34 29 35 64 36 30 37
REMARK SMILES IDX 69 38 63 39 65 40 31 41 68 42 62 43 61 44 32 46 54 47 39 48
REMARK SMILES IDX 53 49 40 50 43 51 52 52 66 53 41 54 42 55 51 57 67 58 44 59
REMARK SMILES IDX 33 60 34 61 38 62 35 63 37 64 36 65 55 66 56 67 60 68 57 69
REMARK SMILES IDX 59 70 58 71 45 72 46 73 50 74 47 75 49 76 48 77
REMARK H PARENT 17 4 5 19 5 20 21 26 65 45 43 56
REMARK Flexibility Score: inf
ROOT
ATOM      1  C   UNL A   1      34.500  21.677  26.414  1.00  0.00     0.267 C 
ATOM      2  O   UNL A   1      34.015  21.505  27.541  1.00  0.00    -0.268 OA
ATOM      3  N   UNL A   1      35.864  21.681  26.421  1.00  0.00    -0.351 N 
ATOM      4  H   UNL A   1      36.227  21.560  27.328  1.00  0.00     0.163 HD
ENDROOT
BRANCH   1   5
ATOM      5  C   UNL A   1      33.625  21.783  25.258  1.00  0.00     0.107 A 
ATOM      6  N   UNL A   1      33.095  22.840  24.533  1.00  0.00    -0.334 N 
ATOM      7  C   UNL A   1      32.160  22.330  23.636  1.00  0.00     0.087 A 
ATOM      8  C   UNL A   1      32.327  20.977  23.542  1.00  0.00     0.020 A 
ATOM      9  C   UNL A   1      33.282  20.644  24.515  1.00  0.00     0.033 A 
BRANCH   6  10
ATOM     10  C   UNL A   1      33.184  24.279  24.715  1.00  0.00     0.222 C 
BRANCH  10  11
ATOM     11  C   UNL A   1      32.044  25.271  24.564  1.00  0.00     0.242 C 
ATOM     12  O   UNL A   1      31.239  25.235  25.518  1.00  0.00    -0.273 OA
BRANCH  11  13
ATOM     13  N   UNL A   1      31.844  26.244  23.605  1.00  0.00    -0.335 N 
ATOM     14  C   UNL A   1      32.212  27.599  24.023  1.00  0.00     0.147 C 
BRANCH  13  15
ATOM     15  C   UNL A   1      31.373  26.158  22.216  1.00  0.00     0.218 C 
BRANCH  15  16
ATOM     16  C   UNL A   1      32.462  25.739  21.196  1.00  0.00     0.237 C 
ATOM     17  N   UNL A   1      32.060  25.579  19.901  1.00  0.00    -0.368 N 
ATOM     18  O   UNL A   1      33.653  25.604  21.464  1.00  0.00    -0.273 OA
ATOM     19  H   UNL A   1      31.110  25.683  19.664  1.00  0.00     0.159 HD
ATOM     20  H   UNL A   1      32.720  25.360  19.204  1.00  0.00     0.159 HD
ENDBRANCH  15  16
ENDBRANCH  13  15
ENDBRANCH  11  13
ENDBRANCH  10  11
ENDBRANCH   6  10
ENDBRANCH   1   5
BRANCH   3  21
ATOM     21  C   UNL A   1      36.914  21.818  25.435  1.00  0.00     0.118 C 
BRANCH  21  22
ATOM     22  C   UNL A   1      37.182  23.280  25.065  1.00  0.00     0.042 C 
BRANCH  22  23
ATOM     23  C   UNL A   1      37.879  24.095  26.161  1.00  0.00     0.118 C 
BRANCH  23  24
ATOM     24  N   UNL A   1      39.272  23.717  26.335  1.00  0.00    -0.352 N 
ATOM     25  C   UNL A   1      40.317  24.473  26.825  1.00  0.00     0.251 C 
ATOM     26  H   UNL A   1      39.500  22.798  26.068  1.00  0.00     0.163 HD
ATOM     27  O   UNL A   1      41.469  24.113  26.654  1.00  0.00    -0.269 OA
BRANCH  25  28
ATOM     28  C   UNL A   1      40.048  25.746  27.535  1.00  0.00     0.039 A 
ATOM     29  C   UNL A   1      39.323  25.703  28.731  1.00  0.00     0.014 A 
ATOM     30  C   UNL A   1      40.454  26.974  26.998  1.00  0.00     0.014 A 
ATOM     31  C   UNL A   1      39.083  26.881  29.432  1.00  0.00     0.010 A 
ATOM     32  C   UNL A   1      40.226  28.154  27.703  1.00  0.00     0.010 A 
ATOM     33  C   UNL A   1      39.568  28.103  28.938  1.00  0.00    -0.014 A 
BRANCH  33  34
ATOM     34  C   UNL A   1      39.577  29.271  29.854  1.00  0.00     0.031 A 
ATOM     35  C   UNL A   1      40.540  29.040  31.038  1.00  0.00     0.074 A 
ATOM     36  C   UNL A   1      38.728  30.309  29.580  1.00  0.00     0.049 A 
ATOM     37  N   UNL A   1      40.490  29.490  32.252  1.00  0.00    -0.248 NA
ATOM     38  C   UNL A   1      41.697  28.116  30.863  1.00  0.00     0.031 C 
ATOM     39  C   UNL A   1      37.916  30.429  28.349  1.00  0.00     0.029 A 
ATOM     40  N   UNL A   1      38.364  31.457  30.257  1.00  0.00    -0.354 N 
ATOM     41  C   UNL A   1      41.636  29.027  32.940  1.00  0.00     0.074 A 
ATOM     42  C   UNL A   1      42.301  28.121  32.053  1.00  0.00     0.031 C 
ATOM     43  C   UNL A   1      37.113  31.516  28.400  1.00  0.00     0.029 A 
ATOM     44  C   UNL A   1      37.310  32.203  29.662  1.00  0.00     0.049 A 
ATOM     45  H   UNL A   1      38.802  31.738  31.092  1.00  0.00     0.167 HD
ATOM     46  C   UNL A   1      42.024  29.504  34.161  1.00  0.00     0.031 A 
ATOM     47  C   UNL A   1      36.599  33.259  30.169  1.00  0.00     0.031 A 
ATOM     48  C   UNL A   1      41.045  30.404  34.664  1.00  0.00     0.049 A 
ATOM     49  C   UNL A   1      37.220  33.577  31.461  1.00  0.00     0.074 A 
ATOM     50  C   UNL A   1      39.778  30.226  35.151  1.00  0.00     0.029 A 
ATOM     51  N   UNL A   1      41.226  31.727  34.345  1.00  0.00    -0.354 N 
ATOM     52  N   UNL A   1      38.341  34.210  31.616  1.00  0.00    -0.248 NA
ATOM     53  C   UNL A   1      36.564  33.108  32.689  1.00  0.00     0.031 C 
ATOM     54  C   UNL A   1      39.077  31.332  34.626  1.00  0.00     0.029 A 
ATOM     55  C   UNL A   1      39.986  32.228  34.050  1.00  0.00     0.049 A 
ATOM     56  H   UNL A   1      42.079  32.218  34.330  1.00  0.00     0.167 HD
ATOM     57  C   UNL A   1      38.690  33.859  32.894  1.00  0.00     0.074 A 
ATOM     58  C   UNL A   1      37.465  33.512  33.579  1.00  0.00     0.031 C 
ATOM     59  C   UNL A   1      39.917  33.332  33.128  1.00  0.00     0.031 A 
BRANCH  46  60
ATOM     60  C   UNL A   1      43.340  29.454  34.890  1.00  0.00    -0.014 A 
ATOM     61  C   UNL A   1      43.304  29.157  36.278  1.00  0.00     0.009 A 
ATOM     62  C   UNL A   1      44.525  29.999  34.388  1.00  0.00     0.009 A 
ATOM     63  C   UNL A   1      44.340  29.518  37.141  1.00  0.00     0.001 A 
ATOM     64  C   UNL A   1      45.584  30.324  35.250  1.00  0.00     0.001 A 
ATOM     65  C   UNL A   1      45.476  30.123  36.626  1.00  0.00     0.000 A 
ENDBRANCH  46  60
BRANCH  47  66
ATOM     66  C   UNL A   1      35.375  34.078  29.834  1.00  0.00    -0.014 A 
ATOM     67  C   UNL A   1      34.886  34.358  28.556  1.00  0.00     0.009 A 
ATOM     68  C   UNL A   1      34.604  34.620  30.905  1.00  0.00     0.009 A 
ATOM     69  C   UNL A   1      33.669  35.056  28.378  1.00  0.00     0.001 A 
ATOM     70  C   UNL A   1      33.382  35.274  30.739  1.00  0.00     0.001 A 
ATOM     71  C   UNL A   1      32.903  35.484  29.464  1.00  0.00     0.000 A 
ENDBRANCH  47  66
BRANCH  59  72
ATOM     72  C   UNL A   1      40.976  33.680  32.096  1.00  0.00    -0.014 A 
ATOM     73  C   UNL A   1      41.740  34.847  32.255  1.00  0.00     0.009 A 
ATOM     74  C   UNL A   1      41.161  32.947  30.908  1.00  0.00     0.009 A 
ATOM     75  C   UNL A   1      42.637  35.273  31.268  1.00  0.00     0.001 A 
ATOM     76  C   UNL A   1      42.061  33.370  29.917  1.00  0.00     0.001 A 
ATOM     77  C   UNL A   1      42.798  34.536  30.098  1.00  0.00     0.000 A 
ENDBRANCH  59  72
ENDBRANCH  33  34
ENDBRANCH  25  28
ENDBRANCH  23  24
ENDBRANCH  22  23
ENDBRANCH  21  22
ENDBRANCH   3  21
TORSDOF 15
ENDMDL
MODEL 3
REMARK VINA RESULT:     -10.3      3.857      6.319
REMARK SMILES CN(CC(N)=O)C(=O)Cn1cccc1C(=O)NCCCNC(=O)c1ccc(-c2c3nc(c(-c4ccccc4)c4ccc([nH]4)c(-c4ccccc4)c4nc(c(-c5ccccc5)c5ccc2[nH]5)C=C4)C=C3)cc1
REMARK SMILES IDX 15 1 16 2 17 3 14 5 10 6 11 7 12 8 13 9 9 10 7 11 8 12 2 13
REMARK SMILES IDX 1 14 3 15 4 16 5 17 6 18 18 21 19 22 20 23 21 24 22 25 23 27
REMARK SMILES IDX 24 28 25 29 71 30 26 31 70 32 27 33 28 34 29 35 64 36 30 37
REMARK SMILES IDX 69 38 63 39 65 40 31 41 68 42 62 43 61 44 32 46 54 47 39 48
REMARK SMILES IDX 53 49 40 50 43 51 52 52 66 53 41 54 42 55 51 57 67 58 44 59
REMARK SMILES IDX 33 60 34 61 38 62 35 63 37 64 36 65 55 66 56 67 60 68 57 69
REMARK SMILES IDX 59 70 58 71 45 72 46 73 50 74 47 75 49 76 48 77
REMARK H PARENT 17 4 5 19 5 20 21 26 65 45 43 56
REMARK Flexibility Score: inf
ROOT
ATOM      1  C   UNL A   1      34.391  24.290  23.711  1.00  0.00     0.267 C 
ATOM      2  O   UNL A   1      34.375  24.864  22.613  1.00  0.00    -0.268 OA
ATOM      3  N   UNL A   1      35.459  23.453  23.854  1.00  0.00    -0.351 N 
ATOM      4  H   UNL A   1      36.026  23.441  23.049  1.00  0.00     0.163 HD
ENDROOT
BRANCH   1   5
ATOM      5  C   UNL A   1      33.372  24.595  24.703  1.00  0.00     0.107 A 
ATOM      6  N   UNL A   1      32.244  23.940  25.173  1.00  0.00    -0.334 N 
ATOM      7  C   UNL A   1      31.543  24.813  25.999  1.00  0.00     0.087 A 
ATOM      8  C   UNL A   1      32.354  25.864  26.324  1.00  0.00     0.020 A 
ATOM      9  C   UNL A   1      33.518  25.697  25.559  1.00  0.00     0.033 A 
BRANCH   6  10
ATOM     10  C   UNL A   1      31.622  22.686  24.782  1.00  0.00     0.222 C 
BRANCH  10  11
ATOM     11  C   UNL A   1      32.336  21.470  24.219  1.00  0.00     0.242 C 
ATOM     12  O   UNL A   1      32.335  21.440  22.970  1.00  0.00    -0.273 OA
BRANCH  11  13
ATOM     13  N   UNL A   1      33.052  20.487  24.873  1.00  0.00    -0.335 N 
ATOM     14  C   UNL A   1      33.307  20.757  26.290  1.00  0.00     0.147 C 
BRANCH  13  15
ATOM     15  C   UNL A   1      33.564  19.189  24.414  1.00  0.00     0.218 C 
BRANCH  15  16
ATOM     16  C   UNL A   1      32.479  18.095  24.252  1.00  0.00     0.237 C 
ATOM     17  N   UNL A   1      32.144  17.747  22.975  1.00  0.00    -0.368 N 
ATOM     18  O   UNL A   1      31.955  17.489  25.184  1.00  0.00    -0.273 OA
ATOM     19  H   UNL A   1      32.553  18.220  22.213  1.00  0.00     0.159 HD
ATOM     20  H   UNL A   1      31.495  17.024  22.815  1.00  0.00     0.159 HD
ENDBRANCH  15  16
ENDBRANCH  13  15
ENDBRANCH  11  13
ENDBRANCH  10  11
ENDBRANCH   6  10
ENDBRANCH   1   5
BRANCH   3  21
ATOM     21  C   UNL A   1      35.971  22.579  24.887  1.00  0.00     0.118 C 
BRANCH  21  22
ATOM     22  C   UNL A   1      36.533  23.354  26.083  1.00  0.00     0.042 C 
BRANCH  22  23
ATOM     23  C   UNL A   1      37.743  24.236  25.757  1.00  0.00     0.118 C 
BRANCH  23  24
ATOM     24  N   UNL A   1      39.000  23.630  26.163  1.00  0.00    -0.352 N 
ATOM     25  C   UNL A   1      40.071  24.212  26.808  1.00  0.00     0.251 C 
ATOM     26  H   UNL A   1      39.101  22.674  25.949  1.00  0.00     0.163 HD
ATOM     27  O   UNL A   1      41.153  23.650  26.834  1.00  0.00    -0.269 OA
BRANCH  25  28
ATOM     28  C   UNL A   1      39.924  25.541  27.447  1.00  0.00     0.039 A 
ATOM     29  C   UNL A   1      39.329  25.612  28.712  1.00  0.00     0.014 A 
ATOM     30  C   UNL A   1      40.314  26.711  26.783  1.00  0.00     0.014 A 
ATOM     31  C   UNL A   1      39.206  26.845  29.346  1.00  0.00     0.010 A 
ATOM     32  C   UNL A   1      40.204  27.945  27.420  1.00  0.00     0.010 A 
ATOM     33  C   UNL A   1      39.679  28.008  28.716  1.00  0.00    -0.014 A 
BRANCH  33  34
ATOM     34  C   UNL A   1      39.826  29.235  29.539  1.00  0.00     0.031 A 
ATOM     35  C   UNL A   1      38.618  30.176  29.352  1.00  0.00     0.074 A 
ATOM     36  C   UNL A   1      40.979  29.390  30.259  1.00  0.00     0.049 A 
ATOM     37  N   UNL A   1      38.549  31.469  29.428  1.00  0.00    -0.248 NA
ATOM     38  C   UNL A   1      37.302  29.599  28.955  1.00  0.00     0.031 C 
ATOM     39  C   UNL A   1      42.023  28.352  30.410  1.00  0.00     0.029 A 
ATOM     40  N   UNL A   1      41.518  30.426  30.999  1.00  0.00    -0.354 N 
ATOM     41  C   UNL A   1      37.202  31.850  29.221  1.00  0.00     0.074 A 
ATOM     42  C   UNL A   1      36.497  30.659  28.857  1.00  0.00     0.031 C 
ATOM     43  C   UNL A   1      43.082  28.826  31.106  1.00  0.00     0.029 A 
ATOM     44  C   UNL A   1      42.842  30.209  31.469  1.00  0.00     0.049 A 
ATOM     45  H   UNL A   1      41.021  31.254  31.187  1.00  0.00     0.167 HD
ATOM     46  C   UNL A   1      36.732  33.109  29.470  1.00  0.00     0.031 A 
ATOM     47  C   UNL A   1      43.712  31.093  32.052  1.00  0.00     0.031 A 
ATOM     48  C   UNL A   1      37.807  33.969  29.821  1.00  0.00     0.049 A 
ATOM     49  C   UNL A   1      42.962  32.344  32.217  1.00  0.00     0.074 A 
ATOM     50  C   UNL A   1      38.840  34.511  29.103  1.00  0.00     0.029 A 
ATOM     51  N   UNL A   1      38.091  34.059  31.161  1.00  0.00    -0.354 N 
ATOM     52  N   UNL A   1      42.069  32.565  33.130  1.00  0.00    -0.248 NA
ATOM     53  C   UNL A   1      43.187  33.429  31.252  1.00  0.00     0.031 C 
ATOM     54  C   UNL A   1      39.925  34.435  30.001  1.00  0.00     0.029 A 
ATOM     55  C   UNL A   1      39.457  34.071  31.268  1.00  0.00     0.049 A 
ATOM     56  H   UNL A   1      37.441  34.105  31.899  1.00  0.00     0.167 HD
ATOM     57  C   UNL A   1      41.380  33.625  32.601  1.00  0.00     0.074 A 
ATOM     58  C   UNL A   1      42.283  34.298  31.694  1.00  0.00     0.031 C 
ATOM     59  C   UNL A   1      40.031  33.551  32.482  1.00  0.00     0.031 A 
BRANCH  46  60
ATOM     60  C   UNL A   1      35.339  33.639  29.683  1.00  0.00    -0.014 A 
ATOM     61  C   UNL A   1      34.572  33.938  28.528  1.00  0.00     0.009 A 
ATOM     62  C   UNL A   1      34.889  34.165  30.898  1.00  0.00     0.009 A 
ATOM     63  C   UNL A   1      33.498  34.829  28.560  1.00  0.00     0.001 A 
ATOM     64  C   UNL A   1      33.783  35.029  30.937  1.00  0.00     0.001 A 
ATOM     65  C   UNL A   1      33.116  35.393  29.767  1.00  0.00     0.000 A 
ENDBRANCH  46  60
BRANCH  47  66
ATOM     66  C   UNL A   1      45.165  31.164  32.462  1.00  0.00    -0.014 A 
ATOM     67  C   UNL A   1      46.239  30.539  31.826  1.00  0.00     0.009 A 
ATOM     68  C   UNL A   1      45.513  31.953  33.598  1.00  0.00     0.009 A 
ATOM     69  C   UNL A   1      47.570  30.765  32.252  1.00  0.00     0.001 A 
ATOM     70  C   UNL A   1      46.824  32.213  34.000  1.00  0.00     0.001 A 
ATOM     71  C   UNL A   1      47.864  31.623  33.313  1.00  0.00     0.000 A 
ENDBRANCH  47  66
BRANCH  59  72
ATOM     72  C   UNL A   1      39.355  32.569  33.423  1.00  0.00    -0.014 A 
ATOM     73  C   UNL A   1      39.173  32.916  34.771  1.00  0.00     0.009 A 
ATOM     74  C   UNL A   1      38.995  31.262  33.041  1.00  0.00     0.009 A 
ATOM     75  C   UNL A   1      38.670  31.998  35.700  1.00  0.00     0.001 A 
ATOM     76  C   UNL A   1      38.488  30.339  33.970  1.00  0.00     0.001 A 
ATOM     77  C   UNL A   1      38.328  30.708  35.302  1.00  0.00     0.000 A 
ENDBRANCH  59  72
ENDBRANCH  33  34
ENDBRANCH  25  28
ENDBRANCH  23  24
ENDBRANCH  22  23
ENDBRANCH  21  22
ENDBRANCH   3  21
TORSDOF 15
ENDMDL
