MODEL 1
REMARK VINA RESULT:     -11.5      0.000      0.000
REMARK SMILES O=C(Cc1ccc(NC(=O)Nc2ccc(Br)cc2)cc1)NCCCNC(=O)c1ccc(-c2c3nc(c(-c4ccccc4)c4ccc([nH]4)c(-c4ccccc4)c4nc(c(-c5ccccc5)c5ccc2[nH]5)C=C4)C=C3)cc1
REMARK SMILES IDX 22 1 21 2 1 3 2 4 3 6 4 7 5 8 20 9 6 10 19 11 7 12 8 13 9 14
REMARK SMILES IDX 10 16 11 17 12 19 13 20 18 21 14 22 17 23 15 24 16 25 23 26
REMARK SMILES IDX 24 27 25 28 26 29 27 31 28 32 29 33 75 34 30 35 74 36 31 37
REMARK SMILES IDX 32 38 33 39 68 40 34 41 73 42 67 43 69 44 35 45 72 46 66 47
REMARK SMILES IDX 65 48 36 50 58 51 43 52 57 53 44 54 47 55 56 56 70 57 45 58
REMARK SMILES IDX 46 59 55 61 71 62 48 63 37 64 38 65 42 66 39 67 41 68 40 69
REMARK SMILES IDX 59 70 60 71 64 72 61 73 63 74 62 75 49 76 50 77 54 78 51 79
REMARK SMILES IDX 53 80 52 81
REMARK H PARENT 21 5 8 15 11 18 25 30 69 49 47 60
REMARK Flexibility Score: inf
ROOT
ATOM      1  C   UNL A   1      35.989  20.801  25.172  1.00  0.00     0.117 C 
ENDROOT
BRANCH   1   2
ATOM      2  N   UNL A   1      34.929  21.353  24.348  1.00  0.00    -0.356 N 
ATOM      3  O   UNL A   1      33.329  19.869  25.080  1.00  0.00    -0.275 OA
ATOM      4  C   UNL A   1      33.627  20.883  24.453  1.00  0.00     0.224 C 
ATOM      5  H   UNL A   1      35.135  22.070  23.706  1.00  0.00     0.163 HD
BRANCH   4   6
ATOM      6  C   UNL A   1      32.570  21.753  23.787  1.00  0.00     0.135 C 
BRANCH   6   7
ATOM      7  C   UNL A   1      31.961  22.821  24.675  1.00  0.00    -0.039 A 
ATOM      8  C   UNL A   1      32.429  23.086  25.966  1.00  0.00     0.006 A 
ATOM      9  C   UNL A   1      30.896  23.596  24.185  1.00  0.00     0.006 A 
ATOM     10  C   UNL A   1      31.948  24.183  26.683  1.00  0.00     0.026 A 
ATOM     11  C   UNL A   1      30.393  24.683  24.917  1.00  0.00     0.026 A 
ATOM     12  C   UNL A   1      30.990  25.032  26.127  1.00  0.00     0.042 A 
BRANCH  12  13
ATOM     13  N   UNL A   1      30.654  26.266  26.724  1.00  0.00    -0.308 N 
ATOM     14  C   UNL A   1      31.470  27.350  26.930  1.00  0.00     0.323 C 
ATOM     15  H   UNL A   1      29.724  26.360  27.031  1.00  0.00     0.171 HD
ATOM     16  O   UNL A   1      31.254  28.120  27.865  1.00  0.00    -0.248 OA
ATOM     17  N   UNL A   1      32.525  27.571  26.083  1.00  0.00    -0.308 N 
ATOM     18  H   UNL A   1      33.313  28.012  26.475  1.00  0.00     0.171 HD
BRANCH  17  19
ATOM     19  C   UNL A   1      32.611  27.242  24.715  1.00  0.00     0.042 A 
ATOM     20  C   UNL A   1      33.621  26.373  24.295  1.00  0.00     0.027 A 
ATOM     21  C   UNL A   1      31.678  27.716  23.787  1.00  0.00     0.027 A 
ATOM     22  C   UNL A   1      33.607  25.878  22.987  1.00  0.00     0.018 A 
ATOM     23  C   UNL A   1      31.674  27.237  22.478  1.00  0.00     0.018 A 
ATOM     24  C   UNL A   1      32.620  26.295  22.094  1.00  0.00     0.018 A 
ATOM     25  Br  UNL A   1      32.529  25.562  20.357  1.00  0.00    -0.051 Br
ENDBRANCH  17  19
ENDBRANCH  12  13
ENDBRANCH   6   7
ENDBRANCH   4   6
ENDBRANCH   1   2
BRANCH   1  26
ATOM     26  C   UNL A   1      37.405  21.053  24.660  1.00  0.00     0.042 C 
BRANCH  26  27
ATOM     27  C   UNL A   1      38.511  21.058  25.712  1.00  0.00     0.118 C 
BRANCH  27  28
ATOM     28  N   UNL A   1      39.459  19.960  25.589  1.00  0.00    -0.352 N 
ATOM     29  C   UNL A   1      40.764  19.877  26.015  1.00  0.00     0.251 C 
ATOM     30  H   UNL A   1      39.115  19.157  25.135  1.00  0.00     0.163 HD
ATOM     31  O   UNL A   1      41.396  18.839  25.832  1.00  0.00    -0.269 OA
BRANCH  29  32
ATOM     32  C   UNL A   1      41.432  21.052  26.611  1.00  0.00     0.039 A 
ATOM     33  C   UNL A   1      42.068  21.950  25.747  1.00  0.00     0.014 A 
ATOM     34  C   UNL A   1      41.400  21.303  27.984  1.00  0.00     0.014 A 
ATOM     35  C   UNL A   1      42.572  23.154  26.243  1.00  0.00     0.010 A 
ATOM     36  C   UNL A   1      41.868  22.524  28.475  1.00  0.00     0.010 A 
ATOM     37  C   UNL A   1      42.423  23.473  27.602  1.00  0.00    -0.014 A 
BRANCH  37  38
ATOM     38  C   UNL A   1      42.737  24.837  28.098  1.00  0.00     0.031 A 
ATOM     39  C   UNL A   1      44.123  25.207  28.534  1.00  0.00     0.074 A 
ATOM     40  C   UNL A   1      41.734  25.728  28.222  1.00  0.00     0.049 A 
ATOM     41  N   UNL A   1      44.549  26.336  29.042  1.00  0.00    -0.248 NA
ATOM     42  C   UNL A   1      45.160  24.175  28.395  1.00  0.00     0.031 C 
ATOM     43  C   UNL A   1      40.334  25.483  27.864  1.00  0.00     0.029 A 
ATOM     44  N   UNL A   1      41.735  27.016  28.695  1.00  0.00    -0.354 N 
ATOM     45  C   UNL A   1      45.902  26.152  29.288  1.00  0.00     0.074 A 
ATOM     46  C   UNL A   1      46.218  24.791  28.905  1.00  0.00     0.031 C 
ATOM     47  C   UNL A   1      39.617  26.590  28.116  1.00  0.00     0.029 A 
ATOM     48  C   UNL A   1      40.494  27.606  28.686  1.00  0.00     0.049 A 
ATOM     49  H   UNL A   1      42.547  27.475  29.010  1.00  0.00     0.167 HD
ATOM     50  C   UNL A   1      46.802  27.038  29.779  1.00  0.00     0.031 A 
ATOM     51  C   UNL A   1      40.099  28.824  29.101  1.00  0.00     0.031 A 
ATOM     52  C   UNL A   1      46.492  28.389  30.167  1.00  0.00     0.049 A 
ATOM     53  C   UNL A   1      41.110  29.772  29.678  1.00  0.00     0.074 A 
ATOM     54  C   UNL A   1      47.352  29.374  30.624  1.00  0.00     0.029 A 
ATOM     55  N   UNL A   1      45.222  28.944  30.154  1.00  0.00    -0.354 N 
ATOM     56  N   UNL A   1      42.398  29.603  29.844  1.00  0.00    -0.248 NA
ATOM     57  C   UNL A   1      40.609  31.080  30.125  1.00  0.00     0.031 C 
ATOM     58  C   UNL A   1      46.595  30.509  30.932  1.00  0.00     0.029 A 
ATOM     59  C   UNL A   1      45.271  30.247  30.624  1.00  0.00     0.049 A 
ATOM     60  H   UNL A   1      44.406  28.481  29.856  1.00  0.00     0.167 HD
ATOM     61  C   UNL A   1      42.867  30.788  30.393  1.00  0.00     0.074 A 
ATOM     62  C   UNL A   1      41.727  31.674  30.521  1.00  0.00     0.031 C 
ATOM     63  C   UNL A   1      44.130  31.114  30.757  1.00  0.00     0.031 A 
BRANCH  50  64
ATOM     64  C   UNL A   1      48.218  26.565  29.939  1.00  0.00    -0.014 A 
ATOM     65  C   UNL A   1      48.633  25.907  31.107  1.00  0.00     0.009 A 
ATOM     66  C   UNL A   1      49.135  26.738  28.891  1.00  0.00     0.009 A 
ATOM     67  C   UNL A   1      49.950  25.459  31.234  1.00  0.00     0.001 A 
ATOM     68  C   UNL A   1      50.444  26.268  29.012  1.00  0.00     0.001 A 
ATOM     69  C   UNL A   1      50.852  25.637  30.186  1.00  0.00     0.000 A 
ENDBRANCH  50  64
BRANCH  51  70
ATOM     70  C   UNL A   1      38.674  29.220  28.986  1.00  0.00    -0.014 A 
ATOM     71  C   UNL A   1      37.813  29.100  30.087  1.00  0.00     0.009 A 
ATOM     72  C   UNL A   1      38.167  29.717  27.775  1.00  0.00     0.009 A 
ATOM     73  C   UNL A   1      36.466  29.448  29.971  1.00  0.00     0.001 A 
ATOM     74  C   UNL A   1      36.825  30.087  27.669  1.00  0.00     0.001 A 
ATOM     75  C   UNL A   1      35.975  29.945  28.764  1.00  0.00     0.000 A 
ENDBRANCH  51  70
BRANCH  63  76
ATOM     76  C   UNL A   1      44.348  32.492  31.313  1.00  0.00    -0.014 A 
ATOM     77  C   UNL A   1      44.623  33.578  30.469  1.00  0.00     0.009 A 
ATOM     78  C   UNL A   1      44.246  32.711  32.696  1.00  0.00     0.009 A 
ATOM     79  C   UNL A   1      44.817  34.854  31.002  1.00  0.00     0.001 A 
ATOM     80  C   UNL A   1      44.417  33.991  33.224  1.00  0.00     0.001 A 
ATOM     81  C   UNL A   1      44.710  35.060  32.378  1.00  0.00     0.000 A 
ENDBRANCH  63  76
ENDBRANCH  37  38
ENDBRANCH  29  32
ENDBRANCH  27  28
ENDBRANCH  26  27
ENDBRANCH   1  26
TORSDOF 13
ENDMDL
MODEL 2
REMARK VINA RESULT:     -11.5      0.398      5.895
REMARK SMILES O=C(Cc1ccc(NC(=O)Nc2ccc(Br)cc2)cc1)NCCCNC(=O)c1ccc(-c2c3nc(c(-c4ccccc4)c4ccc([nH]4)c(-c4ccccc4)c4nc(c(-c5ccccc5)c5ccc2[nH]5)C=C4)C=C3)cc1
REMARK SMILES IDX 22 1 21 2 1 3 2 4 3 6 4 7 5 8 20 9 6 10 19 11 7 12 8 13 9 14
REMARK SMILES IDX 10 16 11 17 12 19 13 20 18 21 14 22 17 23 15 24 16 25 23 26
REMARK SMILES IDX 24 27 25 28 26 29 27 31 28 32 29 33 75 34 30 35 74 36 31 37
REMARK SMILES IDX 32 38 33 39 68 40 34 41 73 42 67 43 69 44 35 45 72 46 66 47
REMARK SMILES IDX 65 48 36 50 58 51 43 52 57 53 44 54 47 55 56 56 70 57 45 58
REMARK SMILES IDX 46 59 55 61 71 62 48 63 37 64 38 65 42 66 39 67 41 68 40 69
REMARK SMILES IDX 59 70 60 71 64 72 61 73 63 74 62 75 49 76 50 77 54 78 51 79
REMARK SMILES IDX 53 80 52 81
REMARK H PARENT 21 5 8 15 11 18 25 30 69 49 47 60
REMARK Flexibility Score: inf
ROOT
ATOM      1  C   UNL A   1      36.000  21.117  25.377  1.00  0.00     0.117 C 
ENDROOT
BRANCH   1   2
ATOM      2  N   UNL A   1      34.925  21.612  24.536  1.00  0.00    -0.356 N 
ATOM      3  O   UNL A   1      33.574  19.776  24.858  1.00  0.00    -0.275 OA
ATOM      4  C   UNL A   1      33.729  20.917  24.428  1.00  0.00     0.224 C 
ATOM      5  H   UNL A   1      35.045  22.451  24.036  1.00  0.00     0.163 HD
BRANCH   4   6
ATOM      6  C   UNL A   1      32.585  21.694  23.791  1.00  0.00     0.135 C 
BRANCH   6   7
ATOM      7  C   UNL A   1      31.966  22.766  24.669  1.00  0.00    -0.039 A 
ATOM      8  C   UNL A   1      32.400  23.015  25.975  1.00  0.00     0.006 A 
ATOM      9  C   UNL A   1      30.928  23.561  24.153  1.00  0.00     0.006 A 
ATOM     10  C   UNL A   1      31.915  24.115  26.684  1.00  0.00     0.026 A 
ATOM     11  C   UNL A   1      30.421  24.650  24.878  1.00  0.00     0.026 A 
ATOM     12  C   UNL A   1      30.987  24.982  26.107  1.00  0.00     0.042 A 
BRANCH  12  13
ATOM     13  N   UNL A   1      30.653  26.217  26.703  1.00  0.00    -0.308 N 
ATOM     14  C   UNL A   1      31.476  27.292  26.928  1.00  0.00     0.323 C 
ATOM     15  H   UNL A   1      29.718  26.320  26.993  1.00  0.00     0.171 HD
ATOM     16  O   UNL A   1      31.251  28.061  27.862  1.00  0.00    -0.248 OA
ATOM     17  N   UNL A   1      32.549  27.506  26.101  1.00  0.00    -0.308 N 
ATOM     18  H   UNL A   1      33.334  27.937  26.510  1.00  0.00     0.171 HD
BRANCH  17  19
ATOM     19  C   UNL A   1      32.657  27.180  24.734  1.00  0.00     0.042 A 
ATOM     20  C   UNL A   1      33.656  26.292  24.331  1.00  0.00     0.027 A 
ATOM     21  C   UNL A   1      31.754  27.680  23.788  1.00  0.00     0.027 A 
ATOM     22  C   UNL A   1      33.659  25.803  23.020  1.00  0.00     0.018 A 
ATOM     23  C   UNL A   1      31.768  27.206  22.477  1.00  0.00     0.018 A 
ATOM     24  C   UNL A   1      32.700  26.245  22.109  1.00  0.00     0.018 A 
ATOM     25  Br  UNL A   1      32.631  25.522  20.367  1.00  0.00    -0.051 Br
ENDBRANCH  17  19
ENDBRANCH  12  13
ENDBRANCH   6   7
ENDBRANCH   4   6
ENDBRANCH   1   2
BRANCH   1  26
ATOM     26  C   UNL A   1      37.388  21.155  24.742  1.00  0.00     0.042 C 
BRANCH  26  27
ATOM     27  C   UNL A   1      38.569  21.203  25.707  1.00  0.00     0.118 C 
BRANCH  27  28
ATOM     28  N   UNL A   1      39.494  20.086  25.578  1.00  0.00    -0.352 N 
ATOM     29  C   UNL A   1      40.794  19.969  26.011  1.00  0.00     0.251 C 
ATOM     30  H   UNL A   1      39.137  19.297  25.111  1.00  0.00     0.163 HD
ATOM     31  O   UNL A   1      41.405  18.921  25.820  1.00  0.00    -0.269 OA
BRANCH  29  32
ATOM     32  C   UNL A   1      41.483  21.123  26.627  1.00  0.00     0.039 A 
ATOM     33  C   UNL A   1      42.073  22.062  25.775  1.00  0.00     0.014 A 
ATOM     34  C   UNL A   1      41.513  21.314  28.010  1.00  0.00     0.014 A 
ATOM     35  C   UNL A   1      42.594  23.247  26.299  1.00  0.00     0.010 A 
ATOM     36  C   UNL A   1      41.997  22.516  28.531  1.00  0.00     0.010 A 
ATOM     37  C   UNL A   1      42.506  23.506  27.676  1.00  0.00    -0.014 A 
BRANCH  37  38
ATOM     38  C   UNL A   1      42.835  24.849  28.217  1.00  0.00     0.031 A 
ATOM     39  C   UNL A   1      41.775  25.892  28.408  1.00  0.00     0.074 A 
ATOM     40  C   UNL A   1      44.124  25.148  28.469  1.00  0.00     0.049 A 
ATOM     41  N   UNL A   1      41.906  27.129  28.818  1.00  0.00    -0.248 NA
ATOM     42  C   UNL A   1      40.395  25.503  28.087  1.00  0.00     0.031 C 
ATOM     43  C   UNL A   1      45.256  24.233  28.295  1.00  0.00     0.029 A 
ATOM     44  N   UNL A   1      44.703  26.309  28.915  1.00  0.00    -0.354 N 
ATOM     45  C   UNL A   1      40.628  27.669  28.800  1.00  0.00     0.074 A 
ATOM     46  C   UNL A   1      39.741  26.636  28.307  1.00  0.00     0.031 C 
ATOM     47  C   UNL A   1      46.388  24.864  28.644  1.00  0.00     0.029 A 
ATOM     48  C   UNL A   1      46.069  26.234  29.031  1.00  0.00     0.049 A 
ATOM     49  H   UNL A   1      44.187  27.120  29.133  1.00  0.00     0.167 HD
ATOM     50  C   UNL A   1      40.228  28.910  29.170  1.00  0.00     0.031 A 
ATOM     51  C   UNL A   1      46.972  27.165  29.393  1.00  0.00     0.031 A 
ATOM     52  C   UNL A   1      41.106  29.943  29.654  1.00  0.00     0.049 A 
ATOM     53  C   UNL A   1      46.505  28.544  29.760  1.00  0.00     0.074 A 
ATOM     54  C   UNL A   1      40.780  31.211  30.103  1.00  0.00     0.029 A 
ATOM     55  N   UNL A   1      42.485  29.831  29.744  1.00  0.00    -0.354 N 
ATOM     56  N   UNL A   1      45.285  29.017  29.799  1.00  0.00    -0.248 NA
ATOM     57  C   UNL A   1      47.544  29.515  30.133  1.00  0.00     0.031 C 
ATOM     58  C   UNL A   1      41.965  31.883  30.420  1.00  0.00     0.029 A 
ATOM     59  C   UNL A   1      43.026  31.018  30.212  1.00  0.00     0.049 A 
ATOM     60  H   UNL A   1      43.003  29.027  29.510  1.00  0.00     0.167 HD
ATOM     61  C   UNL A   1      45.404  30.334  30.221  1.00  0.00     0.074 A 
ATOM     62  C   UNL A   1      46.816  30.580  30.438  1.00  0.00     0.031 C 
ATOM     63  C   UNL A   1      44.431  31.255  30.413  1.00  0.00     0.031 A 
BRANCH  50  64
ATOM     64  C   UNL A   1      38.765  29.226  29.051  1.00  0.00    -0.014 A 
ATOM     65  C   UNL A   1      37.904  29.092  30.151  1.00  0.00     0.009 A 
ATOM     66  C   UNL A   1      38.250  29.705  27.837  1.00  0.00     0.009 A 
ATOM     67  C   UNL A   1      36.549  29.403  30.029  1.00  0.00     0.001 A 
ATOM     68  C   UNL A   1      36.899  30.037  27.724  1.00  0.00     0.001 A 
ATOM     69  C   UNL A   1      36.048  29.878  28.818  1.00  0.00     0.000 A 
ENDBRANCH  50  64
BRANCH  51  70
ATOM     70  C   UNL A   1      48.415  26.823  29.429  1.00  0.00    -0.014 A 
ATOM     71  C   UNL A   1      48.989  26.283  30.589  1.00  0.00     0.009 A 
ATOM     72  C   UNL A   1      49.227  27.040  28.305  1.00  0.00     0.009 A 
ATOM     73  C   UNL A   1      50.352  25.986  30.631  1.00  0.00     0.001 A 
ATOM     74  C   UNL A   1      50.586  26.719  28.342  1.00  0.00     0.001 A 
ATOM     75  C   UNL A   1      51.148  26.200  29.506  1.00  0.00     0.000 A 
ENDBRANCH  51  70
BRANCH  63  76
ATOM     76  C   UNL A   1      44.857  32.611  30.898  1.00  0.00    -0.014 A 
ATOM     77  C   UNL A   1      44.976  32.885  32.269  1.00  0.00     0.009 A 
ATOM     78  C   UNL A   1      45.175  33.616  29.970  1.00  0.00     0.009 A 
ATOM     79  C   UNL A   1      45.381  34.150  32.702  1.00  0.00     0.001 A 
ATOM     80  C   UNL A   1      45.601  34.871  30.406  1.00  0.00     0.001 A 
ATOM     81  C   UNL A   1      45.696  35.140  31.771  1.00  0.00     0.000 A 
ENDBRANCH  63  76
ENDBRANCH  37  38
ENDBRANCH  29  32
ENDBRANCH  27  28
ENDBRANCH  26  27
ENDBRANCH   1  26
TORSDOF 13
ENDMDL
MODEL 3
REMARK VINA RESULT:     -11.4      1.894      2.715
REMARK SMILES O=C(Cc1ccc(NC(=O)Nc2ccc(Br)cc2)cc1)NCCCNC(=O)c1ccc(-c2c3nc(c(-c4ccccc4)c4ccc([nH]4)c(-c4ccccc4)c4nc(c(-c5ccccc5)c5ccc2[nH]5)C=C4)C=C3)cc1
REMARK SMILES IDX 22 1 21 2 1 3 2 4 3 6 4 7 5 8 20 9 6 10 19 11 7 12 8 13 9 14
REMARK SMILES IDX 10 16 11 17 12 19 13 20 18 21 14 22 17 23 15 24 16 25 23 26
REMARK SMILES IDX 24 27 25 28 26 29 27 31 28 32 29 33 75 34 30 35 74 36 31 37
REMARK SMILES IDX 32 38 33 39 68 40 34 41 73 42 67 43 69 44 35 45 72 46 66 47
REMARK SMILES IDX 65 48 36 50 58 51 43 52 57 53 44 54 47 55 56 56 70 57 45 58
REMARK SMILES IDX 46 59 55 61 71 62 48 63 37 64 38 65 42 66 39 67 41 68 40 69
REMARK SMILES IDX 59 70 60 71 64 72 61 73 63 74 62 75 49 76 50 77 54 78 51 79
REMARK SMILES IDX 53 80 52 81
REMARK H PARENT 21 5 8 15 11 18 25 30 69 49 47 60
REMARK Flexibility Score: inf
ROOT
ATOM      1  C   UNL A   1      39.576  21.415  26.126  1.00  0.00     0.117 C 
ENDROOT
BRANCH   1   2
ATOM      2  N   UNL A   1      38.325  21.787  25.492  1.00  0.00    -0.356 N 
ATOM      3  O   UNL A   1      38.203  23.848  26.509  1.00  0.00    -0.275 OA
ATOM      4  C   UNL A   1      37.784  23.052  25.672  1.00  0.00     0.224 C 
ATOM      5  H   UNL A   1      37.853  21.134  24.926  1.00  0.00     0.163 HD
BRANCH   4   6
ATOM      6  C   UNL A   1      36.664  23.420  24.708  1.00  0.00     0.135 C 
BRANCH   6   7
ATOM      7  C   UNL A   1      35.279  22.959  25.123  1.00  0.00    -0.039 A 
ATOM      8  C   UNL A   1      34.920  22.756  26.459  1.00  0.00     0.006 A 
ATOM      9  C   UNL A   1      34.303  22.744  24.134  1.00  0.00     0.006 A 
ATOM     10  C   UNL A   1      33.593  22.492  26.803  1.00  0.00     0.026 A 
ATOM     11  C   UNL A   1      32.975  22.450  24.480  1.00  0.00     0.026 A 
ATOM     12  C   UNL A   1      32.604  22.420  25.822  1.00  0.00     0.042 A 
BRANCH  12  13
ATOM     13  N   UNL A   1      31.232  22.384  26.152  1.00  0.00    -0.308 N 
ATOM     14  C   UNL A   1      30.516  23.303  26.877  1.00  0.00     0.323 C 
ATOM     15  H   UNL A   1      30.728  21.604  25.823  1.00  0.00     0.171 HD
ATOM     16  O   UNL A   1      29.528  22.952  27.520  1.00  0.00    -0.248 OA
ATOM     17  N   UNL A   1      30.908  24.617  26.875  1.00  0.00    -0.308 N 
ATOM     18  H   UNL A   1      30.717  25.128  27.694  1.00  0.00     0.171 HD
BRANCH  17  19
ATOM     19  C   UNL A   1      31.553  25.319  25.838  1.00  0.00     0.042 A 
ATOM     20  C   UNL A   1      30.874  25.512  24.633  1.00  0.00     0.027 A 
ATOM     21  C   UNL A   1      32.826  25.874  26.008  1.00  0.00     0.027 A 
ATOM     22  C   UNL A   1      31.409  26.369  23.666  1.00  0.00     0.018 A 
ATOM     23  C   UNL A   1      33.369  26.715  25.038  1.00  0.00     0.018 A 
ATOM     24  C   UNL A   1      32.642  26.983  23.885  1.00  0.00     0.018 A 
ATOM     25  Br  UNL A   1      33.331  28.218  22.635  1.00  0.00    -0.051 Br
ENDBRANCH  17  19
ENDBRANCH  12  13
ENDBRANCH   6   7
ENDBRANCH   4   6
ENDBRANCH   1   2
BRANCH   1  26
ATOM     26  C   UNL A   1      40.057  19.997  25.826  1.00  0.00     0.042 C 
BRANCH  26  27
ATOM     27  C   UNL A   1      41.318  19.544  26.557  1.00  0.00     0.118 C 
BRANCH  27  28
ATOM     28  N   UNL A   1      42.513  19.511  25.727  1.00  0.00    -0.352 N 
ATOM     29  C   UNL A   1      43.402  20.516  25.430  1.00  0.00     0.251 C 
ATOM     30  H   UNL A   1      42.714  18.639  25.316  1.00  0.00     0.163 HD
ATOM     31  O   UNL A   1      44.373  20.276  24.716  1.00  0.00    -0.269 OA
BRANCH  29  32
ATOM     32  C   UNL A   1      43.152  21.898  25.892  1.00  0.00     0.039 A 
ATOM     33  C   UNL A   1      43.088  22.123  27.271  1.00  0.00     0.014 A 
ATOM     34  C   UNL A   1      43.030  22.965  25.001  1.00  0.00     0.014 A 
ATOM     35  C   UNL A   1      43.016  23.429  27.760  1.00  0.00     0.010 A 
ATOM     36  C   UNL A   1      42.997  24.273  25.489  1.00  0.00     0.010 A 
ATOM     37  C   UNL A   1      43.029  24.515  26.872  1.00  0.00    -0.014 A 
BRANCH  37  38
ATOM     38  C   UNL A   1      43.190  25.903  27.374  1.00  0.00     0.031 A 
ATOM     39  C   UNL A   1      44.549  26.499  27.591  1.00  0.00     0.074 A 
ATOM     40  C   UNL A   1      42.089  26.605  27.704  1.00  0.00     0.049 A 
ATOM     41  N   UNL A   1      44.862  27.675  28.074  1.00  0.00    -0.248 NA
ATOM     42  C   UNL A   1      45.704  25.665  27.233  1.00  0.00     0.031 C 
ATOM     43  C   UNL A   1      40.709  26.129  27.572  1.00  0.00     0.029 A 
ATOM     44  N   UNL A   1      41.956  27.865  28.231  1.00  0.00    -0.354 N 
ATOM     45  C   UNL A   1      46.248  27.723  28.083  1.00  0.00     0.074 A 
ATOM     46  C   UNL A   1      46.717  26.444  27.589  1.00  0.00     0.031 C 
ATOM     47  C   UNL A   1      39.871  27.090  27.992  1.00  0.00     0.029 A 
ATOM     48  C   UNL A   1      40.651  28.232  28.456  1.00  0.00     0.049 A 
ATOM     49  H   UNL A   1      42.722  28.451  28.429  1.00  0.00     0.167 HD
ATOM     50  C   UNL A   1      47.058  28.742  28.460  1.00  0.00     0.031 A 
ATOM     51  C   UNL A   1      40.135  29.355  28.989  1.00  0.00     0.031 A 
ATOM     52  C   UNL A   1      46.598  30.012  28.958  1.00  0.00     0.049 A 
ATOM     53  C   UNL A   1      41.057  30.453  29.435  1.00  0.00     0.074 A 
ATOM     54  C   UNL A   1      47.346  31.121  29.312  1.00  0.00     0.029 A 
ATOM     55  N   UNL A   1      45.270  30.339  29.183  1.00  0.00    -0.354 N 
ATOM     56  N   UNL A   1      42.365  30.506  29.376  1.00  0.00    -0.248 NA
ATOM     57  C   UNL A   1      40.429  31.646  30.021  1.00  0.00     0.031 C 
ATOM     58  C   UNL A   1      46.474  32.103  29.795  1.00  0.00     0.029 A 
ATOM     59  C   UNL A   1      45.179  31.621  29.700  1.00  0.00     0.049 A 
ATOM     60  H   UNL A   1      44.503  29.747  29.002  1.00  0.00     0.167 HD
ATOM     61  C   UNL A   1      42.716  31.744  29.896  1.00  0.00     0.074 A 
ATOM     62  C   UNL A   1      41.483  32.416  30.253  1.00  0.00     0.031 C 
ATOM     63  C   UNL A   1      43.950  32.276  30.061  1.00  0.00     0.031 A 
BRANCH  50  64
ATOM     64  C   UNL A   1      48.539  28.518  28.360  1.00  0.00    -0.014 A 
ATOM     65  C   UNL A   1      49.252  28.901  27.213  1.00  0.00     0.009 A 
ATOM     66  C   UNL A   1      49.236  27.959  29.441  1.00  0.00     0.009 A 
ATOM     67  C   UNL A   1      50.632  28.699  27.140  1.00  0.00     0.001 A 
ATOM     68  C   UNL A   1      50.619  27.779  29.375  1.00  0.00     0.001 A 
ATOM     69  C   UNL A   1      51.314  28.142  28.221  1.00  0.00     0.000 A 
ENDBRANCH  50  64
BRANCH  51  70
ATOM     70  C   UNL A   1      38.666  29.501  29.131  1.00  0.00    -0.014 A 
ATOM     71  C   UNL A   1      38.038  29.216  30.353  1.00  0.00     0.009 A 
ATOM     72  C   UNL A   1      37.883  29.922  28.045  1.00  0.00     0.009 A 
ATOM     73  C   UNL A   1      36.653  29.328  30.478  1.00  0.00     0.001 A 
ATOM     74  C   UNL A   1      36.499  30.057  28.181  1.00  0.00     0.001 A 
ATOM     75  C   UNL A   1      35.886  29.753  29.394  1.00  0.00     0.000 A 
ENDBRANCH  51  70
BRANCH  63  76
ATOM     76  C   UNL A   1      44.027  33.660  30.638  1.00  0.00    -0.014 A 
ATOM     77  C   UNL A   1      44.119  33.862  32.024  1.00  0.00     0.009 A 
ATOM     78  C   UNL A   1      44.041  34.773  29.783  1.00  0.00     0.009 A 
ATOM     79  C   UNL A   1      44.196  35.157  32.543  1.00  0.00     0.001 A 
ATOM     80  C   UNL A   1      44.142  36.064  30.304  1.00  0.00     0.001 A 
ATOM     81  C   UNL A   1      44.212  36.255  31.683  1.00  0.00     0.000 A 
ENDBRANCH  63  76
ENDBRANCH  37  38
ENDBRANCH  29  32
ENDBRANCH  27  28
ENDBRANCH  26  27
ENDBRANCH   1  26
TORSDOF 13
ENDMDL
