MODEL 1
REMARK VINA RESULT:     -12.2      0.000      0.000
REMARK SMILES [NH3+][C@H]1CN(C(=O)OCC2c3ccccc3-c3ccccc32)C[C@@H]1C(=O)NCCCNC(=O)c1ccc(-c2c3nc(c(-c4ccccc4)c4ccc([nH]4)c(-c4ccccc4)c4nc(c(-c5ccccc5)c5ccc2[nH]5)C=C4)C=C3)cc1
REMARK SMILES IDX 27 1 26 2 24 3 25 4 23 6 2 7 3 8 4 9 22 10 1 11 5 15 6 16
REMARK SMILES IDX 7 17 8 18 9 19 10 20 21 21 11 22 15 23 16 24 20 25 12 26
REMARK SMILES IDX 14 27 17 28 19 29 13 30 18 31 28 32 29 33 30 34 31 35 32 37
REMARK SMILES IDX 33 38 34 39 80 40 35 41 79 42 36 43 37 44 38 45 73 46 39 47
REMARK SMILES IDX 78 48 72 49 74 50 40 51 77 52 71 53 70 54 41 56 63 57 48 58
REMARK SMILES IDX 62 59 49 60 52 61 61 62 75 63 50 64 51 65 60 67 76 68 53 69
REMARK SMILES IDX 42 70 43 71 47 72 44 73 46 74 45 75 64 76 65 77 69 78 66 79
REMARK SMILES IDX 68 80 67 81 54 82 55 83 59 84 56 85 58 86 57 87
REMARK H PARENT 26 5 1 12 1 13 1 14 30 36 74 55 52 66
REMARK Flexibility Score: inf
ROOT
ATOM      1  C   UNL A   1      33.650  26.641  25.653  1.00  0.00     0.117 C 
ENDROOT
BRANCH   1   2
ATOM      2  N   UNL A   1      33.922  26.282  24.281  1.00  0.00    -0.356 N 
ATOM      3  C   UNL A   1      33.112  26.018  23.228  1.00  0.00     0.231 C 
ATOM      4  O   UNL A   1      33.691  25.806  22.154  1.00  0.00    -0.274 OA
ATOM      5  H   UNL A   1      34.881  26.217  24.070  1.00  0.00     0.163 HD
BRANCH   3   6
ATOM      6  C   UNL A   1      31.593  25.872  23.287  1.00  0.00     0.158 C 
ATOM      7  C   UNL A   1      30.761  26.856  24.133  1.00  0.00     0.215 C 
ATOM      8  C   UNL A   1      30.293  26.042  25.375  1.00  0.00     0.188 C 
ATOM      9  N   UNL A   1      30.789  24.701  25.158  1.00  0.00    -0.301 N 
ATOM     10  C   UNL A   1      31.194  24.499  23.785  1.00  0.00     0.143 C 
BRANCH   7  11
ATOM     11  N   UNL A   1      29.613  27.365  23.358  1.00  0.00    -0.353 N 
ATOM     12  H   UNL A   1      29.159  26.591  22.875  1.00  0.00     0.344 HD
ATOM     13  H   UNL A   1      29.940  28.048  22.675  1.00  0.00     0.344 HD
ATOM     14  H   UNL A   1      28.946  27.810  23.990  1.00  0.00     0.344 HD
ENDBRANCH   7  11
BRANCH   9  15
ATOM     15  C   UNL A   1      30.961  23.695  26.069  1.00  0.00     0.410 C 
ATOM     16  O   UNL A   1      30.458  23.756  27.178  1.00  0.00    -0.224 OA
BRANCH  15  17
ATOM     17  O   UNL A   1      31.652  22.616  25.606  1.00  0.00    -0.448 OA
BRANCH  17  18
ATOM     18  C   UNL A   1      32.937  22.402  26.266  1.00  0.00     0.248 C 
BRANCH  18  19
ATOM     19  C   UNL A   1      34.011  21.971  25.254  1.00  0.00     0.088 C 
ATOM     20  C   UNL A   1      35.472  22.317  25.568  1.00  0.00    -0.029 A 
ATOM     21  C   UNL A   1      34.110  20.465  25.001  1.00  0.00    -0.029 A 
ATOM     22  C   UNL A   1      36.038  23.505  26.005  1.00  0.00     0.005 A 
ATOM     23  C   UNL A   1      36.300  21.222  25.246  1.00  0.00    -0.014 A 
ATOM     24  C   UNL A   1      35.469  20.082  24.929  1.00  0.00    -0.014 A 
ATOM     25  C   UNL A   1      33.100  19.536  24.800  1.00  0.00     0.005 A 
ATOM     26  C   UNL A   1      37.428  23.623  26.051  1.00  0.00     0.000 A 
ATOM     27  C   UNL A   1      37.683  21.337  25.281  1.00  0.00     0.009 A 
ATOM     28  C   UNL A   1      35.827  18.774  24.641  1.00  0.00     0.009 A 
ATOM     29  C   UNL A   1      33.461  18.213  24.527  1.00  0.00     0.000 A 
ATOM     30  C   UNL A   1      38.246  22.554  25.672  1.00  0.00     0.001 A 
ATOM     31  C   UNL A   1      34.811  17.837  24.439  1.00  0.00     0.001 A 
ENDBRANCH  18  19
ENDBRANCH  17  18
ENDBRANCH  15  17
ENDBRANCH   9  15
ENDBRANCH   3   6
ENDBRANCH   1   2
BRANCH   1  32
ATOM     32  C   UNL A   1      33.758  28.139  25.906  1.00  0.00     0.042 C 
BRANCH  32  33
ATOM     33  C   UNL A   1      33.313  28.543  27.304  1.00  0.00     0.118 C 
BRANCH  33  34
ATOM     34  N   UNL A   1      33.405  29.986  27.507  1.00  0.00    -0.352 N 
ATOM     35  C   UNL A   1      34.381  30.752  28.093  1.00  0.00     0.251 C 
ATOM     36  H   UNL A   1      32.635  30.496  27.165  1.00  0.00     0.163 HD
ATOM     37  O   UNL A   1      34.129  31.914  28.400  1.00  0.00    -0.269 OA
BRANCH  35  38
ATOM     38  C   UNL A   1      35.723  30.196  28.359  1.00  0.00     0.039 A 
ATOM     39  C   UNL A   1      36.670  30.184  27.331  1.00  0.00     0.014 A 
ATOM     40  C   UNL A   1      36.041  29.648  29.603  1.00  0.00     0.014 A 
ATOM     41  C   UNL A   1      37.949  29.682  27.574  1.00  0.00     0.010 A 
ATOM     42  C   UNL A   1      37.345  29.256  29.877  1.00  0.00     0.010 A 
ATOM     43  C   UNL A   1      38.310  29.253  28.861  1.00  0.00    -0.014 A 
BRANCH  43  44
ATOM     44  C   UNL A   1      39.686  28.788  29.165  1.00  0.00     0.031 A 
ATOM     45  C   UNL A   1      40.656  29.699  29.868  1.00  0.00     0.074 A 
ATOM     46  C   UNL A   1      40.079  27.569  28.748  1.00  0.00     0.049 A 
ATOM     47  N   UNL A   1      41.913  29.492  30.171  1.00  0.00    -0.248 NA
ATOM     48  C   UNL A   1      40.159  31.031  30.255  1.00  0.00     0.031 C 
ATOM     49  C   UNL A   1      39.248  26.614  28.010  1.00  0.00     0.029 A 
ATOM     50  N   UNL A   1      41.283  26.925  28.883  1.00  0.00    -0.354 N 
ATOM     51  C   UNL A   1      42.358  30.669  30.761  1.00  0.00     0.074 A 
ATOM     52  C   UNL A   1      41.258  31.606  30.719  1.00  0.00     0.031 C 
ATOM     53  C   UNL A   1      39.952  25.493  27.793  1.00  0.00     0.029 A 
ATOM     54  C   UNL A   1      41.297  25.667  28.330  1.00  0.00     0.049 A 
ATOM     55  H   UNL A   1      42.061  27.325  29.332  1.00  0.00     0.167 HD
ATOM     56  C   UNL A   1      43.564  30.938  31.312  1.00  0.00     0.031 A 
ATOM     57  C   UNL A   1      42.287  24.758  28.257  1.00  0.00     0.031 A 
ATOM     58  C   UNL A   1      44.653  29.999  31.358  1.00  0.00     0.049 A 
ATOM     59  C   UNL A   1      43.624  25.088  28.861  1.00  0.00     0.074 A 
ATOM     60  C   UNL A   1      45.899  30.151  31.943  1.00  0.00     0.029 A 
ATOM     61  N   UNL A   1      44.627  28.734  30.791  1.00  0.00    -0.354 N 
ATOM     62  N   UNL A   1      44.004  26.176  29.487  1.00  0.00    -0.248 NA
ATOM     63  C   UNL A   1      44.666  24.057  28.759  1.00  0.00     0.031 C 
ATOM     64  C   UNL A   1      46.648  29.001  31.675  1.00  0.00     0.029 A 
ATOM     65  C   UNL A   1      45.845  28.105  30.987  1.00  0.00     0.049 A 
ATOM     66  H   UNL A   1      43.857  28.340  30.321  1.00  0.00     0.167 HD
ATOM     67  C   UNL A   1      45.318  25.949  29.877  1.00  0.00     0.074 A 
ATOM     68  C   UNL A   1      45.660  24.613  29.437  1.00  0.00     0.031 C 
ATOM     69  C   UNL A   1      46.168  26.774  30.538  1.00  0.00     0.031 A 
BRANCH  56  70
ATOM     70  C   UNL A   1      43.772  32.309  31.899  1.00  0.00    -0.014 A 
ATOM     71  C   UNL A   1      44.221  33.382  31.109  1.00  0.00     0.009 A 
ATOM     72  C   UNL A   1      43.485  32.540  33.252  1.00  0.00     0.009 A 
ATOM     73  C   UNL A   1      44.417  34.644  31.673  1.00  0.00     0.001 A 
ATOM     74  C   UNL A   1      43.648  33.812  33.806  1.00  0.00     0.001 A 
ATOM     75  C   UNL A   1      44.124  34.860  33.020  1.00  0.00     0.000 A 
ENDBRANCH  56  70
BRANCH  57  76
ATOM     76  C   UNL A   1      42.048  23.445  27.601  1.00  0.00    -0.014 A 
ATOM     77  C   UNL A   1      41.437  22.396  28.307  1.00  0.00     0.009 A 
ATOM     78  C   UNL A   1      42.432  23.228  26.268  1.00  0.00     0.009 A 
ATOM     79  C   UNL A   1      41.246  21.150  27.704  1.00  0.00     0.001 A 
ATOM     80  C   UNL A   1      42.210  21.992  25.658  1.00  0.00     0.001 A 
ATOM     81  C   UNL A   1      41.629  20.951  26.379  1.00  0.00     0.000 A 
ENDBRANCH  57  76
BRANCH  69  82
ATOM     82  C   UNL A   1      47.536  26.238  30.857  1.00  0.00    -0.014 A 
ATOM     83  C   UNL A   1      48.573  26.267  29.912  1.00  0.00     0.009 A 
ATOM     84  C   UNL A   1      47.799  25.731  32.140  1.00  0.00     0.009 A 
ATOM     85  C   UNL A   1      49.834  25.760  30.233  1.00  0.00     0.001 A 
ATOM     86  C   UNL A   1      49.069  25.258  32.469  1.00  0.00     0.001 A 
ATOM     87  C   UNL A   1      50.082  25.262  31.512  1.00  0.00     0.000 A 
ENDBRANCH  69  82
ENDBRANCH  43  44
ENDBRANCH  35  38
ENDBRANCH  33  34
ENDBRANCH  32  33
ENDBRANCH   1  32
TORSDOF 15
ENDMDL
MODEL 2
REMARK VINA RESULT:     -12.0      1.031      2.377
REMARK SMILES [NH3+][C@H]1CN(C(=O)OCC2c3ccccc3-c3ccccc32)C[C@@H]1C(=O)NCCCNC(=O)c1ccc(-c2c3nc(c(-c4ccccc4)c4ccc([nH]4)c(-c4ccccc4)c4nc(c(-c5ccccc5)c5ccc2[nH]5)C=C4)C=C3)cc1
REMARK SMILES IDX 27 1 26 2 24 3 25 4 23 6 2 7 3 8 4 9 22 10 1 11 5 15 6 16
REMARK SMILES IDX 7 17 8 18 9 19 10 20 21 21 11 22 15 23 16 24 20 25 12 26
REMARK SMILES IDX 14 27 17 28 19 29 13 30 18 31 28 32 29 33 30 34 31 35 32 37
REMARK SMILES IDX 33 38 34 39 80 40 35 41 79 42 36 43 37 44 38 45 73 46 39 47
REMARK SMILES IDX 78 48 72 49 74 50 40 51 77 52 71 53 70 54 41 56 63 57 48 58
REMARK SMILES IDX 62 59 49 60 52 61 61 62 75 63 50 64 51 65 60 67 76 68 53 69
REMARK SMILES IDX 42 70 43 71 47 72 44 73 46 74 45 75 64 76 65 77 69 78 66 79
REMARK SMILES IDX 68 80 67 81 54 82 55 83 59 84 56 85 58 86 57 87
REMARK H PARENT 26 5 1 12 1 13 1 14 30 36 74 55 52 66
REMARK Flexibility Score: inf
ROOT
ATOM      1  C   UNL A   1      31.763  29.092  25.343  1.00  0.00     0.117 C 
ENDROOT
BRANCH   1   2
ATOM      2  N   UNL A   1      31.430  29.523  24.006  1.00  0.00    -0.356 N 
ATOM      3  C   UNL A   1      30.731  28.937  23.005  1.00  0.00     0.231 C 
ATOM      4  O   UNL A   1      30.576  29.631  21.990  1.00  0.00    -0.274 OA
ATOM      5  H   UNL A   1      31.778  30.415  23.778  1.00  0.00     0.163 HD
BRANCH   3   6
ATOM      6  C   UNL A   1      30.220  27.498  22.999  1.00  0.00     0.158 C 
ATOM      7  C   UNL A   1      29.527  26.926  24.251  1.00  0.00     0.215 C 
ATOM      8  C   UNL A   1      30.553  25.932  24.874  1.00  0.00     0.188 C 
ATOM      9  N   UNL A   1      31.679  25.932  23.968  1.00  0.00    -0.301 N 
ATOM     10  C   UNL A   1      31.337  26.522  22.693  1.00  0.00     0.143 C 
BRANCH   7  11
ATOM     11  N   UNL A   1      28.271  26.244  23.884  1.00  0.00    -0.353 N 
ATOM     12  H   UNL A   1      27.935  25.700  24.677  1.00  0.00     0.344 HD
ATOM     13  H   UNL A   1      28.440  25.624  23.092  1.00  0.00     0.344 HD
ATOM     14  H   UNL A   1      27.570  26.940  23.627  1.00  0.00     0.344 HD
ENDBRANCH   7  11
BRANCH   9  15
ATOM     15  C   UNL A   1      32.963  25.518  24.198  1.00  0.00     0.410 C 
ATOM     16  O   UNL A   1      33.912  26.113  23.718  1.00  0.00    -0.224 OA
BRANCH  15  17
ATOM     17  O   UNL A   1      33.079  24.466  25.054  1.00  0.00    -0.448 OA
BRANCH  17  18
ATOM     18  C   UNL A   1      33.189  23.168  24.394  1.00  0.00     0.248 C 
BRANCH  18  19
ATOM     19  C   UNL A   1      34.001  22.181  25.250  1.00  0.00     0.088 C 
ATOM     20  C   UNL A   1      34.069  20.721  24.790  1.00  0.00    -0.029 A 
ATOM     21  C   UNL A   1      35.488  22.513  25.404  1.00  0.00    -0.029 A 
ATOM     22  C   UNL A   1      33.062  19.869  24.358  1.00  0.00     0.005 A 
ATOM     23  C   UNL A   1      35.381  20.230  24.951  1.00  0.00    -0.014 A 
ATOM     24  C   UNL A   1      36.254  21.330  25.296  1.00  0.00    -0.014 A 
ATOM     25  C   UNL A   1      36.097  23.731  25.666  1.00  0.00     0.005 A 
ATOM     26  C   UNL A   1      33.350  18.518  24.159  1.00  0.00     0.000 A 
ATOM     27  C   UNL A   1      35.670  18.886  24.763  1.00  0.00     0.009 A 
ATOM     28  C   UNL A   1      37.629  21.353  25.467  1.00  0.00     0.009 A 
ATOM     29  C   UNL A   1      37.487  23.757  25.820  1.00  0.00     0.000 A 
ATOM     30  C   UNL A   1      34.639  18.024  24.380  1.00  0.00     0.001 A 
ATOM     31  C   UNL A   1      38.244  22.579  25.731  1.00  0.00     0.001 A 
ENDBRANCH  18  19
ENDBRANCH  17  18
ENDBRANCH  15  17
ENDBRANCH   9  15
ENDBRANCH   3   6
ENDBRANCH   1   2
BRANCH   1  32
ATOM     32  C   UNL A   1      33.264  28.995  25.578  1.00  0.00     0.042 C 
BRANCH  32  33
ATOM     33  C   UNL A   1      33.640  28.975  27.052  1.00  0.00     0.118 C 
BRANCH  33  34
ATOM     34  N   UNL A   1      33.681  30.320  27.621  1.00  0.00    -0.352 N 
ATOM     35  C   UNL A   1      34.613  30.930  28.420  1.00  0.00     0.251 C 
ATOM     36  H   UNL A   1      32.908  30.884  27.390  1.00  0.00     0.163 HD
ATOM     37  O   UNL A   1      34.316  31.970  29.004  1.00  0.00    -0.269 OA
BRANCH  35  38
ATOM     38  C   UNL A   1      35.962  30.353  28.589  1.00  0.00     0.039 A 
ATOM     39  C   UNL A   1      36.861  30.403  27.520  1.00  0.00     0.014 A 
ATOM     40  C   UNL A   1      36.333  29.727  29.779  1.00  0.00     0.014 A 
ATOM     41  C   UNL A   1      38.147  29.882  27.671  1.00  0.00     0.010 A 
ATOM     42  C   UNL A   1      37.646  29.313  29.968  1.00  0.00     0.010 A 
ATOM     43  C   UNL A   1      38.564  29.370  28.910  1.00  0.00    -0.014 A 
BRANCH  43  44
ATOM     44  C   UNL A   1      39.948  28.882  29.121  1.00  0.00     0.031 A 
ATOM     45  C   UNL A   1      40.992  29.793  29.709  1.00  0.00     0.074 A 
ATOM     46  C   UNL A   1      40.279  27.640  28.719  1.00  0.00     0.049 A 
ATOM     47  N   UNL A   1      42.264  29.564  29.918  1.00  0.00    -0.248 NA
ATOM     48  C   UNL A   1      40.559  31.150  30.085  1.00  0.00     0.031 C 
ATOM     49  C   UNL A   1      39.369  26.681  28.086  1.00  0.00     0.029 A 
ATOM     50  N   UNL A   1      41.475  26.970  28.782  1.00  0.00    -0.354 N 
ATOM     51  C   UNL A   1      42.782  30.750  30.427  1.00  0.00     0.074 A 
ATOM     52  C   UNL A   1      41.704  31.713  30.437  1.00  0.00     0.031 C 
ATOM     53  C   UNL A   1      40.029  25.535  27.856  1.00  0.00     0.029 A 
ATOM     54  C   UNL A   1      41.416  25.693  28.277  1.00  0.00     0.049 A 
ATOM     55  H   UNL A   1      42.296  27.366  29.152  1.00  0.00     0.167 HD
ATOM     56  C   UNL A   1      44.035  31.008  30.868  1.00  0.00     0.031 A 
ATOM     57  C   UNL A   1      42.377  24.757  28.160  1.00  0.00     0.031 A 
ATOM     58  C   UNL A   1      45.102  30.044  30.862  1.00  0.00     0.049 A 
ATOM     59  C   UNL A   1      43.765  25.075  28.642  1.00  0.00     0.074 A 
ATOM     60  C   UNL A   1      46.394  30.184  31.340  1.00  0.00     0.029 A 
ATOM     61  N   UNL A   1      45.002  28.760  30.348  1.00  0.00    -0.354 N 
ATOM     62  N   UNL A   1      44.219  26.174  29.194  1.00  0.00    -0.248 NA
ATOM     63  C   UNL A   1      44.772  24.014  28.496  1.00  0.00     0.031 C 
ATOM     64  C   UNL A   1      47.093  29.007  31.056  1.00  0.00     0.029 A 
ATOM     65  C   UNL A   1      46.217  28.108  30.469  1.00  0.00     0.049 A 
ATOM     66  H   UNL A   1      44.188  28.370  29.955  1.00  0.00     0.167 HD
ATOM     67  C   UNL A   1      45.555  25.929  29.486  1.00  0.00     0.074 A 
ATOM     68  C   UNL A   1      45.829  24.569  29.071  1.00  0.00     0.031 C 
ATOM     69  C   UNL A   1      46.473  26.755  30.046  1.00  0.00     0.031 A 
BRANCH  56  70
ATOM     70  C   UNL A   1      44.320  32.393  31.385  1.00  0.00    -0.014 A 
ATOM     71  C   UNL A   1      44.763  33.416  30.529  1.00  0.00     0.009 A 
ATOM     72  C   UNL A   1      44.113  32.690  32.741  1.00  0.00     0.009 A 
ATOM     73  C   UNL A   1      45.031  34.692  31.028  1.00  0.00     0.001 A 
ATOM     74  C   UNL A   1      44.348  33.976  33.230  1.00  0.00     0.001 A 
ATOM     75  C   UNL A   1      44.818  34.973  32.377  1.00  0.00     0.000 A 
ENDBRANCH  56  70
BRANCH  57  76
ATOM     76  C   UNL A   1      42.056  23.428  27.575  1.00  0.00    -0.014 A 
ATOM     77  C   UNL A   1      42.345  23.154  26.228  1.00  0.00     0.009 A 
ATOM     78  C   UNL A   1      41.455  22.428  28.354  1.00  0.00     0.009 A 
ATOM     79  C   UNL A   1      42.008  21.919  25.667  1.00  0.00     0.001 A 
ATOM     80  C   UNL A   1      41.150  21.183  27.800  1.00  0.00     0.001 A 
ATOM     81  C   UNL A   1      41.415  20.934  26.455  1.00  0.00     0.000 A 
ENDBRANCH  57  76
BRANCH  69  82
ATOM     82  C   UNL A   1      47.850  26.195  30.274  1.00  0.00    -0.014 A 
ATOM     83  C   UNL A   1      48.234  25.681  31.523  1.00  0.00     0.009 A 
ATOM     84  C   UNL A   1      48.764  26.149  29.209  1.00  0.00     0.009 A 
ATOM     85  C   UNL A   1      49.520  25.170  31.709  1.00  0.00     0.001 A 
ATOM     86  C   UNL A   1      50.036  25.605  29.390  1.00  0.00     0.001 A 
ATOM     87  C   UNL A   1      50.417  25.127  30.643  1.00  0.00     0.000 A 
ENDBRANCH  69  82
ENDBRANCH  43  44
ENDBRANCH  35  38
ENDBRANCH  33  34
ENDBRANCH  32  33
ENDBRANCH   1  32
TORSDOF 15
ENDMDL
MODEL 3
REMARK VINA RESULT:     -12.0      2.370      8.061
REMARK SMILES [NH3+][C@H]1CN(C(=O)OCC2c3ccccc3-c3ccccc32)C[C@@H]1C(=O)NCCCNC(=O)c1ccc(-c2c3nc(c(-c4ccccc4)c4ccc([nH]4)c(-c4ccccc4)c4nc(c(-c5ccccc5)c5ccc2[nH]5)C=C4)C=C3)cc1
REMARK SMILES IDX 27 1 26 2 24 3 25 4 23 6 2 7 3 8 4 9 22 10 1 11 5 15 6 16
REMARK SMILES IDX 7 17 8 18 9 19 10 20 21 21 11 22 15 23 16 24 20 25 12 26
REMARK SMILES IDX 14 27 17 28 19 29 13 30 18 31 28 32 29 33 30 34 31 35 32 37
REMARK SMILES IDX 33 38 34 39 80 40 35 41 79 42 36 43 37 44 38 45 73 46 39 47
REMARK SMILES IDX 78 48 72 49 74 50 40 51 77 52 71 53 70 54 41 56 63 57 48 58
REMARK SMILES IDX 62 59 49 60 52 61 61 62 75 63 50 64 51 65 60 67 76 68 53 69
REMARK SMILES IDX 42 70 43 71 47 72 44 73 46 74 45 75 64 76 65 77 69 78 66 79
REMARK SMILES IDX 68 80 67 81 54 82 55 83 59 84 56 85 58 86 57 87
REMARK H PARENT 26 5 1 12 1 13 1 14 30 36 74 55 52 66
REMARK Flexibility Score: inf
ROOT
ATOM      1  C   UNL A   1      35.281  22.739  26.464  1.00  0.00     0.117 C 
ENDROOT
BRANCH   1   2
ATOM      2  N   UNL A   1      34.033  23.101  27.094  1.00  0.00    -0.356 N 
ATOM      3  C   UNL A   1      32.741  22.947  26.717  1.00  0.00     0.231 C 
ATOM      4  O   UNL A   1      31.900  23.320  27.546  1.00  0.00    -0.274 OA
ATOM      5  H   UNL A   1      34.142  23.545  27.965  1.00  0.00     0.163 HD
BRANCH   3   6
ATOM      6  C   UNL A   1      32.264  22.455  25.353  1.00  0.00     0.158 C 
ATOM      7  C   UNL A   1      33.124  21.456  24.555  1.00  0.00     0.215 C 
ATOM      8  C   UNL A   1      33.735  22.280  23.382  1.00  0.00     0.188 C 
ATOM      9  N   UNL A   1      33.175  23.606  23.518  1.00  0.00    -0.301 N 
ATOM     10  C   UNL A   1      32.032  23.613  24.404  1.00  0.00     0.143 C 
BRANCH   7  11
ATOM     11  N   UNL A   1      32.297  20.341  24.056  1.00  0.00    -0.353 N 
ATOM     12  H   UNL A   1      32.749  19.918  23.246  1.00  0.00     0.344 HD
ATOM     13  H   UNL A   1      31.378  20.692  23.790  1.00  0.00     0.344 HD
ATOM     14  H   UNL A   1      32.193  19.640  24.791  1.00  0.00     0.344 HD
ENDBRANCH   7  11
BRANCH   9  15
ATOM     15  C   UNL A   1      33.621  24.782  22.982  1.00  0.00     0.410 C 
ATOM     16  O   UNL A   1      33.742  24.919  21.776  1.00  0.00    -0.224 OA
BRANCH  15  17
ATOM     17  O   UNL A   1      33.830  25.780  23.885  1.00  0.00    -0.448 OA
BRANCH  17  18
ATOM     18  C   UNL A   1      33.380  27.095  23.436  1.00  0.00     0.248 C 
BRANCH  18  19
ATOM     19  C   UNL A   1      32.391  27.710  24.441  1.00  0.00     0.088 C 
ATOM     20  C   UNL A   1      32.938  28.716  25.460  1.00  0.00    -0.029 A 
ATOM     21  C   UNL A   1      31.239  28.509  23.825  1.00  0.00    -0.029 A 
ATOM     22  C   UNL A   1      34.067  28.654  26.264  1.00  0.00     0.005 A 
ATOM     23  C   UNL A   1      32.040  29.795  25.595  1.00  0.00    -0.014 A 
ATOM     24  C   UNL A   1      31.019  29.685  24.577  1.00  0.00    -0.014 A 
ATOM     25  C   UNL A   1      30.431  28.198  22.740  1.00  0.00     0.005 A 
ATOM     26  C   UNL A   1      34.259  29.626  27.248  1.00  0.00     0.000 A 
ATOM     27  C   UNL A   1      32.222  30.758  26.578  1.00  0.00     0.009 A 
ATOM     28  C   UNL A   1      29.982  30.549  24.262  1.00  0.00     0.009 A 
ATOM     29  C   UNL A   1      29.397  29.080  22.411  1.00  0.00     0.000 A 
ATOM     30  C   UNL A   1      33.332  30.659  27.419  1.00  0.00     0.001 A 
ATOM     31  C   UNL A   1      29.168  30.239  23.170  1.00  0.00     0.001 A 
ENDBRANCH  18  19
ENDBRANCH  17  18
ENDBRANCH  15  17
ENDBRANCH   9  15
ENDBRANCH   3   6
ENDBRANCH   1   2
BRANCH   1  32
ATOM     32  C   UNL A   1      36.002  23.931  25.849  1.00  0.00     0.042 C 
BRANCH  32  33
ATOM     33  C   UNL A   1      37.064  23.530  24.836  1.00  0.00     0.118 C 
BRANCH  33  34
ATOM     34  N   UNL A   1      38.015  22.574  25.396  1.00  0.00    -0.352 N 
ATOM     35  C   UNL A   1      39.163  22.766  26.122  1.00  0.00     0.251 C 
ATOM     36  H   UNL A   1      37.795  21.630  25.222  1.00  0.00     0.163 HD
ATOM     37  O   UNL A   1      39.952  21.834  26.256  1.00  0.00    -0.269 OA
BRANCH  35  38
ATOM     38  C   UNL A   1      39.459  24.074  26.739  1.00  0.00     0.039 A 
ATOM     39  C   UNL A   1      39.032  24.322  28.047  1.00  0.00     0.014 A 
ATOM     40  C   UNL A   1      40.119  25.074  26.024  1.00  0.00     0.014 A 
ATOM     41  C   UNL A   1      39.325  25.545  28.652  1.00  0.00     0.010 A 
ATOM     42  C   UNL A   1      40.509  26.245  26.663  1.00  0.00     0.010 A 
ATOM     43  C   UNL A   1      40.102  26.501  27.979  1.00  0.00    -0.014 A 
BRANCH  43  44
ATOM     44  C   UNL A   1      40.493  27.777  28.626  1.00  0.00     0.031 A 
ATOM     45  C   UNL A   1      41.878  27.948  29.190  1.00  0.00     0.074 A 
ATOM     46  C   UNL A   1      39.578  28.756  28.764  1.00  0.00     0.049 A 
ATOM     47  N   UNL A   1      42.386  28.966  29.838  1.00  0.00    -0.248 NA
ATOM     48  C   UNL A   1      42.806  26.814  29.034  1.00  0.00     0.031 C 
ATOM     49  C   UNL A   1      38.187  28.689  28.306  1.00  0.00     0.029 A 
ATOM     50  N   UNL A   1      39.680  30.000  29.333  1.00  0.00    -0.354 N 
ATOM     51  C   UNL A   1      43.679  28.587  30.182  1.00  0.00     0.074 A 
ATOM     52  C   UNL A   1      43.857  27.227  29.727  1.00  0.00     0.031 C 
ATOM     53  C   UNL A   1      37.579  29.855  28.576  1.00  0.00     0.029 A 
ATOM     54  C   UNL A   1      38.518  30.730  29.269  1.00  0.00     0.049 A 
ATOM     55  H   UNL A   1      40.506  30.337  29.747  1.00  0.00     0.167 HD
ATOM     56  C   UNL A   1      44.639  29.314  30.799  1.00  0.00     0.031 A 
ATOM     57  C   UNL A   1      38.238  31.965  29.725  1.00  0.00     0.031 A 
ATOM     58  C   UNL A   1      44.459  30.670  31.243  1.00  0.00     0.049 A 
ATOM     59  C   UNL A   1      39.318  32.745  30.422  1.00  0.00     0.074 A 
ATOM     60  C   UNL A   1      45.386  31.516  31.827  1.00  0.00     0.029 A 
ATOM     61  N   UNL A   1      43.269  31.376  31.156  1.00  0.00    -0.354 N 
ATOM     62  N   UNL A   1      40.560  32.403  30.668  1.00  0.00    -0.248 NA
ATOM     63  C   UNL A   1      38.960  34.090  30.893  1.00  0.00     0.031 C 
ATOM     64  C   UNL A   1      44.739  32.712  32.151  1.00  0.00     0.029 A 
ATOM     65  C   UNL A   1      43.429  32.638  31.703  1.00  0.00     0.049 A 
ATOM     66  H   UNL A   1      42.435  31.032  30.762  1.00  0.00     0.167 HD
ATOM     67  C   UNL A   1      41.138  33.498  31.298  1.00  0.00     0.074 A 
ATOM     68  C   UNL A   1      40.117  34.522  31.373  1.00  0.00     0.031 C 
ATOM     69  C   UNL A   1      42.400  33.644  31.773  1.00  0.00     0.031 A 
BRANCH  56  70
ATOM     70  C   UNL A   1      45.969  28.649  31.038  1.00  0.00    -0.014 A 
ATOM     71  C   UNL A   1      46.222  27.924  32.214  1.00  0.00     0.009 A 
ATOM     72  C   UNL A   1      46.973  28.723  30.060  1.00  0.00     0.009 A 
ATOM     73  C   UNL A   1      47.465  27.322  32.423  1.00  0.00     0.001 A 
ATOM     74  C   UNL A   1      48.203  28.090  30.256  1.00  0.00     0.001 A 
ATOM     75  C   UNL A   1      48.452  27.401  31.441  1.00  0.00     0.000 A 
ENDBRANCH  56  70
BRANCH  57  76
ATOM     76  C   UNL A   1      36.884  32.546  29.524  1.00  0.00    -0.014 A 
ATOM     77  C   UNL A   1      36.572  33.235  28.341  1.00  0.00     0.009 A 
ATOM     78  C   UNL A   1      35.896  32.419  30.513  1.00  0.00     0.009 A 
ATOM     79  C   UNL A   1      35.312  33.814  28.168  1.00  0.00     0.001 A 
ATOM     80  C   UNL A   1      34.627  32.970  30.323  1.00  0.00     0.001 A 
ATOM     81  C   UNL A   1      34.340  33.678  29.157  1.00  0.00     0.000 A 
ENDBRANCH  57  76
BRANCH  69  82
ATOM     82  C   UNL A   1      42.755  34.971  32.382  1.00  0.00    -0.014 A 
ATOM     83  C   UNL A   1      43.424  35.961  31.645  1.00  0.00     0.009 A 
ATOM     84  C   UNL A   1      42.378  35.249  33.706  1.00  0.00     0.009 A 
ATOM     85  C   UNL A   1      43.745  37.184  32.235  1.00  0.00     0.001 A 
ATOM     86  C   UNL A   1      42.668  36.486  34.281  1.00  0.00     0.001 A 
ATOM     87  C   UNL A   1      43.362  37.448  33.550  1.00  0.00     0.000 A 
ENDBRANCH  69  82
ENDBRANCH  43  44
ENDBRANCH  35  38
ENDBRANCH  33  34
ENDBRANCH  32  33
ENDBRANCH   1  32
TORSDOF 15
ENDMDL
