MODEL 1
REMARK VINA RESULT:     -11.9      0.000      0.000
REMARK SMILES Cc1cc2c(c(C)c1Cl)C=C(C(=O)NCCCNC(=O)c1ccc(-c3c4nc(c(-c5ccccc5)c5ccc([nH]5)c(-c5ccccc5)c5nc(c(-c6ccccc6)c6ccc3[nH]6)C=C5)C=C4)cc1)[C@H](C(F)(F)F)O2
REMARK SMILES IDX 16 1 15 2 14 3 12 4 13 5 11 7 1 8 2 9 3 10 8 11 4 12 6 13
REMARK SMILES IDX 9 14 5 15 74 16 7 17 10 18 69 19 70 20 71 21 72 22 73 23
REMARK SMILES IDX 17 24 18 25 19 26 20 28 21 29 22 30 68 31 23 32 67 33 24 34
REMARK SMILES IDX 25 35 26 36 61 37 27 38 66 39 60 40 62 41 28 42 65 43 59 44
REMARK SMILES IDX 58 45 29 47 51 48 36 49 50 50 37 51 40 52 49 53 63 54 38 55
REMARK SMILES IDX 39 56 48 58 64 59 41 60 30 61 31 62 35 63 32 64 34 65 33 66
REMARK SMILES IDX 52 67 53 68 57 69 54 70 56 71 55 72 42 73 43 74 47 75 44 76
REMARK SMILES IDX 46 77 45 78
REMARK H PARENT 14 6 18 27 62 46 40 57
REMARK Flexibility Score: inf
ROOT
ATOM      1  C   UNL A   1      33.985  28.302  25.963  1.00  0.00     0.042 C 
ENDROOT
BRANCH   1   2
ATOM      2  C   UNL A   1      33.088  29.000  24.945  1.00  0.00     0.118 C 
BRANCH   2   3
ATOM      3  N   UNL A   1      33.607  28.859  23.594  1.00  0.00    -0.352 N 
ATOM      4  C   UNL A   1      33.689  27.889  22.657  1.00  0.00     0.251 C 
ATOM      5  O   UNL A   1      34.203  28.242  21.590  1.00  0.00    -0.270 OA
ATOM      6  H   UNL A   1      34.006  29.700  23.275  1.00  0.00     0.163 HD
BRANCH   4   7
ATOM      7  C   UNL A   1      33.220  26.482  22.818  1.00  0.00     0.067 C 
ATOM      8  C   UNL A   1      32.532  20.127  24.079  1.00  0.00     0.046 C 
ATOM      9  C   UNL A   1      32.983  21.557  23.953  1.00  0.00    -0.028 A 
ATOM     10  C   UNL A   1      32.169  22.458  23.258  1.00  0.00     0.052 A 
ATOM     11  C   UNL A   1      34.207  22.013  24.484  1.00  0.00     0.047 A 
ATOM     12  C   UNL A   1      32.553  23.786  23.103  1.00  0.00     0.128 A 
ATOM     13  C   UNL A   1      34.611  23.361  24.332  1.00  0.00    -0.021 A 
ATOM     14  Cl  UNL A   1      35.223  20.872  25.314  1.00  0.00    -0.084 Cl
ATOM     15  C   UNL A   1      33.769  24.248  23.616  1.00  0.00     0.022 A 
ATOM     16  O   UNL A   1      31.692  24.566  22.384  1.00  0.00    -0.475 OA
ATOM     17  C   UNL A   1      35.917  23.870  24.901  1.00  0.00     0.047 C 
ATOM     18  C   UNL A   1      34.130  25.640  23.341  1.00  0.00     0.026 C 
ATOM     19  C   UNL A   1      31.829  26.005  22.524  1.00  0.00     0.314 C 
BRANCH  19  20
ATOM     20  C   UNL A   1      30.770  26.542  23.502  1.00  0.00     0.429 C 
ATOM     21  F   UNL A   1      29.618  25.834  23.468  1.00  0.00    -0.167 F 
ATOM     22  F   UNL A   1      31.231  26.468  24.777  1.00  0.00    -0.167 F 
ATOM     23  F   UNL A   1      30.445  27.834  23.268  1.00  0.00    -0.167 F 
ENDBRANCH  19  20
ENDBRANCH   4   7
ENDBRANCH   2   3
ENDBRANCH   1   2
BRANCH   1  24
ATOM     24  C   UNL A   1      33.563  28.570  27.406  1.00  0.00     0.118 C 
BRANCH  24  25
ATOM     25  N   UNL A   1      33.588  29.993  27.716  1.00  0.00    -0.352 N 
ATOM     26  C   UNL A   1      34.554  30.744  28.337  1.00  0.00     0.251 C 
ATOM     27  H   UNL A   1      32.789  30.493  27.435  1.00  0.00     0.163 HD
ATOM     28  O   UNL A   1      34.271  31.862  28.757  1.00  0.00    -0.269 OA
BRANCH  26  29
ATOM     29  C   UNL A   1      35.930  30.225  28.506  1.00  0.00     0.039 A 
ATOM     30  C   UNL A   1      36.304  29.691  29.743  1.00  0.00     0.014 A 
ATOM     31  C   UNL A   1      36.873  30.330  27.480  1.00  0.00     0.014 A 
ATOM     32  C   UNL A   1      37.607  29.226  29.936  1.00  0.00     0.010 A 
ATOM     33  C   UNL A   1      38.147  29.794  27.647  1.00  0.00     0.010 A 
ATOM     34  C   UNL A   1      38.533  29.256  28.882  1.00  0.00    -0.014 A 
BRANCH  34  35
ATOM     35  C   UNL A   1      39.923  28.770  29.064  1.00  0.00     0.031 A 
ATOM     36  C   UNL A   1      40.966  29.678  29.657  1.00  0.00     0.074 A 
ATOM     37  C   UNL A   1      40.261  27.533  28.655  1.00  0.00     0.049 A 
ATOM     38  N   UNL A   1      42.243  29.456  29.847  1.00  0.00    -0.248 NA
ATOM     39  C   UNL A   1      40.522  31.018  30.072  1.00  0.00     0.031 C 
ATOM     40  C   UNL A   1      39.349  26.565  28.042  1.00  0.00     0.029 A 
ATOM     41  N   UNL A   1      41.466  26.878  28.696  1.00  0.00    -0.354 N 
ATOM     42  C   UNL A   1      42.753  30.631  30.381  1.00  0.00     0.074 A 
ATOM     43  C   UNL A   1      41.664  31.579  30.440  1.00  0.00     0.031 C 
ATOM     44  C   UNL A   1      40.019  25.428  27.798  1.00  0.00     0.029 A 
ATOM     45  C   UNL A   1      41.411  25.598  28.201  1.00  0.00     0.049 A 
ATOM     46  H   UNL A   1      42.290  27.287  29.046  1.00  0.00     0.167 HD
ATOM     47  C   UNL A   1      44.013  30.894  30.806  1.00  0.00     0.031 A 
ATOM     48  C   UNL A   1      42.375  24.666  28.084  1.00  0.00     0.031 A 
ATOM     49  C   UNL A   1      45.093  29.948  30.764  1.00  0.00     0.049 A 
ATOM     50  C   UNL A   1      43.769  24.983  28.544  1.00  0.00     0.074 A 
ATOM     51  C   UNL A   1      46.392  30.101  31.217  1.00  0.00     0.029 A 
ATOM     52  N   UNL A   1      45.000  28.668  30.238  1.00  0.00    -0.354 N 
ATOM     53  N   UNL A   1      44.226  26.086  29.086  1.00  0.00    -0.248 NA
ATOM     54  C   UNL A   1      44.778  23.927  28.379  1.00  0.00     0.031 C 
ATOM     55  C   UNL A   1      47.096  28.928  30.927  1.00  0.00     0.029 A 
ATOM     56  C   UNL A   1      46.224  28.029  30.336  1.00  0.00     0.049 A 
ATOM     57  H   UNL A   1      44.185  28.273  29.852  1.00  0.00     0.167 HD
ATOM     58  C   UNL A   1      45.571  25.852  29.342  1.00  0.00     0.074 A 
ATOM     59  C   UNL A   1      45.852  24.498  28.908  1.00  0.00     0.031 C 
ATOM     60  C   UNL A   1      46.489  26.686  29.889  1.00  0.00     0.031 A 
BRANCH  47  61
ATOM     61  C   UNL A   1      44.281  32.267  31.355  1.00  0.00    -0.014 A 
ATOM     62  C   UNL A   1      44.706  33.311  30.517  1.00  0.00     0.009 A 
ATOM     63  C   UNL A   1      44.083  32.527  32.719  1.00  0.00     0.009 A 
ATOM     64  C   UNL A   1      44.966  34.578  31.044  1.00  0.00     0.001 A 
ATOM     65  C   UNL A   1      44.317  33.803  33.237  1.00  0.00     0.001 A 
ATOM     66  C   UNL A   1      44.768  34.824  32.402  1.00  0.00     0.000 A 
ENDBRANCH  47  61
BRANCH  48  67
ATOM     67  C   UNL A   1      42.034  23.328  27.538  1.00  0.00    -0.014 A 
ATOM     68  C   UNL A   1      42.315  23.021  26.199  1.00  0.00     0.009 A 
ATOM     69  C   UNL A   1      41.470  22.339  28.359  1.00  0.00     0.009 A 
ATOM     70  C   UNL A   1      42.033  21.751  25.690  1.00  0.00     0.001 A 
ATOM     71  C   UNL A   1      41.211  21.064  27.854  1.00  0.00     0.001 A 
ATOM     72  C   UNL A   1      41.488  20.772  26.520  1.00  0.00     0.000 A 
ENDBRANCH  48  67
BRANCH  60  73
ATOM     73  C   UNL A   1      47.885  26.161  30.059  1.00  0.00    -0.014 A 
ATOM     74  C   UNL A   1      48.802  26.191  28.998  1.00  0.00     0.009 A 
ATOM     75  C   UNL A   1      48.308  25.700  31.315  1.00  0.00     0.009 A 
ATOM     76  C   UNL A   1      50.114  25.752  29.188  1.00  0.00     0.001 A 
ATOM     77  C   UNL A   1      49.626  25.284  31.508  1.00  0.00     0.001 A 
ATOM     78  C   UNL A   1      50.526  25.306  30.443  1.00  0.00     0.000 A 
ENDBRANCH  60  73
ENDBRANCH  34  35
ENDBRANCH  26  29
ENDBRANCH  24  25
ENDBRANCH   1  24
TORSDOF 11
ENDMDL
MODEL 2
REMARK VINA RESULT:     -11.7      3.165      7.795
REMARK SMILES Cc1cc2c(c(C)c1Cl)C=C(C(=O)NCCCNC(=O)c1ccc(-c3c4nc(c(-c5ccccc5)c5ccc([nH]5)c(-c5ccccc5)c5nc(c(-c6ccccc6)c6ccc3[nH]6)C=C5)C=C4)cc1)[C@H](C(F)(F)F)O2
REMARK SMILES IDX 16 1 15 2 14 3 12 4 13 5 11 7 1 8 2 9 3 10 8 11 4 12 6 13
REMARK SMILES IDX 9 14 5 15 74 16 7 17 10 18 69 19 70 20 71 21 72 22 73 23
REMARK SMILES IDX 17 24 18 25 19 26 20 28 21 29 22 30 68 31 23 32 67 33 24 34
REMARK SMILES IDX 25 35 26 36 61 37 27 38 66 39 60 40 62 41 28 42 65 43 59 44
REMARK SMILES IDX 58 45 29 47 51 48 36 49 50 50 37 51 40 52 49 53 63 54 38 55
REMARK SMILES IDX 39 56 48 58 64 59 41 60 30 61 31 62 35 63 32 64 34 65 33 66
REMARK SMILES IDX 52 67 53 68 57 69 54 70 56 71 55 72 42 73 43 74 47 75 44 76
REMARK SMILES IDX 46 77 45 78
REMARK H PARENT 14 6 18 27 62 46 40 57
REMARK Flexibility Score: inf
ROOT
ATOM      1  C   UNL A   1      36.011  23.615  26.031  1.00  0.00     0.042 C 
ENDROOT
BRANCH   1   2
ATOM      2  C   UNL A   1      35.438  22.206  26.150  1.00  0.00     0.118 C 
BRANCH   2   3
ATOM      3  N   UNL A   1      34.437  22.126  27.203  1.00  0.00    -0.352 N 
ATOM      4  C   UNL A   1      33.170  22.550  27.404  1.00  0.00     0.251 C 
ATOM      5  O   UNL A   1      32.675  22.207  28.483  1.00  0.00    -0.270 OA
ATOM      6  H   UNL A   1      34.775  21.628  27.981  1.00  0.00     0.163 HD
BRANCH   4   7
ATOM      7  C   UNL A   1      32.364  23.365  26.450  1.00  0.00     0.067 C 
ATOM      8  C   UNL A   1      29.445  28.073  23.019  1.00  0.00     0.046 C 
ATOM      9  C   UNL A   1      30.288  27.244  23.949  1.00  0.00    -0.028 A 
ATOM     10  C   UNL A   1      30.105  25.857  23.963  1.00  0.00     0.052 A 
ATOM     11  C   UNL A   1      31.231  27.816  24.827  1.00  0.00     0.047 A 
ATOM     12  C   UNL A   1      30.851  25.052  24.818  1.00  0.00     0.128 A 
ATOM     13  C   UNL A   1      31.996  27.009  25.704  1.00  0.00    -0.021 A 
ATOM     14  Cl  UNL A   1      31.420  29.544  24.823  1.00  0.00    -0.084 Cl
ATOM     15  C   UNL A   1      31.783  25.608  25.699  1.00  0.00     0.022 A 
ATOM     16  O   UNL A   1      30.568  23.716  24.762  1.00  0.00    -0.475 OA
ATOM     17  C   UNL A   1      33.017  27.604  26.646  1.00  0.00     0.047 C 
ATOM     18  C   UNL A   1      32.468  24.696  26.618  1.00  0.00     0.026 C 
ATOM     19  C   UNL A   1      31.557  22.808  25.316  1.00  0.00     0.314 C 
BRANCH  19  20
ATOM     20  C   UNL A   1      32.409  22.204  24.186  1.00  0.00     0.429 C 
ATOM     21  F   UNL A   1      32.893  20.979  24.493  1.00  0.00    -0.167 F 
ATOM     22  F   UNL A   1      31.657  22.053  23.065  1.00  0.00    -0.167 F 
ATOM     23  F   UNL A   1      33.469  22.976  23.857  1.00  0.00    -0.167 F 
ENDBRANCH  19  20
ENDBRANCH   4   7
ENDBRANCH   2   3
ENDBRANCH   1   2
BRANCH   1  24
ATOM     24  C   UNL A   1      37.207  23.688  25.083  1.00  0.00     0.118 C 
BRANCH  24  25
ATOM     25  N   UNL A   1      38.252  22.750  25.466  1.00  0.00    -0.352 N 
ATOM     26  C   UNL A   1      39.447  22.972  26.105  1.00  0.00     0.251 C 
ATOM     27  H   UNL A   1      38.074  21.811  25.232  1.00  0.00     0.163 HD
ATOM     28  O   UNL A   1      40.312  22.101  26.085  1.00  0.00    -0.269 OA
BRANCH  26  29
ATOM     29  C   UNL A   1      39.704  24.243  26.817  1.00  0.00     0.039 A 
ATOM     30  C   UNL A   1      40.434  25.245  26.170  1.00  0.00     0.014 A 
ATOM     31  C   UNL A   1      39.296  24.425  28.141  1.00  0.00     0.014 A 
ATOM     32  C   UNL A   1      40.718  26.441  26.834  1.00  0.00     0.010 A 
ATOM     33  C   UNL A   1      39.510  25.646  28.775  1.00  0.00     0.010 A 
ATOM     34  C   UNL A   1      40.241  26.658  28.136  1.00  0.00    -0.014 A 
BRANCH  34  35
ATOM     35  C   UNL A   1      40.531  27.918  28.863  1.00  0.00     0.031 A 
ATOM     36  C   UNL A   1      41.865  28.111  29.532  1.00  0.00     0.074 A 
ATOM     37  C   UNL A   1      39.584  28.870  28.962  1.00  0.00     0.049 A 
ATOM     38  N   UNL A   1      42.287  29.116  30.258  1.00  0.00    -0.248 NA
ATOM     39  C   UNL A   1      42.844  27.022  29.386  1.00  0.00     0.031 C 
ATOM     40  C   UNL A   1      38.243  28.794  28.381  1.00  0.00     0.029 A 
ATOM     41  N   UNL A   1      39.608  30.090  29.590  1.00  0.00    -0.354 N 
ATOM     42  C   UNL A   1      43.568  28.771  30.668  1.00  0.00     0.074 A 
ATOM     43  C   UNL A   1      43.836  27.446  30.155  1.00  0.00     0.031 C 
ATOM     44  C   UNL A   1      37.586  29.934  28.647  1.00  0.00     0.029 A 
ATOM     45  C   UNL A   1      38.442  30.802  29.449  1.00  0.00     0.049 A 
ATOM     46  H   UNL A   1      40.386  30.422  30.093  1.00  0.00     0.167 HD
ATOM     47  C   UNL A   1      44.454  29.499  31.389  1.00  0.00     0.031 A 
ATOM     48  C   UNL A   1      38.101  32.018  29.913  1.00  0.00     0.031 A 
ATOM     49  C   UNL A   1      44.196  30.822  31.887  1.00  0.00     0.049 A 
ATOM     50  C   UNL A   1      39.091  32.802  30.727  1.00  0.00     0.074 A 
ATOM     51  C   UNL A   1      45.046  31.662  32.584  1.00  0.00     0.029 A 
ATOM     52  N   UNL A   1      42.996  31.500  31.737  1.00  0.00    -0.354 N 
ATOM     53  N   UNL A   1      40.314  32.479  31.071  1.00  0.00    -0.248 NA
ATOM     54  C   UNL A   1      38.653  34.118  31.213  1.00  0.00     0.031 C 
ATOM     55  C   UNL A   1      44.345  32.832  32.893  1.00  0.00     0.029 A 
ATOM     56  C   UNL A   1      43.076  32.740  32.347  1.00  0.00     0.049 A 
ATOM     57  H   UNL A   1      42.204  31.152  31.266  1.00  0.00     0.167 HD
ATOM     58  C   UNL A   1      40.799  33.557  31.799  1.00  0.00     0.074 A 
ATOM     59  C   UNL A   1      39.743  34.549  31.837  1.00  0.00     0.031 C 
ATOM     60  C   UNL A   1      42.012  33.709  32.384  1.00  0.00     0.031 A 
BRANCH  47  61
ATOM     61  C   UNL A   1      45.787  28.869  31.681  1.00  0.00    -0.014 A 
ATOM     62  C   UNL A   1      46.873  29.035  30.808  1.00  0.00     0.009 A 
ATOM     63  C   UNL A   1      45.966  28.122  32.856  1.00  0.00     0.009 A 
ATOM     64  C   UNL A   1      48.102  28.432  31.085  1.00  0.00     0.001 A 
ATOM     65  C   UNL A   1      47.204  27.544  33.144  1.00  0.00     0.001 A 
ATOM     66  C   UNL A   1      48.267  27.690  32.254  1.00  0.00     0.000 A 
ENDBRANCH  47  61
BRANCH  48  67
ATOM     67  C   UNL A   1      36.768  32.580  29.579  1.00  0.00    -0.014 A 
ATOM     68  C   UNL A   1      36.563  33.226  28.351  1.00  0.00     0.009 A 
ATOM     69  C   UNL A   1      35.686  32.434  30.460  1.00  0.00     0.009 A 
ATOM     70  C   UNL A   1      35.301  33.722  28.014  1.00  0.00     0.001 A 
ATOM     71  C   UNL A   1      34.420  32.910  30.111  1.00  0.00     0.001 A 
ATOM     72  C   UNL A   1      34.230  33.556  28.891  1.00  0.00     0.000 A 
ENDBRANCH  48  67
BRANCH  60  73
ATOM     73  C   UNL A   1      42.272  34.998  33.110  1.00  0.00    -0.014 A 
ATOM     74  C   UNL A   1      41.781  35.207  34.408  1.00  0.00     0.009 A 
ATOM     75  C   UNL A   1      43.079  35.981  32.518  1.00  0.00     0.009 A 
ATOM     76  C   UNL A   1      42.079  36.387  35.092  1.00  0.00     0.001 A 
ATOM     77  C   UNL A   1      43.395  37.149  33.213  1.00  0.00     0.001 A 
ATOM     78  C   UNL A   1      42.891  37.353  34.497  1.00  0.00     0.000 A 
ENDBRANCH  60  73
ENDBRANCH  34  35
ENDBRANCH  26  29
ENDBRANCH  24  25
ENDBRANCH   1  24
TORSDOF 11
ENDMDL
MODEL 3
REMARK VINA RESULT:     -11.6      0.212      5.983
REMARK SMILES Cc1cc2c(c(C)c1Cl)C=C(C(=O)NCCCNC(=O)c1ccc(-c3c4nc(c(-c5ccccc5)c5ccc([nH]5)c(-c5ccccc5)c5nc(c(-c6ccccc6)c6ccc3[nH]6)C=C5)C=C4)cc1)[C@H](C(F)(F)F)O2
REMARK SMILES IDX 16 1 15 2 14 3 12 4 13 5 11 7 1 8 2 9 3 10 8 11 4 12 6 13
REMARK SMILES IDX 9 14 5 15 74 16 7 17 10 18 69 19 70 20 71 21 72 22 73 23
REMARK SMILES IDX 17 24 18 25 19 26 20 28 21 29 22 30 68 31 23 32 67 33 24 34
REMARK SMILES IDX 25 35 26 36 61 37 27 38 66 39 60 40 62 41 28 42 65 43 59 44
REMARK SMILES IDX 58 45 29 47 51 48 36 49 50 50 37 51 40 52 49 53 63 54 38 55
REMARK SMILES IDX 39 56 48 58 64 59 41 60 30 61 31 62 35 63 32 64 34 65 33 66
REMARK SMILES IDX 52 67 53 68 57 69 54 70 56 71 55 72 42 73 43 74 47 75 44 76
REMARK SMILES IDX 46 77 45 78
REMARK H PARENT 14 6 18 27 62 46 40 57
REMARK Flexibility Score: inf
ROOT
ATOM      1  C   UNL A   1      34.048  28.270  25.872  1.00  0.00     0.042 C 
ENDROOT
BRANCH   1   2
ATOM      2  C   UNL A   1      33.138  28.986  24.879  1.00  0.00     0.118 C 
BRANCH   2   3
ATOM      3  N   UNL A   1      33.618  28.836  23.515  1.00  0.00    -0.352 N 
ATOM      4  C   UNL A   1      33.667  27.862  22.579  1.00  0.00     0.251 C 
ATOM      5  O   UNL A   1      34.155  28.207  21.497  1.00  0.00    -0.270 OA
ATOM      6  H   UNL A   1      34.015  29.673  23.181  1.00  0.00     0.163 HD
BRANCH   4   7
ATOM      7  C   UNL A   1      33.191  26.460  22.758  1.00  0.00     0.067 C 
ATOM      8  C   UNL A   1      32.486  20.116  24.066  1.00  0.00     0.046 C 
ATOM      9  C   UNL A   1      32.944  21.542  23.923  1.00  0.00    -0.028 A 
ATOM     10  C   UNL A   1      32.121  22.446  23.243  1.00  0.00     0.052 A 
ATOM     11  C   UNL A   1      34.185  21.991  24.421  1.00  0.00     0.047 A 
ATOM     12  C   UNL A   1      32.511  23.770  23.072  1.00  0.00     0.128 A 
ATOM     13  C   UNL A   1      34.595  23.336  24.253  1.00  0.00    -0.021 A 
ATOM     14  Cl  UNL A   1      35.211  20.846  25.232  1.00  0.00    -0.084 Cl
ATOM     15  C   UNL A   1      33.742  24.226  23.554  1.00  0.00     0.022 A 
ATOM     16  O   UNL A   1      31.638  24.554  22.370  1.00  0.00    -0.475 OA
ATOM     17  C   UNL A   1      35.918  23.837  24.788  1.00  0.00     0.047 C 
ATOM     18  C   UNL A   1      34.107  25.614  23.264  1.00  0.00     0.026 C 
ATOM     19  C   UNL A   1      31.790  25.992  22.501  1.00  0.00     0.314 C 
BRANCH  19  20
ATOM     20  C   UNL A   1      30.759  26.542  23.501  1.00  0.00     0.429 C 
ATOM     21  F   UNL A   1      31.199  26.509  24.779  1.00  0.00    -0.167 F 
ATOM     22  F   UNL A   1      30.485  27.842  23.220  1.00  0.00    -0.167 F 
ATOM     23  F   UNL A   1      29.586  25.870  23.470  1.00  0.00    -0.167 F 
ENDBRANCH  19  20
ENDBRANCH   4   7
ENDBRANCH   2   3
ENDBRANCH   1   2
BRANCH   1  24
ATOM     24  C   UNL A   1      33.626  28.489  27.324  1.00  0.00     0.118 C 
BRANCH  24  25
ATOM     25  N   UNL A   1      33.577  29.905  27.660  1.00  0.00    -0.352 N 
ATOM     26  C   UNL A   1      34.492  30.689  28.317  1.00  0.00     0.251 C 
ATOM     27  H   UNL A   1      32.761  30.372  27.371  1.00  0.00     0.163 HD
ATOM     28  O   UNL A   1      34.146  31.784  28.751  1.00  0.00    -0.269 OA
BRANCH  26  29
ATOM     29  C   UNL A   1      35.887  30.233  28.506  1.00  0.00     0.039 A 
ATOM     30  C   UNL A   1      36.262  29.701  29.744  1.00  0.00     0.014 A 
ATOM     31  C   UNL A   1      36.844  30.394  27.500  1.00  0.00     0.014 A 
ATOM     32  C   UNL A   1      37.582  29.295  29.958  1.00  0.00     0.010 A 
ATOM     33  C   UNL A   1      38.138  29.917  27.686  1.00  0.00     0.010 A 
ATOM     34  C   UNL A   1      38.526  29.383  28.923  1.00  0.00    -0.014 A 
BRANCH  34  35
ATOM     35  C   UNL A   1      39.933  28.959  29.126  1.00  0.00     0.031 A 
ATOM     36  C   UNL A   1      40.369  27.577  28.723  1.00  0.00     0.074 A 
ATOM     37  C   UNL A   1      40.808  29.796  29.715  1.00  0.00     0.049 A 
ATOM     38  N   UNL A   1      41.537  27.004  28.868  1.00  0.00    -0.248 NA
ATOM     39  C   UNL A   1      39.352  26.718  28.093  1.00  0.00     0.031 C 
ATOM     40  C   UNL A   1      40.504  31.152  30.176  1.00  0.00     0.029 A 
ATOM     41  N   UNL A   1      42.133  29.626  30.026  1.00  0.00    -0.354 N 
ATOM     42  C   UNL A   1      41.389  25.717  28.368  1.00  0.00     0.074 A 
ATOM     43  C   UNL A   1      40.009  25.575  27.962  1.00  0.00     0.031 C 
ATOM     44  C   UNL A   1      41.620  31.704  30.676  1.00  0.00     0.029 A 
ATOM     45  C   UNL A   1      42.706  30.730  30.608  1.00  0.00     0.049 A 
ATOM     46  H   UNL A   1      42.626  28.792  29.849  1.00  0.00     0.167 HD
ATOM     47  C   UNL A   1      42.324  24.744  28.237  1.00  0.00     0.031 A 
ATOM     48  C   UNL A   1      43.965  30.937  31.038  1.00  0.00     0.031 A 
ATOM     49  C   UNL A   1      43.700  24.889  28.625  1.00  0.00     0.049 A 
ATOM     50  C   UNL A   1      44.981  29.839  30.900  1.00  0.00     0.074 A 
ATOM     51  C   UNL A   1      44.734  23.980  28.486  1.00  0.00     0.029 A 
ATOM     52  N   UNL A   1      44.234  26.018  29.227  1.00  0.00    -0.354 N 
ATOM     53  N   UNL A   1      44.835  28.642  30.387  1.00  0.00    -0.248 NA
ATOM     54  C   UNL A   1      46.334  30.124  31.399  1.00  0.00     0.031 C 
ATOM     55  C   UNL A   1      45.886  24.544  29.043  1.00  0.00     0.029 A 
ATOM     56  C   UNL A   1      45.579  25.821  29.485  1.00  0.00     0.049 A 
ATOM     57  H   UNL A   1      43.732  26.837  29.438  1.00  0.00     0.167 HD
ATOM     58  C   UNL A   1      46.080  28.035  30.485  1.00  0.00     0.074 A 
ATOM     59  C   UNL A   1      46.972  29.000  31.095  1.00  0.00     0.031 C 
ATOM     60  C   UNL A   1      46.449  26.788  30.103  1.00  0.00     0.031 A 
BRANCH  47  61
ATOM     61  C   UNL A   1      41.877  23.436  27.648  1.00  0.00    -0.014 A 
ATOM     62  C   UNL A   1      41.359  22.415  28.460  1.00  0.00     0.009 A 
ATOM     63  C   UNL A   1      41.952  23.231  26.261  1.00  0.00     0.009 A 
ATOM     64  C   UNL A   1      40.961  21.199  27.900  1.00  0.00     0.001 A 
ATOM     65  C   UNL A   1      41.527  22.024  25.702  1.00  0.00     0.001 A 
ATOM     66  C   UNL A   1      41.042  21.006  26.521  1.00  0.00     0.000 A 
ENDBRANCH  47  61
BRANCH  48  67
ATOM     67  C   UNL A   1      44.335  32.258  31.604  1.00  0.00    -0.014 A 
ATOM     68  C   UNL A   1      44.765  33.291  30.759  1.00  0.00     0.009 A 
ATOM     69  C   UNL A   1      44.219  32.508  32.980  1.00  0.00     0.009 A 
ATOM     70  C   UNL A   1      45.078  34.549  31.281  1.00  0.00     0.001 A 
ATOM     71  C   UNL A   1      44.511  33.773  33.496  1.00  0.00     0.001 A 
ATOM     72  C   UNL A   1      44.943  34.790  32.647  1.00  0.00     0.000 A 
ENDBRANCH  48  67
BRANCH  60  73
ATOM     73  C   UNL A   1      47.881  26.393  30.323  1.00  0.00    -0.014 A 
ATOM     74  C   UNL A   1      48.291  25.809  31.531  1.00  0.00     0.009 A 
ATOM     75  C   UNL A   1      48.812  26.539  29.284  1.00  0.00     0.009 A 
ATOM     76  C   UNL A   1      49.614  25.395  31.699  1.00  0.00     0.001 A 
ATOM     77  C   UNL A   1      50.128  26.102  29.447  1.00  0.00     0.001 A 
ATOM     78  C   UNL A   1      50.529  25.535  30.655  1.00  0.00     0.000 A 
ENDBRANCH  60  73
ENDBRANCH  34  35
ENDBRANCH  26  29
ENDBRANCH  24  25
ENDBRANCH   1  24
TORSDOF 11
ENDMDL
