MODEL 1
REMARK VINA RESULT:     -13.5      0.000      0.000
REMARK SMILES O=C(NCCCNC(=O)[C@H]1CCCN(c2cc(-c3ccccn3)nc(-c3ccccc3F)n2)C1)c1ccc(-c2c3nc(c(-c4ccccc4)c4ccc([nH]4)c(-c4ccccc4)c4nc(c(-c5ccccc5)c5ccc2[nH]5)C=C4)C=C3)cc1
REMARK SMILES IDX 5 1 4 2 3 3 1 4 2 5 35 7 36 8 82 9 37 10 81 11 38 12 39 13
REMARK SMILES IDX 40 14 75 15 41 16 80 17 74 18 76 19 42 20 79 21 73 22 72 23
REMARK SMILES IDX 43 25 65 26 50 27 64 28 51 29 54 30 63 31 77 32 52 33 53 34
REMARK SMILES IDX 62 36 78 37 55 38 44 39 45 40 49 41 46 42 48 43 47 44 66 45
REMARK SMILES IDX 67 46 71 47 68 48 70 49 69 50 56 51 57 52 61 53 58 54 60 55
REMARK SMILES IDX 59 56 6 57 7 58 8 59 9 61 10 62 11 63 34 64 12 65 14 66
REMARK SMILES IDX 13 67 15 68 16 69 33 70 17 71 25 72 24 73 18 74 19 75 23 76
REMARK SMILES IDX 20 77 22 78 21 79 26 80 27 81 31 82 28 83 30 84 32 85 29 86
REMARK H PARENT 3 6 76 24 54 35 7 60
REMARK Flexibility Score: inf
ROOT
ATOM      1  C   UNL A   1      34.056  28.623  24.102  1.00  0.00     0.042 C 
ENDROOT
BRANCH   1   2
ATOM      2  C   UNL A   1      33.517  28.733  25.521  1.00  0.00     0.118 C 
BRANCH   2   3
ATOM      3  N   UNL A   1      33.012  30.075  25.803  1.00  0.00    -0.352 N 
ATOM      4  O   UNL A   1      32.608  31.908  27.048  1.00  0.00    -0.269 OA
ATOM      5  C   UNL A   1      33.340  30.956  26.806  1.00  0.00     0.251 C 
ATOM      6  H   UNL A   1      32.327  30.401  25.175  1.00  0.00     0.163 HD
BRANCH   5   7
ATOM      7  C   UNL A   1      34.578  30.753  27.583  1.00  0.00     0.039 A 
ATOM      8  C   UNL A   1      34.842  29.511  28.157  1.00  0.00     0.014 A 
ATOM      9  C   UNL A   1      35.502  31.795  27.708  1.00  0.00     0.014 A 
ATOM     10  C   UNL A   1      35.927  29.360  29.000  1.00  0.00     0.010 A 
ATOM     11  C   UNL A   1      36.668  31.598  28.452  1.00  0.00     0.010 A 
ATOM     12  C   UNL A   1      36.876  30.386  29.127  1.00  0.00    -0.014 A 
BRANCH  12  13
ATOM     13  C   UNL A   1      38.109  30.106  29.901  1.00  0.00     0.031 A 
ATOM     14  C   UNL A   1      38.284  30.608  31.303  1.00  0.00     0.074 A 
ATOM     15  C   UNL A   1      39.048  29.322  29.331  1.00  0.00     0.049 A 
ATOM     16  N   UNL A   1      39.276  30.395  32.130  1.00  0.00    -0.248 NA
ATOM     17  C   UNL A   1      37.218  31.461  31.851  1.00  0.00     0.031 C 
ATOM     18  C   UNL A   1      38.981  28.781  27.968  1.00  0.00     0.029 A 
ATOM     19  N   UNL A   1      40.215  28.811  29.832  1.00  0.00    -0.354 N 
ATOM     20  C   UNL A   1      38.961  31.094  33.289  1.00  0.00     0.074 A 
ATOM     21  C   UNL A   1      37.702  31.765  33.048  1.00  0.00     0.031 C 
ATOM     22  C   UNL A   1      40.019  27.958  27.770  1.00  0.00     0.029 A 
ATOM     23  C   UNL A   1      40.868  27.980  28.952  1.00  0.00     0.049 A 
ATOM     24  H   UNL A   1      40.554  29.018  30.732  1.00  0.00     0.167 HD
ATOM     25  C   UNL A   1      39.658  31.160  34.450  1.00  0.00     0.031 A 
ATOM     26  C   UNL A   1      42.034  27.323  29.073  1.00  0.00     0.031 A 
ATOM     27  C   UNL A   1      40.917  30.497  34.675  1.00  0.00     0.049 A 
ATOM     28  C   UNL A   1      42.802  27.455  30.353  1.00  0.00     0.074 A 
ATOM     29  C   UNL A   1      41.704  30.504  35.813  1.00  0.00     0.029 A 
ATOM     30  N   UNL A   1      41.573  29.708  33.742  1.00  0.00    -0.354 N 
ATOM     31  N   UNL A   1      42.481  28.108  31.444  1.00  0.00    -0.248 NA
ATOM     32  C   UNL A   1      44.092  26.757  30.420  1.00  0.00     0.031 C 
ATOM     33  C   UNL A   1      42.860  29.761  35.552  1.00  0.00     0.029 A 
ATOM     34  C   UNL A   1      42.763  29.238  34.273  1.00  0.00     0.049 A 
ATOM     35  H   UNL A   1      41.241  29.510  32.836  1.00  0.00     0.167 HD
ATOM     36  C   UNL A   1      43.523  27.890  32.333  1.00  0.00     0.074 A 
ATOM     37  C   UNL A   1      44.467  27.017  31.663  1.00  0.00     0.031 C 
ATOM     38  C   UNL A   1      43.690  28.375  33.587  1.00  0.00     0.031 A 
BRANCH  25  39
ATOM     39  C   UNL A   1      39.083  31.997  35.559  1.00  0.00    -0.014 A 
ATOM     40  C   UNL A   1      38.247  31.435  36.537  1.00  0.00     0.009 A 
ATOM     41  C   UNL A   1      39.420  33.357  35.657  1.00  0.00     0.009 A 
ATOM     42  C   UNL A   1      37.739  32.223  37.573  1.00  0.00     0.001 A 
ATOM     43  C   UNL A   1      38.934  34.135  36.709  1.00  0.00     0.001 A 
ATOM     44  C   UNL A   1      38.088  33.570  37.662  1.00  0.00     0.000 A 
ENDBRANCH  25  39
BRANCH  26  45
ATOM     45  C   UNL A   1      42.558  26.519  27.938  1.00  0.00    -0.014 A 
ATOM     46  C   UNL A   1      42.288  25.147  27.840  1.00  0.00     0.009 A 
ATOM     47  C   UNL A   1      43.340  27.130  26.943  1.00  0.00     0.009 A 
ATOM     48  C   UNL A   1      42.818  24.397  26.787  1.00  0.00     0.001 A 
ATOM     49  C   UNL A   1      43.837  26.386  25.872  1.00  0.00     0.001 A 
ATOM     50  C   UNL A   1      43.586  25.017  25.802  1.00  0.00     0.000 A 
ENDBRANCH  26  45
BRANCH  38  51
ATOM     51  C   UNL A   1      44.927  27.937  34.319  1.00  0.00    -0.014 A 
ATOM     52  C   UNL A   1      44.919  26.806  35.152  1.00  0.00     0.009 A 
ATOM     53  C   UNL A   1      46.117  28.664  34.166  1.00  0.00     0.009 A 
ATOM     54  C   UNL A   1      46.070  26.439  35.851  1.00  0.00     0.001 A 
ATOM     55  C   UNL A   1      47.274  28.276  34.842  1.00  0.00     0.001 A 
ATOM     56  C   UNL A   1      47.246  27.172  35.693  1.00  0.00     0.000 A 
ENDBRANCH  38  51
ENDBRANCH  12  13
ENDBRANCH   5   7
ENDBRANCH   2   3
ENDBRANCH   1   2
BRANCH   1  57
ATOM     57  C   UNL A   1      32.958  28.834  23.076  1.00  0.00     0.117 C 
BRANCH  57  58
ATOM     58  N   UNL A   1      33.095  27.920  21.957  1.00  0.00    -0.356 N 
ATOM     59  C   UNL A   1      33.020  26.576  21.809  1.00  0.00     0.224 C 
ATOM     60  H   UNL A   1      33.287  28.384  21.110  1.00  0.00     0.163 HD
ATOM     61  O   UNL A   1      33.269  26.174  20.665  1.00  0.00    -0.275 OA
BRANCH  59  62
ATOM     62  C   UNL A   1      32.712  25.576  22.932  1.00  0.00     0.098 C 
ATOM     63  C   UNL A   1      31.240  25.445  23.341  1.00  0.00     0.017 C 
ATOM     64  C   UNL A   1      33.303  24.231  22.455  1.00  0.00     0.131 C 
ATOM     65  C   UNL A   1      30.905  24.200  24.148  1.00  0.00     0.022 C 
ATOM     66  N   UNL A   1      32.794  23.090  23.207  1.00  0.00    -0.356 N 
ATOM     67  C   UNL A   1      31.363  22.966  23.397  1.00  0.00     0.118 C 
BRANCH  66  68
ATOM     68  C   UNL A   1      33.661  22.242  23.861  1.00  0.00     0.133 A 
ATOM     69  C   UNL A   1      33.296  20.926  24.044  1.00  0.00     0.077 A 
ATOM     70  N   UNL A   1      34.844  22.699  24.295  1.00  0.00    -0.211 NA
ATOM     71  C   UNL A   1      34.188  20.086  24.673  1.00  0.00     0.095 A 
ATOM     72  C   UNL A   1      35.652  21.816  24.917  1.00  0.00     0.165 A 
ATOM     73  N   UNL A   1      35.375  20.519  25.130  1.00  0.00    -0.226 NA
BRANCH  71  74
ATOM     74  C   UNL A   1      33.865  18.661  24.819  1.00  0.00     0.089 A 
ATOM     75  C   UNL A   1      34.710  17.682  24.289  1.00  0.00     0.030 A 
ATOM     76  N   UNL A   1      32.669  18.357  25.381  1.00  0.00    -0.255 NA
ATOM     77  C   UNL A   1      34.315  16.349  24.335  1.00  0.00     0.004 A 
ATOM     78  C   UNL A   1      32.319  17.053  25.425  1.00  0.00     0.112 A 
ATOM     79  C   UNL A   1      33.095  16.026  24.914  1.00  0.00     0.020 A 
ENDBRANCH  71  74
BRANCH  72  80
ATOM     80  C   UNL A   1      36.912  22.316  25.457  1.00  0.00     0.055 A 
ATOM     81  C   UNL A   1      37.021  23.619  25.976  1.00  0.00     0.015 A 
ATOM     82  C   UNL A   1      38.045  21.497  25.509  1.00  0.00     0.134 A 
ATOM     83  C   UNL A   1      38.218  24.069  26.548  1.00  0.00     0.001 A 
ATOM     84  C   UNL A   1      39.243  21.941  26.068  1.00  0.00     0.040 A 
ATOM     85  F   UNL A   1      38.009  20.256  25.000  1.00  0.00    -0.206 F 
ATOM     86  C   UNL A   1      39.328  23.228  26.595  1.00  0.00     0.003 A 
ENDBRANCH  72  80
ENDBRANCH  66  68
ENDBRANCH  59  62
ENDBRANCH  57  58
ENDBRANCH   1  57
TORSDOF 13
ENDMDL
MODEL 2
REMARK VINA RESULT:     -13.3      3.960      9.405
REMARK SMILES O=C(NCCCNC(=O)[C@H]1CCCN(c2cc(-c3ccccn3)nc(-c3ccccc3F)n2)C1)c1ccc(-c2c3nc(c(-c4ccccc4)c4ccc([nH]4)c(-c4ccccc4)c4nc(c(-c5ccccc5)c5ccc2[nH]5)C=C4)C=C3)cc1
REMARK SMILES IDX 5 1 4 2 3 3 1 4 2 5 35 7 36 8 82 9 37 10 81 11 38 12 39 13
REMARK SMILES IDX 40 14 75 15 41 16 80 17 74 18 76 19 42 20 79 21 73 22 72 23
REMARK SMILES IDX 43 25 65 26 50 27 64 28 51 29 54 30 63 31 77 32 52 33 53 34
REMARK SMILES IDX 62 36 78 37 55 38 44 39 45 40 49 41 46 42 48 43 47 44 66 45
REMARK SMILES IDX 67 46 71 47 68 48 70 49 69 50 56 51 57 52 61 53 58 54 60 55
REMARK SMILES IDX 59 56 6 57 7 58 8 59 9 61 10 62 11 63 34 64 12 65 14 66
REMARK SMILES IDX 13 67 15 68 16 69 33 70 17 71 25 72 24 73 18 74 19 75 23 76
REMARK SMILES IDX 20 77 22 78 21 79 26 80 27 81 31 82 28 83 30 84 32 85 29 86
REMARK H PARENT 3 6 76 24 54 35 7 60
REMARK Flexibility Score: inf
ROOT
ATOM      1  C   UNL A   1      34.835  22.465  27.031  1.00  0.00     0.042 C 
ENDROOT
BRANCH   1   2
ATOM      2  C   UNL A   1      35.806  22.587  25.867  1.00  0.00     0.118 C 
BRANCH   2   3
ATOM      3  N   UNL A   1      36.689  21.426  25.775  1.00  0.00    -0.352 N 
ATOM      4  O   UNL A   1      38.610  20.320  25.377  1.00  0.00    -0.269 OA
ATOM      5  C   UNL A   1      38.060  21.351  25.747  1.00  0.00     0.251 C 
ATOM      6  H   UNL A   1      36.226  20.558  25.726  1.00  0.00     0.163 HD
BRANCH   5   7
ATOM      7  C   UNL A   1      38.866  22.512  26.170  1.00  0.00     0.039 A 
ATOM      8  C   UNL A   1      38.443  23.802  25.856  1.00  0.00     0.014 A 
ATOM      9  C   UNL A   1      40.031  22.319  26.918  1.00  0.00     0.014 A 
ATOM     10  C   UNL A   1      39.265  24.881  26.126  1.00  0.00     0.010 A 
ATOM     11  C   UNL A   1      40.794  23.423  27.307  1.00  0.00     0.010 A 
ATOM     12  C   UNL A   1      40.429  24.712  26.890  1.00  0.00    -0.014 A 
BRANCH  12  13
ATOM     13  C   UNL A   1      41.177  25.923  27.301  1.00  0.00     0.031 A 
ATOM     14  C   UNL A   1      42.537  26.231  26.746  1.00  0.00     0.074 A 
ATOM     15  C   UNL A   1      40.570  26.786  28.142  1.00  0.00     0.049 A 
ATOM     16  N   UNL A   1      43.290  27.280  26.960  1.00  0.00    -0.248 NA
ATOM     17  C   UNL A   1      43.134  25.238  25.839  1.00  0.00     0.031 C 
ATOM     18  C   UNL A   1      39.247  26.584  28.747  1.00  0.00     0.029 A 
ATOM     19  N   UNL A   1      40.957  28.016  28.602  1.00  0.00    -0.354 N 
ATOM     20  C   UNL A   1      44.451  27.070  26.227  1.00  0.00     0.074 A 
ATOM     21  C   UNL A   1      44.319  25.779  25.588  1.00  0.00     0.031 C 
ATOM     22  C   UNL A   1      38.905  27.681  29.434  1.00  0.00     0.029 A 
ATOM     23  C   UNL A   1      40.013  28.625  29.394  1.00  0.00     0.049 A 
ATOM     24  H   UNL A   1      41.827  28.424  28.387  1.00  0.00     0.167 HD
ATOM     25  C   UNL A   1      45.524  27.887  26.095  1.00  0.00     0.031 A 
ATOM     26  C   UNL A   1      40.041  29.804  30.037  1.00  0.00     0.031 A 
ATOM     27  C   UNL A   1      45.650  29.167  26.745  1.00  0.00     0.049 A 
ATOM     28  C   UNL A   1      41.262  30.663  29.906  1.00  0.00     0.074 A 
ATOM     29  C   UNL A   1      46.698  30.068  26.679  1.00  0.00     0.029 A 
ATOM     30  N   UNL A   1      44.696  29.725  27.582  1.00  0.00    -0.354 N 
ATOM     31  N   UNL A   1      42.345  30.456  29.196  1.00  0.00    -0.248 NA
ATOM     32  C   UNL A   1      41.265  31.920  30.664  1.00  0.00     0.031 C 
ATOM     33  C   UNL A   1      46.400  31.149  27.516  1.00  0.00     0.029 A 
ATOM     34  C   UNL A   1      45.138  30.951  28.052  1.00  0.00     0.049 A 
ATOM     35  H   UNL A   1      43.830  29.312  27.808  1.00  0.00     0.167 HD
ATOM     36  C   UNL A   1      43.154  31.562  29.411  1.00  0.00     0.074 A 
ATOM     37  C   UNL A   1      42.420  32.451  30.290  1.00  0.00     0.031 C 
ATOM     38  C   UNL A   1      44.395  31.817  28.932  1.00  0.00     0.031 A 
BRANCH  25  39
ATOM     39  C   UNL A   1      46.657  27.412  25.228  1.00  0.00    -0.014 A 
ATOM     40  C   UNL A   1      47.578  26.460  25.692  1.00  0.00     0.009 A 
ATOM     41  C   UNL A   1      46.778  27.886  23.911  1.00  0.00     0.009 A 
ATOM     42  C   UNL A   1      48.614  26.014  24.865  1.00  0.00     0.001 A 
ATOM     43  C   UNL A   1      47.796  27.417  23.079  1.00  0.00     0.001 A 
ATOM     44  C   UNL A   1      48.717  26.487  23.558  1.00  0.00     0.000 A 
ENDBRANCH  25  39
BRANCH  26  45
ATOM     45  C   UNL A   1      38.895  30.217  30.887  1.00  0.00    -0.014 A 
ATOM     46  C   UNL A   1      38.849  29.888  32.249  1.00  0.00     0.009 A 
ATOM     47  C   UNL A   1      37.830  30.946  30.330  1.00  0.00     0.009 A 
ATOM     48  C   UNL A   1      37.747  30.250  33.027  1.00  0.00     0.001 A 
ATOM     49  C   UNL A   1      36.748  31.340  31.118  1.00  0.00     0.001 A 
ATOM     50  C   UNL A   1      36.702  30.980  32.464  1.00  0.00     0.000 A 
ENDBRANCH  26  45
BRANCH  38  51
ATOM     51  C   UNL A   1      45.013  33.127  29.328  1.00  0.00    -0.014 A 
ATOM     52  C   UNL A   1      45.815  33.238  30.475  1.00  0.00     0.009 A 
ATOM     53  C   UNL A   1      44.796  34.264  28.534  1.00  0.00     0.009 A 
ATOM     54  C   UNL A   1      46.349  34.474  30.844  1.00  0.00     0.001 A 
ATOM     55  C   UNL A   1      45.358  35.491  28.888  1.00  0.00     0.001 A 
ATOM     56  C   UNL A   1      46.123  35.597  30.049  1.00  0.00     0.000 A 
ENDBRANCH  38  51
ENDBRANCH  12  13
ENDBRANCH   5   7
ENDBRANCH   2   3
ENDBRANCH   1   2
BRANCH   1  57
ATOM     57  C   UNL A   1      33.731  21.469  26.726  1.00  0.00     0.117 C 
BRANCH  57  58
ATOM     58  N   UNL A   1      32.450  21.925  27.235  1.00  0.00    -0.356 N 
ATOM     59  C   UNL A   1      31.562  22.876  26.865  1.00  0.00     0.224 C 
ATOM     60  H   UNL A   1      32.161  21.427  28.034  1.00  0.00     0.163 HD
ATOM     61  O   UNL A   1      30.592  22.992  27.626  1.00  0.00    -0.275 OA
BRANCH  59  62
ATOM     62  C   UNL A   1      31.708  23.803  25.651  1.00  0.00     0.098 C 
ATOM     63  C   UNL A   1      31.443  23.173  24.279  1.00  0.00     0.017 C 
ATOM     64  C   UNL A   1      30.770  24.997  25.931  1.00  0.00     0.131 C 
ATOM     65  C   UNL A   1      31.204  24.165  23.150  1.00  0.00     0.022 C 
ATOM     66  N   UNL A   1      30.493  25.792  24.741  1.00  0.00    -0.356 N 
ATOM     67  C   UNL A   1      30.082  25.110  23.530  1.00  0.00     0.118 C 
BRANCH  66  68
ATOM     68  C   UNL A   1      30.774  27.141  24.720  1.00  0.00     0.133 A 
ATOM     69  C   UNL A   1      30.070  27.956  23.861  1.00  0.00     0.077 A 
ATOM     70  N   UNL A   1      31.709  27.642  25.540  1.00  0.00    -0.211 NA
ATOM     71  C   UNL A   1      30.343  29.306  23.876  1.00  0.00     0.095 A 
ATOM     72  C   UNL A   1      31.929  28.971  25.480  1.00  0.00     0.165 A 
ATOM     73  N   UNL A   1      31.284  29.834  24.677  1.00  0.00    -0.226 NA
BRANCH  71  74
ATOM     74  C   UNL A   1      29.562  30.215  23.029  1.00  0.00     0.089 A 
ATOM     75  C   UNL A   1      28.755  31.204  23.599  1.00  0.00     0.030 A 
ATOM     76  N   UNL A   1      29.574  29.973  21.694  1.00  0.00    -0.255 NA
ATOM     77  C   UNL A   1      27.934  31.967  22.776  1.00  0.00     0.004 A 
ATOM     78  C   UNL A   1      28.778  30.740  20.918  1.00  0.00     0.112 A 
ATOM     79  C   UNL A   1      27.943  31.731  21.409  1.00  0.00     0.020 A 
ENDBRANCH  71  74
BRANCH  72  80
ATOM     80  C   UNL A   1      32.993  29.519  26.314  1.00  0.00     0.055 A 
ATOM     81  C   UNL A   1      34.206  28.831  26.501  1.00  0.00     0.015 A 
ATOM     82  C   UNL A   1      32.853  30.769  26.926  1.00  0.00     0.134 A 
ATOM     83  C   UNL A   1      35.244  29.393  27.253  1.00  0.00     0.001 A 
ATOM     84  C   UNL A   1      33.879  31.331  27.685  1.00  0.00     0.040 A 
ATOM     85  F   UNL A   1      31.706  31.457  26.809  1.00  0.00    -0.206 F 
ATOM     86  C   UNL A   1      35.081  30.645  27.843  1.00  0.00     0.003 A 
ENDBRANCH  72  80
ENDBRANCH  66  68
ENDBRANCH  59  62
ENDBRANCH  57  58
ENDBRANCH   1  57
TORSDOF 13
ENDMDL
MODEL 3
REMARK VINA RESULT:     -13.1      3.993      7.809
REMARK SMILES O=C(NCCCNC(=O)[C@H]1CCCN(c2cc(-c3ccccn3)nc(-c3ccccc3F)n2)C1)c1ccc(-c2c3nc(c(-c4ccccc4)c4ccc([nH]4)c(-c4ccccc4)c4nc(c(-c5ccccc5)c5ccc2[nH]5)C=C4)C=C3)cc1
REMARK SMILES IDX 5 1 4 2 3 3 1 4 2 5 35 7 36 8 82 9 37 10 81 11 38 12 39 13
REMARK SMILES IDX 40 14 75 15 41 16 80 17 74 18 76 19 42 20 79 21 73 22 72 23
REMARK SMILES IDX 43 25 65 26 50 27 64 28 51 29 54 30 63 31 77 32 52 33 53 34
REMARK SMILES IDX 62 36 78 37 55 38 44 39 45 40 49 41 46 42 48 43 47 44 66 45
REMARK SMILES IDX 67 46 71 47 68 48 70 49 69 50 56 51 57 52 61 53 58 54 60 55
REMARK SMILES IDX 59 56 6 57 7 58 8 59 9 61 10 62 11 63 34 64 12 65 14 66
REMARK SMILES IDX 13 67 15 68 16 69 33 70 17 71 25 72 24 73 18 74 19 75 23 76
REMARK SMILES IDX 20 77 22 78 21 79 26 80 27 81 31 82 28 83 30 84 32 85 29 86
REMARK H PARENT 3 6 76 24 54 35 7 60
REMARK Flexibility Score: inf
ROOT
ATOM      1  C   UNL A   1      34.409  21.980  26.295  1.00  0.00     0.042 C 
ENDROOT
BRANCH   1   2
ATOM      2  C   UNL A   1      35.835  22.476  26.103  1.00  0.00     0.118 C 
BRANCH   2   3
ATOM      3  N   UNL A   1      36.780  21.367  25.979  1.00  0.00    -0.352 N 
ATOM      4  O   UNL A   1      38.740  20.372  25.492  1.00  0.00    -0.269 OA
ATOM      5  C   UNL A   1      38.150  21.374  25.878  1.00  0.00     0.251 C 
ATOM      6  H   UNL A   1      36.368  20.473  25.966  1.00  0.00     0.163 HD
BRANCH   5   7
ATOM      7  C   UNL A   1      38.905  22.588  26.241  1.00  0.00     0.039 A 
ATOM      8  C   UNL A   1      38.497  23.830  25.759  1.00  0.00     0.014 A 
ATOM      9  C   UNL A   1      40.005  22.496  27.099  1.00  0.00     0.014 A 
ATOM     10  C   UNL A   1      39.282  24.947  25.980  1.00  0.00     0.010 A 
ATOM     11  C   UNL A   1      40.721  23.649  27.431  1.00  0.00     0.010 A 
ATOM     12  C   UNL A   1      40.380  24.880  26.851  1.00  0.00    -0.014 A 
BRANCH  12  13
ATOM     13  C   UNL A   1      41.078  26.142  27.193  1.00  0.00     0.031 A 
ATOM     14  C   UNL A   1      40.470  27.145  28.128  1.00  0.00     0.074 A 
ATOM     15  C   UNL A   1      42.315  26.335  26.691  1.00  0.00     0.049 A 
ATOM     16  N   UNL A   1      40.983  28.265  28.572  1.00  0.00    -0.248 NA
ATOM     17  C   UNL A   1      39.115  26.865  28.629  1.00  0.00     0.031 C 
ATOM     18  C   UNL A   1      43.002  25.424  25.767  1.00  0.00     0.029 A 
ATOM     19  N   UNL A   1      43.230  27.329  26.913  1.00  0.00    -0.354 N 
ATOM     20  C   UNL A   1      40.014  28.828  29.392  1.00  0.00     0.074 A 
ATOM     21  C   UNL A   1      38.868  27.944  29.360  1.00  0.00     0.031 C 
ATOM     22  C   UNL A   1      44.250  25.863  25.562  1.00  0.00     0.029 A 
ATOM     23  C   UNL A   1      44.425  27.126  26.265  1.00  0.00     0.049 A 
ATOM     24  H   UNL A   1      43.050  28.113  27.481  1.00  0.00     0.167 HD
ATOM     25  C   UNL A   1      40.080  29.974  30.113  1.00  0.00     0.031 A 
ATOM     26  C   UNL A   1      45.535  27.882  26.222  1.00  0.00     0.031 A 
ATOM     27  C   UNL A   1      41.221  30.853  30.129  1.00  0.00     0.049 A 
ATOM     28  C   UNL A   1      45.558  29.167  26.994  1.00  0.00     0.074 A 
ATOM     29  C   UNL A   1      41.386  32.039  30.822  1.00  0.00     0.029 A 
ATOM     30  N   UNL A   1      42.393  30.640  29.418  1.00  0.00    -0.354 N 
ATOM     31  N   UNL A   1      44.637  29.676  27.777  1.00  0.00    -0.248 NA
ATOM     32  C   UNL A   1      46.774  29.981  26.878  1.00  0.00     0.031 C 
ATOM     33  C   UNL A   1      42.638  32.570  30.491  1.00  0.00     0.029 A 
ATOM     34  C   UNL A   1      43.278  31.682  29.642  1.00  0.00     0.049 A 
ATOM     35  H   UNL A   1      42.569  29.863  28.839  1.00  0.00     0.167 HD
ATOM     36  C   UNL A   1      45.167  30.864  28.257  1.00  0.00     0.074 A 
ATOM     37  C   UNL A   1      46.502  30.980  27.704  1.00  0.00     0.031 C 
ATOM     38  C   UNL A   1      44.599  31.781  29.076  1.00  0.00     0.031 A 
BRANCH  25  39
ATOM     39  C   UNL A   1      38.874  30.354  30.928  1.00  0.00    -0.014 A 
ATOM     40  C   UNL A   1      37.854  31.153  30.390  1.00  0.00     0.009 A 
ATOM     41  C   UNL A   1      38.732  29.864  32.237  1.00  0.00     0.009 A 
ATOM     42  C   UNL A   1      36.731  31.479  31.155  1.00  0.00     0.001 A 
ATOM     43  C   UNL A   1      37.596  30.167  32.989  1.00  0.00     0.001 A 
ATOM     44  C   UNL A   1      36.599  30.981  32.450  1.00  0.00     0.000 A 
ENDBRANCH  25  39
BRANCH  26  45
ATOM     45  C   UNL A   1      46.692  27.460  25.391  1.00  0.00    -0.014 A 
ATOM     46  C   UNL A   1      46.830  27.901  24.067  1.00  0.00     0.009 A 
ATOM     47  C   UNL A   1      47.670  26.604  25.926  1.00  0.00     0.009 A 
ATOM     48  C   UNL A   1      47.904  27.466  23.286  1.00  0.00     0.001 A 
ATOM     49  C   UNL A   1      48.761  26.200  25.156  1.00  0.00     0.001 A 
ATOM     50  C   UNL A   1      48.870  26.622  23.832  1.00  0.00     0.000 A 
ENDBRANCH  26  45
BRANCH  38  51
ATOM     51  C   UNL A   1      45.441  32.970  29.443  1.00  0.00    -0.014 A 
ATOM     52  C   UNL A   1      45.403  34.152  28.687  1.00  0.00     0.009 A 
ATOM     53  C   UNL A   1      46.279  32.905  30.567  1.00  0.00     0.009 A 
ATOM     54  C   UNL A   1      46.221  35.231  29.026  1.00  0.00     0.001 A 
ATOM     55  C   UNL A   1      47.072  33.997  30.921  1.00  0.00     0.001 A 
ATOM     56  C   UNL A   1      47.052  35.154  30.143  1.00  0.00     0.000 A 
ENDBRANCH  38  51
ENDBRANCH  12  13
ENDBRANCH   5   7
ENDBRANCH   2   3
ENDBRANCH   1   2
BRANCH   1  57
ATOM     57  C   UNL A   1      33.882  22.336  27.672  1.00  0.00     0.117 C 
BRANCH  57  58
ATOM     58  N   UNL A   1      32.431  22.322  27.705  1.00  0.00    -0.356 N 
ATOM     59  C   UNL A   1      31.455  22.910  26.974  1.00  0.00     0.224 C 
ATOM     60  H   UNL A   1      32.073  21.752  28.424  1.00  0.00     0.163 HD
ATOM     61  O   UNL A   1      30.307  22.683  27.378  1.00  0.00    -0.275 OA
BRANCH  59  62
ATOM     62  C   UNL A   1      31.684  23.835  25.771  1.00  0.00     0.098 C 
ATOM     63  C   UNL A   1      31.526  23.200  24.385  1.00  0.00     0.017 C 
ATOM     64  C   UNL A   1      30.717  25.022  25.977  1.00  0.00     0.131 C 
ATOM     65  C   UNL A   1      31.363  24.187  23.238  1.00  0.00     0.022 C 
ATOM     66  N   UNL A   1      30.522  25.812  24.768  1.00  0.00    -0.356 N 
ATOM     67  C   UNL A   1      30.208  25.124  23.532  1.00  0.00     0.118 C 
BRANCH  66  68
ATOM     68  C   UNL A   1      30.792  27.163  24.764  1.00  0.00     0.133 A 
ATOM     69  C   UNL A   1      30.079  27.984  23.919  1.00  0.00     0.077 A 
ATOM     70  N   UNL A   1      31.727  27.660  25.586  1.00  0.00    -0.211 NA
ATOM     71  C   UNL A   1      30.342  29.336  23.951  1.00  0.00     0.095 A 
ATOM     72  C   UNL A   1      31.937  28.992  25.543  1.00  0.00     0.165 A 
ATOM     73  N   UNL A   1      31.282  29.861  24.754  1.00  0.00    -0.226 NA
BRANCH  71  74
ATOM     74  C   UNL A   1      29.550  30.250  23.119  1.00  0.00     0.089 A 
ATOM     75  C   UNL A   1      28.968  31.393  23.673  1.00  0.00     0.030 A 
ATOM     76  N   UNL A   1      29.322  29.871  21.836  1.00  0.00    -0.255 NA
ATOM     77  C   UNL A   1      28.123  32.172  22.888  1.00  0.00     0.004 A 
ATOM     78  C   UNL A   1      28.510  30.655  21.094  1.00  0.00     0.112 A 
ATOM     79  C   UNL A   1      27.887  31.796  21.573  1.00  0.00     0.020 A 
ENDBRANCH  71  74
BRANCH  72  80
ATOM     80  C   UNL A   1      33.000  29.537  26.380  1.00  0.00     0.055 A 
ATOM     81  C   UNL A   1      34.213  28.849  26.565  1.00  0.00     0.015 A 
ATOM     82  C   UNL A   1      32.858  30.784  26.998  1.00  0.00     0.134 A 
ATOM     83  C   UNL A   1      35.251  29.408  27.321  1.00  0.00     0.001 A 
ATOM     84  C   UNL A   1      33.883  31.344  27.760  1.00  0.00     0.040 A 
ATOM     85  F   UNL A   1      31.711  31.472  26.884  1.00  0.00    -0.206 F 
ATOM     86  C   UNL A   1      35.085  30.657  27.916  1.00  0.00     0.003 A 
ENDBRANCH  72  80
ENDBRANCH  66  68
ENDBRANCH  59  62
ENDBRANCH  57  58
ENDBRANCH   1  57
TORSDOF 13
ENDMDL
