MODEL 1
REMARK VINA RESULT:     -10.4      0.000      0.000
REMARK SMILES CSCCC(=O)N1[C@H](C)CCC[C@@H]1C(=O)NCCCNC(=O)c1ccc(-c2c3nc(c(-c4ccccc4)c4ccc([nH]4)c(-c4ccccc4)c4nc(c(-c5ccccc5)c5ccc2[nH]5)C=C4)C=C3)cc1
REMARK SMILES IDX 17 1 16 2 14 3 15 4 13 6 7 7 8 8 9 9 10 10 12 11 11 12 5 13
REMARK SMILES IDX 6 14 4 15 3 16 2 17 1 18 18 19 19 20 20 21 21 22 22 24 23 25
REMARK SMILES IDX 24 26 70 27 25 28 69 29 26 30 27 31 28 32 63 33 29 34 68 35
REMARK SMILES IDX 62 36 64 37 30 38 67 39 61 40 60 41 31 43 53 44 38 45 52 46
REMARK SMILES IDX 39 47 42 48 51 49 65 50 40 51 41 52 50 54 66 55 43 56 32 57
REMARK SMILES IDX 33 58 37 59 34 60 36 61 35 62 54 63 55 64 59 65 56 66 58 67
REMARK SMILES IDX 57 68 44 69 45 70 49 71 46 72 48 73 47 74
REMARK H PARENT 16 5 20 23 64 42 42 53
REMARK Flexibility Score: inf
ROOT
ATOM      1  C   UNL A   1      31.902  30.751  25.926  1.00  0.00     0.117 C 
ENDROOT
BRANCH   1   2
ATOM      2  N   UNL A   1      31.140  30.426  24.742  1.00  0.00    -0.354 N 
ATOM      3  C   UNL A   1      30.630  29.280  24.217  1.00  0.00     0.242 C 
ATOM      4  O   UNL A   1      29.635  29.458  23.499  1.00  0.00    -0.273 OA
ATOM      5  H   UNL A   1      30.946  31.216  24.187  1.00  0.00     0.163 HD
BRANCH   3   6
ATOM      6  C   UNL A   1      31.230  27.843  24.351  1.00  0.00     0.174 C 
ATOM      7  N   UNL A   1      31.057  27.035  25.587  1.00  0.00    -0.328 N 
ATOM      8  C   UNL A   1      32.010  27.232  26.668  1.00  0.00     0.082 C 
ATOM      9  C   UNL A   1      31.441  28.044  27.830  1.00  0.00     0.031 C 
ATOM     10  C   UNL A   1      33.417  27.603  26.177  1.00  0.00     0.025 C 
ATOM     11  C   UNL A   1      32.658  27.760  23.784  1.00  0.00     0.035 C 
ATOM     12  C   UNL A   1      33.656  27.130  24.749  1.00  0.00     0.005 C 
BRANCH   7  13
ATOM     13  C   UNL A   1      30.329  25.836  25.534  1.00  0.00     0.224 C 
ATOM     14  O   UNL A   1      29.530  25.514  26.415  1.00  0.00    -0.275 OA
BRANCH  13  15
ATOM     15  C   UNL A   1      30.552  24.892  24.343  1.00  0.00     0.111 C 
BRANCH  15  16
ATOM     16  C   UNL A   1      31.849  24.070  24.372  1.00  0.00     0.079 C 
BRANCH  16  17
ATOM     17  S   UNL A   1      32.231  23.290  26.005  1.00  0.00    -0.165 SA
ATOM     18  C   UNL A   1      33.994  23.710  26.208  1.00  0.00     0.085 C 
ENDBRANCH  16  17
ENDBRANCH  15  16
ENDBRANCH  13  15
ENDBRANCH   7  13
ENDBRANCH   3   6
ENDBRANCH   1   2
BRANCH   1  19
ATOM     19  C   UNL A   1      31.403  31.950  26.715  1.00  0.00     0.042 C 
BRANCH  19  20
ATOM     20  C   UNL A   1      32.550  32.799  27.251  1.00  0.00     0.118 C 
BRANCH  20  21
ATOM     21  N   UNL A   1      32.235  34.160  27.666  1.00  0.00    -0.352 N 
ATOM     22  C   UNL A   1      32.937  34.985  28.535  1.00  0.00     0.251 C 
ATOM     23  H   UNL A   1      31.417  34.546  27.278  1.00  0.00     0.163 HD
ATOM     24  O   UNL A   1      32.543  36.115  28.753  1.00  0.00    -0.269 OA
BRANCH  22  25
ATOM     25  C   UNL A   1      34.133  34.461  29.250  1.00  0.00     0.039 A 
ATOM     26  C   UNL A   1      33.960  33.779  30.459  1.00  0.00     0.014 A 
ATOM     27  C   UNL A   1      35.412  34.587  28.714  1.00  0.00     0.014 A 
ATOM     28  C   UNL A   1      35.052  33.147  31.064  1.00  0.00     0.010 A 
ATOM     29  C   UNL A   1      36.461  33.843  29.232  1.00  0.00     0.010 A 
ATOM     30  C   UNL A   1      36.302  33.131  30.426  1.00  0.00    -0.014 A 
BRANCH  30  31
ATOM     31  C   UNL A   1      37.475  32.418  30.993  1.00  0.00     0.031 A 
ATOM     32  C   UNL A   1      38.085  32.894  32.287  1.00  0.00     0.074 A 
ATOM     33  C   UNL A   1      38.044  31.408  30.306  1.00  0.00     0.049 A 
ATOM     34  N   UNL A   1      39.155  32.463  32.904  1.00  0.00    -0.248 NA
ATOM     35  C   UNL A   1      37.436  34.038  32.950  1.00  0.00     0.031 C 
ATOM     36  C   UNL A   1      37.598  30.904  29.003  1.00  0.00     0.029 A 
ATOM     37  N   UNL A   1      39.125  30.621  30.610  1.00  0.00    -0.354 N 
ATOM     38  C   UNL A   1      39.322  33.304  33.998  1.00  0.00     0.074 A 
ATOM     39  C   UNL A   1      38.293  34.314  33.919  1.00  0.00     0.031 C 
ATOM     40  C   UNL A   1      38.367  29.863  28.647  1.00  0.00     0.029 A 
ATOM     41  C   UNL A   1      39.381  29.648  29.674  1.00  0.00     0.049 A 
ATOM     42  H   UNL A   1      39.668  30.743  31.423  1.00  0.00     0.167 HD
ATOM     43  C   UNL A   1      40.226  33.227  35.002  1.00  0.00     0.031 A 
ATOM     44  C   UNL A   1      40.320  28.685  29.654  1.00  0.00     0.031 A 
ATOM     45  C   UNL A   1      41.218  32.193  35.105  1.00  0.00     0.049 A 
ATOM     46  C   UNL A   1      41.279  28.582  30.807  1.00  0.00     0.074 A 
ATOM     47  C   UNL A   1      42.132  31.969  36.118  1.00  0.00     0.029 A 
ATOM     48  N   UNL A   1      41.413  31.199  34.158  1.00  0.00    -0.354 N 
ATOM     49  N   UNL A   1      41.374  29.339  31.873  1.00  0.00    -0.248 NA
ATOM     50  C   UNL A   1      42.250  27.481  30.759  1.00  0.00     0.031 C 
ATOM     51  C   UNL A   1      42.907  30.858  35.766  1.00  0.00     0.029 A 
ATOM     52  C   UNL A   1      42.441  30.364  34.557  1.00  0.00     0.049 A 
ATOM     53  H   UNL A   1      40.896  31.101  33.326  1.00  0.00     0.167 HD
ATOM     54  C   UNL A   1      42.397  28.792  32.637  1.00  0.00     0.074 A 
ATOM     55  C   UNL A   1      42.875  27.627  31.920  1.00  0.00     0.031 C 
ATOM     56  C   UNL A   1      42.898  29.214  33.824  1.00  0.00     0.031 A 
BRANCH  43  57
ATOM     57  C   UNL A   1      40.164  34.284  36.072  1.00  0.00    -0.014 A 
ATOM     58  C   UNL A   1      39.361  34.120  37.213  1.00  0.00     0.009 A 
ATOM     59  C   UNL A   1      40.919  35.459  35.940  1.00  0.00     0.009 A 
ATOM     60  C   UNL A   1      39.278  35.129  38.174  1.00  0.00     0.001 A 
ATOM     61  C   UNL A   1      40.861  36.453  36.920  1.00  0.00     0.001 A 
ATOM     62  C   UNL A   1      40.031  36.292  38.029  1.00  0.00     0.000 A 
ENDBRANCH  43  57
BRANCH  44  63
ATOM     63  C   UNL A   1      40.366  27.708  28.534  1.00  0.00    -0.014 A 
ATOM     64  C   UNL A   1      41.128  27.982  27.387  1.00  0.00     0.009 A 
ATOM     65  C   UNL A   1      39.652  26.503  28.602  1.00  0.00     0.009 A 
ATOM     66  C   UNL A   1      41.151  27.081  26.319  1.00  0.00     0.001 A 
ATOM     67  C   UNL A   1      39.700  25.590  27.544  1.00  0.00     0.001 A 
ATOM     68  C   UNL A   1      40.441  25.885  26.401  1.00  0.00     0.000 A 
ENDBRANCH  44  63
BRANCH  56  69
ATOM     69  C   UNL A   1      44.000  28.391  34.426  1.00  0.00    -0.014 A 
ATOM     70  C   UNL A   1      43.724  27.345  35.318  1.00  0.00     0.009 A 
ATOM     71  C   UNL A   1      45.333  28.651  34.068  1.00  0.00     0.009 A 
ATOM     72  C   UNL A   1      44.765  26.598  35.872  1.00  0.00     0.001 A 
ATOM     73  C   UNL A   1      46.369  27.883  34.601  1.00  0.00     0.001 A 
ATOM     74  C   UNL A   1      46.085  26.867  35.511  1.00  0.00     0.000 A 
ENDBRANCH  56  69
ENDBRANCH  30  31
ENDBRANCH  22  25
ENDBRANCH  20  21
ENDBRANCH  19  20
ENDBRANCH   1  19
TORSDOF 14
ENDMDL
MODEL 2
REMARK VINA RESULT:     -10.3      0.919      1.714
REMARK SMILES CSCCC(=O)N1[C@H](C)CCC[C@@H]1C(=O)NCCCNC(=O)c1ccc(-c2c3nc(c(-c4ccccc4)c4ccc([nH]4)c(-c4ccccc4)c4nc(c(-c5ccccc5)c5ccc2[nH]5)C=C4)C=C3)cc1
REMARK SMILES IDX 17 1 16 2 14 3 15 4 13 6 7 7 8 8 9 9 10 10 12 11 11 12 5 13
REMARK SMILES IDX 6 14 4 15 3 16 2 17 1 18 18 19 19 20 20 21 21 22 22 24 23 25
REMARK SMILES IDX 24 26 70 27 25 28 69 29 26 30 27 31 28 32 63 33 29 34 68 35
REMARK SMILES IDX 62 36 64 37 30 38 67 39 61 40 60 41 31 43 53 44 38 45 52 46
REMARK SMILES IDX 39 47 42 48 51 49 65 50 40 51 41 52 50 54 66 55 43 56 32 57
REMARK SMILES IDX 33 58 37 59 34 60 36 61 35 62 54 63 55 64 59 65 56 66 58 67
REMARK SMILES IDX 57 68 44 69 45 70 49 71 46 72 48 73 47 74
REMARK H PARENT 16 5 20 23 64 42 42 53
REMARK Flexibility Score: inf
ROOT
ATOM      1  C   UNL A   1      31.949  30.444  25.999  1.00  0.00     0.117 C 
ENDROOT
BRANCH   1   2
ATOM      2  N   UNL A   1      31.204  30.163  24.792  1.00  0.00    -0.354 N 
ATOM      3  C   UNL A   1      30.650  29.047  24.248  1.00  0.00     0.242 C 
ATOM      4  O   UNL A   1      29.687  29.279  23.503  1.00  0.00    -0.273 OA
ATOM      5  H   UNL A   1      31.068  30.963  24.236  1.00  0.00     0.163 HD
BRANCH   3   6
ATOM      6  C   UNL A   1      31.170  27.579  24.392  1.00  0.00     0.174 C 
ATOM      7  N   UNL A   1      32.617  27.251  24.305  1.00  0.00    -0.328 N 
ATOM      8  C   UNL A   1      33.189  27.029  22.986  1.00  0.00     0.082 C 
ATOM      9  C   UNL A   1      34.033  28.202  22.492  1.00  0.00     0.031 C 
ATOM     10  C   UNL A   1      32.195  26.413  21.990  1.00  0.00     0.025 C 
ATOM     11  C   UNL A   1      30.289  26.579  23.623  1.00  0.00     0.035 C 
ATOM     12  C   UNL A   1      31.081  25.657  22.704  1.00  0.00     0.005 C 
BRANCH   7  13
ATOM     13  C   UNL A   1      33.274  26.721  25.427  1.00  0.00     0.224 C 
ATOM     14  O   UNL A   1      33.147  27.207  26.552  1.00  0.00    -0.275 OA
BRANCH  13  15
ATOM     15  C   UNL A   1      34.192  25.505  25.236  1.00  0.00     0.111 C 
BRANCH  15  16
ATOM     16  C   UNL A   1      33.835  24.259  26.059  1.00  0.00     0.079 C 
BRANCH  16  17
ATOM     17  S   UNL A   1      32.366  23.320  25.438  1.00  0.00    -0.165 SA
ATOM     18  C   UNL A   1      31.114  23.722  26.701  1.00  0.00     0.085 C 
ENDBRANCH  16  17
ENDBRANCH  15  16
ENDBRANCH  13  15
ENDBRANCH   7  13
ENDBRANCH   3   6
ENDBRANCH   1   2
BRANCH   1  19
ATOM     19  C   UNL A   1      31.475  31.649  26.792  1.00  0.00     0.042 C 
BRANCH  19  20
ATOM     20  C   UNL A   1      32.624  32.585  27.150  1.00  0.00     0.118 C 
BRANCH  20  21
ATOM     21  N   UNL A   1      32.275  33.927  27.602  1.00  0.00    -0.352 N 
ATOM     22  C   UNL A   1      32.957  34.745  28.493  1.00  0.00     0.251 C 
ATOM     23  H   UNL A   1      31.448  34.303  27.225  1.00  0.00     0.163 HD
ATOM     24  O   UNL A   1      32.536  35.858  28.741  1.00  0.00    -0.269 OA
BRANCH  22  25
ATOM     25  C   UNL A   1      34.167  34.231  29.193  1.00  0.00     0.039 A 
ATOM     26  C   UNL A   1      34.009  33.393  30.301  1.00  0.00     0.014 A 
ATOM     27  C   UNL A   1      35.449  34.524  28.735  1.00  0.00     0.014 A 
ATOM     28  C   UNL A   1      35.129  32.779  30.874  1.00  0.00     0.010 A 
ATOM     29  C   UNL A   1      36.538  33.806  29.205  1.00  0.00     0.010 A 
ATOM     30  C   UNL A   1      36.397  32.941  30.296  1.00  0.00    -0.014 A 
BRANCH  30  31
ATOM     31  C   UNL A   1      37.604  32.258  30.824  1.00  0.00     0.031 A 
ATOM     32  C   UNL A   1      38.274  32.780  32.071  1.00  0.00     0.074 A 
ATOM     33  C   UNL A   1      38.149  31.232  30.142  1.00  0.00     0.049 A 
ATOM     34  N   UNL A   1      39.378  32.378  32.646  1.00  0.00    -0.248 NA
ATOM     35  C   UNL A   1      37.645  33.938  32.730  1.00  0.00     0.031 C 
ATOM     36  C   UNL A   1      37.645  30.683  28.879  1.00  0.00     0.029 A 
ATOM     37  N   UNL A   1      39.254  30.465  30.415  1.00  0.00    -0.354 N 
ATOM     38  C   UNL A   1      39.590  33.256  33.704  1.00  0.00     0.074 A 
ATOM     39  C   UNL A   1      38.547  34.252  33.646  1.00  0.00     0.031 C 
ATOM     40  C   UNL A   1      38.407  29.638  28.517  1.00  0.00     0.029 A 
ATOM     41  C   UNL A   1      39.473  29.466  29.498  1.00  0.00     0.049 A 
ATOM     42  H   UNL A   1      39.835  30.617  31.195  1.00  0.00     0.167 HD
ATOM     43  C   UNL A   1      40.544  33.218  34.663  1.00  0.00     0.031 A 
ATOM     44  C   UNL A   1      40.421  28.511  29.461  1.00  0.00     0.031 A 
ATOM     45  C   UNL A   1      41.552  32.198  34.747  1.00  0.00     0.049 A 
ATOM     46  C   UNL A   1      41.438  28.454  30.566  1.00  0.00     0.074 A 
ATOM     47  C   UNL A   1      42.517  32.015  35.720  1.00  0.00     0.029 A 
ATOM     48  N   UNL A   1      41.710  31.176  33.824  1.00  0.00    -0.354 N 
ATOM     49  N   UNL A   1      41.577  29.245  31.603  1.00  0.00    -0.248 NA
ATOM     50  C   UNL A   1      42.417  27.361  30.504  1.00  0.00     0.031 C 
ATOM     51  C   UNL A   1      43.287  30.901  35.364  1.00  0.00     0.029 A 
ATOM     52  C   UNL A   1      42.766  30.364  34.196  1.00  0.00     0.049 A 
ATOM     53  H   UNL A   1      41.153  31.048  33.022  1.00  0.00     0.167 HD
ATOM     54  C   UNL A   1      42.643  28.732  32.330  1.00  0.00     0.074 A 
ATOM     55  C   UNL A   1      43.097  27.549  31.627  1.00  0.00     0.031 C 
ATOM     56  C   UNL A   1      43.198  29.196  33.476  1.00  0.00     0.031 A 
BRANCH  43  57
ATOM     57  C   UNL A   1      40.524  34.308  35.701  1.00  0.00    -0.014 A 
ATOM     58  C   UNL A   1      41.283  35.479  35.543  1.00  0.00     0.009 A 
ATOM     59  C   UNL A   1      39.732  34.166  36.851  1.00  0.00     0.009 A 
ATOM     60  C   UNL A   1      41.290  36.461  36.535  1.00  0.00     0.001 A 
ATOM     61  C   UNL A   1      39.714  35.164  37.827  1.00  0.00     0.001 A 
ATOM     62  C   UNL A   1      40.502  36.305  37.675  1.00  0.00     0.000 A 
ENDBRANCH  43  57
BRANCH  44  63
ATOM     63  C   UNL A   1      40.421  27.500  28.371  1.00  0.00    -0.014 A 
ATOM     64  C   UNL A   1      41.157  27.725  27.197  1.00  0.00     0.009 A 
ATOM     65  C   UNL A   1      39.690  26.310  28.494  1.00  0.00     0.009 A 
ATOM     66  C   UNL A   1      41.138  26.792  26.156  1.00  0.00     0.001 A 
ATOM     67  C   UNL A   1      39.695  25.365  27.463  1.00  0.00     0.001 A 
ATOM     68  C   UNL A   1      40.410  25.611  26.293  1.00  0.00     0.000 A 
ENDBRANCH  44  63
BRANCH  56  69
ATOM     69  C   UNL A   1      44.338  28.403  34.047  1.00  0.00    -0.014 A 
ATOM     70  C   UNL A   1      45.669  28.699  33.715  1.00  0.00     0.009 A 
ATOM     71  C   UNL A   1      44.075  27.366  34.955  1.00  0.00     0.009 A 
ATOM     72  C   UNL A   1      46.713  27.944  34.252  1.00  0.00     0.001 A 
ATOM     73  C   UNL A   1      45.122  26.631  35.512  1.00  0.00     0.001 A 
ATOM     74  C   UNL A   1      46.439  26.913  35.151  1.00  0.00     0.000 A 
ENDBRANCH  56  69
ENDBRANCH  30  31
ENDBRANCH  22  25
ENDBRANCH  20  21
ENDBRANCH  19  20
ENDBRANCH   1  19
TORSDOF 14
ENDMDL
MODEL 3
REMARK VINA RESULT:     -10.2      5.574     10.454
REMARK SMILES CSCCC(=O)N1[C@H](C)CCC[C@@H]1C(=O)NCCCNC(=O)c1ccc(-c2c3nc(c(-c4ccccc4)c4ccc([nH]4)c(-c4ccccc4)c4nc(c(-c5ccccc5)c5ccc2[nH]5)C=C4)C=C3)cc1
REMARK SMILES IDX 17 1 16 2 14 3 15 4 13 6 7 7 8 8 9 9 10 10 12 11 11 12 5 13
REMARK SMILES IDX 6 14 4 15 3 16 2 17 1 18 18 19 19 20 20 21 21 22 22 24 23 25
REMARK SMILES IDX 24 26 70 27 25 28 69 29 26 30 27 31 28 32 63 33 29 34 68 35
REMARK SMILES IDX 62 36 64 37 30 38 67 39 61 40 60 41 31 43 53 44 38 45 52 46
REMARK SMILES IDX 39 47 42 48 51 49 65 50 40 51 41 52 50 54 66 55 43 56 32 57
REMARK SMILES IDX 33 58 37 59 34 60 36 61 35 62 54 63 55 64 59 65 56 66 58 67
REMARK SMILES IDX 57 68 44 69 45 70 49 71 46 72 48 73 47 74
REMARK H PARENT 16 5 20 23 64 42 42 53
REMARK Flexibility Score: inf
ROOT
ATOM      1  C   UNL A   1      36.796  20.693  25.379  1.00  0.00     0.117 C 
ENDROOT
BRANCH   1   2
ATOM      2  N   UNL A   1      35.485  20.083  25.376  1.00  0.00    -0.354 N 
ATOM      3  C   UNL A   1      34.268  20.435  24.884  1.00  0.00     0.242 C 
ATOM      4  O   UNL A   1      33.534  19.469  24.626  1.00  0.00    -0.273 OA
ATOM      5  H   UNL A   1      35.472  19.212  25.835  1.00  0.00     0.163 HD
BRANCH   3   6
ATOM      6  C   UNL A   1      33.705  21.885  24.730  1.00  0.00     0.174 C 
ATOM      7  N   UNL A   1      34.162  22.789  23.641  1.00  0.00    -0.328 N 
ATOM      8  C   UNL A   1      35.363  23.577  23.868  1.00  0.00     0.082 C 
ATOM      9  C   UNL A   1      36.584  23.038  23.125  1.00  0.00     0.031 C 
ATOM     10  C   UNL A   1      35.557  23.978  25.338  1.00  0.00     0.025 C 
ATOM     11  C   UNL A   1      33.587  22.604  26.085  1.00  0.00     0.035 C 
ATOM     12  C   UNL A   1      34.236  23.983  26.097  1.00  0.00     0.005 C 
BRANCH   7  13
ATOM     13  C   UNL A   1      33.247  23.212  22.664  1.00  0.00     0.224 C 
ATOM     14  O   UNL A   1      32.544  22.419  22.036  1.00  0.00    -0.275 OA
BRANCH  13  15
ATOM     15  C   UNL A   1      33.135  24.714  22.362  1.00  0.00     0.111 C 
BRANCH  15  16
ATOM     16  C   UNL A   1      32.410  25.558  23.420  1.00  0.00     0.079 C 
BRANCH  16  17
ATOM     17  S   UNL A   1      30.941  24.738  24.189  1.00  0.00    -0.165 SA
ATOM     18  C   UNL A   1      29.776  26.133  24.334  1.00  0.00     0.085 C 
ENDBRANCH  16  17
ENDBRANCH  15  16
ENDBRANCH  13  15
ENDBRANCH   7  13
ENDBRANCH   3   6
ENDBRANCH   1   2
BRANCH   1  19
ATOM     19  C   UNL A   1      37.938  19.788  24.949  1.00  0.00     0.042 C 
BRANCH  19  20
ATOM     20  C   UNL A   1      39.205  20.045  25.758  1.00  0.00     0.118 C 
BRANCH  20  21
ATOM     21  N   UNL A   1      40.223  19.001  25.751  1.00  0.00    -0.352 N 
ATOM     22  C   UNL A   1      41.568  19.101  26.082  1.00  0.00     0.251 C 
ATOM     23  H   UNL A   1      39.917  18.107  25.475  1.00  0.00     0.163 HD
ATOM     24  O   UNL A   1      42.278  18.115  26.046  1.00  0.00    -0.269 OA
BRANCH  22  25
ATOM     25  C   UNL A   1      42.151  20.429  26.417  1.00  0.00     0.039 A 
ATOM     26  C   UNL A   1      42.534  21.286  25.380  1.00  0.00     0.014 A 
ATOM     27  C   UNL A   1      42.273  20.856  27.737  1.00  0.00     0.014 A 
ATOM     28  C   UNL A   1      42.938  22.594  25.672  1.00  0.00     0.010 A 
ATOM     29  C   UNL A   1      42.531  22.190  28.017  1.00  0.00     0.010 A 
ATOM     30  C   UNL A   1      42.890  23.072  26.991  1.00  0.00    -0.014 A 
BRANCH  30  31
ATOM     31  C   UNL A   1      43.243  24.469  27.344  1.00  0.00     0.031 A 
ATOM     32  C   UNL A   1      44.681  24.917  27.275  1.00  0.00     0.074 A 
ATOM     33  C   UNL A   1      42.295  25.306  27.810  1.00  0.00     0.049 A 
ATOM     34  N   UNL A   1      45.207  26.065  27.617  1.00  0.00    -0.248 NA
ATOM     35  C   UNL A   1      45.666  23.927  26.805  1.00  0.00     0.031 C 
ATOM     36  C   UNL A   1      40.880  24.970  28.001  1.00  0.00     0.029 A 
ATOM     37  N   UNL A   1      42.379  26.615  28.209  1.00  0.00    -0.354 N 
ATOM     38  C   UNL A   1      46.578  25.918  27.440  1.00  0.00     0.074 A 
ATOM     39  C   UNL A   1      46.810  24.551  27.034  1.00  0.00     0.031 C 
ATOM     40  C   UNL A   1      40.223  26.060  28.431  1.00  0.00     0.029 A 
ATOM     41  C   UNL A   1      41.172  27.157  28.582  1.00  0.00     0.049 A 
ATOM     42  H   UNL A   1      43.224  27.119  28.229  1.00  0.00     0.167 HD
ATOM     43  C   UNL A   1      47.558  26.843  27.565  1.00  0.00     0.031 A 
ATOM     44  C   UNL A   1      40.866  28.404  28.987  1.00  0.00     0.031 A 
ATOM     45  C   UNL A   1      47.319  28.214  27.921  1.00  0.00     0.049 A 
ATOM     46  C   UNL A   1      41.960  29.430  29.067  1.00  0.00     0.074 A 
ATOM     47  C   UNL A   1      48.225  29.257  28.000  1.00  0.00     0.029 A 
ATOM     48  N   UNL A   1      46.075  28.733  28.245  1.00  0.00    -0.354 N 
ATOM     49  N   UNL A   1      43.241  29.295  28.819  1.00  0.00    -0.248 NA
ATOM     50  C   UNL A   1      41.562  30.788  29.464  1.00  0.00     0.031 C 
ATOM     51  C   UNL A   1      47.532  30.403  28.409  1.00  0.00     0.029 A 
ATOM     52  C   UNL A   1      46.189  30.081  28.536  1.00  0.00     0.049 A 
ATOM     53  H   UNL A   1      45.236  28.220  28.265  1.00  0.00     0.167 HD
ATOM     54  C   UNL A   1      43.798  30.553  29.007  1.00  0.00     0.074 A 
ATOM     55  C   UNL A   1      42.711  31.442  29.366  1.00  0.00     0.031 C 
ATOM     56  C   UNL A   1      45.092  30.941  28.894  1.00  0.00     0.031 A 
BRANCH  43  57
ATOM     57  C   UNL A   1      48.969  26.396  27.298  1.00  0.00    -0.014 A 
ATOM     58  C   UNL A   1      49.808  25.969  28.341  1.00  0.00     0.009 A 
ATOM     59  C   UNL A   1      49.469  26.397  25.986  1.00  0.00     0.009 A 
ATOM     60  C   UNL A   1      51.130  25.600  28.084  1.00  0.00     0.001 A 
ATOM     61  C   UNL A   1      50.781  25.995  25.727  1.00  0.00     0.001 A 
ATOM     62  C   UNL A   1      51.614  25.610  26.777  1.00  0.00     0.000 A 
ENDBRANCH  43  57
BRANCH  44  63
ATOM     63  C   UNL A   1      39.457  28.764  29.297  1.00  0.00    -0.014 A 
ATOM     64  C   UNL A   1      38.967  28.643  30.606  1.00  0.00     0.009 A 
ATOM     65  C   UNL A   1      38.596  29.228  28.291  1.00  0.00     0.009 A 
ATOM     66  C   UNL A   1      37.635  28.952  30.897  1.00  0.00     0.001 A 
ATOM     67  C   UNL A   1      37.273  29.564  28.591  1.00  0.00     0.001 A 
ATOM     68  C   UNL A   1      36.791  29.416  29.890  1.00  0.00     0.000 A 
ENDBRANCH  44  63
BRANCH  56  69
ATOM     69  C   UNL A   1      45.390  32.392  29.136  1.00  0.00    -0.014 A 
ATOM     70  C   UNL A   1      45.383  33.322  28.086  1.00  0.00     0.009 A 
ATOM     71  C   UNL A   1      45.650  32.837  30.442  1.00  0.00     0.009 A 
ATOM     72  C   UNL A   1      45.670  34.666  28.333  1.00  0.00     0.001 A 
ATOM     73  C   UNL A   1      45.908  34.186  30.690  1.00  0.00     0.001 A 
ATOM     74  C   UNL A   1      45.929  35.096  29.634  1.00  0.00     0.000 A 
ENDBRANCH  56  69
ENDBRANCH  30  31
ENDBRANCH  22  25
ENDBRANCH  20  21
ENDBRANCH  19  20
ENDBRANCH   1  19
TORSDOF 14
ENDMDL
