MODEL 1
REMARK VINA RESULT:     -12.9      0.000      0.000
REMARK SMILES Cc1ccccc1/C=C1\SC(=O)N(CC(=O)Nc2ccccc2C(=O)NCCCNC(=O)c2ccc(-c3c4nc(c(-c5ccccc5)c5ccc([nH]5)c(-c5ccccc5)c5nc(c(-c6ccccc6)c6ccc3[nH]6)C=C5)C=C4)cc2)C1=O
REMARK SMILES IDX 27 1 26 2 24 3 25 4 23 6 18 7 19 8 20 9 22 10 21 11 17 12
REMARK SMILES IDX 15 13 16 14 14 16 13 17 8 18 9 19 10 20 81 21 11 22 82 23
REMARK SMILES IDX 12 24 7 25 1 26 2 27 3 28 4 29 6 30 5 31 28 32 29 33 30 34
REMARK SMILES IDX 31 35 32 37 33 38 34 39 80 40 35 41 79 42 36 43 37 44 38 45
REMARK SMILES IDX 73 46 39 47 78 48 72 49 74 50 40 51 77 52 71 53 70 54 41 56
REMARK SMILES IDX 63 57 48 58 62 59 49 60 52 61 61 62 75 63 50 64 51 65 60 67
REMARK SMILES IDX 76 68 53 69 42 70 43 71 47 72 44 73 46 74 45 75 64 76 65 77
REMARK SMILES IDX 69 78 66 79 68 80 67 81 54 82 55 83 59 84 56 85 58 86 57 87
REMARK H PARENT 26 5 17 15 30 36 74 55 52 66
REMARK Flexibility Score: inf
ROOT
ATOM      1  C   UNL A   1      33.415  28.016  26.756  1.00  0.00     0.118 C 
ENDROOT
BRANCH   1   2
ATOM      2  N   UNL A   1      33.922  28.220  25.395  1.00  0.00    -0.352 N 
ATOM      3  C   UNL A   1      33.416  28.587  24.162  1.00  0.00     0.253 C 
ATOM      4  O   UNL A   1      34.226  28.908  23.293  1.00  0.00    -0.269 OA
ATOM      5  H   UNL A   1      34.890  28.048  25.346  1.00  0.00     0.163 HD
BRANCH   3   6
ATOM      6  C   UNL A   1      31.981  28.633  23.800  1.00  0.00     0.063 A 
ATOM      7  C   UNL A   1      31.392  27.833  22.787  1.00  0.00     0.054 A 
ATOM      8  C   UNL A   1      30.067  28.129  22.388  1.00  0.00     0.027 A 
ATOM      9  C   UNL A   1      29.332  29.169  22.952  1.00  0.00     0.002 A 
ATOM     10  C   UNL A   1      31.247  29.736  24.276  1.00  0.00     0.016 A 
ATOM     11  C   UNL A   1      29.932  29.988  23.886  1.00  0.00     0.001 A 
BRANCH   7  12
ATOM     12  N   UNL A   1      32.003  26.918  21.901  1.00  0.00    -0.324 N 
ATOM     13  C   UNL A   1      32.283  25.592  21.826  1.00  0.00     0.244 C 
ATOM     14  O   UNL A   1      32.929  25.237  20.828  1.00  0.00    -0.273 OA
ATOM     15  H   UNL A   1      32.322  27.383  21.094  1.00  0.00     0.170 HD
BRANCH  13  16
ATOM     16  C   UNL A   1      31.685  24.531  22.729  1.00  0.00     0.230 C 
BRANCH  16  17
ATOM     17  N   UNL A   1      32.561  23.960  23.712  1.00  0.00    -0.259 N 
ATOM     18  C   UNL A   1      35.469  22.168  24.389  1.00  0.00     0.029 C 
ATOM     19  C   UNL A   1      34.227  22.622  24.666  1.00  0.00     0.083 C 
ATOM     20  S   UNL A   1      33.618  23.546  25.974  1.00  0.00    -0.022 SA
ATOM     21  C   UNL A   1      33.226  22.755  23.549  1.00  0.00     0.268 C 
ATOM     22  C   UNL A   1      32.601  24.507  24.955  1.00  0.00     0.294 C 
ATOM     23  O   UNL A   1      33.068  21.937  22.659  1.00  0.00    -0.268 OA
ATOM     24  O   UNL A   1      32.023  25.506  25.364  1.00  0.00    -0.261 OA
BRANCH  18  25
ATOM     25  C   UNL A   1      36.834  22.413  24.974  1.00  0.00    -0.021 A 
ATOM     26  C   UNL A   1      37.931  20.098  24.823  1.00  0.00     0.045 C 
ATOM     27  C   UNL A   1      37.845  21.494  25.293  1.00  0.00    -0.044 A 
ATOM     28  C   UNL A   1      38.937  21.851  26.118  1.00  0.00     0.004 A 
ATOM     29  C   UNL A   1      39.124  23.150  26.537  1.00  0.00     0.000 A 
ATOM     30  C   UNL A   1      37.090  23.744  25.368  1.00  0.00     0.008 A 
ATOM     31  C   UNL A   1      38.219  24.110  26.121  1.00  0.00     0.001 A 
ENDBRANCH  18  25
ENDBRANCH  16  17
ENDBRANCH  13  16
ENDBRANCH   7  12
ENDBRANCH   3   6
ENDBRANCH   1   2
BRANCH   1  32
ATOM     32  C   UNL A   1      33.438  29.211  27.709  1.00  0.00     0.042 C 
BRANCH  32  33
ATOM     33  C   UNL A   1      34.219  30.439  27.232  1.00  0.00     0.118 C 
BRANCH  33  34
ATOM     34  N   UNL A   1      33.563  31.743  27.396  1.00  0.00    -0.352 N 
ATOM     35  C   UNL A   1      33.852  32.830  28.212  1.00  0.00     0.251 C 
ATOM     36  H   UNL A   1      32.774  31.869  26.822  1.00  0.00     0.163 HD
ATOM     37  O   UNL A   1      33.093  33.798  28.182  1.00  0.00    -0.269 OA
BRANCH  35  38
ATOM     38  C   UNL A   1      35.127  32.940  28.984  1.00  0.00     0.039 A 
ATOM     39  C   UNL A   1      36.267  33.437  28.318  1.00  0.00     0.014 A 
ATOM     40  C   UNL A   1      35.283  32.310  30.208  1.00  0.00     0.014 A 
ATOM     41  C   UNL A   1      37.543  33.041  28.726  1.00  0.00     0.010 A 
ATOM     42  C   UNL A   1      36.523  31.803  30.531  1.00  0.00     0.010 A 
ATOM     43  C   UNL A   1      37.644  32.106  29.744  1.00  0.00    -0.014 A 
BRANCH  43  44
ATOM     44  C   UNL A   1      38.858  31.415  30.153  1.00  0.00     0.031 A 
ATOM     45  C   UNL A   1      39.057  30.070  29.578  1.00  0.00     0.074 A 
ATOM     46  C   UNL A   1      39.834  32.061  30.836  1.00  0.00     0.049 A 
ATOM     47  N   UNL A   1      39.985  29.256  29.929  1.00  0.00    -0.248 NA
ATOM     48  C   UNL A   1      38.135  29.495  28.593  1.00  0.00     0.031 C 
ATOM     49  C   UNL A   1      41.262  31.750  30.891  1.00  0.00     0.029 A 
ATOM     50  N   UNL A   1      39.682  33.053  31.806  1.00  0.00    -0.354 N 
ATOM     51  C   UNL A   1      39.958  28.198  29.050  1.00  0.00     0.074 A 
ATOM     52  C   UNL A   1      38.732  28.336  28.312  1.00  0.00     0.031 C 
ATOM     53  C   UNL A   1      41.806  32.348  31.967  1.00  0.00     0.029 A 
ATOM     54  C   UNL A   1      40.709  32.900  32.746  1.00  0.00     0.049 A 
ATOM     55  H   UNL A   1      38.976  33.740  31.826  1.00  0.00     0.167 HD
ATOM     56  C   UNL A   1      41.055  27.402  28.968  1.00  0.00     0.031 A 
ATOM     57  C   UNL A   1      40.419  32.624  34.049  1.00  0.00     0.031 A 
ATOM     58  C   UNL A   1      41.992  27.719  30.042  1.00  0.00     0.049 A 
ATOM     59  C   UNL A   1      41.023  31.314  34.459  1.00  0.00     0.074 A 
ATOM     60  C   UNL A   1      43.101  28.544  30.096  1.00  0.00     0.029 A 
ATOM     61  N   UNL A   1      41.606  27.479  31.356  1.00  0.00    -0.354 N 
ATOM     62  N   UNL A   1      41.278  30.350  33.618  1.00  0.00    -0.248 NA
ATOM     63  C   UNL A   1      41.374  30.986  35.833  1.00  0.00     0.031 C 
ATOM     64  C   UNL A   1      43.317  28.881  31.461  1.00  0.00     0.029 A 
ATOM     65  C   UNL A   1      42.382  28.211  32.234  1.00  0.00     0.049 A 
ATOM     66  H   UNL A   1      40.880  26.869  31.624  1.00  0.00     0.167 HD
ATOM     67  C   UNL A   1      41.815  29.298  34.298  1.00  0.00     0.074 A 
ATOM     68  C   UNL A   1      41.861  29.743  35.680  1.00  0.00     0.031 C 
ATOM     69  C   UNL A   1      42.145  28.135  33.671  1.00  0.00     0.031 A 
BRANCH  56  70
ATOM     70  C   UNL A   1      41.396  26.515  27.796  1.00  0.00    -0.014 A 
ATOM     71  C   UNL A   1      41.947  25.246  28.052  1.00  0.00     0.009 A 
ATOM     72  C   UNL A   1      41.311  26.881  26.441  1.00  0.00     0.009 A 
ATOM     73  C   UNL A   1      42.414  24.414  27.024  1.00  0.00     0.001 A 
ATOM     74  C   UNL A   1      41.768  26.053  25.406  1.00  0.00     0.001 A 
ATOM     75  C   UNL A   1      42.329  24.821  25.699  1.00  0.00     0.000 A 
ENDBRANCH  56  70
BRANCH  57  76
ATOM     76  C   UNL A   1      39.050  33.078  34.447  1.00  0.00    -0.014 A 
ATOM     77  C   UNL A   1      38.726  34.442  34.310  1.00  0.00     0.009 A 
ATOM     78  C   UNL A   1      38.004  32.143  34.506  1.00  0.00     0.009 A 
ATOM     79  C   UNL A   1      37.403  34.837  34.080  1.00  0.00     0.001 A 
ATOM     80  C   UNL A   1      36.683  32.548  34.283  1.00  0.00     0.001 A 
ATOM     81  C   UNL A   1      36.390  33.885  34.019  1.00  0.00     0.000 A 
ENDBRANCH  57  76
BRANCH  69  82
ATOM     82  C   UNL A   1      42.314  26.821  34.384  1.00  0.00    -0.014 A 
ATOM     83  C   UNL A   1      41.333  26.256  35.210  1.00  0.00     0.009 A 
ATOM     84  C   UNL A   1      43.447  26.027  34.109  1.00  0.00     0.009 A 
ATOM     85  C   UNL A   1      41.506  24.999  35.798  1.00  0.00     0.001 A 
ATOM     86  C   UNL A   1      43.594  24.746  34.639  1.00  0.00     0.001 A 
ATOM     87  C   UNL A   1      42.633  24.241  35.504  1.00  0.00     0.000 A 
ENDBRANCH  69  82
ENDBRANCH  43  44
ENDBRANCH  35  38
ENDBRANCH  33  34
ENDBRANCH  32  33
ENDBRANCH   1  32
TORSDOF 14
ENDMDL
MODEL 2
REMARK VINA RESULT:     -12.6      1.501      2.036
REMARK SMILES Cc1ccccc1/C=C1\SC(=O)N(CC(=O)Nc2ccccc2C(=O)NCCCNC(=O)c2ccc(-c3c4nc(c(-c5ccccc5)c5ccc([nH]5)c(-c5ccccc5)c5nc(c(-c6ccccc6)c6ccc3[nH]6)C=C5)C=C4)cc2)C1=O
REMARK SMILES IDX 27 1 26 2 24 3 25 4 23 6 18 7 19 8 20 9 22 10 21 11 17 12
REMARK SMILES IDX 15 13 16 14 14 16 13 17 8 18 9 19 10 20 81 21 11 22 82 23
REMARK SMILES IDX 12 24 7 25 1 26 2 27 3 28 4 29 6 30 5 31 28 32 29 33 30 34
REMARK SMILES IDX 31 35 32 37 33 38 34 39 80 40 35 41 79 42 36 43 37 44 38 45
REMARK SMILES IDX 73 46 39 47 78 48 72 49 74 50 40 51 77 52 71 53 70 54 41 56
REMARK SMILES IDX 63 57 48 58 62 59 49 60 52 61 61 62 75 63 50 64 51 65 60 67
REMARK SMILES IDX 76 68 53 69 42 70 43 71 47 72 44 73 46 74 45 75 64 76 65 77
REMARK SMILES IDX 69 78 66 79 68 80 67 81 54 82 55 83 59 84 56 85 58 86 57 87
REMARK H PARENT 26 5 17 15 30 36 74 55 52 66
REMARK Flexibility Score: inf
ROOT
ATOM      1  C   UNL A   1      33.659  29.711  26.810  1.00  0.00     0.118 C 
ENDROOT
BRANCH   1   2
ATOM      2  N   UNL A   1      33.881  28.268  26.676  1.00  0.00    -0.352 N 
ATOM      3  C   UNL A   1      33.301  27.203  26.011  1.00  0.00     0.253 C 
ATOM      4  O   UNL A   1      33.952  26.161  25.942  1.00  0.00    -0.269 OA
ATOM      5  H   UNL A   1      34.658  27.977  27.207  1.00  0.00     0.163 HD
BRANCH   3   6
ATOM      6  C   UNL A   1      31.968  27.213  25.370  1.00  0.00     0.063 A 
ATOM      7  C   UNL A   1      30.937  26.284  25.668  1.00  0.00     0.054 A 
ATOM      8  C   UNL A   1      29.795  26.262  24.833  1.00  0.00     0.027 A 
ATOM      9  C   UNL A   1      29.653  27.114  23.739  1.00  0.00     0.002 A 
ATOM     10  C   UNL A   1      31.836  27.988  24.202  1.00  0.00     0.016 A 
ATOM     11  C   UNL A   1      30.687  27.967  23.412  1.00  0.00     0.001 A 
BRANCH   7  12
ATOM     12  N   UNL A   1      30.960  25.168  26.535  1.00  0.00    -0.324 N 
ATOM     13  C   UNL A   1      30.883  23.815  26.469  1.00  0.00     0.244 C 
ATOM     14  O   UNL A   1      30.883  23.225  27.560  1.00  0.00    -0.273 OA
ATOM     15  H   UNL A   1      31.064  25.462  27.469  1.00  0.00     0.170 HD
BRANCH  13  16
ATOM     16  C   UNL A   1      31.023  23.004  25.196  1.00  0.00     0.230 C 
BRANCH  16  17
ATOM     17  N   UNL A   1      32.339  22.526  24.884  1.00  0.00    -0.259 N 
ATOM     18  C   UNL A   1      35.703  23.266  24.364  1.00  0.00     0.029 C 
ATOM     19  C   UNL A   1      34.582  22.526  24.214  1.00  0.00     0.083 C 
ATOM     20  S   UNL A   1      34.244  20.886  24.578  1.00  0.00    -0.022 SA
ATOM     21  C   UNL A   1      33.250  23.221  24.104  1.00  0.00     0.268 C 
ATOM     22  C   UNL A   1      32.662  21.242  25.188  1.00  0.00     0.294 C 
ATOM     23  O   UNL A   1      33.047  24.231  23.451  1.00  0.00    -0.268 OA
ATOM     24  O   UNL A   1      31.987  20.408  25.778  1.00  0.00    -0.261 OA
BRANCH  18  25
ATOM     25  C   UNL A   1      37.024  23.048  25.050  1.00  0.00    -0.021 A 
ATOM     26  C   UNL A   1      37.594  20.629  24.410  1.00  0.00     0.045 C 
ATOM     27  C   UNL A   1      37.772  21.869  25.190  1.00  0.00    -0.044 A 
ATOM     28  C   UNL A   1      38.830  21.769  26.123  1.00  0.00     0.004 A 
ATOM     29  C   UNL A   1      39.257  22.865  26.843  1.00  0.00     0.000 A 
ATOM     30  C   UNL A   1      37.527  24.162  25.756  1.00  0.00     0.008 A 
ATOM     31  C   UNL A   1      38.631  24.078  26.623  1.00  0.00     0.001 A 
ENDBRANCH  18  25
ENDBRANCH  16  17
ENDBRANCH  13  16
ENDBRANCH   7  12
ENDBRANCH   3   6
ENDBRANCH   1   2
BRANCH   1  32
ATOM     32  C   UNL A   1      34.408  30.445  27.922  1.00  0.00     0.042 C 
BRANCH  32  33
ATOM     33  C   UNL A   1      34.794  31.898  27.632  1.00  0.00     0.118 C 
BRANCH  33  34
ATOM     34  N   UNL A   1      34.031  32.937  28.336  1.00  0.00    -0.352 N 
ATOM     35  C   UNL A   1      34.288  33.644  29.504  1.00  0.00     0.251 C 
ATOM     36  H   UNL A   1      33.182  33.176  27.900  1.00  0.00     0.163 HD
ATOM     37  O   UNL A   1      33.439  34.440  29.902  1.00  0.00    -0.269 OA
BRANCH  35  38
ATOM     38  C   UNL A   1      35.615  33.606  30.192  1.00  0.00     0.039 A 
ATOM     39  C   UNL A   1      36.742  34.085  29.492  1.00  0.00     0.014 A 
ATOM     40  C   UNL A   1      35.805  32.864  31.346  1.00  0.00     0.014 A 
ATOM     41  C   UNL A   1      38.011  33.575  29.776  1.00  0.00     0.010 A 
ATOM     42  C   UNL A   1      37.025  32.253  31.539  1.00  0.00     0.010 A 
ATOM     43  C   UNL A   1      38.111  32.551  30.705  1.00  0.00    -0.014 A 
BRANCH  43  44
ATOM     44  C   UNL A   1      39.299  31.752  30.970  1.00  0.00     0.031 A 
ATOM     45  C   UNL A   1      39.365  30.451  30.277  1.00  0.00     0.074 A 
ATOM     46  C   UNL A   1      40.360  32.274  31.632  1.00  0.00     0.049 A 
ATOM     47  N   UNL A   1      40.255  29.552  30.495  1.00  0.00    -0.248 NA
ATOM     48  C   UNL A   1      38.343  30.020  29.316  1.00  0.00     0.031 C 
ATOM     49  C   UNL A   1      41.763  31.869  31.560  1.00  0.00     0.029 A 
ATOM     50  N   UNL A   1      40.341  33.189  32.686  1.00  0.00    -0.354 N 
ATOM     51  C   UNL A   1      40.098  28.576  29.539  1.00  0.00     0.074 A 
ATOM     52  C   UNL A   1      38.839  28.854  28.903  1.00  0.00     0.031 C 
ATOM     53  C   UNL A   1      42.416  32.338  32.640  1.00  0.00     0.029 A 
ATOM     54  C   UNL A   1      41.414  32.891  33.536  1.00  0.00     0.049 A 
ATOM     55  H   UNL A   1      39.687  33.915  32.811  1.00  0.00     0.167 HD
ATOM     56  C   UNL A   1      41.129  27.721  29.315  1.00  0.00     0.031 A 
ATOM     57  C   UNL A   1      41.191  32.525  34.830  1.00  0.00     0.031 A 
ATOM     58  C   UNL A   1      42.153  27.885  30.343  1.00  0.00     0.049 A 
ATOM     59  C   UNL A   1      41.728  31.149  35.090  1.00  0.00     0.074 A 
ATOM     60  C   UNL A   1      43.319  28.630  30.383  1.00  0.00     0.029 A 
ATOM     61  N   UNL A   1      41.838  27.560  31.657  1.00  0.00    -0.354 N 
ATOM     62  N   UNL A   1      41.859  30.245  34.159  1.00  0.00    -0.248 NA
ATOM     63  C   UNL A   1      42.144  30.684  36.405  1.00  0.00     0.031 C 
ATOM     64  C   UNL A   1      43.646  28.836  31.753  1.00  0.00     0.029 A 
ATOM     65  C   UNL A   1      42.719  28.164  32.534  1.00  0.00     0.049 A 
ATOM     66  H   UNL A   1      41.091  26.978  31.927  1.00  0.00     0.167 HD
ATOM     67  C   UNL A   1      42.365  29.107  34.713  1.00  0.00     0.074 A 
ATOM     68  C   UNL A   1      42.532  29.430  36.119  1.00  0.00     0.031 C 
ATOM     69  C   UNL A   1      42.571  27.982  33.974  1.00  0.00     0.031 A 
BRANCH  56  70
ATOM     70  C   UNL A   1      41.330  26.916  28.056  1.00  0.00    -0.014 A 
ATOM     71  C   UNL A   1      41.886  25.628  28.163  1.00  0.00     0.009 A 
ATOM     72  C   UNL A   1      41.106  27.377  26.746  1.00  0.00     0.009 A 
ATOM     73  C   UNL A   1      42.228  24.867  27.036  1.00  0.00     0.001 A 
ATOM     74  C   UNL A   1      41.438  26.620  25.613  1.00  0.00     0.001 A 
ATOM     75  C   UNL A   1      42.009  25.366  25.759  1.00  0.00     0.000 A 
ENDBRANCH  56  70
BRANCH  57  76
ATOM     76  C   UNL A   1      39.886  33.030  35.359  1.00  0.00    -0.014 A 
ATOM     77  C   UNL A   1      38.804  32.133  35.452  1.00  0.00     0.009 A 
ATOM     78  C   UNL A   1      39.865  34.190  36.151  1.00  0.00     0.009 A 
ATOM     79  C   UNL A   1      37.813  32.316  36.423  1.00  0.00     0.001 A 
ATOM     80  C   UNL A   1      38.866  34.368  37.115  1.00  0.00     0.001 A 
ATOM     81  C   UNL A   1      37.872  33.406  37.285  1.00  0.00     0.000 A 
ENDBRANCH  57  76
BRANCH  69  82
ATOM     82  C   UNL A   1      42.695  26.605  34.566  1.00  0.00    -0.014 A 
ATOM     83  C   UNL A   1      41.645  25.945  35.219  1.00  0.00     0.009 A 
ATOM     84  C   UNL A   1      43.869  25.858  34.338  1.00  0.00     0.009 A 
ATOM     85  C   UNL A   1      41.785  24.638  35.693  1.00  0.00     0.001 A 
ATOM     86  C   UNL A   1      43.989  24.531  34.749  1.00  0.00     0.001 A 
ATOM     87  C   UNL A   1      42.954  23.928  35.450  1.00  0.00     0.000 A 
ENDBRANCH  69  82
ENDBRANCH  43  44
ENDBRANCH  35  38
ENDBRANCH  33  34
ENDBRANCH  32  33
ENDBRANCH   1  32
TORSDOF 14
ENDMDL
MODEL 3
REMARK VINA RESULT:     -12.6      2.807      8.314
REMARK SMILES Cc1ccccc1/C=C1\SC(=O)N(CC(=O)Nc2ccccc2C(=O)NCCCNC(=O)c2ccc(-c3c4nc(c(-c5ccccc5)c5ccc([nH]5)c(-c5ccccc5)c5nc(c(-c6ccccc6)c6ccc3[nH]6)C=C5)C=C4)cc2)C1=O
REMARK SMILES IDX 27 1 26 2 24 3 25 4 23 6 18 7 19 8 20 9 22 10 21 11 17 12
REMARK SMILES IDX 15 13 16 14 14 16 13 17 8 18 9 19 10 20 81 21 11 22 82 23
REMARK SMILES IDX 12 24 7 25 1 26 2 27 3 28 4 29 6 30 5 31 28 32 29 33 30 34
REMARK SMILES IDX 31 35 32 37 33 38 34 39 80 40 35 41 79 42 36 43 37 44 38 45
REMARK SMILES IDX 73 46 39 47 78 48 72 49 74 50 40 51 77 52 71 53 70 54 41 56
REMARK SMILES IDX 63 57 48 58 62 59 49 60 52 61 61 62 75 63 50 64 51 65 60 67
REMARK SMILES IDX 76 68 53 69 42 70 43 71 47 72 44 73 46 74 45 75 64 76 65 77
REMARK SMILES IDX 69 78 66 79 68 80 67 81 54 82 55 83 59 84 56 85 58 86 57 87
REMARK H PARENT 26 5 17 15 30 36 74 55 52 66
REMARK Flexibility Score: inf
ROOT
ATOM      1  C   UNL A   1      36.618  23.455  24.807  1.00  0.00     0.118 C 
ENDROOT
BRANCH   1   2
ATOM      2  N   UNL A   1      35.771  23.323  25.997  1.00  0.00    -0.352 N 
ATOM      3  C   UNL A   1      34.810  22.451  26.476  1.00  0.00     0.253 C 
ATOM      4  O   UNL A   1      34.511  22.540  27.666  1.00  0.00    -0.269 OA
ATOM      5  H   UNL A   1      35.930  24.060  26.631  1.00  0.00     0.163 HD
BRANCH   3   6
ATOM      6  C   UNL A   1      34.118  21.414  25.678  1.00  0.00     0.063 A 
ATOM      7  C   UNL A   1      32.707  21.275  25.612  1.00  0.00     0.054 A 
ATOM      8  C   UNL A   1      32.178  20.115  24.999  1.00  0.00     0.027 A 
ATOM      9  C   UNL A   1      32.989  19.116  24.464  1.00  0.00     0.002 A 
ATOM     10  C   UNL A   1      34.905  20.342  25.219  1.00  0.00     0.016 A 
ATOM     11  C   UNL A   1      34.359  19.223  24.592  1.00  0.00     0.001 A 
BRANCH   7  12
ATOM     12  N   UNL A   1      31.703  21.998  26.296  1.00  0.00    -0.324 N 
ATOM     13  C   UNL A   1      30.935  23.103  26.122  1.00  0.00     0.244 C 
ATOM     14  O   UNL A   1      30.201  23.400  27.077  1.00  0.00    -0.273 OA
ATOM     15  H   UNL A   1      31.500  21.570  27.159  1.00  0.00     0.170 HD
BRANCH  13  16
ATOM     16  C   UNL A   1      30.757  23.831  24.805  1.00  0.00     0.230 C 
BRANCH  16  17
ATOM     17  N   UNL A   1      31.356  25.132  24.707  1.00  0.00    -0.259 N 
ATOM     18  C   UNL A   1      31.471  28.421  25.845  1.00  0.00     0.029 C 
ATOM     19  C   UNL A   1      31.653  27.442  24.931  1.00  0.00     0.083 C 
ATOM     20  S   UNL A   1      33.054  26.908  24.100  1.00  0.00    -0.022 SA
ATOM     21  C   UNL A   1      30.654  26.319  24.847  1.00  0.00     0.268 C 
ATOM     22  C   UNL A   1      32.633  25.236  24.256  1.00  0.00     0.294 C 
ATOM     23  O   UNL A   1      29.445  26.461  24.914  1.00  0.00    -0.268 OA
ATOM     24  O   UNL A   1      33.413  24.336  23.970  1.00  0.00    -0.261 OA
BRANCH  18  25
ATOM     25  C   UNL A   1      32.394  29.309  26.635  1.00  0.00    -0.021 A 
ATOM     26  C   UNL A   1      31.251  31.600  26.461  1.00  0.00     0.045 C 
ATOM     27  C   UNL A   1      32.379  30.704  26.783  1.00  0.00    -0.044 A 
ATOM     28  C   UNL A   1      33.492  31.407  27.301  1.00  0.00     0.004 A 
ATOM     29  C   UNL A   1      34.589  30.740  27.804  1.00  0.00     0.000 A 
ATOM     30  C   UNL A   1      33.505  28.659  27.215  1.00  0.00     0.008 A 
ATOM     31  C   UNL A   1      34.574  29.357  27.802  1.00  0.00     0.001 A 
ENDBRANCH  18  25
ENDBRANCH  16  17
ENDBRANCH  13  16
ENDBRANCH   7  12
ENDBRANCH   3   6
ENDBRANCH   1   2
BRANCH   1  32
ATOM     32  C   UNL A   1      37.771  22.465  24.644  1.00  0.00     0.042 C 
BRANCH  32  33
ATOM     33  C   UNL A   1      38.333  21.863  25.936  1.00  0.00     0.118 C 
BRANCH  33  34
ATOM     34  N   UNL A   1      39.791  21.908  26.106  1.00  0.00    -0.352 N 
ATOM     35  C   UNL A   1      40.664  22.961  26.347  1.00  0.00     0.251 C 
ATOM     36  H   UNL A   1      40.229  21.030  26.036  1.00  0.00     0.163 HD
ATOM     37  O   UNL A   1      41.869  22.718  26.399  1.00  0.00    -0.269 OA
BRANCH  35  38
ATOM     38  C   UNL A   1      40.191  24.330  26.716  1.00  0.00     0.039 A 
ATOM     39  C   UNL A   1      40.778  25.436  26.067  1.00  0.00     0.014 A 
ATOM     40  C   UNL A   1      39.427  24.544  27.852  1.00  0.00     0.014 A 
ATOM     41  C   UNL A   1      40.847  26.672  26.714  1.00  0.00     0.010 A 
ATOM     42  C   UNL A   1      39.612  25.715  28.555  1.00  0.00     0.010 A 
ATOM     43  C   UNL A   1      40.388  26.753  28.019  1.00  0.00    -0.014 A 
BRANCH  43  44
ATOM     44  C   UNL A   1      40.573  27.881  28.922  1.00  0.00     0.031 A 
ATOM     45  C   UNL A   1      39.638  29.007  28.742  1.00  0.00     0.074 A 
ATOM     46  C   UNL A   1      41.405  27.794  29.988  1.00  0.00     0.049 A 
ATOM     47  N   UNL A   1      39.734  30.139  29.339  1.00  0.00    -0.248 NA
ATOM     48  C   UNL A   1      38.536  28.966  27.774  1.00  0.00     0.031 C 
ATOM     49  C   UNL A   1      41.358  28.548  31.239  1.00  0.00     0.029 A 
ATOM     50  N   UNL A   1      42.619  27.109  30.068  1.00  0.00    -0.354 N 
ATOM     51  C   UNL A   1      38.591  30.851  29.061  1.00  0.00     0.074 A 
ATOM     52  C   UNL A   1      37.932  30.131  28.005  1.00  0.00     0.031 C 
ATOM     53  C   UNL A   1      42.556  28.474  31.848  1.00  0.00     0.029 A 
ATOM     54  C   UNL A   1      43.468  27.834  30.914  1.00  0.00     0.049 A 
ATOM     55  H   UNL A   1      42.840  26.265  29.610  1.00  0.00     0.167 HD
ATOM     56  C   UNL A   1      38.276  31.902  29.860  1.00  0.00     0.031 A 
ATOM     57  C   UNL A   1      44.641  28.346  30.444  1.00  0.00     0.031 A 
ATOM     58  C   UNL A   1      39.389  32.208  30.755  1.00  0.00     0.049 A 
ATOM     59  C   UNL A   1      44.655  29.840  30.576  1.00  0.00     0.074 A 
ATOM     60  C   UNL A   1      39.667  31.830  32.056  1.00  0.00     0.029 A 
ATOM     61  N   UNL A   1      40.583  32.660  30.204  1.00  0.00    -0.354 N 
ATOM     62  N   UNL A   1      43.573  30.567  30.591  1.00  0.00    -0.248 NA
ATOM     63  C   UNL A   1      45.876  30.624  30.691  1.00  0.00     0.031 C 
ATOM     64  C   UNL A   1      41.071  31.965  32.250  1.00  0.00     0.029 A 
ATOM     65  C   UNL A   1      41.627  32.484  31.091  1.00  0.00     0.049 A 
ATOM     66  H   UNL A   1      40.672  33.053  29.305  1.00  0.00     0.167 HD
ATOM     67  C   UNL A   1      43.920  31.879  30.716  1.00  0.00     0.074 A 
ATOM     68  C   UNL A   1      45.371  31.866  30.780  1.00  0.00     0.031 C 
ATOM     69  C   UNL A   1      42.985  32.869  30.721  1.00  0.00     0.031 A 
BRANCH  56  70
ATOM     70  C   UNL A   1      36.898  32.497  30.008  1.00  0.00    -0.014 A 
ATOM     71  C   UNL A   1      36.519  33.539  29.141  1.00  0.00     0.009 A 
ATOM     72  C   UNL A   1      35.971  32.175  31.016  1.00  0.00     0.009 A 
ATOM     73  C   UNL A   1      35.311  34.235  29.295  1.00  0.00     0.001 A 
ATOM     74  C   UNL A   1      34.759  32.860  31.173  1.00  0.00     0.001 A 
ATOM     75  C   UNL A   1      34.432  33.898  30.315  1.00  0.00     0.000 A 
ENDBRANCH  56  70
BRANCH  57  76
ATOM     76  C   UNL A   1      45.162  27.604  29.255  1.00  0.00    -0.014 A 
ATOM     77  C   UNL A   1      45.010  28.183  27.979  1.00  0.00     0.009 A 
ATOM     78  C   UNL A   1      46.153  26.625  29.432  1.00  0.00     0.009 A 
ATOM     79  C   UNL A   1      45.926  27.903  26.959  1.00  0.00     0.001 A 
ATOM     80  C   UNL A   1      47.061  26.345  28.404  1.00  0.00     0.001 A 
ATOM     81  C   UNL A   1      46.978  27.022  27.188  1.00  0.00     0.000 A 
ENDBRANCH  57  76
BRANCH  69  82
ATOM     82  C   UNL A   1      43.293  34.309  30.415  1.00  0.00    -0.014 A 
ATOM     83  C   UNL A   1      43.106  34.890  29.153  1.00  0.00     0.009 A 
ATOM     84  C   UNL A   1      43.647  35.178  31.467  1.00  0.00     0.009 A 
ATOM     85  C   UNL A   1      43.340  36.250  28.932  1.00  0.00     0.001 A 
ATOM     86  C   UNL A   1      43.816  36.548  31.266  1.00  0.00     0.001 A 
ATOM     87  C   UNL A   1      43.686  37.081  29.991  1.00  0.00     0.000 A 
ENDBRANCH  69  82
ENDBRANCH  43  44
ENDBRANCH  35  38
ENDBRANCH  33  34
ENDBRANCH  32  33
ENDBRANCH   1  32
TORSDOF 14
ENDMDL
