MODEL 1
REMARK VINA RESULT:     -10.0      0.000      0.000
REMARK SMILES CCCC[C@@H](C(=O)NCCCNC(=O)c1ccc(-c2c3nc(c(-c4ccccc4)c4ccc([nH]4)c(-c4ccccc4)c4nc(c(-c5ccccc5)c5ccc2[nH]5)C=C4)C=C3)cc1)[C@H](O)c1ccc(OC)c(O)c1
REMARK SMILES IDX 9 1 8 2 6 3 7 4 5 6 4 7 3 8 2 9 1 10 63 11 65 12 66 13 73 14
REMARK SMILES IDX 67 15 71 16 68 17 72 18 69 20 70 21 64 22 10 24 11 25 12 26
REMARK SMILES IDX 13 27 14 29 15 30 16 31 62 32 17 33 61 34 18 35 19 36 20 37
REMARK SMILES IDX 55 38 21 39 60 40 54 41 56 42 22 43 59 44 53 45 52 46 23 48
REMARK SMILES IDX 45 49 30 50 44 51 31 52 34 53 43 54 57 55 32 56 33 57 42 59
REMARK SMILES IDX 58 60 35 61 24 62 25 63 29 64 26 65 28 66 27 67 46 68 47 69
REMARK SMILES IDX 51 70 48 71 50 72 49 73 36 74 37 75 41 76 38 77 40 78 39 79
REMARK H PARENT 8 5 72 19 64 23 12 28 56 47 34 58
REMARK Flexibility Score: inf
ROOT
ATOM      1  C   UNL A   1      37.078  20.904  24.618  1.00  0.00     0.117 C 
ENDROOT
BRANCH   1   2
ATOM      2  N   UNL A   1      37.384  22.060  25.431  1.00  0.00    -0.356 N 
ATOM      3  C   UNL A   1      36.718  23.217  25.668  1.00  0.00     0.226 C 
ATOM      4  O   UNL A   1      37.294  23.975  26.459  1.00  0.00    -0.275 OA
ATOM      5  H   UNL A   1      38.245  21.994  25.905  1.00  0.00     0.163 HD
BRANCH   3   6
ATOM      6  C   UNL A   1      35.325  23.566  25.087  1.00  0.00     0.111 C 
BRANCH   6   7
ATOM      7  C   UNL A   1      35.012  25.082  25.034  1.00  0.00     0.016 C 
BRANCH   7   8
ATOM      8  C   UNL A   1      33.776  25.709  25.676  1.00  0.00     0.001 C 
BRANCH   8   9
ATOM      9  C   UNL A   1      33.551  27.202  25.448  1.00  0.00    -0.003 C 
ATOM     10  C   UNL A   1      33.766  28.034  26.700  1.00  0.00     0.004 C 
ENDBRANCH   8   9
ENDBRANCH   7   8
ENDBRANCH   6   7
BRANCH   6  11
ATOM     11  C   UNL A   1      34.300  22.821  26.057  1.00  0.00     0.157 C 
BRANCH  11  12
ATOM     12  C   UNL A   1      33.599  21.572  25.535  1.00  0.00    -0.015 A 
ATOM     13  C   UNL A   1      33.008  21.597  24.260  1.00  0.00     0.010 A 
ATOM     14  C   UNL A   1      33.493  20.387  26.274  1.00  0.00     0.056 A 
ATOM     15  C   UNL A   1      32.521  20.431  23.671  1.00  0.00     0.051 A 
ATOM     16  C   UNL A   1      32.910  19.238  25.712  1.00  0.00     0.158 A 
ATOM     17  C   UNL A   1      32.485  19.231  24.380  1.00  0.00     0.160 A 
BRANCH  16  18
ATOM     18  O   UNL A   1      32.763  18.140  26.513  1.00  0.00    -0.504 OA
ATOM     19  H   UNL A   1      33.416  17.935  27.154  1.00  0.00     0.293 HD
ENDBRANCH  16  18
BRANCH  17  20
ATOM     20  O   UNL A   1      32.009  18.193  23.631  1.00  0.00    -0.493 OA
ATOM     21  C   UNL A   1      32.412  18.106  22.274  1.00  0.00     0.278 C 
ENDBRANCH  17  20
ENDBRANCH  11  12
BRANCH  11  22
ATOM     22  O   UNL A   1      34.988  22.489  27.274  1.00  0.00    -0.388 OA
ATOM     23  H   UNL A   1      35.452  23.273  27.608  1.00  0.00     0.211 HD
ENDBRANCH  11  22
ENDBRANCH   6  11
ENDBRANCH   3   6
ENDBRANCH   1   2
BRANCH   1  24
ATOM     24  C   UNL A   1      38.033  19.757  24.930  1.00  0.00     0.042 C 
BRANCH  24  25
ATOM     25  C   UNL A   1      39.042  20.044  26.027  1.00  0.00     0.118 C 
BRANCH  25  26
ATOM     26  N   UNL A   1      40.258  19.267  25.874  1.00  0.00    -0.352 N 
ATOM     27  C   UNL A   1      41.578  19.633  25.993  1.00  0.00     0.251 C 
ATOM     28  H   UNL A   1      40.115  18.320  25.647  1.00  0.00     0.163 HD
ATOM     29  O   UNL A   1      42.445  18.849  25.616  1.00  0.00    -0.269 OA
BRANCH  27  30
ATOM     30  C   UNL A   1      41.977  20.952  26.544  1.00  0.00     0.039 A 
ATOM     31  C   UNL A   1      42.294  21.983  25.650  1.00  0.00     0.014 A 
ATOM     32  C   UNL A   1      42.099  21.181  27.916  1.00  0.00     0.014 A 
ATOM     33  C   UNL A   1      42.679  23.239  26.132  1.00  0.00     0.010 A 
ATOM     34  C   UNL A   1      42.372  22.459  28.395  1.00  0.00     0.010 A 
ATOM     35  C   UNL A   1      42.691  23.498  27.511  1.00  0.00    -0.014 A 
BRANCH  35  36
ATOM     36  C   UNL A   1      43.063  24.835  28.044  1.00  0.00     0.031 A 
ATOM     37  C   UNL A   1      42.001  25.872  28.307  1.00  0.00     0.074 A 
ATOM     38  C   UNL A   1      44.360  25.143  28.236  1.00  0.00     0.049 A 
ATOM     39  N   UNL A   1      42.136  27.104  28.731  1.00  0.00    -0.248 NA
ATOM     40  C   UNL A   1      40.610  25.487  28.022  1.00  0.00     0.031 C 
ATOM     41  C   UNL A   1      45.490  24.251  27.968  1.00  0.00     0.029 A 
ATOM     42  N   UNL A   1      44.947  26.296  28.695  1.00  0.00    -0.354 N 
ATOM     43  C   UNL A   1      40.855  27.644  28.737  1.00  0.00     0.074 A 
ATOM     44  C   UNL A   1      39.966  26.627  28.220  1.00  0.00     0.031 C 
ATOM     45  C   UNL A   1      46.631  24.878  28.299  1.00  0.00     0.029 A 
ATOM     46  C   UNL A   1      46.317  26.226  28.760  1.00  0.00     0.049 A 
ATOM     47  H   UNL A   1      44.434  27.095  28.953  1.00  0.00     0.167 HD
ATOM     48  C   UNL A   1      40.448  28.867  29.154  1.00  0.00     0.031 A 
ATOM     49  C   UNL A   1      47.224  27.145  29.144  1.00  0.00     0.031 A 
ATOM     50  C   UNL A   1      41.328  29.872  29.683  1.00  0.00     0.049 A 
ATOM     51  C   UNL A   1      46.752  28.492  29.613  1.00  0.00     0.074 A 
ATOM     52  C   UNL A   1      41.007  31.113  30.206  1.00  0.00     0.029 A 
ATOM     53  N   UNL A   1      42.709  29.756  29.749  1.00  0.00    -0.354 N 
ATOM     54  N   UNL A   1      45.529  28.955  29.695  1.00  0.00    -0.248 NA
ATOM     55  C   UNL A   1      47.786  29.437  30.056  1.00  0.00     0.031 C 
ATOM     56  C   UNL A   1      42.198  31.772  30.530  1.00  0.00     0.029 A 
ATOM     57  C   UNL A   1      43.257  30.916  30.271  1.00  0.00     0.049 A 
ATOM     58  H   UNL A   1      43.223  28.965  29.466  1.00  0.00     0.167 HD
ATOM     59  C   UNL A   1      45.642  30.237  30.218  1.00  0.00     0.074 A 
ATOM     60  C   UNL A   1      47.054  30.469  30.451  1.00  0.00     0.031 C 
ATOM     61  C   UNL A   1      44.665  31.140  30.483  1.00  0.00     0.031 A 
BRANCH  48  62
ATOM     62  C   UNL A   1      38.980  29.184  29.031  1.00  0.00    -0.014 A 
ATOM     63  C   UNL A   1      38.432  29.675  27.833  1.00  0.00     0.009 A 
ATOM     64  C   UNL A   1      38.130  28.983  30.129  1.00  0.00     0.009 A 
ATOM     65  C   UNL A   1      37.077  30.009  27.758  1.00  0.00     0.001 A 
ATOM     66  C   UNL A   1      36.769  29.284  30.040  1.00  0.00     0.001 A 
ATOM     67  C   UNL A   1      36.248  29.811  28.860  1.00  0.00     0.000 A 
ENDBRANCH  48  62
BRANCH  49  68
ATOM     68  C   UNL A   1      48.670  26.805  29.115  1.00  0.00    -0.014 A 
ATOM     69  C   UNL A   1      49.447  27.082  27.979  1.00  0.00     0.009 A 
ATOM     70  C   UNL A   1      49.290  26.232  30.237  1.00  0.00     0.009 A 
ATOM     71  C   UNL A   1      50.811  26.779  27.963  1.00  0.00     0.001 A 
ATOM     72  C   UNL A   1      50.659  25.956  30.227  1.00  0.00     0.001 A 
ATOM     73  C   UNL A   1      51.417  26.224  29.089  1.00  0.00     0.000 A 
ENDBRANCH  49  68
BRANCH  61  74
ATOM     74  C   UNL A   1      45.087  32.455  31.074  1.00  0.00    -0.014 A 
ATOM     75  C   UNL A   1      45.207  32.628  32.462  1.00  0.00     0.009 A 
ATOM     76  C   UNL A   1      45.408  33.527  30.226  1.00  0.00     0.009 A 
ATOM     77  C   UNL A   1      45.606  33.858  32.989  1.00  0.00     0.001 A 
ATOM     78  C   UNL A   1      45.837  34.746  30.754  1.00  0.00     0.001 A 
ATOM     79  C   UNL A   1      45.925  34.913  32.135  1.00  0.00     0.000 A 
ENDBRANCH  61  74
ENDBRANCH  35  36
ENDBRANCH  27  30
ENDBRANCH  25  26
ENDBRANCH  24  25
ENDBRANCH   1  24
TORSDOF 18
ENDMDL
MODEL 2
REMARK VINA RESULT:      -9.9      3.333      7.906
REMARK SMILES CCCC[C@@H](C(=O)NCCCNC(=O)c1ccc(-c2c3nc(c(-c4ccccc4)c4ccc([nH]4)c(-c4ccccc4)c4nc(c(-c5ccccc5)c5ccc2[nH]5)C=C4)C=C3)cc1)[C@H](O)c1ccc(OC)c(O)c1
REMARK SMILES IDX 9 1 8 2 6 3 7 4 5 6 4 7 3 8 2 9 1 10 63 11 65 12 66 13 73 14
REMARK SMILES IDX 67 15 71 16 68 17 72 18 69 20 70 21 64 22 10 24 11 25 12 26
REMARK SMILES IDX 13 27 14 29 15 30 16 31 62 32 17 33 61 34 18 35 19 36 20 37
REMARK SMILES IDX 55 38 21 39 60 40 54 41 56 42 22 43 59 44 53 45 52 46 23 48
REMARK SMILES IDX 45 49 30 50 44 51 31 52 34 53 43 54 57 55 32 56 33 57 42 59
REMARK SMILES IDX 58 60 35 61 24 62 25 63 29 64 26 65 28 66 27 67 46 68 47 69
REMARK SMILES IDX 51 70 48 71 50 72 49 73 36 74 37 75 41 76 38 77 40 78 39 79
REMARK H PARENT 8 5 72 19 64 23 12 28 56 47 34 58
REMARK Flexibility Score: inf
ROOT
ATOM      1  C   UNL A   1      34.368  24.404  25.527  1.00  0.00     0.117 C 
ENDROOT
BRANCH   1   2
ATOM      2  N   UNL A   1      33.151  24.108  26.249  1.00  0.00    -0.356 N 
ATOM      3  C   UNL A   1      32.030  24.832  26.491  1.00  0.00     0.226 C 
ATOM      4  O   UNL A   1      31.169  24.222  27.139  1.00  0.00    -0.275 OA
ATOM      5  H   UNL A   1      33.132  23.205  26.642  1.00  0.00     0.163 HD
BRANCH   3   6
ATOM      6  C   UNL A   1      31.773  26.263  25.957  1.00  0.00     0.111 C 
BRANCH   6   7
ATOM      7  C   UNL A   1      31.315  27.279  27.034  1.00  0.00     0.016 C 
BRANCH   7   8
ATOM      8  C   UNL A   1      32.129  28.507  27.433  1.00  0.00     0.001 C 
BRANCH   8   9
ATOM      9  C   UNL A   1      33.533  28.636  26.848  1.00  0.00    -0.003 C 
ATOM     10  C   UNL A   1      34.258  29.888  27.310  1.00  0.00     0.004 C 
ENDBRANCH   8   9
ENDBRANCH   7   8
ENDBRANCH   6   7
BRANCH   6  11
ATOM     11  C   UNL A   1      30.636  26.071  24.855  1.00  0.00     0.157 C 
BRANCH  11  12
ATOM     12  C   UNL A   1      30.341  27.238  23.919  1.00  0.00    -0.015 A 
ATOM     13  C   UNL A   1      29.005  27.579  23.645  1.00  0.00     0.010 A 
ATOM     14  C   UNL A   1      31.342  27.990  23.292  1.00  0.00     0.056 A 
ATOM     15  C   UNL A   1      28.690  28.743  22.947  1.00  0.00     0.051 A 
ATOM     16  C   UNL A   1      31.016  29.107  22.505  1.00  0.00     0.158 A 
ATOM     17  C   UNL A   1      29.691  29.536  22.386  1.00  0.00     0.160 A 
BRANCH  16  18
ATOM     18  O   UNL A   1      32.033  29.749  21.853  1.00  0.00    -0.504 OA
ATOM     19  H   UNL A   1      32.103  30.683  21.897  1.00  0.00     0.293 HD
ENDBRANCH  16  18
BRANCH  17  20
ATOM     20  O   UNL A   1      29.194  30.651  21.772  1.00  0.00    -0.493 OA
ATOM     21  C   UNL A   1      27.976  30.534  21.055  1.00  0.00     0.278 C 
ENDBRANCH  17  20
ENDBRANCH  11  12
BRANCH  11  22
ATOM     22  O   UNL A   1      30.961  24.917  24.064  1.00  0.00    -0.388 OA
ATOM     23  H   UNL A   1      31.923  24.792  24.056  1.00  0.00     0.211 HD
ENDBRANCH  11  22
ENDBRANCH   6  11
ENDBRANCH   3   6
ENDBRANCH   1   2
BRANCH   1  24
ATOM     24  C   UNL A   1      35.406  23.309  25.750  1.00  0.00     0.042 C 
BRANCH  24  25
ATOM     25  C   UNL A   1      36.750  23.555  25.090  1.00  0.00     0.118 C 
BRANCH  25  26
ATOM     26  N   UNL A   1      37.751  22.587  25.499  1.00  0.00    -0.352 N 
ATOM     27  C   UNL A   1      38.958  22.759  26.134  1.00  0.00     0.251 C 
ATOM     28  H   UNL A   1      37.529  21.653  25.287  1.00  0.00     0.163 HD
ATOM     29  O   UNL A   1      39.734  21.809  26.196  1.00  0.00    -0.269 OA
BRANCH  27  30
ATOM     30  C   UNL A   1      39.353  24.062  26.727  1.00  0.00     0.039 A 
ATOM     31  C   UNL A   1      38.962  24.346  28.041  1.00  0.00     0.014 A 
ATOM     32  C   UNL A   1      40.049  25.030  26.000  1.00  0.00     0.014 A 
ATOM     33  C   UNL A   1      39.311  25.565  28.631  1.00  0.00     0.010 A 
ATOM     34  C   UNL A   1      40.493  26.193  26.623  1.00  0.00     0.010 A 
ATOM     35  C   UNL A   1      40.108  26.488  27.938  1.00  0.00    -0.014 A 
BRANCH  35  36
ATOM     36  C   UNL A   1      40.520  27.775  28.559  1.00  0.00     0.031 A 
ATOM     37  C   UNL A   1      41.928  27.961  29.061  1.00  0.00     0.074 A 
ATOM     38  C   UNL A   1      39.614  28.758  28.727  1.00  0.00     0.049 A 
ATOM     39  N   UNL A   1      42.461  28.993  29.666  1.00  0.00    -0.248 NA
ATOM     40  C   UNL A   1      42.849  26.826  28.895  1.00  0.00     0.031 C 
ATOM     41  C   UNL A   1      38.205  28.687  28.336  1.00  0.00     0.029 A 
ATOM     42  N   UNL A   1      39.745  30.008  29.278  1.00  0.00    -0.354 N 
ATOM     43  C   UNL A   1      43.764  28.621  29.974  1.00  0.00     0.074 A 
ATOM     44  C   UNL A   1      43.924  27.250  29.543  1.00  0.00     0.031 C 
ATOM     45  C   UNL A   1      37.609  29.854  28.629  1.00  0.00     0.029 A 
ATOM     46  C   UNL A   1      38.581  30.738  29.266  1.00  0.00     0.049 A 
ATOM     47  H   UNL A   1      40.592  30.349  29.646  1.00  0.00     0.167 HD
ATOM     48  C   UNL A   1      44.748  29.356  30.545  1.00  0.00     0.031 A 
ATOM     49  C   UNL A   1      38.320  31.978  29.720  1.00  0.00     0.031 A 
ATOM     50  C   UNL A   1      44.594  30.724  30.959  1.00  0.00     0.049 A 
ATOM     51  C   UNL A   1      39.427  32.782  30.340  1.00  0.00     0.074 A 
ATOM     52  C   UNL A   1      45.551  31.582  31.476  1.00  0.00     0.029 A 
ATOM     53  N   UNL A   1      43.403  31.433  30.914  1.00  0.00    -0.354 N 
ATOM     54  N   UNL A   1      40.677  32.445  30.544  1.00  0.00    -0.248 NA
ATOM     55  C   UNL A   1      39.089  34.143  30.779  1.00  0.00     0.031 C 
ATOM     56  C   UNL A   1      44.923  32.790  31.800  1.00  0.00     0.029 A 
ATOM     57  C   UNL A   1      43.591  32.707  31.425  1.00  0.00     0.049 A 
ATOM     58  H   UNL A   1      42.550  31.082  30.569  1.00  0.00     0.167 HD
ATOM     59  C   UNL A   1      41.282  33.558  31.116  1.00  0.00     0.074 A 
ATOM     60  C   UNL A   1      40.263  34.585  31.207  1.00  0.00     0.031 C 
ATOM     61  C   UNL A   1      42.565  33.714  31.525  1.00  0.00     0.031 A 
BRANCH  48  62
ATOM     62  C   UNL A   1      46.074  28.677  30.771  1.00  0.00    -0.014 A 
ATOM     63  C   UNL A   1      47.085  28.694  29.794  1.00  0.00     0.009 A 
ATOM     64  C   UNL A   1      46.318  28.014  31.983  1.00  0.00     0.009 A 
ATOM     65  C   UNL A   1      48.288  28.016  30.007  1.00  0.00     0.001 A 
ATOM     66  C   UNL A   1      47.535  27.366  32.207  1.00  0.00     0.001 A 
ATOM     67  C   UNL A   1      48.512  27.354  31.213  1.00  0.00     0.000 A 
ENDBRANCH  48  62
BRANCH  49  68
ATOM     68  C   UNL A   1      36.949  32.537  29.582  1.00  0.00    -0.014 A 
ATOM     69  C   UNL A   1      36.582  33.254  28.432  1.00  0.00     0.009 A 
ATOM     70  C   UNL A   1      35.990  32.326  30.585  1.00  0.00     0.009 A 
ATOM     71  C   UNL A   1      35.287  33.760  28.298  1.00  0.00     0.001 A 
ATOM     72  C   UNL A   1      34.688  32.809  30.435  1.00  0.00     0.001 A 
ATOM     73  C   UNL A   1      34.340  33.531  29.295  1.00  0.00     0.000 A 
ENDBRANCH  49  68
BRANCH  61  74
ATOM     74  C   UNL A   1      42.946  35.053  32.093  1.00  0.00    -0.014 A 
ATOM     75  C   UNL A   1      43.511  36.054  31.287  1.00  0.00     0.009 A 
ATOM     76  C   UNL A   1      42.700  35.328  33.447  1.00  0.00     0.009 A 
ATOM     77  C   UNL A   1      43.853  37.292  31.836  1.00  0.00     0.001 A 
ATOM     78  C   UNL A   1      43.013  36.577  33.985  1.00  0.00     0.001 A 
ATOM     79  C   UNL A   1      43.599  37.554  33.182  1.00  0.00     0.000 A 
ENDBRANCH  61  74
ENDBRANCH  35  36
ENDBRANCH  27  30
ENDBRANCH  25  26
ENDBRANCH  24  25
ENDBRANCH   1  24
TORSDOF 18
ENDMDL
MODEL 3
REMARK VINA RESULT:      -9.9      0.771      6.038
REMARK SMILES CCCC[C@@H](C(=O)NCCCNC(=O)c1ccc(-c2c3nc(c(-c4ccccc4)c4ccc([nH]4)c(-c4ccccc4)c4nc(c(-c5ccccc5)c5ccc2[nH]5)C=C4)C=C3)cc1)[C@H](O)c1ccc(OC)c(O)c1
REMARK SMILES IDX 9 1 8 2 6 3 7 4 5 6 4 7 3 8 2 9 1 10 63 11 65 12 66 13 73 14
REMARK SMILES IDX 67 15 71 16 68 17 72 18 69 20 70 21 64 22 10 24 11 25 12 26
REMARK SMILES IDX 13 27 14 29 15 30 16 31 62 32 17 33 61 34 18 35 19 36 20 37
REMARK SMILES IDX 55 38 21 39 60 40 54 41 56 42 22 43 59 44 53 45 52 46 23 48
REMARK SMILES IDX 45 49 30 50 44 51 31 52 34 53 43 54 57 55 32 56 33 57 42 59
REMARK SMILES IDX 58 60 35 61 24 62 25 63 29 64 26 65 28 66 27 67 46 68 47 69
REMARK SMILES IDX 51 70 48 71 50 72 49 73 36 74 37 75 41 76 38 77 40 78 39 79
REMARK H PARENT 8 5 72 19 64 23 12 28 56 47 34 58
REMARK Flexibility Score: inf
ROOT
ATOM      1  C   UNL A   1      37.065  21.205  24.251  1.00  0.00     0.117 C 
ENDROOT
BRANCH   1   2
ATOM      2  N   UNL A   1      37.403  22.308  25.123  1.00  0.00    -0.356 N 
ATOM      3  C   UNL A   1      36.710  23.401  25.531  1.00  0.00     0.226 C 
ATOM      4  O   UNL A   1      37.333  24.126  26.317  1.00  0.00    -0.275 OA
ATOM      5  H   UNL A   1      38.314  22.257  25.493  1.00  0.00     0.163 HD
BRANCH   3   6
ATOM      6  C   UNL A   1      35.243  23.709  25.139  1.00  0.00     0.111 C 
BRANCH   6   7
ATOM      7  C   UNL A   1      34.843  25.201  25.269  1.00  0.00     0.016 C 
BRANCH   7   8
ATOM      8  C   UNL A   1      33.542  25.774  24.713  1.00  0.00     0.001 C 
BRANCH   8   9
ATOM      9  C   UNL A   1      33.512  26.130  23.229  1.00  0.00    -0.003 C 
ATOM     10  C   UNL A   1      33.175  24.946  22.340  1.00  0.00     0.004 C 
ENDBRANCH   8   9
ENDBRANCH   7   8
ENDBRANCH   6   7
BRANCH   6  11
ATOM     11  C   UNL A   1      34.376  22.814  26.134  1.00  0.00     0.157 C 
BRANCH  11  12
ATOM     12  C   UNL A   1      33.697  21.569  25.571  1.00  0.00    -0.015 A 
ATOM     13  C   UNL A   1      33.293  21.556  24.225  1.00  0.00     0.010 A 
ATOM     14  C   UNL A   1      33.435  20.427  26.337  1.00  0.00     0.056 A 
ATOM     15  C   UNL A   1      32.839  20.384  23.623  1.00  0.00     0.051 A 
ATOM     16  C   UNL A   1      32.884  19.276  25.747  1.00  0.00     0.158 A 
ATOM     17  C   UNL A   1      32.649  19.222  24.370  1.00  0.00     0.160 A 
BRANCH  16  18
ATOM     18  O   UNL A   1      32.575  18.224  26.565  1.00  0.00    -0.504 OA
ATOM     19  H   UNL A   1      32.643  18.318  27.495  1.00  0.00     0.293 HD
ENDBRANCH  16  18
BRANCH  17  20
ATOM     20  O   UNL A   1      32.234  18.169  23.605  1.00  0.00    -0.493 OA
ATOM     21  C   UNL A   1      32.250  18.318  22.195  1.00  0.00     0.278 C 
ENDBRANCH  17  20
ENDBRANCH  11  12
BRANCH  11  22
ATOM     22  O   UNL A   1      35.210  22.424  27.237  1.00  0.00    -0.388 OA
ATOM     23  H   UNL A   1      34.748  21.760  27.773  1.00  0.00     0.211 HD
ENDBRANCH  11  22
ENDBRANCH   6  11
ENDBRANCH   3   6
ENDBRANCH   1   2
BRANCH   1  24
ATOM     24  C   UNL A   1      37.864  19.960  24.624  1.00  0.00     0.042 C 
BRANCH  24  25
ATOM     25  C   UNL A   1      38.696  20.087  25.886  1.00  0.00     0.118 C 
BRANCH  25  26
ATOM     26  N   UNL A   1      39.929  19.324  25.813  1.00  0.00    -0.352 N 
ATOM     27  C   UNL A   1      41.234  19.704  26.016  1.00  0.00     0.251 C 
ATOM     28  H   UNL A   1      39.810  18.375  25.579  1.00  0.00     0.163 HD
ATOM     29  O   UNL A   1      42.132  18.930  25.697  1.00  0.00    -0.269 OA
BRANCH  27  30
ATOM     30  C   UNL A   1      41.582  21.029  26.589  1.00  0.00     0.039 A 
ATOM     31  C   UNL A   1      42.036  22.034  25.726  1.00  0.00     0.014 A 
ATOM     32  C   UNL A   1      41.526  21.286  27.961  1.00  0.00     0.014 A 
ATOM     33  C   UNL A   1      42.378  23.293  26.230  1.00  0.00     0.010 A 
ATOM     34  C   UNL A   1      41.758  22.569  28.446  1.00  0.00     0.010 A 
ATOM     35  C   UNL A   1      42.212  23.583  27.592  1.00  0.00    -0.014 A 
BRANCH  35  36
ATOM     36  C   UNL A   1      42.537  24.925  28.143  1.00  0.00     0.031 A 
ATOM     37  C   UNL A   1      43.943  25.250  28.577  1.00  0.00     0.074 A 
ATOM     38  C   UNL A   1      41.557  25.835  28.312  1.00  0.00     0.049 A 
ATOM     39  N   UNL A   1      44.409  26.349  29.116  1.00  0.00    -0.248 NA
ATOM     40  C   UNL A   1      44.950  24.190  28.415  1.00  0.00     0.031 C 
ATOM     41  C   UNL A   1      40.145  25.630  27.986  1.00  0.00     0.029 A 
ATOM     42  N   UNL A   1      41.603  27.115  28.807  1.00  0.00    -0.354 N 
ATOM     43  C   UNL A   1      45.750  26.100  29.382  1.00  0.00     0.074 A 
ATOM     44  C   UNL A   1      46.009  24.730  28.999  1.00  0.00     0.031 C 
ATOM     45  C   UNL A   1      39.464  26.754  28.258  1.00  0.00     0.029 A 
ATOM     46  C   UNL A   1      40.381  27.743  28.817  1.00  0.00     0.049 A 
ATOM     47  H   UNL A   1      42.431  27.541  29.125  1.00  0.00     0.167 HD
ATOM     48  C   UNL A   1      46.690  26.939  29.880  1.00  0.00     0.031 A 
ATOM     49  C   UNL A   1      40.033  28.976  29.232  1.00  0.00     0.031 A 
ATOM     50  C   UNL A   1      46.437  28.306  30.246  1.00  0.00     0.049 A 
ATOM     51  C   UNL A   1      41.091  29.895  29.772  1.00  0.00     0.074 A 
ATOM     52  C   UNL A   1      47.336  29.263  30.686  1.00  0.00     0.029 A 
ATOM     53  N   UNL A   1      45.188  28.910  30.225  1.00  0.00    -0.354 N 
ATOM     54  N   UNL A   1      42.373  29.674  29.934  1.00  0.00    -0.248 NA
ATOM     55  C   UNL A   1      40.656  31.241  30.171  1.00  0.00     0.031 C 
ATOM     56  C   UNL A   1      46.620  30.427  30.990  1.00  0.00     0.029 A 
ATOM     57  C   UNL A   1      45.287  30.216  30.677  1.00  0.00     0.049 A 
ATOM     58  H   UNL A   1      44.355  28.474  29.932  1.00  0.00     0.167 HD
ATOM     59  C   UNL A   1      42.903  30.856  30.435  1.00  0.00     0.074 A 
ATOM     60  C   UNL A   1      41.805  31.797  30.530  1.00  0.00     0.031 C 
ATOM     61  C   UNL A   1      44.183  31.137  30.782  1.00  0.00     0.031 A 
BRANCH  48  62
ATOM     62  C   UNL A   1      48.077  26.384  30.074  1.00  0.00    -0.014 A 
ATOM     63  C   UNL A   1      49.025  26.395  29.038  1.00  0.00     0.009 A 
ATOM     64  C   UNL A   1      48.442  25.846  31.318  1.00  0.00     0.009 A 
ATOM     65  C   UNL A   1      50.290  25.829  29.227  1.00  0.00     0.001 A 
ATOM     66  C   UNL A   1      49.718  25.313  31.515  1.00  0.00     0.001 A 
ATOM     67  C   UNL A   1      50.635  25.292  30.465  1.00  0.00     0.000 A 
ENDBRANCH  48  62
BRANCH  49  68
ATOM     68  C   UNL A   1      38.615  29.411  29.132  1.00  0.00    -0.014 A 
ATOM     69  C   UNL A   1      38.103  29.905  27.922  1.00  0.00     0.009 A 
ATOM     70  C   UNL A   1      37.757  29.302  30.238  1.00  0.00     0.009 A 
ATOM     71  C   UNL A   1      36.765  30.294  27.827  1.00  0.00     0.001 A 
ATOM     72  C   UNL A   1      36.413  29.666  30.131  1.00  0.00     0.001 A 
ATOM     73  C   UNL A   1      35.920  30.168  28.929  1.00  0.00     0.000 A 
ENDBRANCH  49  68
BRANCH  61  74
ATOM     74  C   UNL A   1      44.471  32.526  31.279  1.00  0.00    -0.014 A 
ATOM     75  C   UNL A   1      44.814  33.562  30.396  1.00  0.00     0.009 A 
ATOM     76  C   UNL A   1      44.359  32.810  32.649  1.00  0.00     0.009 A 
ATOM     77  C   UNL A   1      45.072  34.845  30.880  1.00  0.00     0.001 A 
ATOM     78  C   UNL A   1      44.586  34.101  33.127  1.00  0.00     0.001 A 
ATOM     79  C   UNL A   1      44.953  35.116  32.243  1.00  0.00     0.000 A 
ENDBRANCH  61  74
ENDBRANCH  35  36
ENDBRANCH  27  30
ENDBRANCH  25  26
ENDBRANCH  24  25
ENDBRANCH   1  24
TORSDOF 18
ENDMDL
