MODEL 1
REMARK VINA RESULT:     -12.8      0.000      0.000
REMARK SMILES NS(=O)(=O)c1ccc(-n2nc(C(F)F)cc2-c2ccc(C(=O)NCCCNC(=O)c3ccc(-c4c5nc(c(-c6ccccc6)c6ccc([nH]6)c(-c6ccccc6)c6nc(c(-c7ccccc7)c7ccc4[nH]7)C=C6)C=C5)cc3)cc2)cc1
REMARK SMILES IDX 24 1 23 2 21 3 22 4 20 6 17 7 18 8 79 9 19 10 78 11 16 12
REMARK SMILES IDX 9 13 10 14 11 15 15 16 8 17 5 18 6 19 81 20 7 21 80 22 2 23
REMARK SMILES IDX 3 24 4 25 1 26 12 29 13 30 14 31 25 32 26 33 27 34 28 35
REMARK SMILES IDX 29 37 30 38 31 39 77 40 32 41 76 42 33 43 34 44 35 45 70 46
REMARK SMILES IDX 36 47 75 48 69 49 71 50 37 51 74 52 68 53 67 54 38 56 60 57
REMARK SMILES IDX 45 58 59 59 46 60 49 61 58 62 72 63 47 64 48 65 57 67 73 68
REMARK SMILES IDX 50 69 39 70 40 71 44 72 41 73 43 74 42 75 61 76 62 77 66 78
REMARK SMILES IDX 63 79 65 80 64 81 51 82 52 83 56 84 53 85 55 86 54 87
REMARK H PARENT 23 5 1 27 1 28 27 36 71 55 49 66
REMARK Flexibility Score: inf
ROOT
ATOM      1  C   UNL A   1      31.956  31.060  26.779  1.00  0.00     0.118 C 
ENDROOT
BRANCH   1   2
ATOM      2  N   UNL A   1      33.044  30.671  27.665  1.00  0.00    -0.352 N 
ATOM      3  C   UNL A   1      33.714  29.478  27.807  1.00  0.00     0.251 C 
ATOM      4  O   UNL A   1      34.680  29.438  28.566  1.00  0.00    -0.269 OA
ATOM      5  H   UNL A   1      33.353  31.386  28.269  1.00  0.00     0.163 HD
BRANCH   3   6
ATOM      6  C   UNL A   1      33.339  28.263  27.032  1.00  0.00     0.039 A 
ATOM      7  C   UNL A   1      32.645  26.063  25.431  1.00  0.00     0.000 A 
ATOM      8  C   UNL A   1      33.851  26.741  25.211  1.00  0.00     0.011 A 
ATOM      9  C   UNL A   1      31.818  26.455  26.478  1.00  0.00     0.011 A 
ATOM     10  C   UNL A   1      34.194  27.839  26.007  1.00  0.00     0.014 A 
ATOM     11  C   UNL A   1      32.189  27.516  27.292  1.00  0.00     0.014 A 
BRANCH   7  12
ATOM     12  C   UNL A   1      32.246  24.922  24.627  1.00  0.00     0.075 A 
ATOM     13  N   UNL A   1      31.204  24.913  23.712  1.00  0.00    -0.233 N 
ATOM     14  N   UNL A   1      30.962  23.665  23.239  1.00  0.00    -0.166 NA
ATOM     15  C   UNL A   1      31.992  22.923  23.686  1.00  0.00     0.129 A 
ATOM     16  C   UNL A   1      32.787  23.655  24.596  1.00  0.00     0.060 A 
BRANCH  13  17
ATOM     17  C   UNL A   1      30.429  26.023  23.294  1.00  0.00     0.065 A 
ATOM     18  C   UNL A   1      29.022  28.350  22.727  1.00  0.00     0.082 A 
ATOM     19  C   UNL A   1      30.277  28.154  22.149  1.00  0.00     0.024 A 
ATOM     20  C   UNL A   1      28.446  27.372  23.548  1.00  0.00     0.024 A 
ATOM     21  C   UNL A   1      30.985  26.991  22.441  1.00  0.00     0.030 A 
ATOM     22  C   UNL A   1      29.140  26.187  23.809  1.00  0.00     0.030 A 
BRANCH  18  23
ATOM     23  S   UNL A   1      28.157  29.864  22.440  1.00  0.00     0.238 S 
ATOM     24  O   UNL A   1      27.023  29.942  23.342  1.00  0.00    -0.207 OA
ATOM     25  O   UNL A   1      28.038  30.067  21.023  1.00  0.00    -0.207 OA
BRANCH  23  26
ATOM     26  N   UNL A   1      29.244  31.012  23.003  1.00  0.00    -0.225 NA
ATOM     27  H   UNL A   1      28.978  31.297  23.946  1.00  0.00     0.137 HD
ATOM     28  H   UNL A   1      29.230  31.825  22.387  1.00  0.00     0.137 HD
ENDBRANCH  23  26
ENDBRANCH  18  23
ENDBRANCH  13  17
BRANCH  15  29
ATOM     29  C   UNL A   1      32.236  21.507  23.255  1.00  0.00     0.393 C 
ATOM     30  F   UNL A   1      31.866  20.598  24.194  1.00  0.00    -0.203 F 
ATOM     31  F   UNL A   1      31.538  21.210  22.123  1.00  0.00    -0.203 F 
ENDBRANCH  15  29
ENDBRANCH   7  12
ENDBRANCH   3   6
ENDBRANCH   1   2
BRANCH   1  32
ATOM     32  C   UNL A   1      31.630  32.557  26.891  1.00  0.00     0.042 C 
BRANCH  32  33
ATOM     33  C   UNL A   1      32.849  33.396  27.212  1.00  0.00     0.118 C 
BRANCH  33  34
ATOM     34  N   UNL A   1      32.521  34.537  28.066  1.00  0.00    -0.352 N 
ATOM     35  C   UNL A   1      33.104  34.908  29.261  1.00  0.00     0.251 C 
ATOM     36  H   UNL A   1      31.790  35.114  27.749  1.00  0.00     0.163 HD
ATOM     37  O   UNL A   1      32.528  35.662  30.034  1.00  0.00    -0.269 OA
BRANCH  35  38
ATOM     38  C   UNL A   1      34.432  34.371  29.589  1.00  0.00     0.039 A 
ATOM     39  C   UNL A   1      34.646  33.616  30.746  1.00  0.00     0.014 A 
ATOM     40  C   UNL A   1      35.459  34.593  28.679  1.00  0.00     0.014 A 
ATOM     41  C   UNL A   1      35.888  33.014  30.935  1.00  0.00     0.010 A 
ATOM     42  C   UNL A   1      36.607  33.855  28.773  1.00  0.00     0.010 A 
ATOM     43  C   UNL A   1      36.859  33.125  29.932  1.00  0.00    -0.014 A 
BRANCH  43  44
ATOM     44  C   UNL A   1      38.125  32.403  30.008  1.00  0.00     0.031 A 
ATOM     45  C   UNL A   1      38.095  31.018  29.457  1.00  0.00     0.074 A 
ATOM     46  C   UNL A   1      39.280  33.055  30.271  1.00  0.00     0.049 A 
ATOM     47  N   UNL A   1      38.389  29.910  30.054  1.00  0.00    -0.248 NA
ATOM     48  C   UNL A   1      37.574  30.836  28.089  1.00  0.00     0.031 C 
ATOM     49  C   UNL A   1      39.461  34.501  30.480  1.00  0.00     0.029 A 
ATOM     50  N   UNL A   1      40.561  32.601  30.234  1.00  0.00    -0.354 N 
ATOM     51  C   UNL A   1      38.276  28.912  29.085  1.00  0.00     0.074 A 
ATOM     52  C   UNL A   1      37.603  29.509  27.962  1.00  0.00     0.031 C 
ATOM     53  C   UNL A   1      40.752  34.830  30.269  1.00  0.00     0.029 A 
ATOM     54  C   UNL A   1      41.513  33.607  30.106  1.00  0.00     0.049 A 
ATOM     55  H   UNL A   1      40.794  31.646  30.291  1.00  0.00     0.167 HD
ATOM     56  C   UNL A   1      38.983  27.750  29.167  1.00  0.00     0.031 A 
ATOM     57  C   UNL A   1      42.833  33.459  29.843  1.00  0.00     0.031 A 
ATOM     58  C   UNL A   1      39.528  27.553  30.485  1.00  0.00     0.049 A 
ATOM     59  C   UNL A   1      43.181  32.052  30.130  1.00  0.00     0.074 A 
ATOM     60  C   UNL A   1      39.009  27.383  31.750  1.00  0.00     0.029 A 
ATOM     61  N   UNL A   1      40.847  27.900  30.649  1.00  0.00    -0.354 N 
ATOM     62  N   UNL A   1      43.147  31.528  31.321  1.00  0.00    -0.248 NA
ATOM     63  C   UNL A   1      43.171  31.103  29.029  1.00  0.00     0.031 C 
ATOM     64  C   UNL A   1      39.918  28.060  32.616  1.00  0.00     0.029 A 
ATOM     65  C   UNL A   1      40.974  28.552  31.845  1.00  0.00     0.049 A 
ATOM     66  H   UNL A   1      41.575  27.711  30.014  1.00  0.00     0.167 HD
ATOM     67  C   UNL A   1      42.669  30.241  31.124  1.00  0.00     0.074 A 
ATOM     68  C   UNL A   1      42.834  29.994  29.695  1.00  0.00     0.031 C 
ATOM     69  C   UNL A   1      41.925  29.618  32.085  1.00  0.00     0.031 A 
BRANCH  56  70
ATOM     70  C   UNL A   1      39.562  27.036  27.965  1.00  0.00    -0.014 A 
ATOM     71  C   UNL A   1      39.337  25.653  27.828  1.00  0.00     0.009 A 
ATOM     72  C   UNL A   1      40.553  27.595  27.136  1.00  0.00     0.009 A 
ATOM     73  C   UNL A   1      40.114  24.867  26.965  1.00  0.00     0.001 A 
ATOM     74  C   UNL A   1      41.300  26.822  26.242  1.00  0.00     0.001 A 
ATOM     75  C   UNL A   1      41.101  25.452  26.179  1.00  0.00     0.000 A 
ENDBRANCH  56  70
BRANCH  57  76
ATOM     76  C   UNL A   1      43.743  34.373  29.123  1.00  0.00    -0.014 A 
ATOM     77  C   UNL A   1      44.996  34.711  29.655  1.00  0.00     0.009 A 
ATOM     78  C   UNL A   1      43.486  34.715  27.782  1.00  0.00     0.009 A 
ATOM     79  C   UNL A   1      45.970  35.334  28.862  1.00  0.00     0.001 A 
ATOM     80  C   UNL A   1      44.457  35.338  26.991  1.00  0.00     0.001 A 
ATOM     81  C   UNL A   1      45.704  35.635  27.528  1.00  0.00     0.000 A 
ENDBRANCH  57  76
BRANCH  69  82
ATOM     82  C   UNL A   1      41.892  30.236  33.462  1.00  0.00    -0.014 A 
ATOM     83  C   UNL A   1      40.987  31.246  33.836  1.00  0.00     0.009 A 
ATOM     84  C   UNL A   1      42.696  29.661  34.457  1.00  0.00     0.009 A 
ATOM     85  C   UNL A   1      40.905  31.677  35.164  1.00  0.00     0.001 A 
ATOM     86  C   UNL A   1      42.597  30.076  35.787  1.00  0.00     0.001 A 
ATOM     87  C   UNL A   1      41.705  31.085  36.140  1.00  0.00     0.000 A 
ENDBRANCH  69  82
ENDBRANCH  43  44
ENDBRANCH  35  38
ENDBRANCH  33  34
ENDBRANCH  32  33
ENDBRANCH   1  32
TORSDOF 15
ENDMDL
MODEL 2
REMARK VINA RESULT:     -12.8      4.827      9.203
REMARK SMILES NS(=O)(=O)c1ccc(-n2nc(C(F)F)cc2-c2ccc(C(=O)NCCCNC(=O)c3ccc(-c4c5nc(c(-c6ccccc6)c6ccc([nH]6)c(-c6ccccc6)c6nc(c(-c7ccccc7)c7ccc4[nH]7)C=C6)C=C5)cc3)cc2)cc1
REMARK SMILES IDX 24 1 23 2 21 3 22 4 20 6 17 7 18 8 79 9 19 10 78 11 16 12
REMARK SMILES IDX 9 13 10 14 11 15 15 16 8 17 5 18 6 19 81 20 7 21 80 22 2 23
REMARK SMILES IDX 3 24 4 25 1 26 12 29 13 30 14 31 25 32 26 33 27 34 28 35
REMARK SMILES IDX 29 37 30 38 31 39 77 40 32 41 76 42 33 43 34 44 35 45 70 46
REMARK SMILES IDX 36 47 75 48 69 49 71 50 37 51 74 52 68 53 67 54 38 56 60 57
REMARK SMILES IDX 45 58 59 59 46 60 49 61 58 62 72 63 47 64 48 65 57 67 73 68
REMARK SMILES IDX 50 69 39 70 40 71 44 72 41 73 43 74 42 75 61 76 62 77 66 78
REMARK SMILES IDX 63 79 65 80 64 81 51 82 52 83 56 84 53 85 55 86 54 87
REMARK H PARENT 23 5 1 27 1 28 27 36 71 55 49 66
REMARK Flexibility Score: inf
ROOT
ATOM      1  C   UNL A   1      37.803  20.840  24.996  1.00  0.00     0.118 C 
ENDROOT
BRANCH   1   2
ATOM      2  N   UNL A   1      38.482  22.083  25.333  1.00  0.00    -0.352 N 
ATOM      3  C   UNL A   1      38.020  23.376  25.407  1.00  0.00     0.251 C 
ATOM      4  O   UNL A   1      38.783  24.246  25.823  1.00  0.00    -0.269 OA
ATOM      5  H   UNL A   1      39.439  21.980  25.542  1.00  0.00     0.163 HD
BRANCH   3   6
ATOM      6  C   UNL A   1      36.619  23.738  25.056  1.00  0.00     0.039 A 
ATOM      7  C   UNL A   1      33.925  24.308  24.508  1.00  0.00     0.000 A 
ATOM      8  C   UNL A   1      34.422  24.448  25.809  1.00  0.00     0.011 A 
ATOM      9  C   UNL A   1      34.783  23.933  23.480  1.00  0.00     0.011 A 
ATOM     10  C   UNL A   1      35.764  24.160  26.082  1.00  0.00     0.014 A 
ATOM     11  C   UNL A   1      36.123  23.696  23.751  1.00  0.00     0.014 A 
BRANCH   7  12
ATOM     12  C   UNL A   1      32.539  24.591  24.180  1.00  0.00     0.075 A 
ATOM     13  N   UNL A   1      31.602  23.649  23.785  1.00  0.00    -0.233 N 
ATOM     14  N   UNL A   1      30.443  24.229  23.385  1.00  0.00    -0.166 NA
ATOM     15  C   UNL A   1      30.569  25.523  23.735  1.00  0.00     0.129 A 
ATOM     16  C   UNL A   1      31.879  25.801  24.186  1.00  0.00     0.060 A 
BRANCH  13  17
ATOM     17  C   UNL A   1      31.770  22.242  23.754  1.00  0.00     0.065 A 
ATOM     18  C   UNL A   1      32.409  19.540  23.673  1.00  0.00     0.082 A 
ATOM     19  C   UNL A   1      32.270  20.170  24.910  1.00  0.00     0.024 A 
ATOM     20  C   UNL A   1      32.186  20.238  22.479  1.00  0.00     0.024 A 
ATOM     21  C   UNL A   1      31.958  21.527  24.949  1.00  0.00     0.030 A 
ATOM     22  C   UNL A   1      31.834  21.590  22.519  1.00  0.00     0.030 A 
BRANCH  18  23
ATOM     23  S   UNL A   1      32.900  17.843  23.610  1.00  0.00     0.238 S 
ATOM     24  O   UNL A   1      34.227  17.710  24.182  1.00  0.00    -0.207 OA
ATOM     25  O   UNL A   1      32.552  17.309  22.323  1.00  0.00    -0.207 OA
BRANCH  23  26
ATOM     26  N   UNL A   1      31.869  17.128  24.725  1.00  0.00    -0.225 NA
ATOM     27  H   UNL A   1      31.134  16.622  24.231  1.00  0.00     0.137 HD
ATOM     28  H   UNL A   1      31.450  17.849  25.312  1.00  0.00     0.137 HD
ENDBRANCH  23  26
ENDBRANCH  18  23
ENDBRANCH  13  17
BRANCH  15  29
ATOM     29  C   UNL A   1      29.447  26.514  23.645  1.00  0.00     0.393 C 
ATOM     30  F   UNL A   1      28.489  26.313  24.589  1.00  0.00    -0.203 F 
ATOM     31  F   UNL A   1      29.899  27.788  23.808  1.00  0.00    -0.203 F 
ENDBRANCH  15  29
ENDBRANCH   7  12
ENDBRANCH   3   6
ENDBRANCH   1   2
BRANCH   1  32
ATOM     32  C   UNL A   1      38.627  19.608  25.395  1.00  0.00     0.042 C 
BRANCH  32  33
ATOM     33  C   UNL A   1      39.820  19.959  26.261  1.00  0.00     0.118 C 
BRANCH  33  34
ATOM     34  N   UNL A   1      41.028  19.248  25.847  1.00  0.00    -0.352 N 
ATOM     35  C   UNL A   1      42.317  19.732  25.756  1.00  0.00     0.251 C 
ATOM     36  H   UNL A   1      40.907  18.303  25.600  1.00  0.00     0.163 HD
ATOM     37  O   UNL A   1      43.160  19.153  25.084  1.00  0.00    -0.269 OA
BRANCH  35  38
ATOM     38  C   UNL A   1      42.656  20.966  26.480  1.00  0.00     0.039 A 
ATOM     39  C   UNL A   1      43.265  22.045  25.833  1.00  0.00     0.014 A 
ATOM     40  C   UNL A   1      42.296  21.045  27.820  1.00  0.00     0.014 A 
ATOM     41  C   UNL A   1      43.434  23.239  26.531  1.00  0.00     0.010 A 
ATOM     42  C   UNL A   1      42.293  22.264  28.441  1.00  0.00     0.010 A 
ATOM     43  C   UNL A   1      42.927  23.344  27.833  1.00  0.00    -0.014 A 
BRANCH  43  44
ATOM     44  C   UNL A   1      42.947  24.608  28.563  1.00  0.00     0.031 A 
ATOM     45  C   UNL A   1      41.863  25.564  28.199  1.00  0.00     0.074 A 
ATOM     46  C   UNL A   1      43.697  24.751  29.679  1.00  0.00     0.049 A 
ATOM     47  N   UNL A   1      41.974  26.777  27.765  1.00  0.00    -0.248 NA
ATOM     48  C   UNL A   1      40.474  25.069  28.228  1.00  0.00     0.031 C 
ATOM     49  C   UNL A   1      44.538  23.732  30.327  1.00  0.00     0.029 A 
ATOM     50  N   UNL A   1      43.736  25.776  30.573  1.00  0.00    -0.354 N 
ATOM     51  C   UNL A   1      40.672  27.263  27.649  1.00  0.00     0.074 A 
ATOM     52  C   UNL A   1      39.800  26.124  27.770  1.00  0.00     0.031 C 
ATOM     53  C   UNL A   1      44.762  24.079  31.610  1.00  0.00     0.029 A 
ATOM     54  C   UNL A   1      44.253  25.421  31.815  1.00  0.00     0.049 A 
ATOM     55  H   UNL A   1      43.426  26.685  30.361  1.00  0.00     0.167 HD
ATOM     56  C   UNL A   1      40.393  28.594  27.737  1.00  0.00     0.031 A 
ATOM     57  C   UNL A   1      44.231  26.156  32.952  1.00  0.00     0.031 A 
ATOM     58  C   UNL A   1      41.580  29.394  27.595  1.00  0.00     0.049 A 
ATOM     59  C   UNL A   1      43.953  27.554  32.565  1.00  0.00     0.074 A 
ATOM     60  C   UNL A   1      42.513  29.607  26.602  1.00  0.00     0.029 A 
ATOM     61  N   UNL A   1      42.147  29.844  28.763  1.00  0.00    -0.354 N 
ATOM     62  N   UNL A   1      44.769  28.284  31.861  1.00  0.00    -0.248 NA
ATOM     63  C   UNL A   1      42.577  28.018  32.605  1.00  0.00     0.031 C 
ATOM     64  C   UNL A   1      43.753  29.766  27.289  1.00  0.00     0.029 A 
ATOM     65  C   UNL A   1      43.505  29.707  28.662  1.00  0.00     0.049 A 
ATOM     66  H   UNL A   1      41.659  30.203  29.539  1.00  0.00     0.167 HD
ATOM     67  C   UNL A   1      43.946  29.025  31.025  1.00  0.00     0.074 A 
ATOM     68  C   UNL A   1      42.617  28.922  31.622  1.00  0.00     0.031 C 
ATOM     69  C   UNL A   1      44.370  29.403  29.783  1.00  0.00     0.031 A 
BRANCH  56  70
ATOM     70  C   UNL A   1      39.150  29.147  28.400  1.00  0.00    -0.014 A 
ATOM     71  C   UNL A   1      38.901  28.821  29.747  1.00  0.00     0.009 A 
ATOM     72  C   UNL A   1      38.079  29.716  27.685  1.00  0.00     0.009 A 
ATOM     73  C   UNL A   1      37.631  28.986  30.318  1.00  0.00     0.001 A 
ATOM     74  C   UNL A   1      36.824  29.923  28.263  1.00  0.00     0.001 A 
ATOM     75  C   UNL A   1      36.591  29.530  29.572  1.00  0.00     0.000 A 
ENDBRANCH  56  70
BRANCH  57  76
ATOM     76  C   UNL A   1      44.178  25.693  34.354  1.00  0.00    -0.014 A 
ATOM     77  C   UNL A   1      45.092  26.168  35.305  1.00  0.00     0.009 A 
ATOM     78  C   UNL A   1      43.061  24.973  34.819  1.00  0.00     0.009 A 
ATOM     79  C   UNL A   1      44.876  25.963  36.675  1.00  0.00     0.001 A 
ATOM     80  C   UNL A   1      42.846  24.767  36.186  1.00  0.00     0.001 A 
ATOM     81  C   UNL A   1      43.748  25.274  37.114  1.00  0.00     0.000 A 
ENDBRANCH  57  76
BRANCH  69  82
ATOM     82  C   UNL A   1      45.838  29.260  29.466  1.00  0.00    -0.014 A 
ATOM     83  C   UNL A   1      46.785  30.272  29.708  1.00  0.00     0.009 A 
ATOM     84  C   UNL A   1      46.301  27.999  29.062  1.00  0.00     0.009 A 
ATOM     85  C   UNL A   1      48.152  30.030  29.531  1.00  0.00     0.001 A 
ATOM     86  C   UNL A   1      47.666  27.752  28.907  1.00  0.00     0.001 A 
ATOM     87  C   UNL A   1      48.591  28.767  29.139  1.00  0.00     0.000 A 
ENDBRANCH  69  82
ENDBRANCH  43  44
ENDBRANCH  35  38
ENDBRANCH  33  34
ENDBRANCH  32  33
ENDBRANCH   1  32
TORSDOF 15
ENDMDL
MODEL 3
REMARK VINA RESULT:     -12.4      3.978      7.859
REMARK SMILES NS(=O)(=O)c1ccc(-n2nc(C(F)F)cc2-c2ccc(C(=O)NCCCNC(=O)c3ccc(-c4c5nc(c(-c6ccccc6)c6ccc([nH]6)c(-c6ccccc6)c6nc(c(-c7ccccc7)c7ccc4[nH]7)C=C6)C=C5)cc3)cc2)cc1
REMARK SMILES IDX 24 1 23 2 21 3 22 4 20 6 17 7 18 8 79 9 19 10 78 11 16 12
REMARK SMILES IDX 9 13 10 14 11 15 15 16 8 17 5 18 6 19 81 20 7 21 80 22 2 23
REMARK SMILES IDX 3 24 4 25 1 26 12 29 13 30 14 31 25 32 26 33 27 34 28 35
REMARK SMILES IDX 29 37 30 38 31 39 77 40 32 41 76 42 33 43 34 44 35 45 70 46
REMARK SMILES IDX 36 47 75 48 69 49 71 50 37 51 74 52 68 53 67 54 38 56 60 57
REMARK SMILES IDX 45 58 59 59 46 60 49 61 58 62 72 63 47 64 48 65 57 67 73 68
REMARK SMILES IDX 50 69 39 70 40 71 44 72 41 73 43 74 42 75 61 76 62 77 66 78
REMARK SMILES IDX 63 79 65 80 64 81 51 82 52 83 56 84 53 85 55 86 54 87
REMARK H PARENT 23 5 1 27 1 28 27 36 71 55 49 66
REMARK Flexibility Score: inf
ROOT
ATOM      1  C   UNL A   1      35.348  32.543  27.993  1.00  0.00     0.118 C 
ENDROOT
BRANCH   1   2
ATOM      2  N   UNL A   1      35.825  31.218  28.364  1.00  0.00    -0.352 N 
ATOM      3  C   UNL A   1      35.435  29.966  27.948  1.00  0.00     0.251 C 
ATOM      4  O   UNL A   1      36.077  28.994  28.341  1.00  0.00    -0.269 OA
ATOM      5  H   UNL A   1      36.552  31.218  29.028  1.00  0.00     0.163 HD
BRANCH   3   6
ATOM      6  C   UNL A   1      34.302  29.762  27.003  1.00  0.00     0.039 A 
ATOM      7  C   UNL A   1      32.087  29.291  25.343  1.00  0.00     0.000 A 
ATOM      8  C   UNL A   1      31.918  29.929  26.578  1.00  0.00     0.011 A 
ATOM      9  C   UNL A   1      33.365  28.936  24.923  1.00  0.00     0.011 A 
ATOM     10  C   UNL A   1      33.021  30.160  27.406  1.00  0.00     0.014 A 
ATOM     11  C   UNL A   1      34.459  29.212  25.730  1.00  0.00     0.014 A 
BRANCH   7  12
ATOM     12  C   UNL A   1      30.970  29.026  24.454  1.00  0.00     0.075 A 
ATOM     13  N   UNL A   1      30.495  27.767  24.119  1.00  0.00    -0.233 N 
ATOM     14  N   UNL A   1      29.556  27.828  23.142  1.00  0.00    -0.166 NA
ATOM     15  C   UNL A   1      29.280  29.140  23.014  1.00  0.00     0.129 A 
ATOM     16  C   UNL A   1      30.174  29.924  23.776  1.00  0.00     0.060 A 
BRANCH  13  17
ATOM     17  C   UNL A   1      30.907  26.528  24.669  1.00  0.00     0.065 A 
ATOM     18  C   UNL A   1      31.985  24.242  25.821  1.00  0.00     0.082 A 
ATOM     19  C   UNL A   1      31.196  25.090  26.599  1.00  0.00     0.024 A 
ATOM     20  C   UNL A   1      32.200  24.503  24.462  1.00  0.00     0.024 A 
ATOM     21  C   UNL A   1      30.664  26.241  26.022  1.00  0.00     0.030 A 
ATOM     22  C   UNL A   1      31.633  25.637  23.873  1.00  0.00     0.030 A 
BRANCH  18  23
ATOM     23  S   UNL A   1      32.745  22.831  26.566  1.00  0.00     0.238 S 
ATOM     24  O   UNL A   1      32.379  22.780  27.970  1.00  0.00    -0.207 OA
ATOM     25  O   UNL A   1      34.106  22.747  26.115  1.00  0.00    -0.207 OA
BRANCH  23  26
ATOM     26  N   UNL A   1      31.919  21.556  25.853  1.00  0.00    -0.225 NA
ATOM     27  H   UNL A   1      32.136  20.692  26.349  1.00  0.00     0.137 HD
ATOM     28  H   UNL A   1      32.204  21.469  24.878  1.00  0.00     0.137 HD
ENDBRANCH  23  26
ENDBRANCH  18  23
ENDBRANCH  13  17
BRANCH  15  29
ATOM     29  C   UNL A   1      28.160  29.666  22.165  1.00  0.00     0.393 C 
ATOM     30  F   UNL A   1      26.999  29.814  22.856  1.00  0.00    -0.203 F 
ATOM     31  F   UNL A   1      28.468  30.887  21.645  1.00  0.00    -0.203 F 
ENDBRANCH  15  29
ENDBRANCH   7  12
ENDBRANCH   3   6
ENDBRANCH   1   2
BRANCH   1  32
ATOM     32  C   UNL A   1      35.975  33.643  28.861  1.00  0.00     0.042 C 
BRANCH  32  33
ATOM     33  C   UNL A   1      37.481  33.518  28.963  1.00  0.00     0.118 C 
BRANCH  33  34
ATOM     34  N   UNL A   1      37.978  33.928  30.276  1.00  0.00    -0.352 N 
ATOM     35  C   UNL A   1      38.749  33.205  31.163  1.00  0.00     0.251 C 
ATOM     36  H   UNL A   1      37.730  34.835  30.565  1.00  0.00     0.163 HD
ATOM     37  O   UNL A   1      38.809  33.518  32.345  1.00  0.00    -0.269 OA
BRANCH  35  38
ATOM     38  C   UNL A   1      39.494  32.042  30.659  1.00  0.00     0.039 A 
ATOM     39  C   UNL A   1      40.848  32.134  30.324  1.00  0.00     0.014 A 
ATOM     40  C   UNL A   1      38.818  30.830  30.580  1.00  0.00     0.014 A 
ATOM     41  C   UNL A   1      41.538  30.972  29.987  1.00  0.00     0.010 A 
ATOM     42  C   UNL A   1      39.534  29.674  30.432  1.00  0.00     0.010 A 
ATOM     43  C   UNL A   1      40.875  29.740  30.062  1.00  0.00    -0.014 A 
BRANCH  43  44
ATOM     44  C   UNL A   1      41.579  28.478  29.858  1.00  0.00     0.031 A 
ATOM     45  C   UNL A   1      42.351  27.989  31.036  1.00  0.00     0.074 A 
ATOM     46  C   UNL A   1      41.290  27.687  28.800  1.00  0.00     0.049 A 
ATOM     47  N   UNL A   1      43.612  27.715  31.111  1.00  0.00    -0.248 NA
ATOM     48  C   UNL A   1      41.642  27.888  32.326  1.00  0.00     0.031 C 
ATOM     49  C   UNL A   1      40.274  27.921  27.761  1.00  0.00     0.029 A 
ATOM     50  N   UNL A   1      41.713  26.425  28.519  1.00  0.00    -0.354 N 
ATOM     51  C   UNL A   1      43.820  27.225  32.400  1.00  0.00     0.074 A 
ATOM     52  C   UNL A   1      42.627  27.523  33.148  1.00  0.00     0.031 C 
ATOM     53  C   UNL A   1      39.968  26.754  27.157  1.00  0.00     0.029 A 
ATOM     54  C   UNL A   1      40.895  25.743  27.623  1.00  0.00     0.049 A 
ATOM     55  H   UNL A   1      42.524  26.031  28.913  1.00  0.00     0.167 HD
ATOM     56  C   UNL A   1      44.842  26.369  32.685  1.00  0.00     0.031 A 
ATOM     57  C   UNL A   1      40.941  24.426  27.312  1.00  0.00     0.031 A 
ATOM     58  C   UNL A   1      45.824  26.348  31.634  1.00  0.00     0.049 A 
ATOM     59  C   UNL A   1      42.258  23.918  27.749  1.00  0.00     0.074 A 
ATOM     60  C   UNL A   1      46.685  27.266  31.071  1.00  0.00     0.029 A 
ATOM     61  N   UNL A   1      45.731  25.305  30.745  1.00  0.00    -0.354 N 
ATOM     62  N   UNL A   1      43.387  24.295  27.224  1.00  0.00    -0.248 NA
ATOM     63  C   UNL A   1      42.355  23.295  29.058  1.00  0.00     0.031 C 
ATOM     64  C   UNL A   1      46.722  26.933  29.684  1.00  0.00     0.029 A 
ATOM     65  C   UNL A   1      45.935  25.796  29.484  1.00  0.00     0.049 A 
ATOM     66  H   UNL A   1      45.548  24.366  30.975  1.00  0.00     0.167 HD
ATOM     67  C   UNL A   1      44.266  24.367  28.295  1.00  0.00     0.074 A 
ATOM     68  C   UNL A   1      43.616  23.613  29.363  1.00  0.00     0.031 C 
ATOM     69  C   UNL A   1      45.291  25.270  28.299  1.00  0.00     0.031 A 
BRANCH  56  70
ATOM     70  C   UNL A   1      44.728  25.230  33.675  1.00  0.00    -0.014 A 
ATOM     71  C   UNL A   1      45.800  24.992  34.556  1.00  0.00     0.009 A 
ATOM     72  C   UNL A   1      43.759  24.213  33.577  1.00  0.00     0.009 A 
ATOM     73  C   UNL A   1      45.929  23.774  35.238  1.00  0.00     0.001 A 
ATOM     74  C   UNL A   1      43.862  23.015  34.289  1.00  0.00     0.001 A 
ATOM     75  C   UNL A   1      44.963  22.783  35.098  1.00  0.00     0.000 A 
ENDBRANCH  56  70
BRANCH  57  76
ATOM     76  C   UNL A   1      39.839  23.531  26.903  1.00  0.00    -0.014 A 
ATOM     77  C   UNL A   1      38.577  24.046  26.574  1.00  0.00     0.009 A 
ATOM     78  C   UNL A   1      40.102  22.185  26.586  1.00  0.00     0.009 A 
ATOM     79  C   UNL A   1      37.625  23.252  25.918  1.00  0.00     0.001 A 
ATOM     80  C   UNL A   1      39.152  21.393  25.933  1.00  0.00     0.001 A 
ATOM     81  C   UNL A   1      37.918  21.931  25.587  1.00  0.00     0.000 A 
ENDBRANCH  57  76
BRANCH  69  82
ATOM     82  C   UNL A   1      45.621  25.966  27.001  1.00  0.00    -0.014 A 
ATOM     83  C   UNL A   1      44.876  27.045  26.490  1.00  0.00     0.009 A 
ATOM     84  C   UNL A   1      46.820  25.623  26.360  1.00  0.00     0.009 A 
ATOM     85  C   UNL A   1      45.314  27.744  25.360  1.00  0.00     0.001 A 
ATOM     86  C   UNL A   1      47.267  26.336  25.246  1.00  0.00     0.001 A 
ATOM     87  C   UNL A   1      46.513  27.394  24.744  1.00  0.00     0.000 A 
ENDBRANCH  69  82
ENDBRANCH  43  44
ENDBRANCH  35  38
ENDBRANCH  33  34
ENDBRANCH  32  33
ENDBRANCH   1  32
TORSDOF 15
ENDMDL
