MODEL 1
REMARK VINA RESULT:     -12.2      0.000      0.000
REMARK SMILES Cc1nc(-c2ccccn2)cc(N2CCC[C@H](C(=O)NCCCNC(=O)c3ccc(-c4c5nc(c(-c6ccccc6)c6ccc([nH]6)c(-c6ccccc6)c6nc(c(-c7ccccc7)c7ccc4[nH]7)C=C6)C=C5)cc3)C2)n1
REMARK SMILES IDX 22 1 21 2 20 3 18 4 19 5 17 7 13 8 14 9 75 10 15 11 16 12
REMARK SMILES IDX 12 13 1 14 2 15 3 16 76 17 4 18 11 19 5 20 6 21 10 22 7 23
REMARK SMILES IDX 9 24 8 25 23 26 24 27 25 28 26 30 27 31 28 32 74 33 29 34
REMARK SMILES IDX 73 35 30 36 31 37 32 38 67 39 33 40 72 41 66 42 68 43 34 44
REMARK SMILES IDX 71 45 65 46 64 47 35 49 57 50 42 51 56 52 43 53 46 54 55 55
REMARK SMILES IDX 69 56 44 57 45 58 54 60 70 61 47 62 36 63 37 64 41 65 38 66
REMARK SMILES IDX 40 67 39 68 58 69 59 70 63 71 60 72 62 73 61 74 48 75 49 76
REMARK SMILES IDX 53 77 50 78 52 79 51 80
REMARK H PARENT 20 6 24 29 68 48 46 59
REMARK Flexibility Score: inf
ROOT
ATOM      1  C   UNL A   1      32.467  30.058  26.043  1.00  0.00     0.042 C 
ENDROOT
BRANCH   1   2
ATOM      2  C   UNL A   1      31.852  28.797  25.486  1.00  0.00     0.117 C 
BRANCH   2   3
ATOM      3  N   UNL A   1      32.711  28.005  24.648  1.00  0.00    -0.356 N 
ATOM      4  C   UNL A   1      32.985  26.677  24.767  1.00  0.00     0.224 C 
ATOM      5  O   UNL A   1      33.556  26.140  23.810  1.00  0.00    -0.275 OA
ATOM      6  H   UNL A   1      33.150  28.476  23.904  1.00  0.00     0.163 HD
BRANCH   4   7
ATOM      7  C   UNL A   1      32.582  25.840  25.987  1.00  0.00     0.098 C 
ATOM      8  N   UNL A   1      33.048  23.474  25.549  1.00  0.00    -0.356 N 
ATOM      9  C   UNL A   1      31.779  22.966  26.069  1.00  0.00     0.118 C 
ATOM     10  C   UNL A   1      33.543  24.676  26.211  1.00  0.00     0.131 C 
ATOM     11  C   UNL A   1      30.672  24.020  25.933  1.00  0.00     0.022 C 
ATOM     12  C   UNL A   1      31.089  25.491  26.121  1.00  0.00     0.017 C 
BRANCH   8  13
ATOM     13  C   UNL A   1      34.033  22.511  25.291  1.00  0.00     0.132 A 
ATOM     14  C   UNL A   1      37.664  22.117  25.282  1.00  0.00     0.090 C 
ATOM     15  C   UNL A   1      36.205  21.791  25.260  1.00  0.00     0.128 A 
ATOM     16  N   UNL A   1      35.879  20.509  25.023  1.00  0.00    -0.231 NA
ATOM     17  N   UNL A   1      35.329  22.799  25.453  1.00  0.00    -0.216 NA
ATOM     18  C   UNL A   1      34.569  20.229  24.894  1.00  0.00     0.094 A 
ATOM     19  C   UNL A   1      33.630  21.241  24.923  1.00  0.00     0.077 A 
BRANCH  18  20
ATOM     20  C   UNL A   1      34.156  18.803  24.862  1.00  0.00     0.089 A 
ATOM     21  C   UNL A   1      34.939  17.804  24.269  1.00  0.00     0.030 A 
ATOM     22  N   UNL A   1      32.895  18.542  25.293  1.00  0.00    -0.255 NA
ATOM     23  C   UNL A   1      34.397  16.535  24.064  1.00  0.00     0.004 A 
ATOM     24  C   UNL A   1      32.387  17.311  25.062  1.00  0.00     0.112 A 
ATOM     25  C   UNL A   1      33.088  16.285  24.453  1.00  0.00     0.020 A 
ENDBRANCH  18  20
ENDBRANCH   8  13
ENDBRANCH   4   7
ENDBRANCH   2   3
ENDBRANCH   1   2
BRANCH   1  26
ATOM     26  C   UNL A   1      33.508  29.765  27.110  1.00  0.00     0.118 C 
BRANCH  26  27
ATOM     27  N   UNL A   1      33.811  30.933  27.943  1.00  0.00    -0.352 N 
ATOM     28  C   UNL A   1      34.818  31.191  28.839  1.00  0.00     0.251 C 
ATOM     29  H   UNL A   1      33.170  31.673  27.840  1.00  0.00     0.163 HD
ATOM     30  O   UNL A   1      34.679  32.083  29.665  1.00  0.00    -0.269 OA
BRANCH  28  31
ATOM     31  C   UNL A   1      36.054  30.398  28.852  1.00  0.00     0.039 A 
ATOM     32  C   UNL A   1      36.858  30.380  27.707  1.00  0.00     0.014 A 
ATOM     33  C   UNL A   1      36.432  29.685  29.982  1.00  0.00     0.014 A 
ATOM     34  C   UNL A   1      38.104  29.765  27.756  1.00  0.00     0.010 A 
ATOM     35  C   UNL A   1      37.731  29.234  30.090  1.00  0.00     0.010 A 
ATOM     36  C   UNL A   1      38.579  29.270  28.977  1.00  0.00    -0.014 A 
BRANCH  36  37
ATOM     37  C   UNL A   1      39.968  28.799  29.141  1.00  0.00     0.031 A 
ATOM     38  C   UNL A   1      41.009  29.740  29.675  1.00  0.00     0.074 A 
ATOM     39  C   UNL A   1      40.295  27.574  28.690  1.00  0.00     0.049 A 
ATOM     40  N   UNL A   1      42.302  29.578  29.755  1.00  0.00    -0.248 NA
ATOM     41  C   UNL A   1      40.539  31.063  30.123  1.00  0.00     0.031 C 
ATOM     42  C   UNL A   1      39.365  26.609  28.092  1.00  0.00     0.029 A 
ATOM     43  N   UNL A   1      41.500  26.928  28.663  1.00  0.00    -0.354 N 
ATOM     44  C   UNL A   1      42.798  30.790  30.217  1.00  0.00     0.074 A 
ATOM     45  C   UNL A   1      41.681  31.698  30.327  1.00  0.00     0.031 C 
ATOM     46  C   UNL A   1      40.023  25.473  27.821  1.00  0.00     0.029 A 
ATOM     47  C   UNL A   1      41.426  25.649  28.168  1.00  0.00     0.049 A 
ATOM     48  H   UNL A   1      42.340  27.341  28.969  1.00  0.00     0.167 HD
ATOM     49  C   UNL A   1      44.071  31.106  30.552  1.00  0.00     0.031 A 
ATOM     50  C   UNL A   1      42.389  24.724  28.018  1.00  0.00     0.031 A 
ATOM     51  C   UNL A   1      45.160  30.175  30.465  1.00  0.00     0.049 A 
ATOM     52  C   UNL A   1      43.789  25.087  28.417  1.00  0.00     0.074 A 
ATOM     53  C   UNL A   1      46.482  30.349  30.831  1.00  0.00     0.029 A 
ATOM     54  N   UNL A   1      45.042  28.879  29.981  1.00  0.00    -0.354 N 
ATOM     55  N   UNL A   1      44.240  26.217  28.907  1.00  0.00    -0.248 NA
ATOM     56  C   UNL A   1      44.809  24.045  28.250  1.00  0.00     0.031 C 
ATOM     57  C   UNL A   1      47.172  29.170  30.531  1.00  0.00     0.029 A 
ATOM     58  C   UNL A   1      46.271  28.244  30.024  1.00  0.00     0.049 A 
ATOM     59  H   UNL A   1      44.208  28.472  29.653  1.00  0.00     0.167 HD
ATOM     60  C   UNL A   1      45.594  26.020  29.129  1.00  0.00     0.074 A 
ATOM     61  C   UNL A   1      45.884  24.654  28.734  1.00  0.00     0.031 C 
ATOM     62  C   UNL A   1      46.518  26.885  29.615  1.00  0.00     0.031 A 
BRANCH  49  63
ATOM     63  C   UNL A   1      44.321  32.511  31.028  1.00  0.00    -0.014 A 
ATOM     64  C   UNL A   1      44.273  32.839  32.394  1.00  0.00     0.009 A 
ATOM     65  C   UNL A   1      44.567  33.533  30.098  1.00  0.00     0.009 A 
ATOM     66  C   UNL A   1      44.398  34.166  32.812  1.00  0.00     0.001 A 
ATOM     67  C   UNL A   1      44.729  34.854  30.521  1.00  0.00     0.001 A 
ATOM     68  C   UNL A   1      44.626  35.172  31.875  1.00  0.00     0.000 A 
ENDBRANCH  49  63
BRANCH  50  69
ATOM     69  C   UNL A   1      42.043  23.366  27.528  1.00  0.00    -0.014 A 
ATOM     70  C   UNL A   1      42.283  23.023  26.188  1.00  0.00     0.009 A 
ATOM     71  C   UNL A   1      41.518  22.393  28.393  1.00  0.00     0.009 A 
ATOM     72  C   UNL A   1      41.989  21.740  25.721  1.00  0.00     0.001 A 
ATOM     73  C   UNL A   1      41.249  21.103  27.928  1.00  0.00     0.001 A 
ATOM     74  C   UNL A   1      41.478  20.779  26.592  1.00  0.00     0.000 A 
ENDBRANCH  50  69
BRANCH  62  75
ATOM     75  C   UNL A   1      47.914  26.360  29.769  1.00  0.00    -0.014 A 
ATOM     76  C   UNL A   1      48.348  25.794  30.977  1.00  0.00     0.009 A 
ATOM     77  C   UNL A   1      48.791  26.398  28.674  1.00  0.00     0.009 A 
ATOM     78  C   UNL A   1      49.649  25.303  31.095  1.00  0.00     0.001 A 
ATOM     79  C   UNL A   1      50.081  25.879  28.787  1.00  0.00     0.001 A 
ATOM     80  C   UNL A   1      50.511  25.341  30.000  1.00  0.00     0.000 A 
ENDBRANCH  62  75
ENDBRANCH  36  37
ENDBRANCH  28  31
ENDBRANCH  26  27
ENDBRANCH   1  26
TORSDOF 12
ENDMDL
MODEL 2
REMARK VINA RESULT:     -12.1      2.152      8.216
REMARK SMILES Cc1nc(-c2ccccn2)cc(N2CCC[C@H](C(=O)NCCCNC(=O)c3ccc(-c4c5nc(c(-c6ccccc6)c6ccc([nH]6)c(-c6ccccc6)c6nc(c(-c7ccccc7)c7ccc4[nH]7)C=C6)C=C5)cc3)C2)n1
REMARK SMILES IDX 22 1 21 2 20 3 18 4 19 5 17 7 13 8 14 9 75 10 15 11 16 12
REMARK SMILES IDX 12 13 1 14 2 15 3 16 76 17 4 18 11 19 5 20 6 21 10 22 7 23
REMARK SMILES IDX 9 24 8 25 23 26 24 27 25 28 26 30 27 31 28 32 74 33 29 34
REMARK SMILES IDX 73 35 30 36 31 37 32 38 67 39 33 40 72 41 66 42 68 43 34 44
REMARK SMILES IDX 71 45 65 46 64 47 35 49 57 50 42 51 56 52 43 53 46 54 55 55
REMARK SMILES IDX 69 56 44 57 45 58 54 60 70 61 47 62 36 63 37 64 41 65 38 66
REMARK SMILES IDX 40 67 39 68 58 69 59 70 63 71 60 72 62 73 61 74 48 75 49 76
REMARK SMILES IDX 53 77 50 78 52 79 51 80
REMARK H PARENT 20 6 24 29 68 48 46 59
REMARK Flexibility Score: inf
ROOT
ATOM      1  C   UNL A   1      36.997  21.068  24.968  1.00  0.00     0.042 C 
ENDROOT
BRANCH   1   2
ATOM      2  C   UNL A   1      36.245  22.279  24.473  1.00  0.00     0.117 C 
BRANCH   2   3
ATOM      3  N   UNL A   1      35.478  22.982  25.466  1.00  0.00    -0.356 N 
ATOM      4  C   UNL A   1      34.355  23.726  25.268  1.00  0.00     0.224 C 
ATOM      5  O   UNL A   1      33.718  24.048  26.277  1.00  0.00    -0.275 OA
ATOM      6  H   UNL A   1      35.802  22.919  26.393  1.00  0.00     0.163 HD
BRANCH   4   7
ATOM      7  C   UNL A   1      33.843  24.123  23.878  1.00  0.00     0.098 C 
ATOM      8  N   UNL A   1      32.143  25.875  24.101  1.00  0.00    -0.356 N 
ATOM      9  C   UNL A   1      31.194  25.293  23.153  1.00  0.00     0.118 C 
ATOM     10  C   UNL A   1      33.546  25.618  23.797  1.00  0.00     0.131 C 
ATOM     11  C   UNL A   1      31.349  23.767  23.092  1.00  0.00     0.022 C 
ATOM     12  C   UNL A   1      32.777  23.210  23.249  1.00  0.00     0.017 C 
BRANCH   8  13
ATOM     13  C   UNL A   1      31.872  27.188  24.510  1.00  0.00     0.132 A 
ATOM     14  C   UNL A   1      33.184  29.787  26.715  1.00  0.00     0.090 C 
ATOM     15  C   UNL A   1      32.392  29.105  25.645  1.00  0.00     0.128 A 
ATOM     16  N   UNL A   1      31.428  29.832  25.055  1.00  0.00    -0.231 NA
ATOM     17  N   UNL A   1      32.683  27.817  25.368  1.00  0.00    -0.216 NA
ATOM     18  C   UNL A   1      30.641  29.193  24.170  1.00  0.00     0.094 A 
ATOM     19  C   UNL A   1      30.783  27.837  23.958  1.00  0.00     0.077 A 
BRANCH  18  20
ATOM     20  C   UNL A   1      29.722  30.006  23.334  1.00  0.00     0.089 A 
ATOM     21  C   UNL A   1      29.089  31.161  23.812  1.00  0.00     0.030 A 
ATOM     22  N   UNL A   1      29.395  29.476  22.127  1.00  0.00    -0.255 NA
ATOM     23  C   UNL A   1      28.066  31.746  23.065  1.00  0.00     0.004 A 
ATOM     24  C   UNL A   1      28.385  30.049  21.434  1.00  0.00     0.112 A 
ATOM     25  C   UNL A   1      27.694  31.171  21.858  1.00  0.00     0.020 A 
ENDBRANCH  18  20
ENDBRANCH   8  13
ENDBRANCH   4   7
ENDBRANCH   2   3
ENDBRANCH   1   2
BRANCH   1  26
ATOM     26  C   UNL A   1      38.354  21.433  25.547  1.00  0.00     0.118 C 
BRANCH  26  27
ATOM     27  N   UNL A   1      39.209  20.263  25.768  1.00  0.00    -0.352 N 
ATOM     28  C   UNL A   1      40.538  20.139  26.087  1.00  0.00     0.251 C 
ATOM     29  H   UNL A   1      38.741  19.402  25.669  1.00  0.00     0.163 HD
ATOM     30  O   UNL A   1      41.113  19.078  25.882  1.00  0.00    -0.269 OA
BRANCH  28  31
ATOM     31  C   UNL A   1      41.302  21.264  26.641  1.00  0.00     0.039 A 
ATOM     32  C   UNL A   1      41.908  22.169  25.763  1.00  0.00     0.014 A 
ATOM     33  C   UNL A   1      41.414  21.442  28.013  1.00  0.00     0.014 A 
ATOM     34  C   UNL A   1      42.498  23.321  26.267  1.00  0.00     0.010 A 
ATOM     35  C   UNL A   1      41.836  22.661  28.502  1.00  0.00     0.010 A 
ATOM     36  C   UNL A   1      42.382  23.613  27.633  1.00  0.00    -0.014 A 
BRANCH  36  37
ATOM     37  C   UNL A   1      42.800  24.912  28.193  1.00  0.00     0.031 A 
ATOM     38  C   UNL A   1      41.765  25.964  28.470  1.00  0.00     0.074 A 
ATOM     39  C   UNL A   1      44.115  25.170  28.323  1.00  0.00     0.049 A 
ATOM     40  N   UNL A   1      41.932  27.212  28.816  1.00  0.00    -0.248 NA
ATOM     41  C   UNL A   1      40.357  25.576  28.274  1.00  0.00     0.031 C 
ATOM     42  C   UNL A   1      45.201  24.233  28.015  1.00  0.00     0.029 A 
ATOM     43  N   UNL A   1      44.762  26.296  28.751  1.00  0.00    -0.354 N 
ATOM     44  C   UNL A   1      40.657  27.763  28.834  1.00  0.00     0.074 A 
ATOM     45  C   UNL A   1      39.740  26.740  28.392  1.00  0.00     0.031 C 
ATOM     46  C   UNL A   1      46.375  24.803  28.327  1.00  0.00     0.029 A 
ATOM     47  C   UNL A   1      46.128  26.158  28.797  1.00  0.00     0.049 A 
ATOM     48  H   UNL A   1      44.295  27.126  28.999  1.00  0.00     0.167 HD
ATOM     49  C   UNL A   1      40.283  29.006  29.216  1.00  0.00     0.031 A 
ATOM     50  C   UNL A   1      47.071  27.033  29.185  1.00  0.00     0.031 A 
ATOM     51  C   UNL A   1      41.211  29.998  29.683  1.00  0.00     0.049 A 
ATOM     52  C   UNL A   1      46.633  28.398  29.628  1.00  0.00     0.074 A 
ATOM     53  C   UNL A   1      40.955  31.270  30.159  1.00  0.00     0.029 A 
ATOM     54  N   UNL A   1      42.586  29.813  29.740  1.00  0.00    -0.354 N 
ATOM     55  N   UNL A   1      45.420  28.893  29.696  1.00  0.00    -0.248 NA
ATOM     56  C   UNL A   1      47.692  29.319  30.055  1.00  0.00     0.031 C 
ATOM     57  C   UNL A   1      42.181  31.870  30.467  1.00  0.00     0.029 A 
ATOM     58  C   UNL A   1      43.196  30.954  30.230  1.00  0.00     0.049 A 
ATOM     59  H   UNL A   1      43.058  28.992  29.471  1.00  0.00     0.167 HD
ATOM     60  C   UNL A   1      45.564  30.179  30.193  1.00  0.00     0.074 A 
ATOM     61  C   UNL A   1      46.982  30.378  30.425  1.00  0.00     0.031 C 
ATOM     62  C   UNL A   1      44.613  31.113  30.439  1.00  0.00     0.031 A 
BRANCH  49  63
ATOM     63  C   UNL A   1      38.817  29.333  29.129  1.00  0.00    -0.014 A 
ATOM     64  C   UNL A   1      37.969  29.186  30.241  1.00  0.00     0.009 A 
ATOM     65  C   UNL A   1      38.264  29.754  27.911  1.00  0.00     0.009 A 
ATOM     66  C   UNL A   1      36.592  29.387  30.118  1.00  0.00     0.001 A 
ATOM     67  C   UNL A   1      36.892  29.991  27.799  1.00  0.00     0.001 A 
ATOM     68  C   UNL A   1      36.055  29.790  28.896  1.00  0.00     0.000 A 
ENDBRANCH  49  63
BRANCH  50  69
ATOM     69  C   UNL A   1      48.496  26.618  29.224  1.00  0.00    -0.014 A 
ATOM     70  C   UNL A   1      48.998  25.941  30.347  1.00  0.00     0.009 A 
ATOM     71  C   UNL A   1      49.351  26.848  28.135  1.00  0.00     0.009 A 
ATOM     72  C   UNL A   1      50.329  25.519  30.385  1.00  0.00     0.001 A 
ATOM     73  C   UNL A   1      50.675  26.402  28.165  1.00  0.00     0.001 A 
ATOM     74  C   UNL A   1      51.164  25.744  29.292  1.00  0.00     0.000 A 
ENDBRANCH  50  69
BRANCH  62  75
ATOM     75  C   UNL A   1      45.084  32.416  31.013  1.00  0.00    -0.014 A 
ATOM     76  C   UNL A   1      45.212  32.597  32.398  1.00  0.00     0.009 A 
ATOM     77  C   UNL A   1      45.443  33.462  30.148  1.00  0.00     0.009 A 
ATOM     78  C   UNL A   1      45.662  33.815  32.909  1.00  0.00     0.001 A 
ATOM     79  C   UNL A   1      45.920  34.668  30.661  1.00  0.00     0.001 A 
ATOM     80  C   UNL A   1      46.020  34.846  32.041  1.00  0.00     0.000 A 
ENDBRANCH  62  75
ENDBRANCH  36  37
ENDBRANCH  28  31
ENDBRANCH  26  27
ENDBRANCH   1  26
TORSDOF 12
ENDMDL
MODEL 3
REMARK VINA RESULT:     -12.0      2.986      7.924
REMARK SMILES Cc1nc(-c2ccccn2)cc(N2CCC[C@H](C(=O)NCCCNC(=O)c3ccc(-c4c5nc(c(-c6ccccc6)c6ccc([nH]6)c(-c6ccccc6)c6nc(c(-c7ccccc7)c7ccc4[nH]7)C=C6)C=C5)cc3)C2)n1
REMARK SMILES IDX 22 1 21 2 20 3 18 4 19 5 17 7 13 8 14 9 75 10 15 11 16 12
REMARK SMILES IDX 12 13 1 14 2 15 3 16 76 17 4 18 11 19 5 20 6 21 10 22 7 23
REMARK SMILES IDX 9 24 8 25 23 26 24 27 25 28 26 30 27 31 28 32 74 33 29 34
REMARK SMILES IDX 73 35 30 36 31 37 32 38 67 39 33 40 72 41 66 42 68 43 34 44
REMARK SMILES IDX 71 45 65 46 64 47 35 49 57 50 42 51 56 52 43 53 46 54 55 55
REMARK SMILES IDX 69 56 44 57 45 58 54 60 70 61 47 62 36 63 37 64 41 65 38 66
REMARK SMILES IDX 40 67 39 68 58 69 59 70 63 71 60 72 62 73 61 74 48 75 49 76
REMARK SMILES IDX 53 77 50 78 52 79 51 80
REMARK H PARENT 20 6 24 29 68 48 46 59
REMARK Flexibility Score: inf
ROOT
ATOM      1  C   UNL A   1      35.264  21.625  26.192  1.00  0.00     0.042 C 
ENDROOT
BRANCH   1   2
ATOM      2  C   UNL A   1      34.480  22.845  26.610  1.00  0.00     0.117 C 
BRANCH   2   3
ATOM      3  N   UNL A   1      33.126  22.907  26.131  1.00  0.00    -0.356 N 
ATOM      4  C   UNL A   1      32.687  23.462  24.967  1.00  0.00     0.224 C 
ATOM      5  O   UNL A   1      31.525  23.202  24.633  1.00  0.00    -0.275 OA
ATOM      6  H   UNL A   1      32.439  22.504  26.708  1.00  0.00     0.163 HD
BRANCH   4   7
ATOM      7  C   UNL A   1      33.569  24.330  24.062  1.00  0.00     0.098 C 
ATOM      8  N   UNL A   1      32.456  26.473  23.643  1.00  0.00    -0.356 N 
ATOM      9  C   UNL A   1      32.727  26.511  22.207  1.00  0.00     0.118 C 
ATOM     10  C   UNL A   1      33.479  25.805  24.441  1.00  0.00     0.131 C 
ATOM     11  C   UNL A   1      32.859  25.092  21.638  1.00  0.00     0.022 C 
ATOM     12  C   UNL A   1      33.509  24.037  22.553  1.00  0.00     0.017 C 
BRANCH   8  13
ATOM     13  C   UNL A   1      31.970  27.661  24.207  1.00  0.00     0.132 A 
ATOM     14  C   UNL A   1      32.751  30.062  26.846  1.00  0.00     0.090 C 
ATOM     15  C   UNL A   1      32.132  29.443  25.633  1.00  0.00     0.128 A 
ATOM     16  N   UNL A   1      31.107  30.107  25.075  1.00  0.00    -0.231 NA
ATOM     17  N   UNL A   1      32.627  28.263  25.205  1.00  0.00    -0.216 NA
ATOM     18  C   UNL A   1      30.475  29.503  24.052  1.00  0.00     0.094 A 
ATOM     19  C   UNL A   1      30.830  28.226  23.666  1.00  0.00     0.077 A 
BRANCH  18  20
ATOM     20  C   UNL A   1      29.496  30.295  23.266  1.00  0.00     0.089 A 
ATOM     21  C   UNL A   1      29.122  29.953  21.960  1.00  0.00     0.030 A 
ATOM     22  N   UNL A   1      29.102  31.471  23.822  1.00  0.00    -0.255 NA
ATOM     23  C   UNL A   1      28.384  30.855  21.195  1.00  0.00     0.004 A 
ATOM     24  C   UNL A   1      28.407  32.336  23.051  1.00  0.00     0.112 A 
ATOM     25  C   UNL A   1      28.031  32.080  21.744  1.00  0.00     0.020 A 
ENDBRANCH  18  20
ENDBRANCH   8  13
ENDBRANCH   4   7
ENDBRANCH   2   3
ENDBRANCH   1   2
BRANCH   1  26
ATOM     26  C   UNL A   1      36.514  21.988  25.408  1.00  0.00     0.118 C 
BRANCH  26  27
ATOM     27  N   UNL A   1      37.606  21.032  25.607  1.00  0.00    -0.352 N 
ATOM     28  C   UNL A   1      38.927  21.196  25.945  1.00  0.00     0.251 C 
ATOM     29  H   UNL A   1      37.344  20.092  25.473  1.00  0.00     0.163 HD
ATOM     30  O   UNL A   1      39.726  20.297  25.718  1.00  0.00    -0.269 OA
BRANCH  28  31
ATOM     31  C   UNL A   1      39.414  22.443  26.548  1.00  0.00     0.039 A 
ATOM     32  C   UNL A   1      40.455  22.382  27.481  1.00  0.00     0.014 A 
ATOM     33  C   UNL A   1      38.865  23.668  26.195  1.00  0.00     0.014 A 
ATOM     34  C   UNL A   1      41.031  23.560  27.942  1.00  0.00     0.010 A 
ATOM     35  C   UNL A   1      39.546  24.826  26.507  1.00  0.00     0.010 A 
ATOM     36  C   UNL A   1      40.636  24.783  27.384  1.00  0.00    -0.014 A 
BRANCH  36  37
ATOM     37  C   UNL A   1      41.350  26.041  27.674  1.00  0.00     0.031 A 
ATOM     38  C   UNL A   1      40.699  27.075  28.546  1.00  0.00     0.074 A 
ATOM     39  C   UNL A   1      42.516  26.285  27.047  1.00  0.00     0.049 A 
ATOM     40  N   UNL A   1      41.083  28.297  28.801  1.00  0.00    -0.248 NA
ATOM     41  C   UNL A   1      39.414  26.705  29.166  1.00  0.00     0.031 C 
ATOM     42  C   UNL A   1      43.196  25.367  26.126  1.00  0.00     0.029 A 
ATOM     43  N   UNL A   1      43.336  27.378  27.089  1.00  0.00    -0.354 N 
ATOM     44  C   UNL A   1      40.067  28.850  29.570  1.00  0.00     0.074 A 
ATOM     45  C   UNL A   1      39.020  27.861  29.675  1.00  0.00     0.031 C 
ATOM     46  C   UNL A   1      44.362  25.911  25.745  1.00  0.00     0.029 A 
ATOM     47  C   UNL A   1      44.481  27.233  26.343  1.00  0.00     0.049 A 
ATOM     48  H   UNL A   1      43.126  28.191  27.602  1.00  0.00     0.167 HD
ATOM     49  C   UNL A   1      40.027  30.066  30.163  1.00  0.00     0.031 A 
ATOM     50  C   UNL A   1      45.512  28.077  26.171  1.00  0.00     0.031 A 
ATOM     51  C   UNL A   1      41.095  31.021  30.071  1.00  0.00     0.049 A 
ATOM     52  C   UNL A   1      45.458  29.411  26.856  1.00  0.00     0.074 A 
ATOM     53  C   UNL A   1      41.206  32.259  30.674  1.00  0.00     0.029 A 
ATOM     54  N   UNL A   1      42.251  30.828  29.325  1.00  0.00    -0.354 N 
ATOM     55  N   UNL A   1      44.519  29.904  27.628  1.00  0.00    -0.248 NA
ATOM     56  C   UNL A   1      46.609  30.299  26.653  1.00  0.00     0.031 C 
ATOM     57  C   UNL A   1      42.414  32.834  30.261  1.00  0.00     0.029 A 
ATOM     58  C   UNL A   1      43.077  31.933  29.441  1.00  0.00     0.049 A 
ATOM     59  H   UNL A   1      42.453  30.026  28.793  1.00  0.00     0.167 HD
ATOM     60  C   UNL A   1      44.971  31.154  28.023  1.00  0.00     0.074 A 
ATOM     61  C   UNL A   1      46.278  31.332  27.417  1.00  0.00     0.031 C 
ATOM     62  C   UNL A   1      44.367  32.073  28.815  1.00  0.00     0.031 A 
BRANCH  49  63
ATOM     63  C   UNL A   1      38.785  30.402  30.943  1.00  0.00    -0.014 A 
ATOM     64  C   UNL A   1      37.694  31.050  30.336  1.00  0.00     0.009 A 
ATOM     65  C   UNL A   1      38.717  30.109  32.313  1.00  0.00     0.009 A 
ATOM     66  C   UNL A   1      36.594  31.455  31.096  1.00  0.00     0.001 A 
ATOM     67  C   UNL A   1      37.600  30.481  33.064  1.00  0.00     0.001 A 
ATOM     68  C   UNL A   1      36.548  31.169  32.459  1.00  0.00     0.000 A 
ENDBRANCH  49  63
BRANCH  50  69
ATOM     69  C   UNL A   1      46.689  27.656  25.370  1.00  0.00    -0.014 A 
ATOM     70  C   UNL A   1      47.711  26.905  25.971  1.00  0.00     0.009 A 
ATOM     71  C   UNL A   1      46.783  27.955  24.002  1.00  0.00     0.009 A 
ATOM     72  C   UNL A   1      48.811  26.477  25.223  1.00  0.00     0.001 A 
ATOM     73  C   UNL A   1      47.871  27.503  23.250  1.00  0.00     0.001 A 
ATOM     74  C   UNL A   1      48.887  26.771  23.862  1.00  0.00     0.000 A 
ENDBRANCH  50  69
BRANCH  62  75
ATOM     75  C   UNL A   1      45.132  33.333  29.087  1.00  0.00    -0.014 A 
ATOM     76  C   UNL A   1      45.024  34.447  28.240  1.00  0.00     0.009 A 
ATOM     77  C   UNL A   1      45.941  33.418  30.231  1.00  0.00     0.009 A 
ATOM     78  C   UNL A   1      45.738  35.612  28.517  1.00  0.00     0.001 A 
ATOM     79  C   UNL A   1      46.630  34.595  30.522  1.00  0.00     0.001 A 
ATOM     80  C   UNL A   1      46.535  35.688  29.659  1.00  0.00     0.000 A 
ENDBRANCH  62  75
ENDBRANCH  36  37
ENDBRANCH  28  31
ENDBRANCH  26  27
ENDBRANCH   1  26
TORSDOF 12
ENDMDL
