MODEL 1
REMARK VINA RESULT:     -11.6      0.000      0.000
REMARK SMILES Cc1cc(F)cc(N[C@@](C)(C(=O)NCCCNC(=O)c2ccc(-c3c4nc(c(-c5ccccc5)c5ccc([nH]5)c(-c5ccccc5)c5nc(c(-c6ccccc6)c6ccc3[nH]6)C=C5)C=C4)cc2)c2ccc(O)cc2)c1
REMARK SMILES IDX 15 1 14 2 13 3 11 4 12 5 9 7 10 8 8 9 7 11 1 12 2 13 3 14
REMARK SMILES IDX 75 15 4 16 5 17 6 18 68 19 69 20 74 21 70 22 73 23 71 24
REMARK SMILES IDX 72 25 16 27 17 28 18 29 19 31 20 32 21 33 67 34 22 35 66 36
REMARK SMILES IDX 23 37 24 38 25 39 60 40 26 41 65 42 59 43 61 44 27 45 64 46
REMARK SMILES IDX 58 47 57 48 28 50 50 51 35 52 49 53 36 54 39 55 48 56 62 57
REMARK SMILES IDX 37 58 38 59 47 61 63 62 40 63 29 64 30 65 34 66 31 67 33 68
REMARK SMILES IDX 32 69 51 70 52 71 56 72 53 73 55 74 54 75 41 76 42 77 46 78
REMARK SMILES IDX 43 79 45 80 44 81
REMARK H PARENT 13 6 8 10 72 26 17 30 61 49 39 60
REMARK Flexibility Score: inf
ROOT
ATOM      1  C   UNL A   1      33.145  28.022  26.929  1.00  0.00     0.042 C 
ENDROOT
BRANCH   1   2
ATOM      2  C   UNL A   1      31.630  28.093  26.822  1.00  0.00     0.117 C 
BRANCH   2   3
ATOM      3  N   UNL A   1      31.013  26.782  26.891  1.00  0.00    -0.354 N 
ATOM      4  C   UNL A   1      30.734  25.829  25.948  1.00  0.00     0.250 C 
ATOM      5  O   UNL A   1      29.998  24.925  26.366  1.00  0.00    -0.272 OA
ATOM      6  H   UNL A   1      30.741  26.525  27.801  1.00  0.00     0.163 HD
BRANCH   4   7
ATOM      7  C   UNL A   1      31.273  25.907  24.456  1.00  0.00     0.139 C 
ATOM      8  C   UNL A   1      30.673  24.770  23.592  1.00  0.00     0.051 C 
BRANCH   7   9
ATOM      9  N   UNL A   1      32.755  25.720  24.527  1.00  0.00    -0.368 N 
ATOM     10  H   UNL A   1      33.273  26.508  24.242  1.00  0.00     0.161 HD
BRANCH   9  11
ATOM     11  C   UNL A   1      33.531  24.642  24.918  1.00  0.00     0.038 A 
ATOM     12  C   UNL A   1      36.575  22.810  23.454  1.00  0.00     0.044 C 
ATOM     13  C   UNL A   1      35.531  23.282  24.421  1.00  0.00    -0.046 A 
ATOM     14  C   UNL A   1      35.583  22.874  25.752  1.00  0.00     0.042 A 
ATOM     15  C   UNL A   1      34.526  24.187  24.029  1.00  0.00     0.029 A 
ATOM     16  C   UNL A   1      34.565  23.249  26.614  1.00  0.00     0.125 A 
ATOM     17  F   UNL A   1      34.611  22.851  27.893  1.00  0.00    -0.207 F 
ATOM     18  C   UNL A   1      33.517  24.064  26.187  1.00  0.00     0.065 A 
ENDBRANCH   9  11
ENDBRANCH   7   9
BRANCH   7  19
ATOM     19  C   UNL A   1      30.820  27.177  23.680  1.00  0.00    -0.013 A 
ATOM     20  C   UNL A   1      29.452  27.488  23.528  1.00  0.00     0.010 A 
ATOM     21  C   UNL A   1      31.744  28.101  23.153  1.00  0.00     0.010 A 
ATOM     22  C   UNL A   1      29.033  28.542  22.713  1.00  0.00     0.046 A 
ATOM     23  C   UNL A   1      31.330  29.173  22.357  1.00  0.00     0.046 A 
ATOM     24  C   UNL A   1      29.978  29.356  22.108  1.00  0.00     0.115 A 
BRANCH  24  25
ATOM     25  O   UNL A   1      29.541  30.333  21.266  1.00  0.00    -0.508 OA
ATOM     26  H   UNL A   1      29.116  30.103  20.462  1.00  0.00     0.293 HD
ENDBRANCH  24  25
ENDBRANCH   7  19
ENDBRANCH   4   7
ENDBRANCH   2   3
ENDBRANCH   1   2
BRANCH   1  27
ATOM     27  C   UNL A   1      33.883  29.068  26.105  1.00  0.00     0.118 C 
BRANCH  27  28
ATOM     28  N   UNL A   1      33.809  30.402  26.685  1.00  0.00    -0.352 N 
ATOM     29  C   UNL A   1      34.600  31.006  27.634  1.00  0.00     0.251 C 
ATOM     30  H   UNL A   1      33.075  30.961  26.344  1.00  0.00     0.163 HD
ATOM     31  O   UNL A   1      34.254  32.079  28.117  1.00  0.00    -0.269 OA
BRANCH  29  32
ATOM     32  C   UNL A   1      35.851  30.362  28.092  1.00  0.00     0.039 A 
ATOM     33  C   UNL A   1      36.961  30.361  27.242  1.00  0.00     0.014 A 
ATOM     34  C   UNL A   1      35.932  29.745  29.342  1.00  0.00     0.014 A 
ATOM     35  C   UNL A   1      38.166  29.804  27.676  1.00  0.00     0.010 A 
ATOM     36  C   UNL A   1      37.158  29.288  29.812  1.00  0.00     0.010 A 
ATOM     37  C   UNL A   1      38.286  29.299  28.980  1.00  0.00    -0.014 A 
BRANCH  37  38
ATOM     38  C   UNL A   1      39.574  28.765  29.488  1.00  0.00     0.031 A 
ATOM     39  C   UNL A   1      40.391  29.559  30.469  1.00  0.00     0.074 A 
ATOM     40  C   UNL A   1      40.047  27.597  29.012  1.00  0.00     0.049 A 
ATOM     41  N   UNL A   1      41.563  29.283  30.984  1.00  0.00    -0.248 NA
ATOM     42  C   UNL A   1      39.834  30.851  30.902  1.00  0.00     0.031 C 
ATOM     43  C   UNL A   1      39.380  26.754  28.017  1.00  0.00     0.029 A 
ATOM     44  N   UNL A   1      41.208  26.922  29.296  1.00  0.00    -0.354 N 
ATOM     45  C   UNL A   1      41.890  30.374  31.782  1.00  0.00     0.074 A 
ATOM     46  C   UNL A   1      40.825  31.340  31.631  1.00  0.00     0.031 C 
ATOM     47  C   UNL A   1      40.128  25.661  27.797  1.00  0.00     0.029 A 
ATOM     48  C   UNL A   1      41.344  25.747  28.597  1.00  0.00     0.049 A 
ATOM     49  H   UNL A   1      41.877  27.248  29.939  1.00  0.00     0.167 HD
ATOM     50  C   UNL A   1      42.967  30.549  32.584  1.00  0.00     0.031 A 
ATOM     51  C   UNL A   1      42.341  24.843  28.593  1.00  0.00     0.031 A 
ATOM     52  C   UNL A   1      44.027  29.588  32.731  1.00  0.00     0.049 A 
ATOM     53  C   UNL A   1      43.531  25.054  29.484  1.00  0.00     0.074 A 
ATOM     54  C   UNL A   1      45.129  29.640  33.566  1.00  0.00     0.029 A 
ATOM     55  N   UNL A   1      44.122  28.402  32.017  1.00  0.00    -0.354 N 
ATOM     56  N   UNL A   1      43.786  26.052  30.297  1.00  0.00    -0.248 NA
ATOM     57  C   UNL A   1      44.562  24.008  29.470  1.00  0.00     0.031 C 
ATOM     58  C   UNL A   1      45.925  28.517  33.308  1.00  0.00     0.029 A 
ATOM     59  C   UNL A   1      45.281  27.730  32.366  1.00  0.00     0.049 A 
ATOM     60  H   UNL A   1      43.462  28.086  31.358  1.00  0.00     0.167 HD
ATOM     61  C   UNL A   1      44.995  25.743  30.908  1.00  0.00     0.074 A 
ATOM     62  C   UNL A   1      45.411  24.458  30.385  1.00  0.00     0.031 C 
ATOM     63  C   UNL A   1      45.693  26.458  31.826  1.00  0.00     0.031 A 
BRANCH  50  64
ATOM     64  C   UNL A   1      43.052  31.848  33.342  1.00  0.00    -0.014 A 
ATOM     65  C   UNL A   1      42.480  31.992  34.618  1.00  0.00     0.009 A 
ATOM     66  C   UNL A   1      43.706  32.948  32.768  1.00  0.00     0.009 A 
ATOM     67  C   UNL A   1      42.509  33.225  35.274  1.00  0.00     0.001 A 
ATOM     68  C   UNL A   1      43.766  34.170  33.442  1.00  0.00     0.001 A 
ATOM     69  C   UNL A   1      43.153  34.312  34.685  1.00  0.00     0.000 A 
ENDBRANCH  50  64
BRANCH  51  70
ATOM     70  C   UNL A   1      42.234  23.642  27.723  1.00  0.00    -0.014 A 
ATOM     71  C   UNL A   1      42.722  23.668  26.407  1.00  0.00     0.009 A 
ATOM     72  C   UNL A   1      41.679  22.451  28.217  1.00  0.00     0.009 A 
ATOM     73  C   UNL A   1      42.644  22.529  25.602  1.00  0.00     0.001 A 
ATOM     74  C   UNL A   1      41.629  21.307  27.420  1.00  0.00     0.001 A 
ATOM     75  C   UNL A   1      42.105  21.348  26.111  1.00  0.00     0.000 A 
ENDBRANCH  51  70
BRANCH  63  76
ATOM     76  C   UNL A   1      46.967  25.852  32.346  1.00  0.00    -0.014 A 
ATOM     77  C   UNL A   1      46.979  25.026  33.481  1.00  0.00     0.009 A 
ATOM     78  C   UNL A   1      48.172  26.082  31.662  1.00  0.00     0.009 A 
ATOM     79  C   UNL A   1      48.177  24.472  33.939  1.00  0.00     0.001 A 
ATOM     80  C   UNL A   1      49.362  25.502  32.104  1.00  0.00     0.001 A 
ATOM     81  C   UNL A   1      49.365  24.706  33.248  1.00  0.00     0.000 A 
ENDBRANCH  63  76
ENDBRANCH  37  38
ENDBRANCH  29  32
ENDBRANCH  27  28
ENDBRANCH   1  27
TORSDOF 14
ENDMDL
MODEL 2
REMARK VINA RESULT:     -11.5      3.263      7.695
REMARK SMILES Cc1cc(F)cc(N[C@@](C)(C(=O)NCCCNC(=O)c2ccc(-c3c4nc(c(-c5ccccc5)c5ccc([nH]5)c(-c5ccccc5)c5nc(c(-c6ccccc6)c6ccc3[nH]6)C=C5)C=C4)cc2)c2ccc(O)cc2)c1
REMARK SMILES IDX 15 1 14 2 13 3 11 4 12 5 9 7 10 8 8 9 7 11 1 12 2 13 3 14
REMARK SMILES IDX 75 15 4 16 5 17 6 18 68 19 69 20 74 21 70 22 73 23 71 24
REMARK SMILES IDX 72 25 16 27 17 28 18 29 19 31 20 32 21 33 67 34 22 35 66 36
REMARK SMILES IDX 23 37 24 38 25 39 60 40 26 41 65 42 59 43 61 44 27 45 64 46
REMARK SMILES IDX 58 47 57 48 28 50 50 51 35 52 49 53 36 54 39 55 48 56 62 57
REMARK SMILES IDX 37 58 38 59 47 61 63 62 40 63 29 64 30 65 34 66 31 67 33 68
REMARK SMILES IDX 32 69 51 70 52 71 56 72 53 73 55 74 54 75 41 76 42 77 46 78
REMARK SMILES IDX 43 79 45 80 44 81
REMARK H PARENT 13 6 8 10 72 26 17 30 61 49 39 60
REMARK Flexibility Score: inf
ROOT
ATOM      1  C   UNL A   1      37.184  20.082  24.969  1.00  0.00     0.042 C 
ENDROOT
BRANCH   1   2
ATOM      2  C   UNL A   1      36.015  20.983  25.338  1.00  0.00     0.117 C 
BRANCH   2   3
ATOM      3  N   UNL A   1      35.756  21.987  24.324  1.00  0.00    -0.354 N 
ATOM      4  C   UNL A   1      34.608  22.456  23.743  1.00  0.00     0.250 C 
ATOM      5  O   UNL A   1      34.814  23.168  22.751  1.00  0.00    -0.272 OA
ATOM      6  H   UNL A   1      36.572  22.419  23.984  1.00  0.00     0.163 HD
BRANCH   4   7
ATOM      7  C   UNL A   1      33.158  22.083  24.275  1.00  0.00     0.139 C 
ATOM      8  C   UNL A   1      32.064  22.615  23.316  1.00  0.00     0.051 C 
BRANCH   7   9
ATOM      9  N   UNL A   1      33.001  22.760  25.599  1.00  0.00    -0.368 N 
ATOM     10  H   UNL A   1      33.335  22.233  26.362  1.00  0.00     0.161 HD
BRANCH   9  11
ATOM     11  C   UNL A   1      32.472  23.992  25.948  1.00  0.00     0.038 A 
ATOM     12  C   UNL A   1      33.823  27.586  26.098  1.00  0.00     0.044 C 
ATOM     13  C   UNL A   1      32.875  26.426  26.062  1.00  0.00    -0.046 A 
ATOM     14  C   UNL A   1      31.501  26.652  26.047  1.00  0.00     0.042 A 
ATOM     15  C   UNL A   1      33.343  25.101  25.978  1.00  0.00     0.029 A 
ATOM     16  C   UNL A   1      30.637  25.570  26.100  1.00  0.00     0.125 A 
ATOM     17  F   UNL A   1      29.314  25.789  26.093  1.00  0.00    -0.207 F 
ATOM     18  C   UNL A   1      31.115  24.260  26.120  1.00  0.00     0.065 A 
ENDBRANCH   9  11
ENDBRANCH   7   9
BRANCH   7  19
ATOM     19  C   UNL A   1      32.858  20.556  24.293  1.00  0.00    -0.013 A 
ATOM     20  C   UNL A   1      32.868  19.827  25.502  1.00  0.00     0.010 A 
ATOM     21  C   UNL A   1      32.504  19.849  23.128  1.00  0.00     0.010 A 
ATOM     22  C   UNL A   1      32.744  18.436  25.511  1.00  0.00     0.046 A 
ATOM     23  C   UNL A   1      32.354  18.460  23.135  1.00  0.00     0.046 A 
ATOM     24  C   UNL A   1      32.520  17.761  24.322  1.00  0.00     0.115 A 
BRANCH  24  25
ATOM     25  O   UNL A   1      32.472  16.400  24.353  1.00  0.00    -0.508 OA
ATOM     26  H   UNL A   1      32.407  15.915  23.553  1.00  0.00     0.293 HD
ENDBRANCH  24  25
ENDBRANCH   7  19
ENDBRANCH   4   7
ENDBRANCH   2   3
ENDBRANCH   1   2
BRANCH   1  27
ATOM     27  C   UNL A   1      38.550  20.645  25.338  1.00  0.00     0.118 C 
BRANCH  27  28
ATOM     28  N   UNL A   1      39.557  19.610  25.527  1.00  0.00    -0.352 N 
ATOM     29  C   UNL A   1      40.849  19.696  25.990  1.00  0.00     0.251 C 
ATOM     30  H   UNL A   1      39.267  18.702  25.284  1.00  0.00     0.163 HD
ATOM     31  O   UNL A   1      41.591  18.725  25.900  1.00  0.00    -0.269 OA
BRANCH  29  32
ATOM     32  C   UNL A   1      41.356  20.958  26.574  1.00  0.00     0.039 A 
ATOM     33  C   UNL A   1      41.927  21.913  25.726  1.00  0.00     0.014 A 
ATOM     34  C   UNL A   1      41.288  21.199  27.947  1.00  0.00     0.014 A 
ATOM     35  C   UNL A   1      42.364  23.131  26.250  1.00  0.00     0.010 A 
ATOM     36  C   UNL A   1      41.625  22.451  28.449  1.00  0.00     0.010 A 
ATOM     37  C   UNL A   1      42.180  23.427  27.609  1.00  0.00    -0.014 A 
BRANCH  37  38
ATOM     38  C   UNL A   1      42.572  24.741  28.176  1.00  0.00     0.031 A 
ATOM     39  C   UNL A   1      41.544  25.820  28.375  1.00  0.00     0.074 A 
ATOM     40  C   UNL A   1      43.868  24.993  28.446  1.00  0.00     0.049 A 
ATOM     41  N   UNL A   1      41.703  27.046  28.806  1.00  0.00    -0.248 NA
ATOM     42  C   UNL A   1      40.157  25.489  28.008  1.00  0.00     0.031 C 
ATOM     43  C   UNL A   1      44.973  24.052  28.247  1.00  0.00     0.029 A 
ATOM     44  N   UNL A   1      44.475  26.121  28.935  1.00  0.00    -0.354 N 
ATOM     45  C   UNL A   1      40.446  27.635  28.741  1.00  0.00     0.074 A 
ATOM     46  C   UNL A   1      39.551  26.655  28.169  1.00  0.00     0.031 C 
ATOM     47  C   UNL A   1      46.118  24.632  28.640  1.00  0.00     0.029 A 
ATOM     48  C   UNL A   1      45.836  25.996  29.073  1.00  0.00     0.049 A 
ATOM     49  H   UNL A   1      43.982  26.942  29.166  1.00  0.00     0.167 HD
ATOM     50  C   UNL A   1      40.064  28.872  29.139  1.00  0.00     0.031 A 
ATOM     51  C   UNL A   1      46.757  26.883  29.494  1.00  0.00     0.031 A 
ATOM     52  C   UNL A   1      40.957  29.848  29.705  1.00  0.00     0.049 A 
ATOM     53  C   UNL A   1      46.318  28.252  29.926  1.00  0.00     0.074 A 
ATOM     54  C   UNL A   1      40.660  31.105  30.200  1.00  0.00     0.029 A 
ATOM     55  N   UNL A   1      42.327  29.679  29.842  1.00  0.00    -0.354 N 
ATOM     56  N   UNL A   1      45.112  28.767  29.938  1.00  0.00    -0.248 NA
ATOM     57  C   UNL A   1      47.365  29.157  30.420  1.00  0.00     0.031 C 
ATOM     58  C   UNL A   1      41.859  31.721  30.576  1.00  0.00     0.029 A 
ATOM     59  C   UNL A   1      42.895  30.820  30.382  1.00  0.00     0.049 A 
ATOM     60  H   UNL A   1      42.823  28.865  29.592  1.00  0.00     0.167 HD
ATOM     61  C   UNL A   1      45.250  30.046  30.460  1.00  0.00     0.074 A 
ATOM     62  C   UNL A   1      46.655  30.221  30.770  1.00  0.00     0.031 C 
ATOM     63  C   UNL A   1      44.297  30.988  30.671  1.00  0.00     0.031 A 
BRANCH  50  64
ATOM     64  C   UNL A   1      38.615  29.237  28.946  1.00  0.00    -0.014 A 
ATOM     65  C   UNL A   1      38.141  29.734  27.721  1.00  0.00     0.009 A 
ATOM     66  C   UNL A   1      37.712  29.089  30.010  1.00  0.00     0.009 A 
ATOM     67  C   UNL A   1      36.809  30.133  27.585  1.00  0.00     0.001 A 
ATOM     68  C   UNL A   1      36.372  29.453  29.860  1.00  0.00     0.001 A 
ATOM     69  C   UNL A   1      35.926  29.991  28.654  1.00  0.00     0.000 A 
ENDBRANCH  50  64
BRANCH  51  70
ATOM     70  C   UNL A   1      48.188  26.482  29.541  1.00  0.00    -0.014 A 
ATOM     71  C   UNL A   1      49.043  26.756  28.462  1.00  0.00     0.009 A 
ATOM     72  C   UNL A   1      48.716  25.859  30.683  1.00  0.00     0.009 A 
ATOM     73  C   UNL A   1      50.392  26.400  28.522  1.00  0.00     0.001 A 
ATOM     74  C   UNL A   1      50.071  25.532  30.752  1.00  0.00     0.001 A 
ATOM     75  C   UNL A   1      50.907  25.797  29.669  1.00  0.00     0.000 A 
ENDBRANCH  51  70
BRANCH  63  76
ATOM     76  C   UNL A   1      44.737  32.286  31.292  1.00  0.00    -0.014 A 
ATOM     77  C   UNL A   1      45.124  33.382  30.505  1.00  0.00     0.009 A 
ATOM     78  C   UNL A   1      44.726  32.424  32.689  1.00  0.00     0.009 A 
ATOM     79  C   UNL A   1      45.524  34.577  31.107  1.00  0.00     0.001 A 
ATOM     80  C   UNL A   1      45.096  33.629  33.287  1.00  0.00     0.001 A 
ATOM     81  C   UNL A   1      45.505  34.701  32.496  1.00  0.00     0.000 A 
ENDBRANCH  63  76
ENDBRANCH  37  38
ENDBRANCH  29  32
ENDBRANCH  27  28
ENDBRANCH   1  27
TORSDOF 14
ENDMDL
MODEL 3
REMARK VINA RESULT:     -11.5      2.692      7.587
REMARK SMILES Cc1cc(F)cc(N[C@@](C)(C(=O)NCCCNC(=O)c2ccc(-c3c4nc(c(-c5ccccc5)c5ccc([nH]5)c(-c5ccccc5)c5nc(c(-c6ccccc6)c6ccc3[nH]6)C=C5)C=C4)cc2)c2ccc(O)cc2)c1
REMARK SMILES IDX 15 1 14 2 13 3 11 4 12 5 9 7 10 8 8 9 7 11 1 12 2 13 3 14
REMARK SMILES IDX 75 15 4 16 5 17 6 18 68 19 69 20 74 21 70 22 73 23 71 24
REMARK SMILES IDX 72 25 16 27 17 28 18 29 19 31 20 32 21 33 67 34 22 35 66 36
REMARK SMILES IDX 23 37 24 38 25 39 60 40 26 41 65 42 59 43 61 44 27 45 64 46
REMARK SMILES IDX 58 47 57 48 28 50 50 51 35 52 49 53 36 54 39 55 48 56 62 57
REMARK SMILES IDX 37 58 38 59 47 61 63 62 40 63 29 64 30 65 34 66 31 67 33 68
REMARK SMILES IDX 32 69 51 70 52 71 56 72 53 73 55 74 54 75 41 76 42 77 46 78
REMARK SMILES IDX 43 79 45 80 44 81
REMARK H PARENT 13 6 8 10 72 26 17 30 61 49 39 60
REMARK Flexibility Score: inf
ROOT
ATOM      1  C   UNL A   1      31.384  30.892  26.088  1.00  0.00     0.042 C 
ENDROOT
BRANCH   1   2
ATOM      2  C   UNL A   1      31.728  29.543  25.475  1.00  0.00     0.117 C 
BRANCH   2   3
ATOM      3  N   UNL A   1      32.652  29.666  24.364  1.00  0.00    -0.354 N 
ATOM      4  C   UNL A   1      32.991  28.832  23.332  1.00  0.00     0.250 C 
ATOM      5  O   UNL A   1      33.989  29.209  22.703  1.00  0.00    -0.272 OA
ATOM      6  H   UNL A   1      33.133  30.525  24.348  1.00  0.00     0.163 HD
BRANCH   4   7
ATOM      7  C   UNL A   1      32.198  27.494  23.008  1.00  0.00     0.139 C 
ATOM      8  C   UNL A   1      33.046  26.552  22.118  1.00  0.00     0.051 C 
BRANCH   7   9
ATOM      9  N   UNL A   1      30.974  27.895  22.249  1.00  0.00    -0.368 N 
ATOM     10  H   UNL A   1      30.946  27.556  21.325  1.00  0.00     0.161 HD
BRANCH   9  11
ATOM     11  C   UNL A   1      29.875  28.658  22.608  1.00  0.00     0.038 A 
ATOM     12  C   UNL A   1      28.719  32.256  21.912  1.00  0.00     0.044 C 
ATOM     13  C   UNL A   1      28.703  30.811  22.312  1.00  0.00    -0.046 A 
ATOM     14  C   UNL A   1      27.510  30.215  22.712  1.00  0.00     0.042 A 
ATOM     15  C   UNL A   1      29.863  30.017  22.232  1.00  0.00     0.029 A 
ATOM     16  C   UNL A   1      27.526  28.905  23.160  1.00  0.00     0.125 A 
ATOM     17  F   UNL A   1      26.378  28.333  23.552  1.00  0.00    -0.207 F 
ATOM     18  C   UNL A   1      28.703  28.157  23.174  1.00  0.00     0.065 A 
ENDBRANCH   9  11
ENDBRANCH   7   9
BRANCH   7  19
ATOM     19  C   UNL A   1      31.919  26.601  24.253  1.00  0.00    -0.013 A 
ATOM     20  C   UNL A   1      32.966  26.206  25.113  1.00  0.00     0.010 A 
ATOM     21  C   UNL A   1      30.617  26.202  24.611  1.00  0.00     0.010 A 
ATOM     22  C   UNL A   1      32.750  25.290  26.145  1.00  0.00     0.046 A 
ATOM     23  C   UNL A   1      30.391  25.305  25.658  1.00  0.00     0.046 A 
ATOM     24  C   UNL A   1      31.468  24.822  26.388  1.00  0.00     0.115 A 
BRANCH  24  25
ATOM     25  O   UNL A   1      31.299  23.879  27.355  1.00  0.00    -0.508 OA
ATOM     26  H   UNL A   1      31.770  23.069  27.308  1.00  0.00     0.293 HD
ENDBRANCH  24  25
ENDBRANCH   7  19
ENDBRANCH   4   7
ENDBRANCH   2   3
ENDBRANCH   1   2
BRANCH   1  27
ATOM     27  C   UNL A   1      32.488  31.490  26.948  1.00  0.00     0.118 C 
BRANCH  27  28
ATOM     28  N   UNL A   1      32.252  32.888  27.283  1.00  0.00    -0.352 N 
ATOM     29  C   UNL A   1      32.967  33.747  28.083  1.00  0.00     0.251 C 
ATOM     30  H   UNL A   1      31.450  33.282  26.870  1.00  0.00     0.163 HD
ATOM     31  O   UNL A   1      32.493  34.839  28.377  1.00  0.00    -0.269 OA
BRANCH  29  32
ATOM     32  C   UNL A   1      34.293  33.355  28.611  1.00  0.00     0.039 A 
ATOM     33  C   UNL A   1      34.363  32.705  29.847  1.00  0.00     0.014 A 
ATOM     34  C   UNL A   1      35.465  33.638  27.907  1.00  0.00     0.014 A 
ATOM     35  C   UNL A   1      35.600  32.280  30.338  1.00  0.00     0.010 A 
ATOM     36  C   UNL A   1      36.680  33.122  28.345  1.00  0.00     0.010 A 
ATOM     37  C   UNL A   1      36.764  32.450  29.572  1.00  0.00    -0.014 A 
BRANCH  37  38
ATOM     38  C   UNL A   1      38.079  31.946  30.040  1.00  0.00     0.031 A 
ATOM     39  C   UNL A   1      38.623  30.645  29.518  1.00  0.00     0.074 A 
ATOM     40  C   UNL A   1      38.753  32.621  30.991  1.00  0.00     0.049 A 
ATOM     41  N   UNL A   1      39.725  30.018  29.846  1.00  0.00    -0.248 NA
ATOM     42  C   UNL A   1      37.804  29.937  28.520  1.00  0.00     0.031 C 
ATOM     43  C   UNL A   1      38.310  33.867  31.621  1.00  0.00     0.029 A 
ATOM     44  N   UNL A   1      39.951  32.346  31.601  1.00  0.00    -0.354 N 
ATOM     45  C   UNL A   1      39.718  28.837  29.113  1.00  0.00     0.074 A 
ATOM     46  C   UNL A   1      38.476  28.806  28.375  1.00  0.00     0.031 C 
ATOM     47  C   UNL A   1      39.238  34.264  32.506  1.00  0.00     0.029 A 
ATOM     48  C   UNL A   1      40.316  33.281  32.539  1.00  0.00     0.049 A 
ATOM     49  H   UNL A   1      40.497  31.556  31.386  1.00  0.00     0.167 HD
ATOM     50  C   UNL A   1      40.669  27.874  29.042  1.00  0.00     0.031 A 
ATOM     51  C   UNL A   1      41.393  33.338  33.344  1.00  0.00     0.031 A 
ATOM     52  C   UNL A   1      41.904  27.905  29.780  1.00  0.00     0.049 A 
ATOM     53  C   UNL A   1      42.435  32.260  33.258  1.00  0.00     0.074 A 
ATOM     54  C   UNL A   1      42.960  27.013  29.731  1.00  0.00     0.029 A 
ATOM     55  N   UNL A   1      42.243  28.877  30.710  1.00  0.00    -0.354 N 
ATOM     56  N   UNL A   1      42.455  31.191  32.498  1.00  0.00    -0.248 NA
ATOM     57  C   UNL A   1      43.609  32.404  34.127  1.00  0.00     0.031 C 
ATOM     58  C   UNL A   1      43.910  27.410  30.680  1.00  0.00     0.029 A 
ATOM     59  C   UNL A   1      43.478  28.588  31.267  1.00  0.00     0.049 A 
ATOM     60  H   UNL A   1      41.688  29.656  30.940  1.00  0.00     0.167 HD
ATOM     61  C   UNL A   1      43.653  30.547  32.780  1.00  0.00     0.074 A 
ATOM     62  C   UNL A   1      44.338  31.356  33.767  1.00  0.00     0.031 C 
ATOM     63  C   UNL A   1      44.143  29.393  32.261  1.00  0.00     0.031 A 
BRANCH  50  64
ATOM     64  C   UNL A   1      40.384  26.695  28.149  1.00  0.00    -0.014 A 
ATOM     65  C   UNL A   1      40.867  26.640  26.831  1.00  0.00     0.009 A 
ATOM     66  C   UNL A   1      39.613  25.626  28.630  1.00  0.00     0.009 A 
ATOM     67  C   UNL A   1      40.533  25.571  25.996  1.00  0.00     0.001 A 
ATOM     68  C   UNL A   1      39.311  24.540  27.806  1.00  0.00     0.001 A 
ATOM     69  C   UNL A   1      39.756  24.522  26.485  1.00  0.00     0.000 A 
ENDBRANCH  50  64
BRANCH  51  70
ATOM     70  C   UNL A   1      41.541  34.477  34.287  1.00  0.00    -0.014 A 
ATOM     71  C   UNL A   1      42.169  35.665  33.880  1.00  0.00     0.009 A 
ATOM     72  C   UNL A   1      41.018  34.398  35.588  1.00  0.00     0.009 A 
ATOM     73  C   UNL A   1      42.283  36.742  34.762  1.00  0.00     0.001 A 
ATOM     74  C   UNL A   1      41.107  35.486  36.456  1.00  0.00     0.001 A 
ATOM     75  C   UNL A   1      41.745  36.655  36.046  1.00  0.00     0.000 A 
ENDBRANCH  51  70
BRANCH  63  76
ATOM     76  C   UNL A   1      45.501  28.950  32.732  1.00  0.00    -0.014 A 
ATOM     77  C   UNL A   1      45.653  28.088  33.830  1.00  0.00     0.009 A 
ATOM     78  C   UNL A   1      46.647  29.372  32.039  1.00  0.00     0.009 A 
ATOM     79  C   UNL A   1      46.925  27.688  34.244  1.00  0.00     0.001 A 
ATOM     80  C   UNL A   1      47.915  28.945  32.434  1.00  0.00     0.001 A 
ATOM     81  C   UNL A   1      48.054  28.112  33.543  1.00  0.00     0.000 A 
ENDBRANCH  63  76
ENDBRANCH  37  38
ENDBRANCH  29  32
ENDBRANCH  27  28
ENDBRANCH   1  27
TORSDOF 14
ENDMDL
