MODEL 1
REMARK VINA RESULT:     -11.4      0.000      0.000
REMARK SMILES CCOC(=O)C1=NN(c2cc(F)ccc2C)[C@@H](C(=O)NCCCNC(=O)c2ccc(-c3c4nc(c(-c5ccccc5)c5ccc([nH]5)c(-c5ccccc5)c5nc(c(-c6ccccc6)c6ccc3[nH]6)C=C5)C=C4)cc2)C1
REMARK SMILES IDX 21 1 20 2 18 3 19 4 17 6 6 7 7 8 75 9 8 10 4 11 5 12 3 13
REMARK SMILES IDX 2 14 1 15 9 16 10 17 15 18 11 19 14 20 16 21 12 22 13 23
REMARK SMILES IDX 22 24 23 25 24 26 25 27 26 29 27 30 28 31 74 32 29 33 73 34
REMARK SMILES IDX 30 35 31 36 32 37 67 38 33 39 72 40 66 41 68 42 34 43 71 44
REMARK SMILES IDX 65 45 64 46 35 48 57 49 42 50 56 51 43 52 46 53 55 54 69 55
REMARK SMILES IDX 44 56 45 57 54 59 70 60 47 61 36 62 37 63 41 64 38 65 40 66
REMARK SMILES IDX 39 67 58 68 59 69 63 70 60 71 62 72 61 73 48 74 49 75 53 76
REMARK SMILES IDX 50 77 52 78 51 79
REMARK H PARENT 20 5 24 28 68 47 46 58
REMARK Flexibility Score: inf
ROOT
ATOM      1  C   UNL A   1      36.311  20.176  25.016  1.00  0.00     0.117 C 
ENDROOT
BRANCH   1   2
ATOM      2  N   UNL A   1      35.790  21.428  24.499  1.00  0.00    -0.354 N 
ATOM      3  C   UNL A   1      34.687  22.154  24.872  1.00  0.00     0.245 C 
ATOM      4  O   UNL A   1      34.535  23.238  24.310  1.00  0.00    -0.273 OA
ATOM      5  H   UNL A   1      36.312  21.819  23.762  1.00  0.00     0.163 HD
BRANCH   3   6
ATOM      6  C   UNL A   1      33.746  21.588  25.952  1.00  0.00     0.203 C 
ATOM      7  C   UNL A   1      31.719  22.605  26.393  1.00  0.00     0.148 C 
ATOM      8  N   UNL A   1      31.395  21.608  25.634  1.00  0.00    -0.169 NA
ATOM      9  C   UNL A   1      33.150  22.729  26.776  1.00  0.00     0.103 C 
ATOM     10  N   UNL A   1      32.556  20.916  25.407  1.00  0.00    -0.252 N 
BRANCH   7  11
ATOM     11  C   UNL A   1      30.735  23.602  26.931  1.00  0.00     0.354 C 
ATOM     12  O   UNL A   1      29.648  23.280  27.372  1.00  0.00    -0.245 OA
BRANCH  11  13
ATOM     13  O   UNL A   1      31.315  24.819  26.933  1.00  0.00    -0.461 OA
BRANCH  13  14
ATOM     14  C   UNL A   1      31.093  25.605  25.754  1.00  0.00     0.230 C 
ATOM     15  C   UNL A   1      31.072  27.082  26.094  1.00  0.00     0.049 C 
ENDBRANCH  13  14
ENDBRANCH  11  13
ENDBRANCH   7  11
BRANCH  10  16
ATOM     16  C   UNL A   1      32.573  19.881  24.470  1.00  0.00     0.066 A 
ATOM     17  C   UNL A   1      32.899  18.581  24.904  1.00  0.00     0.067 A 
ATOM     18  C   UNL A   1      32.299  20.061  23.095  1.00  0.00    -0.026 A 
ATOM     19  C   UNL A   1      32.896  17.501  24.030  1.00  0.00     0.125 A 
ATOM     20  C   UNL A   1      32.289  18.948  22.225  1.00  0.00     0.008 A 
ATOM     21  C   UNL A   1      32.049  21.412  22.484  1.00  0.00     0.046 C 
ATOM     22  F   UNL A   1      33.189  16.275  24.486  1.00  0.00    -0.207 F 
ATOM     23  C   UNL A   1      32.584  17.672  22.693  1.00  0.00     0.039 A 
ENDBRANCH  10  16
ENDBRANCH   3   6
ENDBRANCH   1   2
BRANCH   1  24
ATOM     24  C   UNL A   1      37.781  19.952  24.680  1.00  0.00     0.042 C 
BRANCH  24  25
ATOM     25  C   UNL A   1      38.759  20.229  25.822  1.00  0.00     0.118 C 
BRANCH  25  26
ATOM     26  N   UNL A   1      39.956  19.405  25.760  1.00  0.00    -0.352 N 
ATOM     27  C   UNL A   1      41.270  19.692  26.028  1.00  0.00     0.251 C 
ATOM     28  H   UNL A   1      39.794  18.476  25.476  1.00  0.00     0.163 HD
ATOM     29  O   UNL A   1      42.128  18.858  25.746  1.00  0.00    -0.269 OA
BRANCH  27  30
ATOM     30  C   UNL A   1      41.683  20.980  26.626  1.00  0.00     0.039 A 
ATOM     31  C   UNL A   1      42.009  22.035  25.765  1.00  0.00     0.014 A 
ATOM     32  C   UNL A   1      41.834  21.143  28.006  1.00  0.00     0.014 A 
ATOM     33  C   UNL A   1      42.421  23.265  26.283  1.00  0.00     0.010 A 
ATOM     34  C   UNL A   1      42.208  22.384  28.527  1.00  0.00     0.010 A 
ATOM     35  C   UNL A   1      42.499  23.456  27.670  1.00  0.00    -0.014 A 
BRANCH  35  36
ATOM     36  C   UNL A   1      42.879  24.770  28.240  1.00  0.00     0.031 A 
ATOM     37  C   UNL A   1      41.834  25.809  28.524  1.00  0.00     0.074 A 
ATOM     38  C   UNL A   1      44.178  25.054  28.457  1.00  0.00     0.049 A 
ATOM     39  N   UNL A   1      41.993  27.064  28.862  1.00  0.00    -0.248 NA
ATOM     40  C   UNL A   1      40.431  25.389  28.394  1.00  0.00     0.031 C 
ATOM     41  C   UNL A   1      45.300  24.146  28.212  1.00  0.00     0.029 A 
ATOM     42  N   UNL A   1      44.768  26.199  28.925  1.00  0.00    -0.354 N 
ATOM     43  C   UNL A   1      40.715  27.599  28.930  1.00  0.00     0.074 A 
ATOM     44  C   UNL A   1      39.790  26.527  28.628  1.00  0.00     0.031 C 
ATOM     45  C   UNL A   1      46.444  24.766  28.546  1.00  0.00     0.029 A 
ATOM     46  C   UNL A   1      46.135  26.118  29.001  1.00  0.00     0.049 A 
ATOM     47  H   UNL A   1      44.261  27.003  29.183  1.00  0.00     0.167 HD
ATOM     48  C   UNL A   1      40.345  28.872  29.202  1.00  0.00     0.031 A 
ATOM     49  C   UNL A   1      47.044  27.034  29.384  1.00  0.00     0.031 A 
ATOM     50  C   UNL A   1      41.248  29.936  29.545  1.00  0.00     0.049 A 
ATOM     51  C   UNL A   1      46.598  28.406  29.789  1.00  0.00     0.074 A 
ATOM     52  C   UNL A   1      40.961  31.266  29.807  1.00  0.00     0.029 A 
ATOM     53  N   UNL A   1      42.615  29.784  29.702  1.00  0.00    -0.354 N 
ATOM     54  N   UNL A   1      45.391  28.912  29.787  1.00  0.00    -0.248 NA
ATOM     55  C   UNL A   1      47.645  29.332  30.245  1.00  0.00     0.031 C 
ATOM     56  C   UNL A   1      42.157  31.915  30.139  1.00  0.00     0.029 A 
ATOM     57  C   UNL A   1      43.183  30.986  30.082  1.00  0.00     0.049 A 
ATOM     58  H   UNL A   1      43.109  28.944  29.564  1.00  0.00     0.167 HD
ATOM     59  C   UNL A   1      45.532  30.221  30.225  1.00  0.00     0.074 A 
ATOM     60  C   UNL A   1      46.939  30.425  30.503  1.00  0.00     0.031 C 
ATOM     61  C   UNL A   1      44.580  31.172  30.367  1.00  0.00     0.031 A 
BRANCH  48  62
ATOM     62  C   UNL A   1      38.884  29.185  29.106  1.00  0.00    -0.014 A 
ATOM     63  C   UNL A   1      38.311  29.573  27.889  1.00  0.00     0.009 A 
ATOM     64  C   UNL A   1      38.073  29.075  30.246  1.00  0.00     0.009 A 
ATOM     65  C   UNL A   1      36.947  29.864  27.818  1.00  0.00     0.001 A 
ATOM     66  C   UNL A   1      36.710  29.360  30.170  1.00  0.00     0.001 A 
ATOM     67  C   UNL A   1      36.149  29.758  28.957  1.00  0.00     0.000 A 
ENDBRANCH  48  62
BRANCH  49  68
ATOM     68  C   UNL A   1      48.480  26.681  29.389  1.00  0.00    -0.014 A 
ATOM     69  C   UNL A   1      49.054  26.079  30.518  1.00  0.00     0.009 A 
ATOM     70  C   UNL A   1      49.276  26.932  28.263  1.00  0.00     0.009 A 
ATOM     71  C   UNL A   1      50.409  25.743  30.523  1.00  0.00     0.001 A 
ATOM     72  C   UNL A   1      50.630  26.591  28.271  1.00  0.00     0.001 A 
ATOM     73  C   UNL A   1      51.195  26.000  29.400  1.00  0.00     0.000 A 
ENDBRANCH  49  68
BRANCH  61  74
ATOM     74  C   UNL A   1      45.033  32.514  30.845  1.00  0.00    -0.014 A 
ATOM     75  C   UNL A   1      45.433  33.495  29.925  1.00  0.00     0.009 A 
ATOM     76  C   UNL A   1      45.051  32.807  32.216  1.00  0.00     0.009 A 
ATOM     77  C   UNL A   1      45.856  34.748  30.374  1.00  0.00     0.001 A 
ATOM     78  C   UNL A   1      45.474  34.060  32.661  1.00  0.00     0.001 A 
ATOM     79  C   UNL A   1      45.878  35.028  31.740  1.00  0.00     0.000 A 
ENDBRANCH  61  74
ENDBRANCH  35  36
ENDBRANCH  27  30
ENDBRANCH  25  26
ENDBRANCH  24  25
ENDBRANCH   1  24
TORSDOF 14
ENDMDL
MODEL 2
REMARK VINA RESULT:     -11.3      0.556      5.867
REMARK SMILES CCOC(=O)C1=NN(c2cc(F)ccc2C)[C@@H](C(=O)NCCCNC(=O)c2ccc(-c3c4nc(c(-c5ccccc5)c5ccc([nH]5)c(-c5ccccc5)c5nc(c(-c6ccccc6)c6ccc3[nH]6)C=C5)C=C4)cc2)C1
REMARK SMILES IDX 21 1 20 2 18 3 19 4 17 6 6 7 7 8 75 9 8 10 4 11 5 12 3 13
REMARK SMILES IDX 2 14 1 15 9 16 10 17 15 18 11 19 14 20 16 21 12 22 13 23
REMARK SMILES IDX 22 24 23 25 24 26 25 27 26 29 27 30 28 31 74 32 29 33 73 34
REMARK SMILES IDX 30 35 31 36 32 37 67 38 33 39 72 40 66 41 68 42 34 43 71 44
REMARK SMILES IDX 65 45 64 46 35 48 57 49 42 50 56 51 43 52 46 53 55 54 69 55
REMARK SMILES IDX 44 56 45 57 54 59 70 60 47 61 36 62 37 63 41 64 38 65 40 66
REMARK SMILES IDX 39 67 58 68 59 69 63 70 60 71 62 72 61 73 48 74 49 75 53 76
REMARK SMILES IDX 50 77 52 78 51 79
REMARK H PARENT 20 5 24 28 68 47 46 58
REMARK Flexibility Score: inf
ROOT
ATOM      1  C   UNL A   1      36.233  19.907  25.020  1.00  0.00     0.117 C 
ENDROOT
BRANCH   1   2
ATOM      2  N   UNL A   1      35.799  21.221  24.581  1.00  0.00    -0.354 N 
ATOM      3  C   UNL A   1      34.734  21.986  24.983  1.00  0.00     0.245 C 
ATOM      4  O   UNL A   1      34.660  23.113  24.494  1.00  0.00    -0.273 OA
ATOM      5  H   UNL A   1      36.361  21.627  23.882  1.00  0.00     0.163 HD
BRANCH   3   6
ATOM      6  C   UNL A   1      33.737  21.408  26.004  1.00  0.00     0.203 C 
ATOM      7  C   UNL A   1      31.728  22.471  26.416  1.00  0.00     0.148 C 
ATOM      8  N   UNL A   1      31.401  21.517  25.605  1.00  0.00    -0.169 NA
ATOM      9  C   UNL A   1      33.147  22.533  26.854  1.00  0.00     0.103 C 
ATOM     10  N   UNL A   1      32.547  20.797  25.390  1.00  0.00    -0.252 N 
BRANCH   7  11
ATOM     11  C   UNL A   1      30.757  23.477  26.961  1.00  0.00     0.354 C 
ATOM     12  O   UNL A   1      29.686  23.161  27.444  1.00  0.00    -0.245 OA
BRANCH  11  13
ATOM     13  O   UNL A   1      31.330  24.697  26.913  1.00  0.00    -0.461 OA
BRANCH  13  14
ATOM     14  C   UNL A   1      31.272  25.351  25.639  1.00  0.00     0.230 C 
ATOM     15  C   UNL A   1      29.898  25.948  25.409  1.00  0.00     0.049 C 
ENDBRANCH  13  14
ENDBRANCH  11  13
ENDBRANCH   7  11
BRANCH  10  16
ATOM     16  C   UNL A   1      32.567  19.801  24.412  1.00  0.00     0.066 A 
ATOM     17  C   UNL A   1      32.878  18.482  24.796  1.00  0.00     0.067 A 
ATOM     18  C   UNL A   1      32.309  20.040  23.042  1.00  0.00    -0.026 A 
ATOM     19  C   UNL A   1      32.876  17.438  23.878  1.00  0.00     0.125 A 
ATOM     20  C   UNL A   1      32.300  18.964  22.128  1.00  0.00     0.008 A 
ATOM     21  C   UNL A   1      32.076  21.417  22.485  1.00  0.00     0.046 C 
ATOM     22  F   UNL A   1      33.154  16.193  24.287  1.00  0.00    -0.207 F 
ATOM     23  C   UNL A   1      32.580  17.666  22.546  1.00  0.00     0.039 A 
ENDBRANCH  10  16
ENDBRANCH   3   6
ENDBRANCH   1   2
BRANCH   1  24
ATOM     24  C   UNL A   1      37.695  19.618  24.700  1.00  0.00     0.042 C 
BRANCH  24  25
ATOM     25  C   UNL A   1      38.701  20.137  25.728  1.00  0.00     0.118 C 
BRANCH  25  26
ATOM     26  N   UNL A   1      39.917  19.341  25.787  1.00  0.00    -0.352 N 
ATOM     27  C   UNL A   1      41.208  19.679  26.108  1.00  0.00     0.251 C 
ATOM     28  H   UNL A   1      39.792  18.392  25.556  1.00  0.00     0.163 HD
ATOM     29  O   UNL A   1      42.098  18.851  25.930  1.00  0.00    -0.269 OA
BRANCH  27  30
ATOM     30  C   UNL A   1      41.556  21.013  26.643  1.00  0.00     0.039 A 
ATOM     31  C   UNL A   1      41.978  21.997  25.741  1.00  0.00     0.014 A 
ATOM     32  C   UNL A   1      41.556  21.287  28.013  1.00  0.00     0.014 A 
ATOM     33  C   UNL A   1      42.337  23.267  26.200  1.00  0.00     0.010 A 
ATOM     34  C   UNL A   1      41.876  22.567  28.471  1.00  0.00     0.010 A 
ATOM     35  C   UNL A   1      42.263  23.569  27.567  1.00  0.00    -0.014 A 
BRANCH  35  36
ATOM     36  C   UNL A   1      42.583  24.926  28.068  1.00  0.00     0.031 A 
ATOM     37  C   UNL A   1      43.991  25.291  28.436  1.00  0.00     0.074 A 
ATOM     38  C   UNL A   1      41.594  25.824  28.242  1.00  0.00     0.049 A 
ATOM     39  N   UNL A   1      44.430  26.365  29.044  1.00  0.00    -0.248 NA
ATOM     40  C   UNL A   1      45.038  24.316  28.095  1.00  0.00     0.031 C 
ATOM     41  C   UNL A   1      40.179  25.601  27.940  1.00  0.00     0.029 A 
ATOM     42  N   UNL A   1      41.636  27.105  28.728  1.00  0.00    -0.354 N 
ATOM     43  C   UNL A   1      45.794  26.172  29.208  1.00  0.00     0.074 A 
ATOM     44  C   UNL A   1      46.116  24.892  28.611  1.00  0.00     0.031 C 
ATOM     45  C   UNL A   1      39.489  26.716  28.236  1.00  0.00     0.029 A 
ATOM     46  C   UNL A   1      40.408  27.715  28.770  1.00  0.00     0.049 A 
ATOM     47  H   UNL A   1      42.467  27.546  29.019  1.00  0.00     0.167 HD
ATOM     48  C   UNL A   1      46.694  26.978  29.818  1.00  0.00     0.031 A 
ATOM     49  C   UNL A   1      40.056  28.940  29.201  1.00  0.00     0.031 A 
ATOM     50  C   UNL A   1      46.397  28.268  30.376  1.00  0.00     0.049 A 
ATOM     51  C   UNL A   1      41.094  29.860  29.770  1.00  0.00     0.074 A 
ATOM     52  C   UNL A   1      47.245  29.140  31.040  1.00  0.00     0.029 A 
ATOM     53  N   UNL A   1      45.160  28.885  30.311  1.00  0.00    -0.354 N 
ATOM     54  N   UNL A   1      42.367  29.635  29.976  1.00  0.00    -0.248 NA
ATOM     55  C   UNL A   1      40.641  31.200  30.170  1.00  0.00     0.031 C 
ATOM     56  C   UNL A   1      46.520  30.295  31.362  1.00  0.00     0.029 A 
ATOM     57  C   UNL A   1      45.224  30.136  30.898  1.00  0.00     0.049 A 
ATOM     58  H   UNL A   1      44.353  28.491  29.907  1.00  0.00     0.167 HD
ATOM     59  C   UNL A   1      42.867  30.798  30.543  1.00  0.00     0.074 A 
ATOM     60  C   UNL A   1      41.764  31.734  30.632  1.00  0.00     0.031 C 
ATOM     61  C   UNL A   1      44.125  31.059  30.968  1.00  0.00     0.031 A 
BRANCH  48  62
ATOM     62  C   UNL A   1      48.094  26.459  29.934  1.00  0.00    -0.014 A 
ATOM     63  C   UNL A   1      49.042  26.720  28.937  1.00  0.00     0.009 A 
ATOM     64  C   UNL A   1      48.467  25.714  31.063  1.00  0.00     0.009 A 
ATOM     65  C   UNL A   1      50.342  26.226  29.060  1.00  0.00     0.001 A 
ATOM     66  C   UNL A   1      49.768  25.227  31.185  1.00  0.00     0.001 A 
ATOM     67  C   UNL A   1      50.703  25.480  30.182  1.00  0.00     0.000 A 
ENDBRANCH  48  62
BRANCH  49  68
ATOM     68  C   UNL A   1      38.642  29.365  29.121  1.00  0.00    -0.014 A 
ATOM     69  C   UNL A   1      37.801  29.231  30.236  1.00  0.00     0.009 A 
ATOM     70  C   UNL A   1      38.133  29.916  27.938  1.00  0.00     0.009 A 
ATOM     71  C   UNL A   1      36.467  29.634  30.162  1.00  0.00     0.001 A 
ATOM     72  C   UNL A   1      36.799  30.322  27.869  1.00  0.00     0.001 A 
ATOM     73  C   UNL A   1      35.968  30.178  28.980  1.00  0.00     0.000 A 
ENDBRANCH  49  68
BRANCH  61  74
ATOM     74  C   UNL A   1      44.369  32.409  31.563  1.00  0.00    -0.014 A 
ATOM     75  C   UNL A   1      44.761  33.481  30.747  1.00  0.00     0.009 A 
ATOM     76  C   UNL A   1      44.196  32.617  32.938  1.00  0.00     0.009 A 
ATOM     77  C   UNL A   1      44.988  34.741  31.305  1.00  0.00     0.001 A 
ATOM     78  C   UNL A   1      44.425  33.878  33.492  1.00  0.00     0.001 A 
ATOM     79  C   UNL A   1      44.822  34.937  32.675  1.00  0.00     0.000 A 
ENDBRANCH  61  74
ENDBRANCH  35  36
ENDBRANCH  27  30
ENDBRANCH  25  26
ENDBRANCH  24  25
ENDBRANCH   1  24
TORSDOF 14
ENDMDL
MODEL 3
REMARK VINA RESULT:     -11.2      4.729      9.594
REMARK SMILES CCOC(=O)C1=NN(c2cc(F)ccc2C)[C@@H](C(=O)NCCCNC(=O)c2ccc(-c3c4nc(c(-c5ccccc5)c5ccc([nH]5)c(-c5ccccc5)c5nc(c(-c6ccccc6)c6ccc3[nH]6)C=C5)C=C4)cc2)C1
REMARK SMILES IDX 21 1 20 2 18 3 19 4 17 6 6 7 7 8 75 9 8 10 4 11 5 12 3 13
REMARK SMILES IDX 2 14 1 15 9 16 10 17 15 18 11 19 14 20 16 21 12 22 13 23
REMARK SMILES IDX 22 24 23 25 24 26 25 27 26 29 27 30 28 31 74 32 29 33 73 34
REMARK SMILES IDX 30 35 31 36 32 37 67 38 33 39 72 40 66 41 68 42 34 43 71 44
REMARK SMILES IDX 65 45 64 46 35 48 57 49 42 50 56 51 43 52 46 53 55 54 69 55
REMARK SMILES IDX 44 56 45 57 54 59 70 60 47 61 36 62 37 63 41 64 38 65 40 66
REMARK SMILES IDX 39 67 58 68 59 69 63 70 60 71 62 72 61 73 48 74 49 75 53 76
REMARK SMILES IDX 50 77 52 78 51 79
REMARK H PARENT 20 5 24 28 68 47 46 58
REMARK Flexibility Score: inf
ROOT
ATOM      1  C   UNL A   1      31.420  30.604  25.282  1.00  0.00     0.117 C 
ENDROOT
BRANCH   1   2
ATOM      2  N   UNL A   1      31.476  29.193  25.619  1.00  0.00    -0.354 N 
ATOM      3  C   UNL A   1      31.856  28.113  24.864  1.00  0.00     0.245 C 
ATOM      4  O   UNL A   1      31.888  27.028  25.445  1.00  0.00    -0.273 OA
ATOM      5  H   UNL A   1      31.197  28.978  26.538  1.00  0.00     0.163 HD
BRANCH   3   6
ATOM      6  C   UNL A   1      32.221  28.323  23.383  1.00  0.00     0.203 C 
ATOM      7  C   UNL A   1      32.443  26.518  21.959  1.00  0.00     0.148 C 
ATOM      8  N   UNL A   1      31.257  26.963  21.696  1.00  0.00    -0.169 NA
ATOM      9  C   UNL A   1      33.251  27.282  22.945  1.00  0.00     0.103 C 
ATOM     10  N   UNL A   1      31.101  28.092  22.457  1.00  0.00    -0.252 N 
BRANCH   7  11
ATOM     11  C   UNL A   1      33.051  25.314  21.301  1.00  0.00     0.354 C 
ATOM     12  O   UNL A   1      33.076  25.168  20.094  1.00  0.00    -0.245 OA
BRANCH  11  13
ATOM     13  O   UNL A   1      33.624  24.548  22.252  1.00  0.00    -0.461 OA
BRANCH  13  14
ATOM     14  C   UNL A   1      33.281  23.157  22.207  1.00  0.00     0.230 C 
ATOM     15  C   UNL A   1      33.272  22.565  23.602  1.00  0.00     0.049 C 
ENDBRANCH  13  14
ENDBRANCH  11  13
ENDBRANCH   7  11
BRANCH  10  16
ATOM     16  C   UNL A   1      29.851  28.709  22.534  1.00  0.00     0.066 A 
ATOM     17  C   UNL A   1      29.707  30.012  22.018  1.00  0.00     0.067 A 
ATOM     18  C   UNL A   1      28.714  28.108  23.122  1.00  0.00    -0.026 A 
ATOM     19  C   UNL A   1      28.480  30.666  22.030  1.00  0.00     0.125 A 
ATOM     20  C   UNL A   1      27.474  28.784  23.111  1.00  0.00     0.008 A 
ATOM     21  C   UNL A   1      28.761  26.771  23.807  1.00  0.00     0.046 C 
ATOM     22  F   UNL A   1      28.378  31.896  21.508  1.00  0.00    -0.207 F 
ATOM     23  C   UNL A   1      27.358  30.059  22.564  1.00  0.00     0.039 A 
ENDBRANCH  10  16
ENDBRANCH   3   6
ENDBRANCH   1   2
BRANCH   1  24
ATOM     24  C   UNL A   1      31.275  31.509  26.500  1.00  0.00     0.042 C 
BRANCH  24  25
ATOM     25  C   UNL A   1      32.579  32.114  27.020  1.00  0.00     0.118 C 
BRANCH  25  26
ATOM     26  N   UNL A   1      32.422  33.479  27.500  1.00  0.00    -0.352 N 
ATOM     27  C   UNL A   1      33.177  34.228  28.367  1.00  0.00     0.251 C 
ATOM     28  H   UNL A   1      31.636  33.947  27.139  1.00  0.00     0.163 HD
ATOM     29  O   UNL A   1      32.745  35.316  28.740  1.00  0.00    -0.269 OA
BRANCH  27  30
ATOM     30  C   UNL A   1      34.482  33.754  28.877  1.00  0.00     0.039 A 
ATOM     31  C   UNL A   1      34.485  32.829  29.928  1.00  0.00     0.014 A 
ATOM     32  C   UNL A   1      35.694  34.261  28.399  1.00  0.00     0.014 A 
ATOM     33  C   UNL A   1      35.693  32.367  30.456  1.00  0.00     0.010 A 
ATOM     34  C   UNL A   1      36.903  33.771  28.899  1.00  0.00     0.010 A 
ATOM     35  C   UNL A   1      36.911  32.816  29.927  1.00  0.00    -0.014 A 
BRANCH  35  36
ATOM     36  C   UNL A   1      38.203  32.294  30.434  1.00  0.00     0.031 A 
ATOM     37  C   UNL A   1      38.827  31.076  29.819  1.00  0.00     0.074 A 
ATOM     38  C   UNL A   1      38.795  32.886  31.488  1.00  0.00     0.049 A 
ATOM     39  N   UNL A   1      39.857  30.382  30.233  1.00  0.00    -0.248 NA
ATOM     40  C   UNL A   1      38.203  30.561  28.590  1.00  0.00     0.031 C 
ATOM     41  C   UNL A   1      38.293  34.067  32.194  1.00  0.00     0.029 A 
ATOM     42  N   UNL A   1      39.949  32.562  32.154  1.00  0.00    -0.354 N 
ATOM     43  C   UNL A   1      39.972  29.317  29.350  1.00  0.00     0.074 A 
ATOM     44  C   UNL A   1      38.926  29.472  28.361  1.00  0.00     0.031 C 
ATOM     45  C   UNL A   1      39.144  34.376  33.187  1.00  0.00     0.029 A 
ATOM     46  C   UNL A   1      40.231  33.402  33.201  1.00  0.00     0.049 A 
ATOM     47  H   UNL A   1      40.521  31.801  31.905  1.00  0.00     0.167 HD
ATOM     48  C   UNL A   1      40.857  28.293  29.372  1.00  0.00     0.031 A 
ATOM     49  C   UNL A   1      41.245  33.386  34.084  1.00  0.00     0.031 A 
ATOM     50  C   UNL A   1      41.926  28.150  30.321  1.00  0.00     0.049 A 
ATOM     51  C   UNL A   1      42.278  32.302  34.017  1.00  0.00     0.074 A 
ATOM     52  C   UNL A   1      42.852  27.126  30.434  1.00  0.00     0.029 A 
ATOM     53  N   UNL A   1      42.230  29.074  31.305  1.00  0.00    -0.354 N 
ATOM     54  N   UNL A   1      42.334  31.269  33.215  1.00  0.00    -0.248 NA
ATOM     55  C   UNL A   1      43.385  32.383  34.982  1.00  0.00     0.031 C 
ATOM     56  C   UNL A   1      43.729  27.442  31.481  1.00  0.00     0.029 A 
ATOM     57  C   UNL A   1      43.344  28.661  32.014  1.00  0.00     0.049 A 
ATOM     58  H   UNL A   1      41.728  29.904  31.476  1.00  0.00     0.167 HD
ATOM     59  C   UNL A   1      43.471  30.567  33.587  1.00  0.00     0.074 A 
ATOM     60  C   UNL A   1      44.087  31.301  34.674  1.00  0.00     0.031 C 
ATOM     61  C   UNL A   1      43.951  29.406  33.082  1.00  0.00     0.031 A 
BRANCH  48  62
ATOM     62  C   UNL A   1      40.677  27.225  28.339  1.00  0.00    -0.014 A 
ATOM     63  C   UNL A   1      39.851  26.121  28.585  1.00  0.00     0.009 A 
ATOM     64  C   UNL A   1      41.331  27.334  27.103  1.00  0.00     0.009 A 
ATOM     65  C   UNL A   1      39.695  25.131  27.611  1.00  0.00     0.001 A 
ATOM     66  C   UNL A   1      41.169  26.348  26.131  1.00  0.00     0.001 A 
ATOM     67  C   UNL A   1      40.355  25.245  26.388  1.00  0.00     0.000 A 
ENDBRANCH  48  62
BRANCH  49  68
ATOM     68  C   UNL A   1      41.326  34.434  35.125  1.00  0.00    -0.014 A 
ATOM     69  C   UNL A   1      40.705  34.243  36.368  1.00  0.00     0.009 A 
ATOM     70  C   UNL A   1      42.033  35.620  34.883  1.00  0.00     0.009 A 
ATOM     71  C   UNL A   1      40.783  35.231  37.351  1.00  0.00     0.001 A 
ATOM     72  C   UNL A   1      42.112  36.603  35.871  1.00  0.00     0.001 A 
ATOM     73  C   UNL A   1      41.485  36.409  37.102  1.00  0.00     0.000 A 
ENDBRANCH  49  68
BRANCH  61  74
ATOM     74  C   UNL A   1      45.201  28.867  33.702  1.00  0.00    -0.014 A 
ATOM     75  C   UNL A   1      46.457  29.227  33.189  1.00  0.00     0.009 A 
ATOM     76  C   UNL A   1      45.129  28.009  34.808  1.00  0.00     0.009 A 
ATOM     77  C   UNL A   1      47.622  28.723  33.769  1.00  0.00     0.001 A 
ATOM     78  C   UNL A   1      46.296  27.507  35.385  1.00  0.00     0.001 A 
ATOM     79  C   UNL A   1      47.541  27.864  34.864  1.00  0.00     0.000 A 
ENDBRANCH  61  74
ENDBRANCH  35  36
ENDBRANCH  27  30
ENDBRANCH  25  26
ENDBRANCH  24  25
ENDBRANCH   1  24
TORSDOF 14
ENDMDL
