MODEL 1
REMARK VINA RESULT:     -11.2      0.000      0.000
REMARK SMILES C[C@@H](C(=O)NCCCNC(=O)c1ccc(-c2c3nc(c(-c4ccccc4)c4ccc([nH]4)c(-c4ccccc4)c4nc(c(-c5ccccc5)c5ccc2[nH]5)C=C4)C=C3)cc1)c1ccc(Cc2cccs2)cc1F
REMARK SMILES IDX 6 1 5 2 3 3 4 4 2 6 1 7 60 8 61 9 71 10 62 11 70 12 72 13
REMARK SMILES IDX 63 14 64 15 65 16 66 17 69 18 67 19 68 20 7 21 8 22 9 23
REMARK SMILES IDX 10 24 11 26 12 27 13 28 59 29 14 30 58 31 15 32 16 33 17 34
REMARK SMILES IDX 52 35 18 36 57 37 51 38 53 39 19 40 56 41 50 42 49 43 20 45
REMARK SMILES IDX 42 46 27 47 41 48 28 49 31 50 40 51 54 52 29 53 30 54 39 56
REMARK SMILES IDX 55 57 32 58 21 59 22 60 26 61 23 62 25 63 24 64 43 65 44 66
REMARK SMILES IDX 48 67 45 68 47 69 46 70 33 71 34 72 38 73 35 74 37 75 36 76
REMARK H PARENT 5 5 9 25 53 44 31 55
REMARK Flexibility Score: inf
ROOT
ATOM      1  C   UNL A   1      33.470  28.337  24.694  1.00  0.00     0.117 C 
ENDROOT
BRANCH   1   2
ATOM      2  N   UNL A   1      33.957  27.538  23.588  1.00  0.00    -0.356 N 
ATOM      3  C   UNL A   1      33.479  26.379  23.044  1.00  0.00     0.227 C 
ATOM      4  O   UNL A   1      34.082  25.951  22.058  1.00  0.00    -0.274 OA
ATOM      5  H   UNL A   1      34.769  27.888  23.155  1.00  0.00     0.163 HD
BRANCH   3   6
ATOM      6  C   UNL A   1      32.222  25.712  23.624  1.00  0.00     0.108 C 
ATOM      7  C   UNL A   1      32.004  24.297  23.080  1.00  0.00     0.023 C 
BRANCH   6   8
ATOM      8  C   UNL A   1      30.968  26.552  23.417  1.00  0.00    -0.000 A 
ATOM      9  C   UNL A   1      30.983  27.632  22.523  1.00  0.00     0.008 A 
ATOM     10  C   UNL A   1      29.780  26.284  24.108  1.00  0.00     0.127 A 
ATOM     11  C   UNL A   1      29.843  28.423  22.345  1.00  0.00     0.004 A 
ATOM     12  C   UNL A   1      28.643  27.073  23.940  1.00  0.00     0.043 A 
ATOM     13  F   UNL A   1      29.719  25.261  24.973  1.00  0.00    -0.207 F 
ATOM     14  C   UNL A   1      28.663  28.157  23.056  1.00  0.00    -0.040 A 
BRANCH  14  15
ATOM     15  C   UNL A   1      27.442  29.031  22.881  1.00  0.00     0.082 C 
BRANCH  15  16
ATOM     16  C   UNL A   1      27.775  30.480  22.653  1.00  0.00     0.009 A 
ATOM     17  C   UNL A   1      27.996  31.471  23.592  1.00  0.00     0.016 A 
ATOM     18  S   UNL A   1      27.966  31.084  21.059  1.00  0.00    -0.149 S 
ATOM     19  C   UNL A   1      28.319  32.725  23.000  1.00  0.00     0.012 A 
ATOM     20  C   UNL A   1      28.346  32.652  21.625  1.00  0.00     0.065 A 
ENDBRANCH  15  16
ENDBRANCH  14  15
ENDBRANCH   6   8
ENDBRANCH   3   6
ENDBRANCH   1   2
BRANCH   1  21
ATOM     21  C   UNL A   1      34.095  27.927  26.027  1.00  0.00     0.042 C 
BRANCH  21  22
ATOM     22  C   UNL A   1      33.329  28.386  27.266  1.00  0.00     0.118 C 
BRANCH  22  23
ATOM     23  N   UNL A   1      33.341  29.829  27.441  1.00  0.00    -0.352 N 
ATOM     24  C   UNL A   1      34.300  30.661  27.959  1.00  0.00     0.251 C 
ATOM     25  H   UNL A   1      32.523  30.285  27.138  1.00  0.00     0.163 HD
ATOM     26  O   UNL A   1      34.020  31.845  28.148  1.00  0.00    -0.269 OA
BRANCH  24  27
ATOM     27  C   UNL A   1      35.651  30.169  28.315  1.00  0.00     0.039 A 
ATOM     28  C   UNL A   1      36.633  30.163  27.318  1.00  0.00     0.014 A 
ATOM     29  C   UNL A   1      35.952  29.660  29.582  1.00  0.00     0.014 A 
ATOM     30  C   UNL A   1      37.919  29.701  27.603  1.00  0.00     0.010 A 
ATOM     31  C   UNL A   1      37.255  29.258  29.885  1.00  0.00     0.010 A 
ATOM     32  C   UNL A   1      38.251  29.271  28.898  1.00  0.00    -0.014 A 
BRANCH  32  33
ATOM     33  C   UNL A   1      39.641  28.855  29.219  1.00  0.00     0.031 A 
ATOM     34  C   UNL A   1      40.561  29.756  29.994  1.00  0.00     0.074 A 
ATOM     35  C   UNL A   1      40.086  27.658  28.786  1.00  0.00     0.049 A 
ATOM     36  N   UNL A   1      41.793  29.538  30.383  1.00  0.00    -0.248 NA
ATOM     37  C   UNL A   1      40.039  31.080  30.365  1.00  0.00     0.031 C 
ATOM     38  C   UNL A   1      39.313  26.707  27.985  1.00  0.00     0.029 A 
ATOM     39  N   UNL A   1      41.297  27.037  28.966  1.00  0.00    -0.354 N 
ATOM     40  C   UNL A   1      42.194  30.696  31.037  1.00  0.00     0.074 A 
ATOM     41  C   UNL A   1      41.093  31.631  30.952  1.00  0.00     0.031 C 
ATOM     42  C   UNL A   1      40.057  25.610  27.770  1.00  0.00     0.029 A 
ATOM     43  C   UNL A   1      41.363  25.790  28.394  1.00  0.00     0.049 A 
ATOM     44  H   UNL A   1      42.044  27.446  29.458  1.00  0.00     0.167 HD
ATOM     45  C   UNL A   1      43.367  30.954  31.666  1.00  0.00     0.031 A 
ATOM     46  C   UNL A   1      42.361  24.887  28.379  1.00  0.00     0.031 A 
ATOM     47  C   UNL A   1      44.465  30.029  31.757  1.00  0.00     0.049 A 
ATOM     48  C   UNL A   1      43.645  25.192  29.093  1.00  0.00     0.074 A 
ATOM     49  C   UNL A   1      45.673  30.185  32.417  1.00  0.00     0.029 A 
ATOM     50  N   UNL A   1      44.491  28.775  31.169  1.00  0.00    -0.354 N 
ATOM     51  N   UNL A   1      43.982  26.266  29.764  1.00  0.00    -0.248 NA
ATOM     52  C   UNL A   1      44.682  24.151  29.058  1.00  0.00     0.031 C 
ATOM     53  C   UNL A   1      46.445  29.039  32.194  1.00  0.00     0.029 A 
ATOM     54  C   UNL A   1      45.700  28.153  31.433  1.00  0.00     0.049 A 
ATOM     55  H   UNL A   1      43.758  28.383  30.640  1.00  0.00     0.167 HD
ATOM     56  C   UNL A   1      45.262  26.024  30.244  1.00  0.00     0.074 A 
ATOM     57  C   UNL A   1      45.632  24.694  29.807  1.00  0.00     0.031 C 
ATOM     58  C   UNL A   1      46.060  26.836  30.980  1.00  0.00     0.031 A 
BRANCH  45  59
ATOM     59  C   UNL A   1      43.520  32.304  32.309  1.00  0.00    -0.014 A 
ATOM     60  C   UNL A   1      44.039  33.393  31.589  1.00  0.00     0.009 A 
ATOM     61  C   UNL A   1      43.109  32.500  33.636  1.00  0.00     0.009 A 
ATOM     62  C   UNL A   1      44.173  34.642  32.198  1.00  0.00     0.001 A 
ATOM     63  C   UNL A   1      43.222  33.758  34.234  1.00  0.00     0.001 A 
ATOM     64  C   UNL A   1      43.762  34.825  33.518  1.00  0.00     0.000 A 
ENDBRANCH  45  59
BRANCH  46  65
ATOM     65  C   UNL A   1      42.173  23.590  27.682  1.00  0.00    -0.014 A 
ATOM     66  C   UNL A   1      41.643  22.486  28.366  1.00  0.00     0.009 A 
ATOM     67  C   UNL A   1      42.519  23.451  26.330  1.00  0.00     0.009 A 
ATOM     68  C   UNL A   1      41.485  21.260  27.715  1.00  0.00     0.001 A 
ATOM     69  C   UNL A   1      42.337  22.232  25.675  1.00  0.00     0.001 A 
ATOM     70  C   UNL A   1      41.828  21.136  26.370  1.00  0.00     0.000 A 
ENDBRANCH  46  65
BRANCH  58  71
ATOM     71  C   UNL A   1      47.407  26.294  31.365  1.00  0.00    -0.014 A 
ATOM     72  C   UNL A   1      48.509  26.412  30.503  1.00  0.00     0.009 A 
ATOM     73  C   UNL A   1      47.579  25.669  32.609  1.00  0.00     0.009 A 
ATOM     74  C   UNL A   1      49.748  25.881  30.866  1.00  0.00     0.001 A 
ATOM     75  C   UNL A   1      48.826  25.161  32.979  1.00  0.00     0.001 A 
ATOM     76  C   UNL A   1      49.906  25.258  32.103  1.00  0.00     0.000 A 
ENDBRANCH  58  71
ENDBRANCH  32  33
ENDBRANCH  24  27
ENDBRANCH  22  23
ENDBRANCH  21  22
ENDBRANCH   1  21
TORSDOF 13
ENDMDL
MODEL 2
REMARK VINA RESULT:     -11.2      2.987      4.905
REMARK SMILES C[C@@H](C(=O)NCCCNC(=O)c1ccc(-c2c3nc(c(-c4ccccc4)c4ccc([nH]4)c(-c4ccccc4)c4nc(c(-c5ccccc5)c5ccc2[nH]5)C=C4)C=C3)cc1)c1ccc(Cc2cccs2)cc1F
REMARK SMILES IDX 6 1 5 2 3 3 4 4 2 6 1 7 60 8 61 9 71 10 62 11 70 12 72 13
REMARK SMILES IDX 63 14 64 15 65 16 66 17 69 18 67 19 68 20 7 21 8 22 9 23
REMARK SMILES IDX 10 24 11 26 12 27 13 28 59 29 14 30 58 31 15 32 16 33 17 34
REMARK SMILES IDX 52 35 18 36 57 37 51 38 53 39 19 40 56 41 50 42 49 43 20 45
REMARK SMILES IDX 42 46 27 47 41 48 28 49 31 50 40 51 54 52 29 53 30 54 39 56
REMARK SMILES IDX 55 57 32 58 21 59 22 60 26 61 23 62 25 63 24 64 43 65 44 66
REMARK SMILES IDX 48 67 45 68 47 69 46 70 33 71 34 72 38 73 35 74 37 75 36 76
REMARK H PARENT 5 5 9 25 53 44 31 55
REMARK Flexibility Score: inf
ROOT
ATOM      1  C   UNL A   1      32.074  26.571  26.585  1.00  0.00     0.117 C 
ENDROOT
BRANCH   1   2
ATOM      2  N   UNL A   1      32.745  26.514  25.302  1.00  0.00    -0.356 N 
ATOM      3  C   UNL A   1      33.641  25.613  24.801  1.00  0.00     0.227 C 
ATOM      4  O   UNL A   1      34.007  25.797  23.638  1.00  0.00    -0.274 OA
ATOM      5  H   UNL A   1      32.517  27.249  24.687  1.00  0.00     0.163 HD
BRANCH   3   6
ATOM      6  C   UNL A   1      34.098  24.419  25.654  1.00  0.00     0.108 C 
ATOM      7  C   UNL A   1      35.618  24.375  25.836  1.00  0.00     0.023 C 
BRANCH   6   8
ATOM      8  C   UNL A   1      33.597  23.088  25.107  1.00  0.00    -0.000 A 
ATOM      9  C   UNL A   1      34.468  22.240  24.408  1.00  0.00     0.008 A 
ATOM     10  C   UNL A   1      32.269  22.677  25.273  1.00  0.00     0.127 A 
ATOM     11  C   UNL A   1      34.010  21.028  23.882  1.00  0.00     0.004 A 
ATOM     12  C   UNL A   1      31.805  21.474  24.745  1.00  0.00     0.043 A 
ATOM     13  F   UNL A   1      31.400  23.456  25.935  1.00  0.00    -0.207 F 
ATOM     14  C   UNL A   1      32.673  20.634  24.039  1.00  0.00    -0.040 A 
BRANCH  14  15
ATOM     15  C   UNL A   1      32.175  19.335  23.445  1.00  0.00     0.082 C 
BRANCH  15  16
ATOM     16  C   UNL A   1      32.906  18.126  23.961  1.00  0.00     0.009 A 
ATOM     17  C   UNL A   1      33.806  17.313  23.295  1.00  0.00     0.016 A 
ATOM     18  S   UNL A   1      32.701  17.620  25.588  1.00  0.00    -0.149 S 
ATOM     19  C   UNL A   1      34.321  16.275  24.121  1.00  0.00     0.012 A 
ATOM     20  C   UNL A   1      33.809  16.332  25.398  1.00  0.00     0.065 A 
ENDBRANCH  15  16
ENDBRANCH  14  15
ENDBRANCH   6   8
ENDBRANCH   3   6
ENDBRANCH   1   2
BRANCH   1  21
ATOM     21  C   UNL A   1      32.152  27.959  27.221  1.00  0.00     0.042 C 
BRANCH  21  22
ATOM     22  C   UNL A   1      33.551  28.571  27.258  1.00  0.00     0.118 C 
BRANCH  22  23
ATOM     23  N   UNL A   1      33.548  29.975  27.636  1.00  0.00    -0.352 N 
ATOM     24  C   UNL A   1      34.509  30.742  28.244  1.00  0.00     0.251 C 
ATOM     25  H   UNL A   1      32.717  30.456  27.419  1.00  0.00     0.163 HD
ATOM     26  O   UNL A   1      34.218  31.882  28.605  1.00  0.00    -0.269 OA
BRANCH  24  27
ATOM     27  C   UNL A   1      35.875  30.227  28.496  1.00  0.00     0.039 A 
ATOM     28  C   UNL A   1      36.801  30.281  27.449  1.00  0.00     0.014 A 
ATOM     29  C   UNL A   1      36.241  29.641  29.711  1.00  0.00     0.014 A 
ATOM     30  C   UNL A   1      38.099  29.800  27.635  1.00  0.00     0.010 A 
ATOM     31  C   UNL A   1      37.557  29.219  29.918  1.00  0.00     0.010 A 
ATOM     32  C   UNL A   1      38.498  29.292  28.882  1.00  0.00    -0.014 A 
BRANCH  32  33
ATOM     33  C   UNL A   1      39.901  28.854  29.101  1.00  0.00     0.031 A 
ATOM     34  C   UNL A   1      40.903  29.763  29.757  1.00  0.00     0.074 A 
ATOM     35  C   UNL A   1      40.282  27.631  28.683  1.00  0.00     0.049 A 
ATOM     36  N   UNL A   1      42.159  29.531  30.049  1.00  0.00    -0.248 NA
ATOM     37  C   UNL A   1      40.443  31.113  30.114  1.00  0.00     0.031 C 
ATOM     38  C   UNL A   1      39.424  26.667  27.990  1.00  0.00     0.029 A 
ATOM     39  N   UNL A   1      41.491  26.987  28.785  1.00  0.00    -0.354 N 
ATOM     40  C   UNL A   1      42.639  30.704  30.617  1.00  0.00     0.074 A 
ATOM     41  C   UNL A   1      41.555  31.661  30.587  1.00  0.00     0.031 C 
ATOM     42  C   UNL A   1      40.123  25.545  27.759  1.00  0.00     0.029 A 
ATOM     43  C   UNL A   1      41.482  25.718  28.263  1.00  0.00     0.049 A 
ATOM     44  H   UNL A   1      42.286  27.397  29.195  1.00  0.00     0.167 HD
ATOM     45  C   UNL A   1      43.867  30.957  31.133  1.00  0.00     0.031 A 
ATOM     46  C   UNL A   1      42.456  24.790  28.201  1.00  0.00     0.031 A 
ATOM     47  C   UNL A   1      44.949  30.010  31.170  1.00  0.00     0.049 A 
ATOM     48  C   UNL A   1      43.802  25.092  28.790  1.00  0.00     0.074 A 
ATOM     49  C   UNL A   1      46.212  30.163  31.718  1.00  0.00     0.029 A 
ATOM     50  N   UNL A   1      44.898  28.734  30.635  1.00  0.00    -0.354 N 
ATOM     51  N   UNL A   1      44.218  26.184  29.385  1.00  0.00    -0.248 NA
ATOM     52  C   UNL A   1      44.810  24.025  28.712  1.00  0.00     0.031 C 
ATOM     53  C   UNL A   1      46.937  28.990  31.479  1.00  0.00     0.029 A 
ATOM     54  C   UNL A   1      46.112  28.093  30.822  1.00  0.00     0.049 A 
ATOM     55  H   UNL A   1      44.114  28.339  30.187  1.00  0.00     0.167 HD
ATOM     56  C   UNL A   1      45.528  25.930  29.765  1.00  0.00     0.074 A 
ATOM     57  C   UNL A   1      45.831  24.574  29.354  1.00  0.00     0.031 C 
ATOM     58  C   UNL A   1      46.404  26.750  30.395  1.00  0.00     0.031 A 
BRANCH  45  59
ATOM     59  C   UNL A   1      44.102  32.328  31.704  1.00  0.00    -0.014 A 
ATOM     60  C   UNL A   1      44.627  33.361  30.910  1.00  0.00     0.009 A 
ATOM     61  C   UNL A   1      43.764  32.600  33.038  1.00  0.00     0.009 A 
ATOM     62  C   UNL A   1      44.839  34.630  31.452  1.00  0.00     0.001 A 
ATOM     63  C   UNL A   1      43.954  33.878  33.570  1.00  0.00     0.001 A 
ATOM     64  C   UNL A   1      44.499  34.889  32.780  1.00  0.00     0.000 A 
ENDBRANCH  45  59
BRANCH  46  65
ATOM     65  C   UNL A   1      42.181  23.471  27.577  1.00  0.00    -0.014 A 
ATOM     66  C   UNL A   1      41.577  22.447  28.320  1.00  0.00     0.009 A 
ATOM     67  C   UNL A   1      42.519  23.233  26.237  1.00  0.00     0.009 A 
ATOM     68  C   UNL A   1      41.337  21.199  27.738  1.00  0.00     0.001 A 
ATOM     69  C   UNL A   1      42.256  21.994  25.651  1.00  0.00     0.001 A 
ATOM     70  C   UNL A   1      41.673  20.976  26.404  1.00  0.00     0.000 A 
ENDBRANCH  46  65
BRANCH  58  71
ATOM     71  C   UNL A   1      47.767  26.191  30.687  1.00  0.00    -0.014 A 
ATOM     72  C   UNL A   1      48.760  26.147  29.696  1.00  0.00     0.009 A 
ATOM     73  C   UNL A   1      48.066  25.715  31.972  1.00  0.00     0.009 A 
ATOM     74  C   UNL A   1      50.014  25.602  29.976  1.00  0.00     0.001 A 
ATOM     75  C   UNL A   1      49.329  25.193  32.257  1.00  0.00     0.001 A 
ATOM     76  C   UNL A   1      50.298  25.127  31.256  1.00  0.00     0.000 A 
ENDBRANCH  58  71
ENDBRANCH  32  33
ENDBRANCH  24  27
ENDBRANCH  22  23
ENDBRANCH  21  22
ENDBRANCH   1  21
TORSDOF 13
ENDMDL
MODEL 3
REMARK VINA RESULT:     -11.2      3.144      7.702
REMARK SMILES C[C@@H](C(=O)NCCCNC(=O)c1ccc(-c2c3nc(c(-c4ccccc4)c4ccc([nH]4)c(-c4ccccc4)c4nc(c(-c5ccccc5)c5ccc2[nH]5)C=C4)C=C3)cc1)c1ccc(Cc2cccs2)cc1F
REMARK SMILES IDX 6 1 5 2 3 3 4 4 2 6 1 7 60 8 61 9 71 10 62 11 70 12 72 13
REMARK SMILES IDX 63 14 64 15 65 16 66 17 69 18 67 19 68 20 7 21 8 22 9 23
REMARK SMILES IDX 10 24 11 26 12 27 13 28 59 29 14 30 58 31 15 32 16 33 17 34
REMARK SMILES IDX 52 35 18 36 57 37 51 38 53 39 19 40 56 41 50 42 49 43 20 45
REMARK SMILES IDX 42 46 27 47 41 48 28 49 31 50 40 51 54 52 29 53 30 54 39 56
REMARK SMILES IDX 55 57 32 58 21 59 22 60 26 61 23 62 25 63 24 64 43 65 44 66
REMARK SMILES IDX 48 67 45 68 47 69 46 70 33 71 34 72 38 73 35 74 37 75 36 76
REMARK H PARENT 5 5 9 25 53 44 31 55
REMARK Flexibility Score: inf
ROOT
ATOM      1  C   UNL A   1      37.206  21.143  24.892  1.00  0.00     0.117 C 
ENDROOT
BRANCH   1   2
ATOM      2  N   UNL A   1      35.827  20.757  24.668  1.00  0.00    -0.356 N 
ATOM      3  C   UNL A   1      34.671  21.191  25.252  1.00  0.00     0.227 C 
ATOM      4  O   UNL A   1      33.625  20.711  24.813  1.00  0.00    -0.274 OA
ATOM      5  H   UNL A   1      35.702  20.064  23.980  1.00  0.00     0.163 HD
BRANCH   3   6
ATOM      6  C   UNL A   1      34.714  22.264  26.353  1.00  0.00     0.108 C 
ATOM      7  C   UNL A   1      34.050  21.798  27.652  1.00  0.00     0.023 C 
BRANCH   6   8
ATOM      8  C   UNL A   1      34.110  23.586  25.900  1.00  0.00    -0.000 A 
ATOM      9  C   UNL A   1      32.857  23.992  26.383  1.00  0.00     0.008 A 
ATOM     10  C   UNL A   1      34.768  24.425  24.992  1.00  0.00     0.127 A 
ATOM     11  C   UNL A   1      32.285  25.193  25.955  1.00  0.00     0.004 A 
ATOM     12  C   UNL A   1      34.199  25.620  24.555  1.00  0.00     0.043 A 
ATOM     13  F   UNL A   1      35.968  24.078  24.503  1.00  0.00    -0.207 F 
ATOM     14  C   UNL A   1      32.946  26.018  25.032  1.00  0.00    -0.040 A 
BRANCH  14  15
ATOM     15  C   UNL A   1      32.310  27.303  24.549  1.00  0.00     0.082 C 
BRANCH  15  16
ATOM     16  C   UNL A   1      32.477  28.447  25.512  1.00  0.00     0.009 A 
ATOM     17  C   UNL A   1      33.351  28.556  26.578  1.00  0.00     0.016 A 
ATOM     18  S   UNL A   1      31.535  29.869  25.335  1.00  0.00    -0.149 S 
ATOM     19  C   UNL A   1      33.243  29.807  27.249  1.00  0.00     0.012 A 
ATOM     20  C   UNL A   1      32.297  30.621  26.668  1.00  0.00     0.065 A 
ENDBRANCH  15  16
ENDBRANCH  14  15
ENDBRANCH   6   8
ENDBRANCH   3   6
ENDBRANCH   1   2
BRANCH   1  21
ATOM     21  C   UNL A   1      38.144  19.938  24.957  1.00  0.00     0.042 C 
BRANCH  21  22
ATOM     22  C   UNL A   1      39.133  19.954  26.120  1.00  0.00     0.118 C 
BRANCH  22  23
ATOM     23  N   UNL A   1      40.383  19.278  25.814  1.00  0.00    -0.352 N 
ATOM     24  C   UNL A   1      41.681  19.713  25.895  1.00  0.00     0.251 C 
ATOM     25  H   UNL A   1      40.281  18.352  25.495  1.00  0.00     0.163 HD
ATOM     26  O   UNL A   1      42.575  19.005  25.432  1.00  0.00    -0.269 OA
BRANCH  24  27
ATOM     27  C   UNL A   1      42.031  21.018  26.504  1.00  0.00     0.039 A 
ATOM     28  C   UNL A   1      42.377  22.070  25.648  1.00  0.00     0.014 A 
ATOM     29  C   UNL A   1      42.086  21.208  27.888  1.00  0.00     0.014 A 
ATOM     30  C   UNL A   1      42.722  23.317  26.174  1.00  0.00     0.010 A 
ATOM     31  C   UNL A   1      42.369  22.472  28.411  1.00  0.00     0.010 A 
ATOM     32  C   UNL A   1      42.693  23.538  27.561  1.00  0.00    -0.014 A 
BRANCH  32  33
ATOM     33  C   UNL A   1      42.985  24.886  28.114  1.00  0.00     0.031 A 
ATOM     34  C   UNL A   1      44.392  25.302  28.441  1.00  0.00     0.074 A 
ATOM     35  C   UNL A   1      41.965  25.737  28.345  1.00  0.00     0.049 A 
ATOM     36  N   UNL A   1      44.826  26.448  28.903  1.00  0.00    -0.248 NA
ATOM     37  C   UNL A   1      45.447  24.296  28.242  1.00  0.00     0.031 C 
ATOM     38  C   UNL A   1      40.549  25.444  28.117  1.00  0.00     0.029 A 
ATOM     39  N   UNL A   1      41.967  27.026  28.818  1.00  0.00    -0.354 N 
ATOM     40  C   UNL A   1      46.198  26.300  29.056  1.00  0.00     0.074 A 
ATOM     41  C   UNL A   1      46.520  24.940  28.681  1.00  0.00     0.031 C 
ATOM     42  C   UNL A   1      39.822  26.531  28.420  1.00  0.00     0.029 A 
ATOM     43  C   UNL A   1      40.716  27.587  28.886  1.00  0.00     0.049 A 
ATOM     44  H   UNL A   1      42.787  27.501  29.083  1.00  0.00     0.167 HD
ATOM     45  C   UNL A   1      47.113  27.218  29.455  1.00  0.00     0.031 A 
ATOM     46  C   UNL A   1      40.328  28.816  29.273  1.00  0.00     0.031 A 
ATOM     47  C   UNL A   1      46.802  28.573  29.826  1.00  0.00     0.049 A 
ATOM     48  C   UNL A   1      41.361  29.817  29.700  1.00  0.00     0.074 A 
ATOM     49  C   UNL A   1      47.669  29.587  30.196  1.00  0.00     0.029 A 
ATOM     50  N   UNL A   1      45.523  29.102  29.877  1.00  0.00    -0.354 N 
ATOM     51  N   UNL A   1      42.663  29.680  29.772  1.00  0.00    -0.248 NA
ATOM     52  C   UNL A   1      40.870  31.148  30.083  1.00  0.00     0.031 C 
ATOM     53  C   UNL A   1      46.909  30.721  30.508  1.00  0.00     0.029 A 
ATOM     54  C   UNL A   1      45.574  30.424  30.290  1.00  0.00     0.049 A 
ATOM     55  H   UNL A   1      44.699  28.613  29.652  1.00  0.00     0.167 HD
ATOM     56  C   UNL A   1      43.147  30.911  30.195  1.00  0.00     0.074 A 
ATOM     57  C   UNL A   1      42.003  31.787  30.340  1.00  0.00     0.031 C 
ATOM     58  C   UNL A   1      44.428  31.279  30.444  1.00  0.00     0.031 A 
BRANCH  45  59
ATOM     59  C   UNL A   1      48.549  26.777  29.512  1.00  0.00    -0.014 A 
ATOM     60  C   UNL A   1      49.090  26.225  30.684  1.00  0.00     0.009 A 
ATOM     61  C   UNL A   1      49.360  26.882  28.372  1.00  0.00     0.009 A 
ATOM     62  C   UNL A   1      50.425  25.818  30.722  1.00  0.00     0.001 A 
ATOM     63  C   UNL A   1      50.689  26.450  28.407  1.00  0.00     0.001 A 
ATOM     64  C   UNL A   1      51.222  25.927  29.583  1.00  0.00     0.000 A 
ENDBRANCH  45  59
BRANCH  46  65
ATOM     65  C   UNL A   1      38.888  29.179  29.247  1.00  0.00    -0.014 A 
ATOM     66  C   UNL A   1      38.095  29.016  30.392  1.00  0.00     0.009 A 
ATOM     67  C   UNL A   1      38.304  29.692  28.080  1.00  0.00     0.009 A 
ATOM     68  C   UNL A   1      36.736  29.339  30.362  1.00  0.00     0.001 A 
ATOM     69  C   UNL A   1      36.951  30.036  28.060  1.00  0.00     0.001 A 
ATOM     70  C   UNL A   1      36.167  29.852  29.197  1.00  0.00     0.000 A 
ENDBRANCH  46  65
BRANCH  58  71
ATOM     71  C   UNL A   1      44.651  32.697  30.886  1.00  0.00    -0.014 A 
ATOM     72  C   UNL A   1      44.658  33.039  32.248  1.00  0.00     0.009 A 
ATOM     73  C   UNL A   1      44.871  33.700  29.931  1.00  0.00     0.009 A 
ATOM     74  C   UNL A   1      44.842  34.366  32.641  1.00  0.00     0.001 A 
ATOM     75  C   UNL A   1      45.080  35.022  30.328  1.00  0.00     0.001 A 
ATOM     76  C   UNL A   1      45.055  35.355  31.682  1.00  0.00     0.000 A 
ENDBRANCH  58  71
ENDBRANCH  32  33
ENDBRANCH  24  27
ENDBRANCH  22  23
ENDBRANCH  21  22
ENDBRANCH   1  21
TORSDOF 13
ENDMDL
