MODEL 1
REMARK VINA RESULT:     -10.0      0.000      0.000
REMARK SMILES C#CC[NH2+]CC(=O)N1CC[C@](CCC)(C(=O)NCCCNC(=O)c2ccc(-c3c4nc(c(-c5ccccc5)c5ccc([nH]5)c(-c5ccccc5)c5nc(c(-c6ccccc6)c6ccc3[nH]6)C=C5)C=C4)cc2)C1
REMARK SMILES IDX 15 1 16 2 17 3 11 5 8 6 9 7 72 8 10 9 6 10 7 11 5 12 4 13
REMARK SMILES IDX 3 16 2 17 1 18 12 19 13 20 14 21 18 22 19 23 20 24 21 25
REMARK SMILES IDX 22 26 23 28 24 29 25 30 71 31 26 32 70 33 27 34 28 35 29 36
REMARK SMILES IDX 64 37 30 38 69 39 63 40 65 41 31 42 68 43 62 44 61 45 32 47
REMARK SMILES IDX 54 48 39 49 53 50 40 51 43 52 52 53 66 54 41 55 42 56 51 58
REMARK SMILES IDX 67 59 44 60 33 61 34 62 38 63 35 64 37 65 36 66 55 67 56 68
REMARK SMILES IDX 60 69 57 70 59 71 58 72 45 73 46 74 50 75 47 76 49 77 48 78
REMARK H PARENT 17 4 4 14 4 15 21 27 65 46 43 57
REMARK Flexibility Score: inf
ROOT
ATOM      1  C   UNL A   1      36.196  22.849  25.839  1.00  0.00     0.228 C 
ATOM      2  O   UNL A   1      36.701  23.933  26.116  1.00  0.00    -0.274 OA
ATOM      3  N   UNL A   1      37.020  21.761  25.706  1.00  0.00    -0.355 N 
ATOM      4  H   UNL A   1      37.939  21.881  26.041  1.00  0.00     0.163 HD
ENDROOT
BRANCH   1   5
ATOM      5  C   UNL A   1      34.689  22.617  25.767  1.00  0.00     0.068 C 
ATOM      6  N   UNL A   1      32.725  23.486  26.789  1.00  0.00    -0.337 N 
ATOM      7  C   UNL A   1      33.014  22.233  27.452  1.00  0.00     0.121 C 
ATOM      8  C   UNL A   1      33.892  23.919  26.023  1.00  0.00     0.136 C 
ATOM      9  C   UNL A   1      34.412  21.861  27.087  1.00  0.00     0.040 C 
BRANCH   6  10
ATOM     10  C   UNL A   1      31.531  24.196  26.778  1.00  0.00     0.277 C 
ATOM     11  O   UNL A   1      30.498  23.714  27.249  1.00  0.00    -0.268 OA
BRANCH  10  12
ATOM     12  C   UNL A   1      31.504  25.615  26.150  1.00  0.00     0.362 C 
BRANCH  12  13
ATOM     13  N   UNL A   1      31.362  26.731  27.128  1.00  0.00    -0.328 N 
ATOM     14  H   UNL A   1      30.404  26.767  27.474  1.00  0.00     0.347 HD
ATOM     15  H   UNL A   1      31.989  26.589  27.919  1.00  0.00     0.347 HD
BRANCH  13  16
ATOM     16  C   UNL A   1      31.684  27.965  26.450  1.00  0.00     0.352 C 
BRANCH  16  17
ATOM     17  C   UNL A   1      33.037  28.608  26.707  1.00  0.00    -0.047 C 
ATOM     18  C   UNL A   1      34.198  29.158  26.927  1.00  0.00     0.010 C 
ENDBRANCH  16  17
ENDBRANCH  13  16
ENDBRANCH  12  13
ENDBRANCH  10  12
ENDBRANCH   6  10
BRANCH   5  19
ATOM     19  C   UNL A   1      34.258  22.052  24.364  1.00  0.00     0.018 C 
BRANCH  19  20
ATOM     20  C   UNL A   1      34.241  22.931  23.101  1.00  0.00    -0.002 C 
ATOM     21  C   UNL A   1      32.921  22.961  22.344  1.00  0.00     0.004 C 
ENDBRANCH  19  20
ENDBRANCH   5  19
ENDBRANCH   1   5
BRANCH   3  22
ATOM     22  C   UNL A   1      36.725  20.455  25.142  1.00  0.00     0.117 C 
BRANCH  22  23
ATOM     23  C   UNL A   1      38.012  19.744  24.789  1.00  0.00     0.042 C 
BRANCH  23  24
ATOM     24  C   UNL A   1      39.099  20.156  25.752  1.00  0.00     0.118 C 
BRANCH  24  25
ATOM     25  N   UNL A   1      40.099  19.105  25.902  1.00  0.00    -0.352 N 
ATOM     26  C   UNL A   1      41.449  19.240  26.088  1.00  0.00     0.251 C 
ATOM     27  H   UNL A   1      39.761  18.181  25.864  1.00  0.00     0.163 HD
ATOM     28  O   UNL A   1      42.199  18.277  25.961  1.00  0.00    -0.269 OA
BRANCH  26  29
ATOM     29  C   UNL A   1      41.980  20.574  26.416  1.00  0.00     0.039 A 
ATOM     30  C   UNL A   1      42.291  21.458  25.385  1.00  0.00     0.014 A 
ATOM     31  C   UNL A   1      42.100  20.962  27.753  1.00  0.00     0.014 A 
ATOM     32  C   UNL A   1      42.674  22.759  25.701  1.00  0.00     0.010 A 
ATOM     33  C   UNL A   1      42.349  22.288  28.059  1.00  0.00     0.010 A 
ATOM     34  C   UNL A   1      42.669  23.191  27.039  1.00  0.00    -0.014 A 
BRANCH  34  35
ATOM     35  C   UNL A   1      43.037  24.577  27.407  1.00  0.00     0.031 A 
ATOM     36  C   UNL A   1      44.481  24.997  27.351  1.00  0.00     0.074 A 
ATOM     37  C   UNL A   1      42.090  25.427  27.844  1.00  0.00     0.049 A 
ATOM     38  N   UNL A   1      45.020  26.141  27.687  1.00  0.00    -0.248 NA
ATOM     39  C   UNL A   1      45.453  23.988  26.896  1.00  0.00     0.031 C 
ATOM     40  C   UNL A   1      40.665  25.116  27.984  1.00  0.00     0.029 A 
ATOM     41  N   UNL A   1      42.186  26.732  28.252  1.00  0.00    -0.354 N 
ATOM     42  C   UNL A   1      46.388  25.977  27.503  1.00  0.00     0.074 A 
ATOM     43  C   UNL A   1      46.605  24.608  27.100  1.00  0.00     0.031 C 
ATOM     44  C   UNL A   1      40.015  26.215  28.400  1.00  0.00     0.029 A 
ATOM     45  C   UNL A   1      40.980  27.288  28.603  1.00  0.00     0.049 A 
ATOM     46  H   UNL A   1      43.038  27.224  28.290  1.00  0.00     0.167 HD
ATOM     47  C   UNL A   1      47.374  26.894  27.629  1.00  0.00     0.031 A 
ATOM     48  C   UNL A   1      40.691  28.527  29.039  1.00  0.00     0.031 A 
ATOM     49  C   UNL A   1      47.150  28.260  28.015  1.00  0.00     0.049 A 
ATOM     50  C   UNL A   1      41.807  29.522  29.190  1.00  0.00     0.074 A 
ATOM     51  C   UNL A   1      48.067  29.288  28.119  1.00  0.00     0.029 A 
ATOM     52  N   UNL A   1      45.914  28.783  28.363  1.00  0.00    -0.354 N 
ATOM     53  N   UNL A   1      43.086  29.376  28.941  1.00  0.00    -0.248 NA
ATOM     54  C   UNL A   1      41.435  30.859  29.673  1.00  0.00     0.031 C 
ATOM     55  C   UNL A   1      47.396  30.421  28.588  1.00  0.00     0.029 A 
ATOM     56  C   UNL A   1      46.049  30.116  28.710  1.00  0.00     0.049 A 
ATOM     57  H   UNL A   1      45.066  28.282  28.363  1.00  0.00     0.167 HD
ATOM     58  C   UNL A   1      43.667  30.609  29.206  1.00  0.00     0.074 A 
ATOM     59  C   UNL A   1      42.597  31.495  29.617  1.00  0.00     0.031 C 
ATOM     60  C   UNL A   1      44.968  30.978  29.116  1.00  0.00     0.031 A 
BRANCH  47  61
ATOM     61  C   UNL A   1      48.780  26.438  27.350  1.00  0.00    -0.014 A 
ATOM     62  C   UNL A   1      49.318  26.476  26.052  1.00  0.00     0.009 A 
ATOM     63  C   UNL A   1      49.586  25.976  28.402  1.00  0.00     0.009 A 
ATOM     64  C   UNL A   1      50.613  26.017  25.808  1.00  0.00     0.001 A 
ATOM     65  C   UNL A   1      50.894  25.551  28.160  1.00  0.00     0.001 A 
ATOM     66  C   UNL A   1      51.402  25.560  26.862  1.00  0.00     0.000 A 
ENDBRANCH  47  61
BRANCH  48  67
ATOM     67  C   UNL A   1      39.284  28.904  29.341  1.00  0.00    -0.014 A 
ATOM     68  C   UNL A   1      38.484  29.509  28.358  1.00  0.00     0.009 A 
ATOM     69  C   UNL A   1      38.734  28.671  30.610  1.00  0.00     0.009 A 
ATOM     70  C   UNL A   1      37.176  29.900  28.650  1.00  0.00     0.001 A 
ATOM     71  C   UNL A   1      37.415  29.034  30.889  1.00  0.00     0.001 A 
ATOM     72  C   UNL A   1      36.641  29.658  29.913  1.00  0.00     0.000 A 
ENDBRANCH  48  67
BRANCH  60  73
ATOM     73  C   UNL A   1      45.299  32.411  29.428  1.00  0.00    -0.014 A 
ATOM     74  C   UNL A   1      45.850  32.782  30.664  1.00  0.00     0.009 A 
ATOM     75  C   UNL A   1      45.092  33.396  28.449  1.00  0.00     0.009 A 
ATOM     76  C   UNL A   1      46.153  34.120  30.925  1.00  0.00     0.001 A 
ATOM     77  C   UNL A   1      45.428  34.726  28.702  1.00  0.00     0.001 A 
ATOM     78  C   UNL A   1      45.948  35.088  29.943  1.00  0.00     0.000 A 
ENDBRANCH  60  73
ENDBRANCH  34  35
ENDBRANCH  26  29
ENDBRANCH  24  25
ENDBRANCH  23  24
ENDBRANCH  22  23
ENDBRANCH   3  22
TORSDOF 17
ENDMDL
MODEL 2
REMARK VINA RESULT:     -10.0      1.634      3.266
REMARK SMILES C#CC[NH2+]CC(=O)N1CC[C@](CCC)(C(=O)NCCCNC(=O)c2ccc(-c3c4nc(c(-c5ccccc5)c5ccc([nH]5)c(-c5ccccc5)c5nc(c(-c6ccccc6)c6ccc3[nH]6)C=C5)C=C4)cc2)C1
REMARK SMILES IDX 15 1 16 2 17 3 11 5 8 6 9 7 72 8 10 9 6 10 7 11 5 12 4 13
REMARK SMILES IDX 3 16 2 17 1 18 12 19 13 20 14 21 18 22 19 23 20 24 21 25
REMARK SMILES IDX 22 26 23 28 24 29 25 30 71 31 26 32 70 33 27 34 28 35 29 36
REMARK SMILES IDX 64 37 30 38 69 39 63 40 65 41 31 42 68 43 62 44 61 45 32 47
REMARK SMILES IDX 54 48 39 49 53 50 40 51 43 52 52 53 66 54 41 55 42 56 51 58
REMARK SMILES IDX 67 59 44 60 33 61 34 62 38 63 35 64 37 65 36 66 55 67 56 68
REMARK SMILES IDX 60 69 57 70 59 71 58 72 45 73 46 74 50 75 47 76 49 77 48 78
REMARK H PARENT 17 4 4 14 4 15 21 27 65 46 43 57
REMARK Flexibility Score: inf
ROOT
ATOM      1  C   UNL A   1      36.822  23.108  25.706  1.00  0.00     0.228 C 
ATOM      2  O   UNL A   1      37.442  24.080  26.133  1.00  0.00    -0.274 OA
ATOM      3  N   UNL A   1      37.495  21.925  25.545  1.00  0.00    -0.355 N 
ATOM      4  H   UNL A   1      38.381  21.879  25.973  1.00  0.00     0.163 HD
ENDROOT
BRANCH   1   5
ATOM      5  C   UNL A   1      35.314  23.110  25.473  1.00  0.00     0.068 C 
ATOM      6  N   UNL A   1      33.623  21.544  24.885  1.00  0.00    -0.337 N 
ATOM      7  C   UNL A   1      33.938  22.282  23.681  1.00  0.00     0.121 C 
ATOM      8  C   UNL A   1      34.664  21.768  25.886  1.00  0.00     0.136 C 
ATOM      9  C   UNL A   1      35.221  22.998  23.933  1.00  0.00     0.040 C 
BRANCH   6  10
ATOM     10  C   UNL A   1      32.496  20.777  25.152  1.00  0.00     0.277 C 
ATOM     11  O   UNL A   1      31.457  21.293  25.572  1.00  0.00    -0.268 OA
BRANCH  10  12
ATOM     12  C   UNL A   1      32.558  19.243  24.925  1.00  0.00     0.362 C 
BRANCH  12  13
ATOM     13  N   UNL A   1      32.746  18.432  26.161  1.00  0.00    -0.328 N 
ATOM     14  H   UNL A   1      33.479  18.846  26.738  1.00  0.00     0.347 HD
ATOM     15  H   UNL A   1      31.883  18.408  26.703  1.00  0.00     0.347 HD
BRANCH  13  16
ATOM     16  C   UNL A   1      33.128  17.096  25.768  1.00  0.00     0.352 C 
BRANCH  16  17
ATOM     17  C   UNL A   1      33.649  16.871  24.358  1.00  0.00    -0.047 C 
ATOM     18  C   UNL A   1      34.096  16.679  23.150  1.00  0.00     0.010 C 
ENDBRANCH  16  17
ENDBRANCH  13  16
ENDBRANCH  12  13
ENDBRANCH  10  12
ENDBRANCH   6  10
BRANCH   5  19
ATOM     19  C   UNL A   1      34.606  24.260  26.279  1.00  0.00     0.018 C 
BRANCH  19  20
ATOM     20  C   UNL A   1      33.930  25.452  25.576  1.00  0.00    -0.002 C 
ATOM     21  C   UNL A   1      32.508  25.753  26.026  1.00  0.00     0.004 C 
ENDBRANCH  19  20
ENDBRANCH   5  19
ENDBRANCH   1   5
BRANCH   3  22
ATOM     22  C   UNL A   1      37.082  20.728  24.832  1.00  0.00     0.117 C 
BRANCH  22  23
ATOM     23  C   UNL A   1      38.154  19.668  24.942  1.00  0.00     0.042 C 
BRANCH  23  24
ATOM     24  C   UNL A   1      39.330  20.214  25.715  1.00  0.00     0.118 C 
BRANCH  24  25
ATOM     25  N   UNL A   1      40.367  19.202  25.884  1.00  0.00    -0.352 N 
ATOM     26  C   UNL A   1      41.693  19.388  26.172  1.00  0.00     0.251 C 
ATOM     27  H   UNL A   1      40.077  18.267  25.778  1.00  0.00     0.163 HD
ATOM     28  O   UNL A   1      42.495  18.466  26.051  1.00  0.00    -0.269 OA
BRANCH  26  29
ATOM     29  C   UNL A   1      42.136  20.725  26.600  1.00  0.00     0.039 A 
ATOM     30  C   UNL A   1      42.463  21.678  25.637  1.00  0.00     0.014 A 
ATOM     31  C   UNL A   1      42.156  21.045  27.960  1.00  0.00     0.014 A 
ATOM     32  C   UNL A   1      42.759  22.976  26.043  1.00  0.00     0.010 A 
ATOM     33  C   UNL A   1      42.319  22.363  28.349  1.00  0.00     0.010 A 
ATOM     34  C   UNL A   1      42.653  23.335  27.399  1.00  0.00    -0.014 A 
BRANCH  34  35
ATOM     35  C   UNL A   1      42.929  24.714  27.860  1.00  0.00     0.031 A 
ATOM     36  C   UNL A   1      44.349  25.136  28.121  1.00  0.00     0.074 A 
ATOM     37  C   UNL A   1      41.906  25.556  28.099  1.00  0.00     0.049 A 
ATOM     38  N   UNL A   1      44.799  26.274  28.583  1.00  0.00    -0.248 NA
ATOM     39  C   UNL A   1      45.400  24.135  27.867  1.00  0.00     0.031 C 
ATOM     40  C   UNL A   1      40.485  25.241  27.925  1.00  0.00     0.029 A 
ATOM     41  N   UNL A   1      41.907  26.853  28.539  1.00  0.00    -0.354 N 
ATOM     42  C   UNL A   1      46.175  26.114  28.693  1.00  0.00     0.074 A 
ATOM     43  C   UNL A   1      46.479  24.752  28.323  1.00  0.00     0.031 C 
ATOM     44  C   UNL A   1      39.757  26.333  28.210  1.00  0.00     0.029 A 
ATOM     45  C   UNL A   1      40.651  27.403  28.633  1.00  0.00     0.049 A 
ATOM     46  H   UNL A   1      42.729  27.345  28.766  1.00  0.00     0.167 HD
ATOM     47  C   UNL A   1      47.108  27.030  29.042  1.00  0.00     0.031 A 
ATOM     48  C   UNL A   1      40.270  28.634  29.018  1.00  0.00     0.031 A 
ATOM     49  C   UNL A   1      46.800  28.388  29.394  1.00  0.00     0.049 A 
ATOM     50  C   UNL A   1      41.324  29.627  29.420  1.00  0.00     0.074 A 
ATOM     51  C   UNL A   1      47.670  29.415  29.709  1.00  0.00     0.029 A 
ATOM     52  N   UNL A   1      45.516  28.905  29.478  1.00  0.00    -0.354 N 
ATOM     53  N   UNL A   1      42.628  29.486  29.448  1.00  0.00    -0.248 NA
ATOM     54  C   UNL A   1      40.853  30.956  29.835  1.00  0.00     0.031 C 
ATOM     55  C   UNL A   1      46.909  30.540  30.042  1.00  0.00     0.029 A 
ATOM     56  C   UNL A   1      45.569  30.232  29.868  1.00  0.00     0.049 A 
ATOM     57  H   UNL A   1      44.690  28.403  29.289  1.00  0.00     0.167 HD
ATOM     58  C   UNL A   1      43.134  30.715  29.852  1.00  0.00     0.074 A 
ATOM     59  C   UNL A   1      41.997  31.593  30.039  1.00  0.00     0.031 C 
ATOM     60  C   UNL A   1      44.422  31.086  30.048  1.00  0.00     0.031 A 
BRANCH  47  61
ATOM     61  C   UNL A   1      48.543  26.579  29.063  1.00  0.00    -0.014 A 
ATOM     62  C   UNL A   1      49.132  26.066  30.231  1.00  0.00     0.009 A 
ATOM     63  C   UNL A   1      49.316  26.656  27.894  1.00  0.00     0.009 A 
ATOM     64  C   UNL A   1      50.474  25.684  30.239  1.00  0.00     0.001 A 
ATOM     65  C   UNL A   1      50.649  26.240  27.896  1.00  0.00     0.001 A 
ATOM     66  C   UNL A   1      51.230  25.766  29.071  1.00  0.00     0.000 A 
ENDBRANCH  47  61
BRANCH  48  67
ATOM     67  C   UNL A   1      38.830  29.005  29.018  1.00  0.00    -0.014 A 
ATOM     68  C   UNL A   1      38.224  29.501  27.852  1.00  0.00     0.009 A 
ATOM     69  C   UNL A   1      38.054  28.874  30.179  1.00  0.00     0.009 A 
ATOM     70  C   UNL A   1      36.883  29.887  27.860  1.00  0.00     0.001 A 
ATOM     71  C   UNL A   1      36.704  29.231  30.175  1.00  0.00     0.001 A 
ATOM     72  C   UNL A   1      36.123  29.748  29.019  1.00  0.00     0.000 A 
ENDBRANCH  48  67
BRANCH  60  73
ATOM     73  C   UNL A   1      44.672  32.513  30.447  1.00  0.00    -0.014 A 
ATOM     74  C   UNL A   1      44.830  33.525  29.488  1.00  0.00     0.009 A 
ATOM     75  C   UNL A   1      44.708  32.852  31.809  1.00  0.00     0.009 A 
ATOM     76  C   UNL A   1      45.056  34.844  29.887  1.00  0.00     0.001 A 
ATOM     77  C   UNL A   1      44.899  34.177  32.204  1.00  0.00     0.001 A 
ATOM     78  C   UNL A   1      45.083  35.169  31.243  1.00  0.00     0.000 A 
ENDBRANCH  60  73
ENDBRANCH  34  35
ENDBRANCH  26  29
ENDBRANCH  24  25
ENDBRANCH  23  24
ENDBRANCH  22  23
ENDBRANCH   3  22
TORSDOF 17
ENDMDL
MODEL 3
REMARK VINA RESULT:      -9.8      1.908      2.410
REMARK SMILES C#CC[NH2+]CC(=O)N1CC[C@](CCC)(C(=O)NCCCNC(=O)c2ccc(-c3c4nc(c(-c5ccccc5)c5ccc([nH]5)c(-c5ccccc5)c5nc(c(-c6ccccc6)c6ccc3[nH]6)C=C5)C=C4)cc2)C1
REMARK SMILES IDX 15 1 16 2 17 3 11 5 8 6 9 7 72 8 10 9 6 10 7 11 5 12 4 13
REMARK SMILES IDX 3 16 2 17 1 18 12 19 13 20 14 21 18 22 19 23 20 24 21 25
REMARK SMILES IDX 22 26 23 28 24 29 25 30 71 31 26 32 70 33 27 34 28 35 29 36
REMARK SMILES IDX 64 37 30 38 69 39 63 40 65 41 31 42 68 43 62 44 61 45 32 47
REMARK SMILES IDX 54 48 39 49 53 50 40 51 43 52 52 53 66 54 41 55 42 56 51 58
REMARK SMILES IDX 67 59 44 60 33 61 34 62 38 63 35 64 37 65 36 66 55 67 56 68
REMARK SMILES IDX 60 69 57 70 59 71 58 72 45 73 46 74 50 75 47 76 49 77 48 78
REMARK H PARENT 17 4 4 14 4 15 21 27 65 46 43 57
REMARK Flexibility Score: inf
ROOT
ATOM      1  C   UNL A   1      34.547  21.613  26.312  1.00  0.00     0.228 C 
ATOM      2  O   UNL A   1      34.179  21.682  27.482  1.00  0.00    -0.274 OA
ATOM      3  N   UNL A   1      35.769  21.052  26.044  1.00  0.00    -0.355 N 
ATOM      4  H   UNL A   1      36.182  20.558  26.790  1.00  0.00     0.163 HD
ENDROOT
BRANCH   1   5
ATOM      5  C   UNL A   1      33.661  21.995  25.128  1.00  0.00     0.068 C 
ATOM      6  N   UNL A   1      33.286  23.901  23.755  1.00  0.00    -0.337 N 
ATOM      7  C   UNL A   1      32.205  23.866  24.717  1.00  0.00     0.121 C 
ATOM      8  C   UNL A   1      34.359  23.008  24.188  1.00  0.00     0.136 C 
ATOM      9  C   UNL A   1      32.610  22.915  25.792  1.00  0.00     0.040 C 
BRANCH   6  10
ATOM     10  C   UNL A   1      33.343  24.594  22.553  1.00  0.00     0.277 C 
ATOM     11  O   UNL A   1      33.446  23.999  21.478  1.00  0.00    -0.268 OA
BRANCH  10  12
ATOM     12  C   UNL A   1      33.287  26.145  22.574  1.00  0.00     0.362 C 
BRANCH  12  13
ATOM     13  N   UNL A   1      32.296  26.750  21.640  1.00  0.00    -0.328 N 
ATOM     14  H   UNL A   1      32.666  27.621  21.261  1.00  0.00     0.347 HD
ATOM     15  H   UNL A   1      32.106  26.114  20.866  1.00  0.00     0.347 HD
BRANCH  13  16
ATOM     16  C   UNL A   1      31.084  27.014  22.380  1.00  0.00     0.352 C 
BRANCH  16  17
ATOM     17  C   UNL A   1      31.198  27.517  23.810  1.00  0.00    -0.047 C 
ATOM     18  C   UNL A   1      31.296  27.949  25.035  1.00  0.00     0.010 C 
ENDBRANCH  16  17
ENDBRANCH  13  16
ENDBRANCH  12  13
ENDBRANCH  10  12
ENDBRANCH   6  10
BRANCH   5  19
ATOM     19  C   UNL A   1      33.262  20.736  24.276  1.00  0.00     0.018 C 
BRANCH  19  20
ATOM     20  C   UNL A   1      33.104  19.340  24.907  1.00  0.00    -0.002 C 
ATOM     21  C   UNL A   1      34.003  18.257  24.328  1.00  0.00     0.004 C 
ENDBRANCH  19  20
ENDBRANCH   5  19
ENDBRANCH   1   5
BRANCH   3  22
ATOM     22  C   UNL A   1      36.539  21.084  24.813  1.00  0.00     0.117 C 
BRANCH  22  23
ATOM     23  C   UNL A   1      37.602  20.009  24.842  1.00  0.00     0.042 C 
BRANCH  23  24
ATOM     24  C   UNL A   1      38.792  20.495  25.634  1.00  0.00     0.118 C 
BRANCH  24  25
ATOM     25  N   UNL A   1      39.794  19.445  25.779  1.00  0.00    -0.352 N 
ATOM     26  C   UNL A   1      41.118  19.577  26.103  1.00  0.00     0.251 C 
ATOM     27  H   UNL A   1      39.479  18.525  25.626  1.00  0.00     0.163 HD
ATOM     28  O   UNL A   1      41.895  18.638  25.959  1.00  0.00    -0.269 OA
BRANCH  26  29
ATOM     29  C   UNL A   1      41.591  20.881  26.600  1.00  0.00     0.039 A 
ATOM     30  C   UNL A   1      41.997  21.853  25.688  1.00  0.00     0.014 A 
ATOM     31  C   UNL A   1      41.561  21.151  27.971  1.00  0.00     0.014 A 
ATOM     32  C   UNL A   1      42.324  23.124  26.155  1.00  0.00     0.010 A 
ATOM     33  C   UNL A   1      41.756  22.447  28.415  1.00  0.00     0.010 A 
ATOM     34  C   UNL A   1      42.169  23.438  27.516  1.00  0.00    -0.014 A 
BRANCH  34  35
ATOM     35  C   UNL A   1      42.475  24.789  28.039  1.00  0.00     0.031 A 
ATOM     36  C   UNL A   1      43.888  25.127  28.429  1.00  0.00     0.074 A 
ATOM     37  C   UNL A   1      41.480  25.677  28.218  1.00  0.00     0.049 A 
ATOM     38  N   UNL A   1      44.355  26.228  28.961  1.00  0.00    -0.248 NA
ATOM     39  C   UNL A   1      44.905  24.079  28.233  1.00  0.00     0.031 C 
ATOM     40  C   UNL A   1      40.065  25.444  27.919  1.00  0.00     0.029 A 
ATOM     41  N   UNL A   1      41.510  26.961  28.696  1.00  0.00    -0.354 N 
ATOM     42  C   UNL A   1      45.707  25.992  29.179  1.00  0.00     0.074 A 
ATOM     43  C   UNL A   1      45.971  24.626  28.794  1.00  0.00     0.031 C 
ATOM     44  C   UNL A   1      39.371  26.564  28.176  1.00  0.00     0.029 A 
ATOM     45  C   UNL A   1      40.281  27.574  28.703  1.00  0.00     0.049 A 
ATOM     46  H   UNL A   1      42.335  27.402  29.005  1.00  0.00     0.167 HD
ATOM     47  C   UNL A   1      46.653  26.847  29.630  1.00  0.00     0.031 A 
ATOM     48  C   UNL A   1      39.933  28.814  29.092  1.00  0.00     0.031 A 
ATOM     49  C   UNL A   1      46.387  28.211  29.997  1.00  0.00     0.049 A 
ATOM     50  C   UNL A   1      40.998  29.739  29.609  1.00  0.00     0.074 A 
ATOM     51  C   UNL A   1      47.278  29.181  30.412  1.00  0.00     0.029 A 
ATOM     52  N   UNL A   1      45.128  28.793  29.990  1.00  0.00    -0.354 N 
ATOM     53  N   UNL A   1      42.286  29.527  29.740  1.00  0.00    -0.248 NA
ATOM     54  C   UNL A   1      40.562  31.079  30.023  1.00  0.00     0.031 C 
ATOM     55  C   UNL A   1      46.550  30.336  30.715  1.00  0.00     0.029 A 
ATOM     56  C   UNL A   1      45.216  30.104  30.423  1.00  0.00     0.049 A 
ATOM     57  H   UNL A   1      44.297  28.341  29.719  1.00  0.00     0.167 HD
ATOM     58  C   UNL A   1      42.818  30.717  30.220  1.00  0.00     0.074 A 
ATOM     59  C   UNL A   1      41.716  31.649  30.339  1.00  0.00     0.031 C 
ATOM     60  C   UNL A   1      44.103  31.014  30.533  1.00  0.00     0.031 A 
BRANCH  47  61
ATOM     61  C   UNL A   1      48.057  26.321  29.756  1.00  0.00    -0.014 A 
ATOM     62  C   UNL A   1      48.954  26.364  28.675  1.00  0.00     0.009 A 
ATOM     63  C   UNL A   1      48.495  25.784  30.977  1.00  0.00     0.009 A 
ATOM     64  C   UNL A   1      50.241  25.841  28.800  1.00  0.00     0.001 A 
ATOM     65  C   UNL A   1      49.795  25.293  31.110  1.00  0.00     0.001 A 
ATOM     66  C   UNL A   1      50.663  25.310  30.019  1.00  0.00     0.000 A 
ENDBRANCH  47  61
BRANCH  48  67
ATOM     67  C   UNL A   1      38.518  29.261  28.984  1.00  0.00    -0.014 A 
ATOM     68  C   UNL A   1      37.675  29.225  30.106  1.00  0.00     0.009 A 
ATOM     69  C   UNL A   1      37.999  29.717  27.764  1.00  0.00     0.009 A 
ATOM     70  C   UNL A   1      36.336  29.606  29.999  1.00  0.00     0.001 A 
ATOM     71  C   UNL A   1      36.668  30.129  27.667  1.00  0.00     0.001 A 
ATOM     72  C   UNL A   1      35.835  30.061  28.782  1.00  0.00     0.000 A 
ENDBRANCH  48  67
BRANCH  60  73
ATOM     73  C   UNL A   1      44.391  32.415  30.994  1.00  0.00    -0.014 A 
ATOM     74  C   UNL A   1      44.380  32.754  32.355  1.00  0.00     0.009 A 
ATOM     75  C   UNL A   1      44.720  33.399  30.048  1.00  0.00     0.009 A 
ATOM     76  C   UNL A   1      44.658  34.063  32.756  1.00  0.00     0.001 A 
ATOM     77  C   UNL A   1      45.030  34.696  30.455  1.00  0.00     0.001 A 
ATOM     78  C   UNL A   1      44.989  35.030  31.808  1.00  0.00     0.000 A 
ENDBRANCH  60  73
ENDBRANCH  34  35
ENDBRANCH  26  29
ENDBRANCH  24  25
ENDBRANCH  23  24
ENDBRANCH  22  23
ENDBRANCH   3  22
TORSDOF 17
ENDMDL
