MODEL 1
REMARK VINA RESULT:     -10.6      0.000      0.000
REMARK SMILES C[C@H]([NH3+])c1ccc(F)cc1OCC(C)(C)C(=O)NCCCNC(=O)c1ccc(-c2c3nc(c(-c4ccccc4)c4ccc([nH]4)c(-c4ccccc4)c4nc(c(-c5ccccc5)c5ccc2[nH]5)C=C4)C=C3)cc1
REMARK SMILES IDX 16 1 17 2 18 3 13 5 14 6 15 7 12 8 11 9 10 10 4 11 5 12 6 13
REMARK SMILES IDX 9 14 7 15 8 16 2 17 1 18 3 19 19 23 20 24 21 25 22 26 23 27
REMARK SMILES IDX 24 29 25 30 26 31 72 32 27 33 71 34 28 35 29 36 30 37 65 38
REMARK SMILES IDX 31 39 70 40 64 41 66 42 32 43 69 44 63 45 62 46 33 48 55 49
REMARK SMILES IDX 40 50 54 51 41 52 44 53 53 54 67 55 42 56 43 57 52 59 68 60
REMARK SMILES IDX 45 61 34 62 35 63 39 64 36 65 38 66 37 67 56 68 57 69 61 70
REMARK SMILES IDX 58 71 60 72 59 73 46 74 47 75 51 76 48 77 50 78 49 79
REMARK H PARENT 18 4 3 20 3 21 3 22 22 28 66 47 44 58
REMARK Flexibility Score: inf
ROOT
ATOM      1  C   UNL A   1      30.867  25.018  26.072  1.00  0.00     0.229 C 
ATOM      2  O   UNL A   1      30.090  24.270  26.662  1.00  0.00    -0.274 OA
ATOM      3  N   UNL A   1      31.150  26.231  26.655  1.00  0.00    -0.355 N 
ATOM      4  H   UNL A   1      30.634  26.434  27.468  1.00  0.00     0.163 HD
ENDROOT
BRANCH   1   5
ATOM      5  C   UNL A   1      31.494  24.679  24.710  1.00  0.00     0.077 C 
ATOM      6  C   UNL A   1      31.145  25.843  23.754  1.00  0.00     0.025 C 
ATOM      7  C   UNL A   1      30.878  23.315  24.290  1.00  0.00     0.025 C 
BRANCH   5   8
ATOM      8  C   UNL A   1      33.028  24.384  24.821  1.00  0.00     0.245 C 
BRANCH   8   9
ATOM      9  O   UNL A   1      33.430  23.310  25.653  1.00  0.00    -0.492 OA
BRANCH   9  10
ATOM     10  C   UNL A   1      34.623  22.646  25.608  1.00  0.00     0.131 A 
ATOM     11  C   UNL A   1      34.949  21.291  25.348  1.00  0.00     0.051 A 
ATOM     12  C   UNL A   1      36.323  20.975  25.172  1.00  0.00     0.017 A 
ATOM     13  C   UNL A   1      37.324  21.943  25.224  1.00  0.00     0.040 A 
ATOM     14  C   UNL A   1      35.658  23.593  25.730  1.00  0.00     0.086 A 
ATOM     15  C   UNL A   1      36.982  23.247  25.519  1.00  0.00     0.126 A 
ATOM     16  F   UNL A   1      37.929  24.192  25.563  1.00  0.00    -0.207 F 
BRANCH  11  17
ATOM     17  C   UNL A   1      33.965  20.142  25.158  1.00  0.00     0.212 C 
ATOM     18  C   UNL A   1      32.947  20.401  24.056  1.00  0.00     0.081 C 
BRANCH  17  19
ATOM     19  N   UNL A   1      33.244  19.800  26.400  1.00  0.00    -0.351 N 
ATOM     20  H   UNL A   1      32.242  19.770  26.214  1.00  0.00     0.345 HD
ATOM     21  H   UNL A   1      33.437  20.507  27.110  1.00  0.00     0.345 HD
ATOM     22  H   UNL A   1      33.556  18.889  26.734  1.00  0.00     0.345 HD
ENDBRANCH  17  19
ENDBRANCH  11  17
ENDBRANCH   9  10
ENDBRANCH   8   9
ENDBRANCH   5   8
ENDBRANCH   1   5
BRANCH   3  23
ATOM     23  C   UNL A   1      32.099  27.264  26.248  1.00  0.00     0.117 C 
BRANCH  23  24
ATOM     24  C   UNL A   1      32.242  28.367  27.263  1.00  0.00     0.042 C 
BRANCH  24  25
ATOM     25  C   UNL A   1      33.642  28.934  27.260  1.00  0.00     0.118 C 
BRANCH  25  26
ATOM     26  N   UNL A   1      33.694  30.288  27.810  1.00  0.00    -0.352 N 
ATOM     27  C   UNL A   1      34.700  30.900  28.521  1.00  0.00     0.251 C 
ATOM     28  H   UNL A   1      32.895  30.840  27.649  1.00  0.00     0.163 HD
ATOM     29  O   UNL A   1      34.511  31.962  29.090  1.00  0.00    -0.269 OA
BRANCH  27  30
ATOM     30  C   UNL A   1      36.007  30.223  28.598  1.00  0.00     0.039 A 
ATOM     31  C   UNL A   1      36.889  30.301  27.520  1.00  0.00     0.014 A 
ATOM     32  C   UNL A   1      36.378  29.583  29.781  1.00  0.00     0.014 A 
ATOM     33  C   UNL A   1      38.183  29.804  27.668  1.00  0.00     0.010 A 
ATOM     34  C   UNL A   1      37.700  29.229  29.974  1.00  0.00     0.010 A 
ATOM     35  C   UNL A   1      38.609  29.309  28.912  1.00  0.00    -0.014 A 
BRANCH  35  36
ATOM     36  C   UNL A   1      39.987  28.814  29.129  1.00  0.00     0.031 A 
ATOM     37  C   UNL A   1      41.007  29.733  29.745  1.00  0.00     0.074 A 
ATOM     38  C   UNL A   1      40.337  27.586  28.701  1.00  0.00     0.049 A 
ATOM     39  N   UNL A   1      42.289  29.542  29.926  1.00  0.00    -0.248 NA
ATOM     40  C   UNL A   1      40.533  31.060  30.177  1.00  0.00     0.031 C 
ATOM     41  C   UNL A   1      39.449  26.624  28.043  1.00  0.00     0.029 A 
ATOM     42  N   UNL A   1      41.544  26.938  28.757  1.00  0.00    -0.354 N 
ATOM     43  C   UNL A   1      42.769  30.730  30.461  1.00  0.00     0.074 A 
ATOM     44  C   UNL A   1      41.665  31.659  30.507  1.00  0.00     0.031 C 
ATOM     45  C   UNL A   1      40.131  25.492  27.798  1.00  0.00     0.029 A 
ATOM     46  C   UNL A   1      41.511  25.667  28.237  1.00  0.00     0.049 A 
ATOM     47  H   UNL A   1      42.357  27.344  29.135  1.00  0.00     0.167 HD
ATOM     48  C   UNL A   1      44.013  31.014  30.912  1.00  0.00     0.031 A 
ATOM     49  C   UNL A   1      42.489  24.748  28.128  1.00  0.00     0.031 A 
ATOM     50  C   UNL A   1      45.099  30.076  30.897  1.00  0.00     0.049 A 
ATOM     51  C   UNL A   1      43.864  25.088  28.633  1.00  0.00     0.074 A 
ATOM     52  C   UNL A   1      46.385  30.238  31.379  1.00  0.00     0.029 A 
ATOM     53  N   UNL A   1      45.020  28.793  30.378  1.00  0.00    -0.354 N 
ATOM     54  N   UNL A   1      44.289  26.195  29.195  1.00  0.00    -0.248 NA
ATOM     55  C   UNL A   1      44.892  24.046  28.499  1.00  0.00     0.031 C 
ATOM     56  C   UNL A   1      47.098  29.065  31.111  1.00  0.00     0.029 A 
ATOM     57  C   UNL A   1      46.239  28.156  30.514  1.00  0.00     0.049 A 
ATOM     58  H   UNL A   1      44.215  28.396  29.973  1.00  0.00     0.167 HD
ATOM     59  C   UNL A   1      45.622  25.970  29.510  1.00  0.00     0.074 A 
ATOM     60  C   UNL A   1      45.930  24.618  29.092  1.00  0.00     0.031 C 
ATOM     61  C   UNL A   1      46.515  26.806  30.096  1.00  0.00     0.031 A 
BRANCH  48  62
ATOM     62  C   UNL A   1      44.247  32.390  31.468  1.00  0.00    -0.014 A 
ATOM     63  C   UNL A   1      44.053  32.666  32.833  1.00  0.00     0.009 A 
ATOM     64  C   UNL A   1      44.677  33.424  30.623  1.00  0.00     0.009 A 
ATOM     65  C   UNL A   1      44.245  33.956  33.330  1.00  0.00     0.001 A 
ATOM     66  C   UNL A   1      44.900  34.706  31.130  1.00  0.00     0.001 A 
ATOM     67  C   UNL A   1      44.673  34.974  32.479  1.00  0.00     0.000 A 
ENDBRANCH  48  62
BRANCH  49  68
ATOM     68  C   UNL A   1      42.203  23.411  27.545  1.00  0.00    -0.014 A 
ATOM     69  C   UNL A   1      42.525  23.138  26.207  1.00  0.00     0.009 A 
ATOM     70  C   UNL A   1      41.594  22.407  28.314  1.00  0.00     0.009 A 
ATOM     71  C   UNL A   1      42.213  21.901  25.641  1.00  0.00     0.001 A 
ATOM     72  C   UNL A   1      41.309  21.160  27.753  1.00  0.00     0.001 A 
ATOM     73  C   UNL A   1      41.608  20.912  26.414  1.00  0.00     0.000 A 
ENDBRANCH  49  68
BRANCH  61  74
ATOM     74  C   UNL A   1      47.890  26.264  30.358  1.00  0.00    -0.014 A 
ATOM     75  C   UNL A   1      48.249  25.763  31.619  1.00  0.00     0.009 A 
ATOM     76  C   UNL A   1      48.822  26.212  29.311  1.00  0.00     0.009 A 
ATOM     77  C   UNL A   1      49.529  25.251  31.833  1.00  0.00     0.001 A 
ATOM     78  C   UNL A   1      50.091  25.672  29.520  1.00  0.00     0.001 A 
ATOM     79  C   UNL A   1      50.446  25.200  30.783  1.00  0.00     0.000 A 
ENDBRANCH  61  74
ENDBRANCH  35  36
ENDBRANCH  27  30
ENDBRANCH  25  26
ENDBRANCH  24  25
ENDBRANCH  23  24
ENDBRANCH   3  23
TORSDOF 15
ENDMDL
MODEL 2
REMARK VINA RESULT:     -10.6      2.006      7.494
REMARK SMILES C[C@H]([NH3+])c1ccc(F)cc1OCC(C)(C)C(=O)NCCCNC(=O)c1ccc(-c2c3nc(c(-c4ccccc4)c4ccc([nH]4)c(-c4ccccc4)c4nc(c(-c5ccccc5)c5ccc2[nH]5)C=C4)C=C3)cc1
REMARK SMILES IDX 16 1 17 2 18 3 13 5 14 6 15 7 12 8 11 9 10 10 4 11 5 12 6 13
REMARK SMILES IDX 9 14 7 15 8 16 2 17 1 18 3 19 19 23 20 24 21 25 22 26 23 27
REMARK SMILES IDX 24 29 25 30 26 31 72 32 27 33 71 34 28 35 29 36 30 37 65 38
REMARK SMILES IDX 31 39 70 40 64 41 66 42 32 43 69 44 63 45 62 46 33 48 55 49
REMARK SMILES IDX 40 50 54 51 41 52 44 53 53 54 67 55 42 56 43 57 52 59 68 60
REMARK SMILES IDX 45 61 34 62 35 63 39 64 36 65 38 66 37 67 56 68 57 69 61 70
REMARK SMILES IDX 58 71 60 72 59 73 46 74 47 75 51 76 48 77 50 78 49 79
REMARK H PARENT 18 4 3 20 3 21 3 22 22 28 66 47 44 58
REMARK Flexibility Score: inf
ROOT
ATOM      1  C   UNL A   1      33.865  20.306  25.164  1.00  0.00     0.229 C 
ATOM      2  O   UNL A   1      33.048  19.478  24.764  1.00  0.00    -0.274 OA
ATOM      3  N   UNL A   1      35.199  20.018  24.994  1.00  0.00    -0.355 N 
ATOM      4  H   UNL A   1      35.391  19.122  24.635  1.00  0.00     0.163 HD
ENDROOT
BRANCH   1   5
ATOM      5  C   UNL A   1      33.466  21.610  25.872  1.00  0.00     0.077 C 
ATOM      6  C   UNL A   1      34.004  21.517  27.318  1.00  0.00     0.025 C 
ATOM      7  C   UNL A   1      31.915  21.681  25.781  1.00  0.00     0.025 C 
BRANCH   5   8
ATOM      8  C   UNL A   1      33.949  22.880  25.092  1.00  0.00     0.245 C 
BRANCH   8   9
ATOM      9  O   UNL A   1      33.211  24.076  25.266  1.00  0.00    -0.492 OA
BRANCH   9  10
ATOM     10  C   UNL A   1      33.464  25.283  24.679  1.00  0.00     0.131 A 
ATOM     11  C   UNL A   1      33.342  25.734  23.340  1.00  0.00     0.051 A 
ATOM     12  C   UNL A   1      33.493  27.127  23.107  1.00  0.00     0.017 A 
ATOM     13  C   UNL A   1      33.727  28.035  24.139  1.00  0.00     0.040 A 
ATOM     14  C   UNL A   1      33.773  26.209  25.694  1.00  0.00     0.086 A 
ATOM     15  C   UNL A   1      33.880  27.563  25.426  1.00  0.00     0.126 A 
ATOM     16  F   UNL A   1      34.095  28.422  26.431  1.00  0.00    -0.207 F 
BRANCH  11  17
ATOM     17  C   UNL A   1      32.986  24.884  22.125  1.00  0.00     0.212 C 
ATOM     18  C   UNL A   1      32.614  25.713  20.903  1.00  0.00     0.081 C 
BRANCH  17  19
ATOM     19  N   UNL A   1      31.895  23.929  22.402  1.00  0.00    -0.351 N 
ATOM     20  H   UNL A   1      31.971  23.595  23.362  1.00  0.00     0.345 HD
ATOM     21  H   UNL A   1      31.965  23.138  21.760  1.00  0.00     0.345 HD
ATOM     22  H   UNL A   1      30.996  24.392  22.272  1.00  0.00     0.345 HD
ENDBRANCH  17  19
ENDBRANCH  11  17
ENDBRANCH   9  10
ENDBRANCH   8   9
ENDBRANCH   5   8
ENDBRANCH   1   5
BRANCH   3  23
ATOM     23  C   UNL A   1      36.374  20.842  25.268  1.00  0.00     0.117 C 
BRANCH  23  24
ATOM     24  C   UNL A   1      37.660  20.206  24.810  1.00  0.00     0.042 C 
BRANCH  24  25
ATOM     25  C   UNL A   1      38.802  20.558  25.734  1.00  0.00     0.118 C 
BRANCH  25  26
ATOM     26  N   UNL A   1      39.814  19.503  25.793  1.00  0.00    -0.352 N 
ATOM     27  C   UNL A   1      41.156  19.600  26.076  1.00  0.00     0.251 C 
ATOM     28  H   UNL A   1      39.487  18.594  25.604  1.00  0.00     0.163 HD
ATOM     29  O   UNL A   1      41.908  18.660  25.883  1.00  0.00    -0.269 OA
BRANCH  27  30
ATOM     30  C   UNL A   1      41.665  20.883  26.595  1.00  0.00     0.039 A 
ATOM     31  C   UNL A   1      42.175  21.832  25.710  1.00  0.00     0.014 A 
ATOM     32  C   UNL A   1      41.552  21.162  27.958  1.00  0.00     0.014 A 
ATOM     33  C   UNL A   1      42.494  23.101  26.189  1.00  0.00     0.010 A 
ATOM     34  C   UNL A   1      41.727  22.460  28.399  1.00  0.00     0.010 A 
ATOM     35  C   UNL A   1      42.226  23.436  27.527  1.00  0.00    -0.014 A 
BRANCH  35  36
ATOM     36  C   UNL A   1      42.506  24.784  28.070  1.00  0.00     0.031 A 
ATOM     37  C   UNL A   1      43.903  25.119  28.519  1.00  0.00     0.074 A 
ATOM     38  C   UNL A   1      41.501  25.667  28.234  1.00  0.00     0.049 A 
ATOM     39  N   UNL A   1      44.343  26.195  29.119  1.00  0.00    -0.248 NA
ATOM     40  C   UNL A   1      44.935  24.089  28.304  1.00  0.00     0.031 C 
ATOM     41  C   UNL A   1      40.097  25.438  27.884  1.00  0.00     0.029 A 
ATOM     42  N   UNL A   1      41.513  26.939  28.744  1.00  0.00    -0.354 N 
ATOM     43  C   UNL A   1      45.686  25.955  29.374  1.00  0.00     0.074 A 
ATOM     44  C   UNL A   1      45.974  24.609  28.936  1.00  0.00     0.031 C 
ATOM     45  C   UNL A   1      39.392  26.551  28.148  1.00  0.00     0.029 A 
ATOM     46  C   UNL A   1      40.282  27.550  28.728  1.00  0.00     0.049 A 
ATOM     47  H   UNL A   1      42.326  27.374  29.088  1.00  0.00     0.167 HD
ATOM     48  C   UNL A   1      46.613  26.792  29.893  1.00  0.00     0.031 A 
ATOM     49  C   UNL A   1      39.918  28.780  29.136  1.00  0.00     0.031 A 
ATOM     50  C   UNL A   1      46.331  28.142  30.296  1.00  0.00     0.049 A 
ATOM     51  C   UNL A   1      40.965  29.691  29.714  1.00  0.00     0.074 A 
ATOM     52  C   UNL A   1      47.204  29.097  30.782  1.00  0.00     0.029 A 
ATOM     53  N   UNL A   1      45.076  28.728  30.246  1.00  0.00    -0.354 N 
ATOM     54  N   UNL A   1      42.247  29.473  29.892  1.00  0.00    -0.248 NA
ATOM     55  C   UNL A   1      40.517  31.026  30.135  1.00  0.00     0.031 C 
ATOM     56  C   UNL A   1      46.467  30.250  31.069  1.00  0.00     0.029 A 
ATOM     57  C   UNL A   1      45.147  30.028  30.708  1.00  0.00     0.049 A 
ATOM     58  H   UNL A   1      44.256  28.283  29.929  1.00  0.00     0.167 HD
ATOM     59  C   UNL A   1      42.761  30.652  30.415  1.00  0.00     0.074 A 
ATOM     60  C   UNL A   1      41.659  31.585  30.510  1.00  0.00     0.031 C 
ATOM     61  C   UNL A   1      44.034  30.939  30.783  1.00  0.00     0.031 A 
BRANCH  48  62
ATOM     62  C   UNL A   1      48.013  26.267  30.038  1.00  0.00    -0.014 A 
ATOM     63  C   UNL A   1      48.896  26.241  28.945  1.00  0.00     0.009 A 
ATOM     64  C   UNL A   1      48.462  25.804  31.284  1.00  0.00     0.009 A 
ATOM     65  C   UNL A   1      50.185  25.722  29.087  1.00  0.00     0.001 A 
ATOM     66  C   UNL A   1      49.762  25.316  31.430  1.00  0.00     0.001 A 
ATOM     67  C   UNL A   1      50.618  25.265  30.330  1.00  0.00     0.000 A 
ENDBRANCH  48  62
BRANCH  49  68
ATOM     68  C   UNL A   1      38.511  29.235  28.990  1.00  0.00    -0.014 A 
ATOM     69  C   UNL A   1      38.058  29.755  27.768  1.00  0.00     0.009 A 
ATOM     70  C   UNL A   1      37.618  29.169  30.071  1.00  0.00     0.009 A 
ATOM     71  C   UNL A   1      36.752  30.231  27.641  1.00  0.00     0.001 A 
ATOM     72  C   UNL A   1      36.304  29.618  29.932  1.00  0.00     0.001 A 
ATOM     73  C   UNL A   1      35.875  30.160  28.721  1.00  0.00     0.000 A 
ENDBRANCH  49  68
BRANCH  61  74
ATOM     74  C   UNL A   1      44.306  32.330  31.277  1.00  0.00    -0.014 A 
ATOM     75  C   UNL A   1      44.484  33.399  30.386  1.00  0.00     0.009 A 
ATOM     76  C   UNL A   1      44.336  32.579  32.658  1.00  0.00     0.009 A 
ATOM     77  C   UNL A   1      44.721  34.686  30.870  1.00  0.00     0.001 A 
ATOM     78  C   UNL A   1      44.543  33.872  33.139  1.00  0.00     0.001 A 
ATOM     79  C   UNL A   1      44.744  34.922  32.245  1.00  0.00     0.000 A 
ENDBRANCH  61  74
ENDBRANCH  35  36
ENDBRANCH  27  30
ENDBRANCH  25  26
ENDBRANCH  24  25
ENDBRANCH  23  24
ENDBRANCH   3  23
TORSDOF 15
ENDMDL
MODEL 3
REMARK VINA RESULT:     -10.6      2.531      3.928
REMARK SMILES C[C@H]([NH3+])c1ccc(F)cc1OCC(C)(C)C(=O)NCCCNC(=O)c1ccc(-c2c3nc(c(-c4ccccc4)c4ccc([nH]4)c(-c4ccccc4)c4nc(c(-c5ccccc5)c5ccc2[nH]5)C=C4)C=C3)cc1
REMARK SMILES IDX 16 1 17 2 18 3 13 5 14 6 15 7 12 8 11 9 10 10 4 11 5 12 6 13
REMARK SMILES IDX 9 14 7 15 8 16 2 17 1 18 3 19 19 23 20 24 21 25 22 26 23 27
REMARK SMILES IDX 24 29 25 30 26 31 72 32 27 33 71 34 28 35 29 36 30 37 65 38
REMARK SMILES IDX 31 39 70 40 64 41 66 42 32 43 69 44 63 45 62 46 33 48 55 49
REMARK SMILES IDX 40 50 54 51 41 52 44 53 53 54 67 55 42 56 43 57 52 59 68 60
REMARK SMILES IDX 45 61 34 62 35 63 39 64 36 65 38 66 37 67 56 68 57 69 61 70
REMARK SMILES IDX 58 71 60 72 59 73 46 74 47 75 51 76 48 77 50 78 49 79
REMARK H PARENT 18 4 3 20 3 21 3 22 22 28 66 47 44 58
REMARK Flexibility Score: inf
ROOT
ATOM      1  C   UNL A   1      31.241  28.972  23.697  1.00  0.00     0.229 C 
ATOM      2  O   UNL A   1      30.337  28.943  22.863  1.00  0.00    -0.274 OA
ATOM      3  N   UNL A   1      31.157  29.916  24.694  1.00  0.00    -0.355 N 
ATOM      4  H   UNL A   1      30.411  30.551  24.607  1.00  0.00     0.163 HD
ENDROOT
BRANCH   1   5
ATOM      5  C   UNL A   1      32.462  28.042  23.648  1.00  0.00     0.077 C 
ATOM      6  C   UNL A   1      33.703  28.941  23.445  1.00  0.00     0.025 C 
ATOM      7  C   UNL A   1      32.198  27.060  22.472  1.00  0.00     0.025 C 
BRANCH   5   8
ATOM      8  C   UNL A   1      32.549  27.112  24.906  1.00  0.00     0.245 C 
BRANCH   8   9
ATOM      9  O   UNL A   1      32.664  25.717  24.683  1.00  0.00    -0.492 OA
BRANCH   9  10
ATOM     10  C   UNL A   1      33.386  24.830  25.428  1.00  0.00     0.131 A 
ATOM     11  C   UNL A   1      32.999  23.812  26.336  1.00  0.00     0.051 A 
ATOM     12  C   UNL A   1      34.011  22.922  26.786  1.00  0.00     0.017 A 
ATOM     13  C   UNL A   1      35.332  23.011  26.347  1.00  0.00     0.040 A 
ATOM     14  C   UNL A   1      34.740  24.945  25.058  1.00  0.00     0.086 A 
ATOM     15  C   UNL A   1      35.688  24.035  25.495  1.00  0.00     0.126 A 
ATOM     16  F   UNL A   1      36.949  24.130  25.056  1.00  0.00    -0.207 F 
BRANCH  11  17
ATOM     17  C   UNL A   1      31.584  23.521  26.823  1.00  0.00     0.212 C 
ATOM     18  C   UNL A   1      30.865  22.474  25.984  1.00  0.00     0.081 C 
BRANCH  17  19
ATOM     19  N   UNL A   1      30.746  24.735  26.890  1.00  0.00    -0.351 N 
ATOM     20  H   UNL A   1      31.108  25.433  26.240  1.00  0.00     0.345 HD
ATOM     21  H   UNL A   1      30.766  25.110  27.839  1.00  0.00     0.345 HD
ATOM     22  H   UNL A   1      29.787  24.500  26.638  1.00  0.00     0.345 HD
ENDBRANCH  17  19
ENDBRANCH  11  17
ENDBRANCH   9  10
ENDBRANCH   8   9
ENDBRANCH   5   8
ENDBRANCH   1   5
BRANCH   3  23
ATOM     23  C   UNL A   1      32.011  30.118  25.861  1.00  0.00     0.117 C 
BRANCH  23  24
ATOM     24  C   UNL A   1      31.646  31.344  26.654  1.00  0.00     0.042 C 
BRANCH  24  25
ATOM     25  C   UNL A   1      32.876  32.130  27.044  1.00  0.00     0.118 C 
BRANCH  25  26
ATOM     26  N   UNL A   1      32.552  33.486  27.485  1.00  0.00    -0.352 N 
ATOM     27  C   UNL A   1      33.168  34.260  28.441  1.00  0.00     0.251 C 
ATOM     28  H   UNL A   1      31.784  33.905  27.033  1.00  0.00     0.163 HD
ATOM     29  O   UNL A   1      32.654  35.291  28.840  1.00  0.00    -0.269 OA
BRANCH  27  30
ATOM     30  C   UNL A   1      34.455  33.795  28.987  1.00  0.00     0.039 A 
ATOM     31  C   UNL A   1      34.473  33.027  30.152  1.00  0.00     0.014 A 
ATOM     32  C   UNL A   1      35.632  34.058  28.285  1.00  0.00     0.014 A 
ATOM     33  C   UNL A   1      35.674  32.453  30.563  1.00  0.00     0.010 A 
ATOM     34  C   UNL A   1      36.784  33.368  28.610  1.00  0.00     0.010 A 
ATOM     35  C   UNL A   1      36.826  32.580  29.768  1.00  0.00    -0.014 A 
BRANCH  35  36
ATOM     36  C   UNL A   1      38.111  31.949  30.141  1.00  0.00     0.031 A 
ATOM     37  C   UNL A   1      39.045  32.680  31.068  1.00  0.00     0.074 A 
ATOM     38  C   UNL A   1      38.471  30.774  29.589  1.00  0.00     0.049 A 
ATOM     39  N   UNL A   1      40.259  32.362  31.438  1.00  0.00    -0.248 NA
ATOM     40  C   UNL A   1      38.568  33.961  31.619  1.00  0.00     0.031 C 
ATOM     41  C   UNL A   1      37.673  29.997  28.637  1.00  0.00     0.029 A 
ATOM     42  N   UNL A   1      39.611  30.031  29.750  1.00  0.00    -0.354 N 
ATOM     43  C   UNL A   1      40.692  33.413  32.235  1.00  0.00     0.074 A 
ATOM     44  C   UNL A   1      39.648  34.411  32.236  1.00  0.00     0.031 C 
ATOM     45  C   UNL A   1      38.329  28.863  28.336  1.00  0.00     0.029 A 
ATOM     46  C   UNL A   1      39.610  28.858  29.033  1.00  0.00     0.049 A 
ATOM     47  H   UNL A   1      40.359  30.309  30.326  1.00  0.00     0.167 HD
ATOM     48  C   UNL A   1      41.842  33.526  32.937  1.00  0.00     0.031 A 
ATOM     49  C   UNL A   1      40.542  27.890  28.951  1.00  0.00     0.031 A 
ATOM     50  C   UNL A   1      42.863  32.516  32.962  1.00  0.00     0.049 A 
ATOM     51  C   UNL A   1      41.814  28.040  29.738  1.00  0.00     0.074 A 
ATOM     52  C   UNL A   1      44.043  32.500  33.682  1.00  0.00     0.029 A 
ATOM     53  N   UNL A   1      42.815  31.336  32.236  1.00  0.00    -0.354 N 
ATOM     54  N   UNL A   1      42.184  29.012  30.538  1.00  0.00    -0.248 NA
ATOM     55  C   UNL A   1      42.794  26.950  29.620  1.00  0.00     0.031 C 
ATOM     56  C   UNL A   1      44.731  31.327  33.358  1.00  0.00     0.029 A 
ATOM     57  C   UNL A   1      43.952  30.590  32.479  1.00  0.00     0.049 A 
ATOM     58  H   UNL A   1      42.080  31.070  31.637  1.00  0.00     0.167 HD
ATOM     59  C   UNL A   1      43.421  28.636  31.042  1.00  0.00     0.074 A 
ATOM     60  C   UNL A   1      43.731  27.342  30.471  1.00  0.00     0.031 C 
ATOM     61  C   UNL A   1      44.231  29.300  31.903  1.00  0.00     0.031 A 
BRANCH  48  62
ATOM     62  C   UNL A   1      42.039  34.780  33.742  1.00  0.00    -0.014 A 
ATOM     63  C   UNL A   1      42.681  35.903  33.192  1.00  0.00     0.009 A 
ATOM     64  C   UNL A   1      41.569  34.847  35.061  1.00  0.00     0.009 A 
ATOM     65  C   UNL A   1      42.885  37.050  33.961  1.00  0.00     0.001 A 
ATOM     66  C   UNL A   1      41.744  36.008  35.817  1.00  0.00     0.001 A 
ATOM     67  C   UNL A   1      42.412  37.103  35.271  1.00  0.00     0.000 A 
ENDBRANCH  48  62
BRANCH  49  68
ATOM     68  C   UNL A   1      40.301  26.683  28.118  1.00  0.00    -0.014 A 
ATOM     69  C   UNL A   1      40.785  26.623  26.802  1.00  0.00     0.009 A 
ATOM     70  C   UNL A   1      39.575  25.594  28.623  1.00  0.00     0.009 A 
ATOM     71  C   UNL A   1      40.518  25.512  25.999  1.00  0.00     0.001 A 
ATOM     72  C   UNL A   1      39.334  24.472  27.828  1.00  0.00     0.001 A 
ATOM     73  C   UNL A   1      39.795  24.437  26.513  1.00  0.00     0.000 A 
ENDBRANCH  49  68
BRANCH  61  74
ATOM     74  C   UNL A   1      45.503  28.616  32.312  1.00  0.00    -0.014 A 
ATOM     75  C   UNL A   1      46.703  28.829  31.616  1.00  0.00     0.009 A 
ATOM     76  C   UNL A   1      45.507  27.785  33.443  1.00  0.00     0.009 A 
ATOM     77  C   UNL A   1      47.876  28.193  32.025  1.00  0.00     0.001 A 
ATOM     78  C   UNL A   1      46.688  27.174  33.868  1.00  0.00     0.001 A 
ATOM     79  C   UNL A   1      47.868  27.372  33.154  1.00  0.00     0.000 A 
ENDBRANCH  61  74
ENDBRANCH  35  36
ENDBRANCH  27  30
ENDBRANCH  25  26
ENDBRANCH  24  25
ENDBRANCH  23  24
ENDBRANCH   3  23
TORSDOF 15
ENDMDL
