MODEL 1
REMARK VINA RESULT:     -12.4      0.000      0.000
REMARK SMILES COc1ccc([C@H]2CC(c3ccc(S(C)(=O)=O)cc3)=NN2c2ccc(C(=O)NCCCNC(=O)c3ccc(-c4c5nc(c(-c6ccccc6)c6ccc([nH]6)c(-c6ccccc6)c6nc(c(-c7ccccc7)c7ccc4[nH]7)C=C6)C=C5)cc3)cc2)cc1OC
REMARK SMILES IDX 29 1 28 2 26 3 27 4 25 6 22 7 23 8 84 9 24 10 83 11 21 12
REMARK SMILES IDX 7 13 8 14 9 15 20 16 6 17 3 18 4 19 86 20 5 21 85 22 2 23
REMARK SMILES IDX 1 24 87 25 88 26 10 27 11 28 19 29 12 30 18 31 13 32 14 33
REMARK SMILES IDX 15 34 16 35 17 36 30 37 31 38 32 39 33 40 34 42 35 43 36 44
REMARK SMILES IDX 82 45 37 46 81 47 38 48 39 49 40 50 75 51 41 52 80 53 74 54
REMARK SMILES IDX 76 55 42 56 79 57 73 58 72 59 43 61 65 62 50 63 64 64 51 65
REMARK SMILES IDX 54 66 63 67 77 68 52 69 53 70 62 72 78 73 55 74 44 75 45 76
REMARK SMILES IDX 49 77 46 78 48 79 47 80 66 81 67 82 71 83 68 84 70 85 69 86
REMARK SMILES IDX 56 87 57 88 61 89 58 90 60 91 59 92
REMARK H PARENT 28 5 32 41 76 60 54 71
REMARK Flexibility Score: inf
ROOT
ATOM      1  C   UNL A   1      32.384  31.659  27.089  1.00  0.00     0.118 C 
ENDROOT
BRANCH   1   2
ATOM      2  N   UNL A   1      33.572  31.123  27.724  1.00  0.00    -0.352 N 
ATOM      3  C   UNL A   1      34.141  29.877  27.715  1.00  0.00     0.251 C 
ATOM      4  O   UNL A   1      35.189  29.733  28.349  1.00  0.00    -0.269 OA
ATOM      5  H   UNL A   1      34.064  31.781  28.267  1.00  0.00     0.163 HD
BRANCH   3   6
ATOM      6  C   UNL A   1      33.590  28.727  26.948  1.00  0.00     0.039 A 
ATOM      7  C   UNL A   1      32.407  26.514  25.643  1.00  0.00     0.060 A 
ATOM      8  C   UNL A   1      31.738  27.182  26.675  1.00  0.00     0.029 A 
ATOM      9  C   UNL A   1      33.650  26.998  25.239  1.00  0.00     0.029 A 
ATOM     10  C   UNL A   1      32.329  28.261  27.336  1.00  0.00     0.016 A 
ATOM     11  C   UNL A   1      34.219  28.117  25.859  1.00  0.00     0.016 A 
BRANCH   7  12
ATOM     12  N   UNL A   1      31.818  25.411  25.053  1.00  0.00    -0.257 N 
ATOM     13  C   UNL A   1      30.387  25.246  24.787  1.00  0.00     0.144 C 
ATOM     14  C   UNL A   1      30.356  23.877  24.086  1.00  0.00     0.091 C 
ATOM     15  C   UNL A   1      31.715  23.372  24.492  1.00  0.00     0.071 C 
ATOM     16  N   UNL A   1      32.521  24.256  24.990  1.00  0.00    -0.176 NA
BRANCH  13  17
ATOM     17  C   UNL A   1      29.831  26.395  23.964  1.00  0.00    -0.019 A 
ATOM     18  C   UNL A   1      28.855  28.715  22.686  1.00  0.00     0.160 A 
ATOM     19  C   UNL A   1      27.976  27.831  23.327  1.00  0.00     0.051 A 
ATOM     20  C   UNL A   1      30.226  28.440  22.657  1.00  0.00     0.161 A 
ATOM     21  C   UNL A   1      28.460  26.676  23.957  1.00  0.00     0.010 A 
ATOM     22  C   UNL A   1      30.691  27.274  23.281  1.00  0.00     0.056 A 
BRANCH  18  23
ATOM     23  O   UNL A   1      28.359  29.903  22.218  1.00  0.00    -0.493 OA
ATOM     24  C   UNL A   1      27.710  30.661  23.236  1.00  0.00     0.278 C 
ENDBRANCH  18  23
BRANCH  20  25
ATOM     25  O   UNL A   1      31.238  29.182  22.111  1.00  0.00    -0.493 OA
ATOM     26  C   UNL A   1      32.563  28.968  22.568  1.00  0.00     0.278 C 
ENDBRANCH  20  25
ENDBRANCH  13  17
BRANCH  15  27
ATOM     27  C   UNL A   1      32.110  21.967  24.357  1.00  0.00    -0.002 A 
ATOM     28  C   UNL A   1      32.644  21.329  25.484  1.00  0.00     0.011 A 
ATOM     29  C   UNL A   1      32.025  21.306  23.131  1.00  0.00     0.011 A 
ATOM     30  C   UNL A   1      33.090  20.014  25.392  1.00  0.00     0.021 A 
ATOM     31  C   UNL A   1      32.498  19.994  23.029  1.00  0.00     0.021 A 
ATOM     32  C   UNL A   1      33.032  19.359  24.158  1.00  0.00     0.067 A 
BRANCH  32  33
ATOM     33  S   UNL A   1      33.642  17.693  24.041  1.00  0.00     0.175 S 
ATOM     34  C   UNL A   1      32.767  16.813  25.309  1.00  0.00     0.163 C 
ATOM     35  O   UNL A   1      33.210  17.185  22.750  1.00  0.00    -0.224 OA
ATOM     36  O   UNL A   1      35.043  17.712  24.405  1.00  0.00    -0.224 OA
ENDBRANCH  32  33
ENDBRANCH  15  27
ENDBRANCH   7  12
ENDBRANCH   3   6
ENDBRANCH   1   2
BRANCH   1  37
ATOM     37  C   UNL A   1      32.260  33.161  27.344  1.00  0.00     0.042 C 
BRANCH  37  38
ATOM     38  C   UNL A   1      33.484  33.756  28.036  1.00  0.00     0.118 C 
BRANCH  38  39
ATOM     39  N   UNL A   1      33.118  34.527  29.214  1.00  0.00    -0.352 N 
ATOM     40  C   UNL A   1      33.616  34.478  30.490  1.00  0.00     0.251 C 
ATOM     41  H   UNL A   1      32.400  35.186  29.073  1.00  0.00     0.163 HD
ATOM     42  O   UNL A   1      33.012  35.047  31.395  1.00  0.00    -0.269 OA
BRANCH  40  43
ATOM     43  C   UNL A   1      34.867  33.748  30.790  1.00  0.00     0.039 A 
ATOM     44  C   UNL A   1      34.791  32.593  31.575  1.00  0.00     0.014 A 
ATOM     45  C   UNL A   1      36.111  34.224  30.368  1.00  0.00     0.014 A 
ATOM     46  C   UNL A   1      35.956  31.897  31.905  1.00  0.00     0.010 A 
ATOM     47  C   UNL A   1      37.267  33.493  30.641  1.00  0.00     0.010 A 
ATOM     48  C   UNL A   1      37.201  32.331  31.423  1.00  0.00    -0.014 A 
BRANCH  48  49
ATOM     49  C   UNL A   1      38.440  31.580  31.737  1.00  0.00     0.031 A 
ATOM     50  C   UNL A   1      39.237  31.899  32.971  1.00  0.00     0.074 A 
ATOM     51  C   UNL A   1      38.882  30.645  30.875  1.00  0.00     0.049 A 
ATOM     52  N   UNL A   1      40.354  31.362  33.394  1.00  0.00    -0.248 NA
ATOM     53  C   UNL A   1      38.729  32.982  33.825  1.00  0.00     0.031 C 
ATOM     54  C   UNL A   1      38.233  30.283  29.614  1.00  0.00     0.029 A 
ATOM     55  N   UNL A   1      39.989  29.836  30.927  1.00  0.00    -0.354 N 
ATOM     56  C   UNL A   1      40.693  32.056  34.549  1.00  0.00     0.074 A 
ATOM     57  C   UNL A   1      39.686  33.080  34.735  1.00  0.00     0.031 C 
ATOM     58  C   UNL A   1      38.946  29.314  29.018  1.00  0.00     0.029 A 
ATOM     59  C   UNL A   1      40.111  29.006  29.841  1.00  0.00     0.049 A 
ATOM     60  H   UNL A   1      40.633  29.850  31.671  1.00  0.00     0.167 HD
ATOM     61  C   UNL A   1      41.738  31.854  35.386  1.00  0.00     0.031 A 
ATOM     62  C   UNL A   1      41.057  28.097  29.538  1.00  0.00     0.031 A 
ATOM     63  C   UNL A   1      42.733  30.830  35.206  1.00  0.00     0.049 A 
ATOM     64  C   UNL A   1      42.188  27.864  30.495  1.00  0.00     0.074 A 
ATOM     65  C   UNL A   1      43.784  30.490  36.042  1.00  0.00     0.029 A 
ATOM     66  N   UNL A   1      42.804  29.984  34.110  1.00  0.00    -0.354 N 
ATOM     67  N   UNL A   1      42.444  28.466  31.630  1.00  0.00    -0.248 NA
ATOM     68  C   UNL A   1      43.151  26.815  30.136  1.00  0.00     0.031 C 
ATOM     69  C   UNL A   1      44.520  29.470  35.425  1.00  0.00     0.029 A 
ATOM     70  C   UNL A   1      43.897  29.142  34.231  1.00  0.00     0.049 A 
ATOM     71  H   UNL A   1      42.171  29.983  33.356  1.00  0.00     0.167 HD
ATOM     72  C   UNL A   1      43.590  27.861  32.130  1.00  0.00     0.074 A 
ATOM     73  C   UNL A   1      43.965  26.830  31.183  1.00  0.00     0.031 C 
ATOM     74  C   UNL A   1      44.270  28.136  33.270  1.00  0.00     0.031 A 
BRANCH  61  75
ATOM     75  C   UNL A   1      41.862  32.780  36.565  1.00  0.00    -0.014 A 
ATOM     76  C   UNL A   1      41.206  32.512  37.777  1.00  0.00     0.009 A 
ATOM     77  C   UNL A   1      42.647  33.938  36.461  1.00  0.00     0.009 A 
ATOM     78  C   UNL A   1      41.294  33.410  38.844  1.00  0.00     0.001 A 
ATOM     79  C   UNL A   1      42.758  34.819  37.539  1.00  0.00     0.001 A 
ATOM     80  C   UNL A   1      42.070  34.561  38.724  1.00  0.00     0.000 A 
ENDBRANCH  61  75
BRANCH  62  81
ATOM     81  C   UNL A   1      40.950  27.328  28.273  1.00  0.00    -0.014 A 
ATOM     82  C   UNL A   1      41.500  27.829  27.085  1.00  0.00     0.009 A 
ATOM     83  C   UNL A   1      40.328  26.069  28.258  1.00  0.00     0.009 A 
ATOM     84  C   UNL A   1      41.419  27.091  25.902  1.00  0.00     0.001 A 
ATOM     85  C   UNL A   1      40.271  25.323  27.080  1.00  0.00     0.001 A 
ATOM     86  C   UNL A   1      40.811  25.837  25.902  1.00  0.00     0.000 A 
ENDBRANCH  62  81
BRANCH  74  87
ATOM     87  C   UNL A   1      45.487  27.301  33.553  1.00  0.00    -0.014 A 
ATOM     88  C   UNL A   1      46.755  27.686  33.089  1.00  0.00     0.009 A 
ATOM     89  C   UNL A   1      45.367  26.126  34.311  1.00  0.00     0.009 A 
ATOM     90  C   UNL A   1      47.872  26.890  33.348  1.00  0.00     0.001 A 
ATOM     91  C   UNL A   1      46.490  25.347  34.591  1.00  0.00     0.001 A 
ATOM     92  C   UNL A   1      47.740  25.724  34.101  1.00  0.00     0.000 A 
ENDBRANCH  74  87
ENDBRANCH  48  49
ENDBRANCH  40  43
ENDBRANCH  38  39
ENDBRANCH  37  38
ENDBRANCH   1  37
TORSDOF 16
ENDMDL
MODEL 2
REMARK VINA RESULT:     -12.3      0.395      5.466
REMARK SMILES COc1ccc([C@H]2CC(c3ccc(S(C)(=O)=O)cc3)=NN2c2ccc(C(=O)NCCCNC(=O)c3ccc(-c4c5nc(c(-c6ccccc6)c6ccc([nH]6)c(-c6ccccc6)c6nc(c(-c7ccccc7)c7ccc4[nH]7)C=C6)C=C5)cc3)cc2)cc1OC
REMARK SMILES IDX 29 1 28 2 26 3 27 4 25 6 22 7 23 8 84 9 24 10 83 11 21 12
REMARK SMILES IDX 7 13 8 14 9 15 20 16 6 17 3 18 4 19 86 20 5 21 85 22 2 23
REMARK SMILES IDX 1 24 87 25 88 26 10 27 11 28 19 29 12 30 18 31 13 32 14 33
REMARK SMILES IDX 15 34 16 35 17 36 30 37 31 38 32 39 33 40 34 42 35 43 36 44
REMARK SMILES IDX 82 45 37 46 81 47 38 48 39 49 40 50 75 51 41 52 80 53 74 54
REMARK SMILES IDX 76 55 42 56 79 57 73 58 72 59 43 61 65 62 50 63 64 64 51 65
REMARK SMILES IDX 54 66 63 67 77 68 52 69 53 70 62 72 78 73 55 74 44 75 45 76
REMARK SMILES IDX 49 77 46 78 48 79 47 80 66 81 67 82 71 83 68 84 70 85 69 86
REMARK SMILES IDX 56 87 57 88 61 89 58 90 60 91 59 92
REMARK H PARENT 28 5 32 41 76 60 54 71
REMARK Flexibility Score: inf
ROOT
ATOM      1  C   UNL A   1      32.462  31.643  27.142  1.00  0.00     0.118 C 
ENDROOT
BRANCH   1   2
ATOM      2  N   UNL A   1      33.631  31.121  27.822  1.00  0.00    -0.352 N 
ATOM      3  C   UNL A   1      34.212  29.880  27.838  1.00  0.00     0.251 C 
ATOM      4  O   UNL A   1      35.237  29.749  28.510  1.00  0.00    -0.269 OA
ATOM      5  H   UNL A   1      34.096  31.785  28.380  1.00  0.00     0.163 HD
BRANCH   3   6
ATOM      6  C   UNL A   1      33.700  28.722  27.056  1.00  0.00     0.039 A 
ATOM      7  C   UNL A   1      32.595  26.486  25.724  1.00  0.00     0.060 A 
ATOM      8  C   UNL A   1      31.911  27.106  26.776  1.00  0.00     0.029 A 
ATOM      9  C   UNL A   1      33.811  27.029  25.314  1.00  0.00     0.029 A 
ATOM     10  C   UNL A   1      32.465  28.196  27.450  1.00  0.00     0.016 A 
ATOM     11  C   UNL A   1      34.340  28.160  25.949  1.00  0.00     0.016 A 
BRANCH   7  12
ATOM     12  N   UNL A   1      32.045  25.371  25.120  1.00  0.00    -0.257 N 
ATOM     13  C   UNL A   1      30.625  25.171  24.822  1.00  0.00     0.144 C 
ATOM     14  C   UNL A   1      30.642  23.804  24.120  1.00  0.00     0.091 C 
ATOM     15  C   UNL A   1      32.003  23.330  24.555  1.00  0.00     0.071 C 
ATOM     16  N   UNL A   1      32.777  24.233  25.071  1.00  0.00    -0.176 NA
BRANCH  13  17
ATOM     17  C   UNL A   1      30.059  26.309  23.988  1.00  0.00    -0.019 A 
ATOM     18  C   UNL A   1      29.072  28.610  22.686  1.00  0.00     0.160 A 
ATOM     19  C   UNL A   1      28.201  27.742  23.359  1.00  0.00     0.051 A 
ATOM     20  C   UNL A   1      30.441  28.327  22.637  1.00  0.00     0.161 A 
ATOM     21  C   UNL A   1      28.690  26.597  24.001  1.00  0.00     0.010 A 
ATOM     22  C   UNL A   1      30.912  27.170  23.275  1.00  0.00     0.056 A 
BRANCH  18  23
ATOM     23  O   UNL A   1      28.573  29.792  22.205  1.00  0.00    -0.493 OA
ATOM     24  C   UNL A   1      27.583  30.354  23.062  1.00  0.00     0.278 C 
ENDBRANCH  18  23
BRANCH  20  25
ATOM     25  O   UNL A   1      31.447  29.054  22.060  1.00  0.00    -0.493 OA
ATOM     26  C   UNL A   1      32.756  28.950  22.594  1.00  0.00     0.278 C 
ENDBRANCH  20  25
ENDBRANCH  13  17
BRANCH  15  27
ATOM     27  C   UNL A   1      32.433  21.935  24.427  1.00  0.00    -0.002 A 
ATOM     28  C   UNL A   1      32.144  21.272  23.227  1.00  0.00     0.011 A 
ATOM     29  C   UNL A   1      33.044  21.265  25.487  1.00  0.00     0.011 A 
ATOM     30  C   UNL A   1      32.477  19.928  23.078  1.00  0.00     0.021 A 
ATOM     31  C   UNL A   1      33.354  19.909  25.350  1.00  0.00     0.021 A 
ATOM     32  C   UNL A   1      33.064  19.249  24.149  1.00  0.00     0.067 A 
BRANCH  32  33
ATOM     33  S   UNL A   1      33.448  17.522  23.964  1.00  0.00     0.175 S 
ATOM     34  C   UNL A   1      32.507  16.724  25.240  1.00  0.00     0.163 C 
ATOM     35  O   UNL A   1      32.910  17.115  22.677  1.00  0.00    -0.224 OA
ATOM     36  O   UNL A   1      34.850  17.348  24.276  1.00  0.00    -0.224 OA
ENDBRANCH  32  33
ENDBRANCH  15  27
ENDBRANCH   7  12
ENDBRANCH   3   6
ENDBRANCH   1   2
BRANCH   1  37
ATOM     37  C   UNL A   1      32.386  33.163  27.279  1.00  0.00     0.042 C 
BRANCH  37  38
ATOM     38  C   UNL A   1      33.584  33.762  28.012  1.00  0.00     0.118 C 
BRANCH  38  39
ATOM     39  N   UNL A   1      33.181  34.482  29.210  1.00  0.00    -0.352 N 
ATOM     40  C   UNL A   1      33.672  34.414  30.487  1.00  0.00     0.251 C 
ATOM     41  H   UNL A   1      32.440  35.118  29.083  1.00  0.00     0.163 HD
ATOM     42  O   UNL A   1      33.041  34.932  31.405  1.00  0.00    -0.269 OA
BRANCH  40  43
ATOM     43  C   UNL A   1      34.947  33.722  30.776  1.00  0.00     0.039 A 
ATOM     44  C   UNL A   1      34.941  32.672  31.699  1.00  0.00     0.014 A 
ATOM     45  C   UNL A   1      36.151  34.140  30.203  1.00  0.00     0.014 A 
ATOM     46  C   UNL A   1      36.132  32.017  32.019  1.00  0.00     0.010 A 
ATOM     47  C   UNL A   1      37.329  33.444  30.472  1.00  0.00     0.010 A 
ATOM     48  C   UNL A   1      37.333  32.386  31.392  1.00  0.00    -0.014 A 
BRANCH  48  49
ATOM     49  C   UNL A   1      38.598  31.676  31.697  1.00  0.00     0.031 A 
ATOM     50  C   UNL A   1      39.045  30.512  30.857  1.00  0.00     0.074 A 
ATOM     51  C   UNL A   1      39.319  32.043  32.774  1.00  0.00     0.049 A 
ATOM     52  N   UNL A   1      40.109  29.761  30.987  1.00  0.00    -0.248 NA
ATOM     53  C   UNL A   1      38.167  30.126  29.742  1.00  0.00     0.031 C 
ATOM     54  C   UNL A   1      38.963  33.116  33.704  1.00  0.00     0.029 A 
ATOM     55  N   UNL A   1      40.496  31.544  33.271  1.00  0.00    -0.354 N 
ATOM     56  C   UNL A   1      40.016  28.800  29.988  1.00  0.00     0.074 A 
ATOM     57  C   UNL A   1      38.772  29.039  29.288  1.00  0.00     0.031 C 
ATOM     58  C   UNL A   1      39.910  33.205  34.651  1.00  0.00     0.029 A 
ATOM     59  C   UNL A   1      40.922  32.181  34.409  1.00  0.00     0.049 A 
ATOM     60  H   UNL A   1      40.988  30.802  32.852  1.00  0.00     0.167 HD
ATOM     61  C   UNL A   1      40.892  27.816  29.672  1.00  0.00     0.031 A 
ATOM     62  C   UNL A   1      42.007  31.967  35.177  1.00  0.00     0.031 A 
ATOM     63  C   UNL A   1      42.134  27.584  30.361  1.00  0.00     0.049 A 
ATOM     64  C   UNL A   1      42.983  30.894  34.790  1.00  0.00     0.074 A 
ATOM     65  C   UNL A   1      43.128  26.667  30.066  1.00  0.00     0.029 A 
ATOM     66  N   UNL A   1      42.548  28.274  31.491  1.00  0.00    -0.354 N 
ATOM     67  N   UNL A   1      42.927  30.053  33.787  1.00  0.00    -0.248 NA
ATOM     68  C   UNL A   1      44.177  30.754  35.632  1.00  0.00     0.031 C 
ATOM     69  C   UNL A   1      44.122  26.769  31.048  1.00  0.00     0.029 A 
ATOM     70  C   UNL A   1      43.769  27.784  31.923  1.00  0.00     0.049 A 
ATOM     71  H   UNL A   1      42.048  29.004  31.922  1.00  0.00     0.167 HD
ATOM     72  C   UNL A   1      44.084  29.291  33.868  1.00  0.00     0.074 A 
ATOM     73  C   UNL A   1      44.833  29.786  35.006  1.00  0.00     0.031 C 
ATOM     74  C   UNL A   1      44.491  28.272  33.071  1.00  0.00     0.031 A 
BRANCH  61  75
ATOM     75  C   UNL A   1      40.518  26.904  28.536  1.00  0.00    -0.014 A 
ATOM     76  C   UNL A   1      39.629  25.832  28.720  1.00  0.00     0.009 A 
ATOM     77  C   UNL A   1      41.064  27.120  27.261  1.00  0.00     0.009 A 
ATOM     78  C   UNL A   1      39.333  24.967  27.663  1.00  0.00     0.001 A 
ATOM     79  C   UNL A   1      40.743  26.272  26.199  1.00  0.00     0.001 A 
ATOM     80  C   UNL A   1      39.890  25.189  26.405  1.00  0.00     0.000 A 
ENDBRANCH  61  75
BRANCH  62  81
ATOM     81  C   UNL A   1      42.229  32.810  36.378  1.00  0.00    -0.014 A 
ATOM     82  C   UNL A   1      42.922  34.024  36.278  1.00  0.00     0.009 A 
ATOM     83  C   UNL A   1      41.713  32.420  37.624  1.00  0.00     0.009 A 
ATOM     84  C   UNL A   1      43.107  34.827  37.406  1.00  0.00     0.001 A 
ATOM     85  C   UNL A   1      41.878  33.236  38.745  1.00  0.00     0.001 A 
ATOM     86  C   UNL A   1      42.580  34.436  38.636  1.00  0.00     0.000 A 
ENDBRANCH  62  81
BRANCH  74  87
ATOM     87  C   UNL A   1      45.808  27.631  33.406  1.00  0.00    -0.014 A 
ATOM     88  C   UNL A   1      45.879  26.527  34.269  1.00  0.00     0.009 A 
ATOM     89  C   UNL A   1      46.990  28.125  32.833  1.00  0.00     0.009 A 
ATOM     90  C   UNL A   1      47.114  25.954  34.582  1.00  0.00     0.001 A 
ATOM     91  C   UNL A   1      48.219  27.533  33.125  1.00  0.00     0.001 A 
ATOM     92  C   UNL A   1      48.282  26.455  34.008  1.00  0.00     0.000 A 
ENDBRANCH  74  87
ENDBRANCH  48  49
ENDBRANCH  40  43
ENDBRANCH  38  39
ENDBRANCH  37  38
ENDBRANCH   1  37
TORSDOF 16
ENDMDL
MODEL 3
REMARK VINA RESULT:     -11.6      4.455      9.498
REMARK SMILES COc1ccc([C@H]2CC(c3ccc(S(C)(=O)=O)cc3)=NN2c2ccc(C(=O)NCCCNC(=O)c3ccc(-c4c5nc(c(-c6ccccc6)c6ccc([nH]6)c(-c6ccccc6)c6nc(c(-c7ccccc7)c7ccc4[nH]7)C=C6)C=C5)cc3)cc2)cc1OC
REMARK SMILES IDX 29 1 28 2 26 3 27 4 25 6 22 7 23 8 84 9 24 10 83 11 21 12
REMARK SMILES IDX 7 13 8 14 9 15 20 16 6 17 3 18 4 19 86 20 5 21 85 22 2 23
REMARK SMILES IDX 1 24 87 25 88 26 10 27 11 28 19 29 12 30 18 31 13 32 14 33
REMARK SMILES IDX 15 34 16 35 17 36 30 37 31 38 32 39 33 40 34 42 35 43 36 44
REMARK SMILES IDX 82 45 37 46 81 47 38 48 39 49 40 50 75 51 41 52 80 53 74 54
REMARK SMILES IDX 76 55 42 56 79 57 73 58 72 59 43 61 65 62 50 63 64 64 51 65
REMARK SMILES IDX 54 66 63 67 77 68 52 69 53 70 62 72 78 73 55 74 44 75 45 76
REMARK SMILES IDX 49 77 46 78 48 79 47 80 66 81 67 82 71 83 68 84 70 85 69 86
REMARK SMILES IDX 56 87 57 88 61 89 58 90 60 91 59 92
REMARK H PARENT 28 5 32 41 76 60 54 71
REMARK Flexibility Score: inf
ROOT
ATOM      1  C   UNL A   1      35.848  21.344  25.504  1.00  0.00     0.118 C 
ENDROOT
BRANCH   1   2
ATOM      2  N   UNL A   1      34.706  21.085  24.650  1.00  0.00    -0.352 N 
ATOM      3  C   UNL A   1      33.667  21.875  24.233  1.00  0.00     0.251 C 
ATOM      4  O   UNL A   1      32.842  21.363  23.473  1.00  0.00    -0.269 OA
ATOM      5  H   UNL A   1      34.669  20.164  24.304  1.00  0.00     0.163 HD
BRANCH   3   6
ATOM      6  C   UNL A   1      33.521  23.307  24.609  1.00  0.00     0.039 A 
ATOM      7  C   UNL A   1      33.395  26.072  25.193  1.00  0.00     0.060 A 
ATOM      8  C   UNL A   1      34.033  25.609  24.036  1.00  0.00     0.029 A 
ATOM      9  C   UNL A   1      32.778  25.140  26.025  1.00  0.00     0.029 A 
ATOM     10  C   UNL A   1      34.116  24.243  23.757  1.00  0.00     0.016 A 
ATOM     11  C   UNL A   1      32.807  23.774  25.716  1.00  0.00     0.016 A 
BRANCH   7  12
ATOM     12  N   UNL A   1      33.386  27.426  25.469  1.00  0.00    -0.257 N 
ATOM     13  C   UNL A   1      33.036  28.489  24.524  1.00  0.00     0.144 C 
ATOM     14  C   UNL A   1      33.156  29.743  25.406  1.00  0.00     0.091 C 
ATOM     15  C   UNL A   1      33.962  29.161  26.537  1.00  0.00     0.071 C 
ATOM     16  N   UNL A   1      34.040  27.868  26.569  1.00  0.00    -0.176 NA
BRANCH  13  17
ATOM     17  C   UNL A   1      31.663  28.270  23.912  1.00  0.00    -0.019 A 
ATOM     18  C   UNL A   1      29.013  28.104  22.955  1.00  0.00     0.160 A 
ATOM     19  C   UNL A   1      29.442  27.288  24.011  1.00  0.00     0.051 A 
ATOM     20  C   UNL A   1      29.907  28.994  22.352  1.00  0.00     0.161 A 
ATOM     21  C   UNL A   1      30.759  27.366  24.483  1.00  0.00     0.010 A 
ATOM     22  C   UNL A   1      31.224  29.051  22.829  1.00  0.00     0.056 A 
BRANCH  18  23
ATOM     23  O   UNL A   1      27.682  28.103  22.629  1.00  0.00    -0.493 OA
ATOM     24  C   UNL A   1      26.907  28.921  23.501  1.00  0.00     0.278 C 
ENDBRANCH  18  23
BRANCH  20  25
ATOM     25  O   UNL A   1      29.678  29.883  21.337  1.00  0.00    -0.493 OA
ATOM     26  C   UNL A   1      29.105  31.142  21.649  1.00  0.00     0.278 C 
ENDBRANCH  20  25
ENDBRANCH  13  17
BRANCH  15  27
ATOM     27  C   UNL A   1      34.640  29.994  27.535  1.00  0.00    -0.002 A 
ATOM     28  C   UNL A   1      34.175  31.303  27.714  1.00  0.00     0.011 A 
ATOM     29  C   UNL A   1      35.754  29.527  28.232  1.00  0.00     0.011 A 
ATOM     30  C   UNL A   1      34.822  32.155  28.606  1.00  0.00     0.021 A 
ATOM     31  C   UNL A   1      36.422  30.389  29.107  1.00  0.00     0.021 A 
ATOM     32  C   UNL A   1      35.955  31.697  29.284  1.00  0.00     0.067 A 
BRANCH  32  33
ATOM     33  S   UNL A   1      36.799  32.805  30.390  1.00  0.00     0.175 S 
ATOM     34  C   UNL A   1      37.755  33.850  29.320  1.00  0.00     0.163 C 
ATOM     35  O   UNL A   1      35.774  33.615  31.025  1.00  0.00    -0.224 OA
ATOM     36  O   UNL A   1      37.725  32.019  31.177  1.00  0.00    -0.224 OA
ENDBRANCH  32  33
ENDBRANCH  15  27
ENDBRANCH   7  12
ENDBRANCH   3   6
ENDBRANCH   1   2
BRANCH   1  37
ATOM     37  C   UNL A   1      37.032  21.862  24.688  1.00  0.00     0.042 C 
BRANCH  37  38
ATOM     38  C   UNL A   1      38.348  21.845  25.460  1.00  0.00     0.118 C 
BRANCH  38  39
ATOM     39  N   UNL A   1      38.874  20.497  25.606  1.00  0.00    -0.352 N 
ATOM     40  C   UNL A   1      40.144  20.071  25.895  1.00  0.00     0.251 C 
ATOM     41  H   UNL A   1      38.214  19.778  25.478  1.00  0.00     0.163 HD
ATOM     42  O   UNL A   1      40.432  18.887  25.743  1.00  0.00    -0.269 OA
BRANCH  40  43
ATOM     43  C   UNL A   1      41.171  21.018  26.382  1.00  0.00     0.039 A 
ATOM     44  C   UNL A   1      42.509  20.771  26.060  1.00  0.00     0.014 A 
ATOM     45  C   UNL A   1      40.839  22.099  27.203  1.00  0.00     0.014 A 
ATOM     46  C   UNL A   1      43.508  21.627  26.530  1.00  0.00     0.010 A 
ATOM     47  C   UNL A   1      41.828  22.990  27.616  1.00  0.00     0.010 A 
ATOM     48  C   UNL A   1      43.172  22.754  27.296  1.00  0.00    -0.014 A 
BRANCH  48  49
ATOM     49  C   UNL A   1      44.221  23.690  27.770  1.00  0.00     0.031 A 
ATOM     50  C   UNL A   1      44.439  23.913  29.240  1.00  0.00     0.074 A 
ATOM     51  C   UNL A   1      44.940  24.387  26.870  1.00  0.00     0.049 A 
ATOM     52  N   UNL A   1      45.294  24.706  29.836  1.00  0.00    -0.248 NA
ATOM     53  C   UNL A   1      43.565  23.169  30.160  1.00  0.00     0.031 C 
ATOM     54  C   UNL A   1      44.784  24.306  25.417  1.00  0.00     0.029 A 
ATOM     55  N   UNL A   1      45.940  25.308  27.050  1.00  0.00    -0.354 N 
ATOM     56  C   UNL A   1      45.044  24.574  31.197  1.00  0.00     0.074 A 
ATOM     57  C   UNL A   1      43.931  23.658  31.334  1.00  0.00     0.031 C 
ATOM     58  C   UNL A   1      45.668  25.133  24.837  1.00  0.00     0.029 A 
ATOM     59  C   UNL A   1      46.431  25.818  25.875  1.00  0.00     0.049 A 
ATOM     60  H   UNL A   1      46.273  25.578  27.936  1.00  0.00     0.167 HD
ATOM     61  C   UNL A   1      45.688  25.152  32.239  1.00  0.00     0.031 A 
ATOM     62  C   UNL A   1      47.390  26.737  25.653  1.00  0.00     0.031 A 
ATOM     63  C   UNL A   1      46.801  26.055  32.103  1.00  0.00     0.049 A 
ATOM     64  C   UNL A   1      48.116  27.340  26.821  1.00  0.00     0.074 A 
ATOM     65  C   UNL A   1      47.574  26.629  33.098  1.00  0.00     0.029 A 
ATOM     66  N   UNL A   1      47.293  26.522  30.894  1.00  0.00    -0.354 N 
ATOM     67  N   UNL A   1      47.930  27.135  28.101  1.00  0.00    -0.248 NA
ATOM     68  C   UNL A   1      49.193  28.287  26.509  1.00  0.00     0.031 C 
ATOM     69  C   UNL A   1      48.504  27.482  32.490  1.00  0.00     0.029 A 
ATOM     70  C   UNL A   1      48.341  27.399  31.116  1.00  0.00     0.049 A 
ATOM     71  H   UNL A   1      46.948  26.268  30.008  1.00  0.00     0.167 HD
ATOM     72  C   UNL A   1      48.875  27.917  28.750  1.00  0.00     0.074 A 
ATOM     73  C   UNL A   1      49.647  28.582  27.720  1.00  0.00     0.031 C 
ATOM     74  C   UNL A   1      49.085  28.071  30.081  1.00  0.00     0.031 A 
BRANCH  61  75
ATOM     75  C   UNL A   1      45.185  24.832  33.620  1.00  0.00    -0.014 A 
ATOM     76  C   UNL A   1      45.693  23.745  34.350  1.00  0.00     0.009 A 
ATOM     77  C   UNL A   1      44.187  25.630  34.199  1.00  0.00     0.009 A 
ATOM     78  C   UNL A   1      45.177  23.435  35.611  1.00  0.00     0.001 A 
ATOM     79  C   UNL A   1      43.694  25.337  35.472  1.00  0.00     0.001 A 
ATOM     80  C   UNL A   1      44.179  24.232  36.170  1.00  0.00     0.000 A 
ENDBRANCH  61  75
BRANCH  62  81
ATOM     81  C   UNL A   1      47.726  27.119  24.259  1.00  0.00    -0.014 A 
ATOM     82  C   UNL A   1      48.761  26.470  23.572  1.00  0.00     0.009 A 
ATOM     83  C   UNL A   1      46.985  28.111  23.597  1.00  0.00     0.009 A 
ATOM     84  C   UNL A   1      49.058  26.815  22.252  1.00  0.00     0.001 A 
ATOM     85  C   UNL A   1      47.268  28.436  22.269  1.00  0.00     0.001 A 
ATOM     86  C   UNL A   1      48.307  27.792  21.600  1.00  0.00     0.000 A 
ENDBRANCH  62  81
BRANCH  74  87
ATOM     87  C   UNL A   1      50.198  28.993  30.492  1.00  0.00    -0.014 A 
ATOM     88  C   UNL A   1      51.506  28.516  30.670  1.00  0.00     0.009 A 
ATOM     89  C   UNL A   1      49.939  30.358  30.682  1.00  0.00     0.009 A 
ATOM     90  C   UNL A   1      52.525  29.384  31.067  1.00  0.00     0.001 A 
ATOM     91  C   UNL A   1      50.966  31.228  31.053  1.00  0.00     0.001 A 
ATOM     92  C   UNL A   1      52.255  30.739  31.255  1.00  0.00     0.000 A 
ENDBRANCH  74  87
ENDBRANCH  48  49
ENDBRANCH  40  43
ENDBRANCH  38  39
ENDBRANCH  37  38
ENDBRANCH   1  37
TORSDOF 16
ENDMDL
