MODEL 1
REMARK VINA RESULT:     -13.4      0.000      0.000
REMARK SMILES Cc1ccc(C(=O)NC2CC2)cc1NC(=O)[C@@H]1[C@@H](C(=O)NCCCNC(=O)c2ccc(-c3c4nc(c(-c5ccccc5)c5ccc([nH]5)c(-c5ccccc5)c5nc(c(-c6ccccc6)c6ccc3[nH]6)C=C5)C=C4)cc2)[C@H]2C=C[C@@H]1C2
REMARK SMILES IDX 22 1 21 2 19 3 20 4 18 6 17 7 79 8 76 9 78 10 80 11 77 12
REMARK SMILES IDX 15 13 14 14 16 16 13 17 1 18 2 19 3 20 4 21 12 22 5 23 6 24
REMARK SMILES IDX 7 25 8 26 9 28 10 29 11 30 23 31 24 32 25 33 26 34 27 36
REMARK SMILES IDX 28 37 29 38 75 39 30 40 74 41 31 42 32 43 33 44 68 45 34 46
REMARK SMILES IDX 73 47 67 48 69 49 35 50 72 51 66 52 65 53 36 55 58 56 43 57
REMARK SMILES IDX 57 58 44 59 47 60 56 61 70 62 45 63 46 64 55 66 71 67 48 68
REMARK SMILES IDX 37 69 38 70 42 71 39 72 41 73 40 74 59 75 60 76 64 77 61 78
REMARK SMILES IDX 63 79 62 80 49 81 50 82 54 83 51 84 53 85 52 86
REMARK H PARENT 21 5 14 15 8 27 25 35 69 54 47 65
REMARK Flexibility Score: inf
ROOT
ATOM      1  C   UNL A   1      32.774  28.358  27.539  1.00  0.00     0.117 C 
ENDROOT
BRANCH   1   2
ATOM      2  N   UNL A   1      33.522  27.592  26.559  1.00  0.00    -0.356 N 
ATOM      3  C   UNL A   1      33.162  26.713  25.592  1.00  0.00     0.224 C 
ATOM      4  O   UNL A   1      34.099  26.218  24.953  1.00  0.00    -0.275 OA
ATOM      5  H   UNL A   1      34.493  27.743  26.604  1.00  0.00     0.163 HD
BRANCH   3   6
ATOM      6  C   UNL A   1      31.738  26.236  25.314  1.00  0.00     0.098 C 
ATOM      7  C   UNL A   1      31.751  24.661  25.168  1.00  0.00     0.099 C 
ATOM      8  C   UNL A   1      30.853  24.418  23.927  1.00  0.00     0.025 C 
ATOM      9  C   UNL A   1      30.986  26.651  24.031  1.00  0.00     0.025 C 
ATOM     10  C   UNL A   1      31.625  24.869  22.713  1.00  0.00    -0.027 C 
ATOM     11  C   UNL A   1      29.875  25.592  24.014  1.00  0.00     0.017 C 
ATOM     12  C   UNL A   1      31.721  26.203  22.782  1.00  0.00    -0.027 C 
BRANCH   7  13
ATOM     13  C   UNL A   1      31.256  23.865  26.363  1.00  0.00     0.228 C 
ATOM     14  N   UNL A   1      31.642  22.557  26.554  1.00  0.00    -0.326 N 
ATOM     15  H   UNL A   1      31.208  22.124  27.325  1.00  0.00     0.169 HD
ATOM     16  O   UNL A   1      30.419  24.333  27.139  1.00  0.00    -0.274 OA
BRANCH  14  17
ATOM     17  C   UNL A   1      32.540  21.712  25.858  1.00  0.00     0.044 A 
ATOM     18  C   UNL A   1      34.566  22.987  26.829  1.00  0.00     0.046 C 
ATOM     19  C   UNL A   1      33.927  21.867  26.048  1.00  0.00    -0.027 A 
ATOM     20  C   UNL A   1      34.800  20.939  25.454  1.00  0.00     0.006 A 
ATOM     21  C   UNL A   1      34.315  19.880  24.687  1.00  0.00     0.014 A 
ATOM     22  C   UNL A   1      32.094  20.723  24.962  1.00  0.00     0.040 A 
ATOM     23  C   UNL A   1      32.947  19.758  24.416  1.00  0.00     0.041 A 
BRANCH  23  24
ATOM     24  C   UNL A   1      32.531  18.606  23.548  1.00  0.00     0.251 C 
ATOM     25  O   UNL A   1      32.257  18.826  22.365  1.00  0.00    -0.269 OA
ATOM     26  N   UNL A   1      32.464  17.292  23.963  1.00  0.00    -0.349 N 
ATOM     27  H   UNL A   1      32.184  16.659  23.261  1.00  0.00     0.164 HD
BRANCH  26  28
ATOM     28  C   UNL A   1      32.728  16.688  25.217  1.00  0.00     0.082 C 
ATOM     29  C   UNL A   1      32.739  15.189  25.334  1.00  0.00     0.027 C 
ATOM     30  C   UNL A   1      34.010  15.962  25.512  1.00  0.00     0.027 C 
ENDBRANCH  26  28
ENDBRANCH  23  24
ENDBRANCH  14  17
ENDBRANCH   7  13
ENDBRANCH   3   6
ENDBRANCH   1   2
BRANCH   1  31
ATOM     31  C   UNL A   1      32.660  29.826  27.159  1.00  0.00     0.042 C 
BRANCH  31  32
ATOM     32  C   UNL A   1      34.027  30.482  27.023  1.00  0.00     0.118 C 
BRANCH  32  33
ATOM     33  N   UNL A   1      34.409  31.306  28.169  1.00  0.00    -0.352 N 
ATOM     34  C   UNL A   1      35.419  31.110  29.100  1.00  0.00     0.251 C 
ATOM     35  H   UNL A   1      33.870  32.119  28.299  1.00  0.00     0.163 HD
ATOM     36  O   UNL A   1      35.586  31.902  30.005  1.00  0.00    -0.269 OA
BRANCH  34  37
ATOM     37  C   UNL A   1      36.377  29.993  28.893  1.00  0.00     0.039 A 
ATOM     38  C   UNL A   1      36.702  29.200  29.998  1.00  0.00     0.014 A 
ATOM     39  C   UNL A   1      37.106  29.892  27.712  1.00  0.00     0.014 A 
ATOM     40  C   UNL A   1      37.915  28.518  30.006  1.00  0.00     0.010 A 
ATOM     41  C   UNL A   1      38.356  29.310  27.758  1.00  0.00     0.010 A 
ATOM     42  C   UNL A   1      38.786  28.683  28.929  1.00  0.00    -0.014 A 
BRANCH  42  43
ATOM     43  C   UNL A   1      40.199  28.341  28.995  1.00  0.00     0.031 A 
ATOM     44  C   UNL A   1      40.685  27.068  28.435  1.00  0.00     0.074 A 
ATOM     45  C   UNL A   1      41.074  29.192  29.574  1.00  0.00     0.049 A 
ATOM     46  N   UNL A   1      41.686  26.409  28.913  1.00  0.00    -0.248 NA
ATOM     47  C   UNL A   1      40.038  26.409  27.305  1.00  0.00     0.031 C 
ATOM     48  C   UNL A   1      42.532  29.120  29.562  1.00  0.00     0.029 A 
ATOM     49  N   UNL A   1      40.798  30.207  30.476  1.00  0.00    -0.354 N 
ATOM     50  C   UNL A   1      41.987  25.421  28.009  1.00  0.00     0.074 A 
ATOM     51  C   UNL A   1      40.890  25.408  27.068  1.00  0.00     0.031 C 
ATOM     52  C   UNL A   1      43.012  29.867  30.570  1.00  0.00     0.029 A 
ATOM     53  C   UNL A   1      41.881  30.341  31.350  1.00  0.00     0.049 A 
ATOM     54  H   UNL A   1      39.974  30.746  30.498  1.00  0.00     0.167 HD
ATOM     55  C   UNL A   1      43.203  24.810  28.043  1.00  0.00     0.031 A 
ATOM     56  C   UNL A   1      41.722  30.144  32.692  1.00  0.00     0.031 A 
ATOM     57  C   UNL A   1      44.048  25.325  29.113  1.00  0.00     0.049 A 
ATOM     58  C   UNL A   1      42.482  28.943  33.222  1.00  0.00     0.074 A 
ATOM     59  C   UNL A   1      45.051  26.280  29.134  1.00  0.00     0.029 A 
ATOM     60  N   UNL A   1      43.691  25.098  30.435  1.00  0.00    -0.354 N 
ATOM     61  N   UNL A   1      43.007  28.019  32.464  1.00  0.00    -0.248 NA
ATOM     62  C   UNL A   1      42.668  28.662  34.645  1.00  0.00     0.031 C 
ATOM     63  C   UNL A   1      45.237  26.690  30.479  1.00  0.00     0.029 A 
ATOM     64  C   UNL A   1      44.372  25.959  31.273  1.00  0.00     0.049 A 
ATOM     65  H   UNL A   1      43.042  24.419  30.734  1.00  0.00     0.167 HD
ATOM     66  C   UNL A   1      43.559  27.040  33.246  1.00  0.00     0.074 A 
ATOM     67  C   UNL A   1      43.339  27.495  34.606  1.00  0.00     0.031 C 
ATOM     68  C   UNL A   1      44.135  25.926  32.709  1.00  0.00     0.031 A 
BRANCH  55  69
ATOM     69  C   UNL A   1      43.701  23.989  26.886  1.00  0.00    -0.014 A 
ATOM     70  C   UNL A   1      44.395  24.611  25.835  1.00  0.00     0.009 A 
ATOM     71  C   UNL A   1      43.465  22.610  26.755  1.00  0.00     0.009 A 
ATOM     72  C   UNL A   1      44.740  23.918  24.668  1.00  0.00     0.001 A 
ATOM     73  C   UNL A   1      43.769  21.921  25.574  1.00  0.00     0.001 A 
ATOM     74  C   UNL A   1      44.397  22.580  24.525  1.00  0.00     0.000 A 
ENDBRANCH  55  69
BRANCH  56  75
ATOM     75  C   UNL A   1      40.400  30.603  33.205  1.00  0.00    -0.014 A 
ATOM     76  C   UNL A   1      40.114  31.983  33.158  1.00  0.00     0.009 A 
ATOM     77  C   UNL A   1      39.336  29.705  33.369  1.00  0.00     0.009 A 
ATOM     78  C   UNL A   1      38.793  32.441  33.154  1.00  0.00     0.001 A 
ATOM     79  C   UNL A   1      38.015  30.170  33.374  1.00  0.00     0.001 A 
ATOM     80  C   UNL A   1      37.743  31.530  33.229  1.00  0.00     0.000 A 
ENDBRANCH  56  75
BRANCH  68  81
ATOM     81  C   UNL A   1      44.590  24.712  33.475  1.00  0.00    -0.014 A 
ATOM     82  C   UNL A   1      43.778  23.603  33.743  1.00  0.00     0.009 A 
ATOM     83  C   UNL A   1      45.955  24.605  33.825  1.00  0.00     0.009 A 
ATOM     84  C   UNL A   1      44.297  22.459  34.365  1.00  0.00     0.001 A 
ATOM     85  C   UNL A   1      46.484  23.450  34.404  1.00  0.00     0.001 A 
ATOM     86  C   UNL A   1      45.650  22.379  34.685  1.00  0.00     0.000 A 
ENDBRANCH  68  81
ENDBRANCH  42  43
ENDBRANCH  34  37
ENDBRANCH  32  33
ENDBRANCH  31  32
ENDBRANCH   1  31
TORSDOF 14
ENDMDL
MODEL 2
REMARK VINA RESULT:     -13.3      2.508      3.781
REMARK SMILES Cc1ccc(C(=O)NC2CC2)cc1NC(=O)[C@@H]1[C@@H](C(=O)NCCCNC(=O)c2ccc(-c3c4nc(c(-c5ccccc5)c5ccc([nH]5)c(-c5ccccc5)c5nc(c(-c6ccccc6)c6ccc3[nH]6)C=C5)C=C4)cc2)[C@H]2C=C[C@@H]1C2
REMARK SMILES IDX 22 1 21 2 19 3 20 4 18 6 17 7 79 8 76 9 78 10 80 11 77 12
REMARK SMILES IDX 15 13 14 14 16 16 13 17 1 18 2 19 3 20 4 21 12 22 5 23 6 24
REMARK SMILES IDX 7 25 8 26 9 28 10 29 11 30 23 31 24 32 25 33 26 34 27 36
REMARK SMILES IDX 28 37 29 38 75 39 30 40 74 41 31 42 32 43 33 44 68 45 34 46
REMARK SMILES IDX 73 47 67 48 69 49 35 50 72 51 66 52 65 53 36 55 58 56 43 57
REMARK SMILES IDX 57 58 44 59 47 60 56 61 70 62 45 63 46 64 55 66 71 67 48 68
REMARK SMILES IDX 37 69 38 70 42 71 39 72 41 73 40 74 59 75 60 76 64 77 61 78
REMARK SMILES IDX 63 79 62 80 49 81 50 82 54 83 51 84 53 85 52 86
REMARK H PARENT 21 5 14 15 8 27 25 35 69 54 47 65
REMARK Flexibility Score: inf
ROOT
ATOM      1  C   UNL A   1      33.115  29.814  26.855  1.00  0.00     0.117 C 
ENDROOT
BRANCH   1   2
ATOM      2  N   UNL A   1      33.305  29.720  25.419  1.00  0.00    -0.356 N 
ATOM      3  C   UNL A   1      32.638  29.076  24.431  1.00  0.00     0.224 C 
ATOM      4  O   UNL A   1      33.121  29.200  23.299  1.00  0.00    -0.275 OA
ATOM      5  H   UNL A   1      34.080  30.232  25.094  1.00  0.00     0.163 HD
BRANCH   3   6
ATOM      6  C   UNL A   1      31.430  28.161  24.628  1.00  0.00     0.098 C 
ATOM      7  C   UNL A   1      31.946  26.680  24.833  1.00  0.00     0.099 C 
ATOM      8  C   UNL A   1      30.987  25.850  23.940  1.00  0.00     0.025 C 
ATOM      9  C   UNL A   1      30.380  27.964  23.514  1.00  0.00     0.025 C 
ATOM     10  C   UNL A   1      31.350  26.130  22.503  1.00  0.00    -0.027 C 
ATOM     11  C   UNL A   1      29.701  26.678  24.006  1.00  0.00     0.017 C 
ATOM     12  C   UNL A   1      31.004  27.399  22.251  1.00  0.00    -0.027 C 
BRANCH   7  13
ATOM     13  C   UNL A   1      31.951  26.155  26.259  1.00  0.00     0.228 C 
ATOM     14  N   UNL A   1      32.435  24.900  26.550  1.00  0.00    -0.326 N 
ATOM     15  H   UNL A   1      32.330  24.644  27.496  1.00  0.00     0.169 HD
ATOM     16  O   UNL A   1      31.434  26.797  27.177  1.00  0.00    -0.274 OA
BRANCH  14  17
ATOM     17  C   UNL A   1      33.054  23.903  25.758  1.00  0.00     0.044 A 
ATOM     18  C   UNL A   1      30.934  22.432  25.865  1.00  0.00     0.046 C 
ATOM     19  C   UNL A   1      32.317  22.768  25.368  1.00  0.00    -0.027 A 
ATOM     20  C   UNL A   1      32.902  21.853  24.476  1.00  0.00     0.006 A 
ATOM     21  C   UNL A   1      34.189  22.053  23.977  1.00  0.00     0.014 A 
ATOM     22  C   UNL A   1      34.398  23.999  25.353  1.00  0.00     0.040 A 
ATOM     23  C   UNL A   1      34.969  23.129  24.417  1.00  0.00     0.041 A 
BRANCH  23  24
ATOM     24  C   UNL A   1      36.355  23.234  23.849  1.00  0.00     0.251 C 
ATOM     25  O   UNL A   1      36.493  23.234  22.622  1.00  0.00    -0.269 OA
ATOM     26  N   UNL A   1      37.505  23.369  24.600  1.00  0.00    -0.349 N 
ATOM     27  H   UNL A   1      38.331  23.436  24.066  1.00  0.00     0.164 HD
BRANCH  26  28
ATOM     28  C   UNL A   1      37.711  23.429  26.000  1.00  0.00     0.082 C 
ATOM     29  C   UNL A   1      39.056  23.073  26.571  1.00  0.00     0.027 C 
ATOM     30  C   UNL A   1      38.562  24.485  26.648  1.00  0.00     0.027 C 
ENDBRANCH  26  28
ENDBRANCH  23  24
ENDBRANCH  14  17
ENDBRANCH   7  13
ENDBRANCH   3   6
ENDBRANCH   1   2
BRANCH   1  31
ATOM     31  C   UNL A   1      34.434  29.918  27.605  1.00  0.00     0.042 C 
BRANCH  31  32
ATOM     32  C   UNL A   1      35.001  31.330  27.558  1.00  0.00     0.118 C 
BRANCH  32  33
ATOM     33  N   UNL A   1      34.132  32.342  28.159  1.00  0.00    -0.352 N 
ATOM     34  C   UNL A   1      34.347  33.143  29.271  1.00  0.00     0.251 C 
ATOM     35  H   UNL A   1      33.267  32.473  27.708  1.00  0.00     0.163 HD
ATOM     36  O   UNL A   1      33.497  33.930  29.638  1.00  0.00    -0.269 OA
BRANCH  34  37
ATOM     37  C   UNL A   1      35.682  33.122  29.922  1.00  0.00     0.039 A 
ATOM     38  C   UNL A   1      36.718  33.832  29.306  1.00  0.00     0.014 A 
ATOM     39  C   UNL A   1      35.953  32.238  30.961  1.00  0.00     0.014 A 
ATOM     40  C   UNL A   1      38.035  33.449  29.546  1.00  0.00     0.010 A 
ATOM     41  C   UNL A   1      37.245  31.782  31.119  1.00  0.00     0.010 A 
ATOM     42  C   UNL A   1      38.275  32.342  30.359  1.00  0.00    -0.014 A 
BRANCH  42  43
ATOM     43  C   UNL A   1      39.546  31.632  30.375  1.00  0.00     0.031 A 
ATOM     44  C   UNL A   1      39.691  30.349  29.666  1.00  0.00     0.074 A 
ATOM     45  C   UNL A   1      40.600  32.148  31.045  1.00  0.00     0.049 A 
ATOM     46  N   UNL A   1      40.470  29.397  30.057  1.00  0.00    -0.248 NA
ATOM     47  C   UNL A   1      38.922  30.021  28.471  1.00  0.00     0.031 C 
ATOM     48  C   UNL A   1      41.986  31.693  31.016  1.00  0.00     0.029 A 
ATOM     49  N   UNL A   1      40.579  33.089  32.062  1.00  0.00    -0.354 N 
ATOM     50  C   UNL A   1      40.522  28.477  29.040  1.00  0.00     0.074 A 
ATOM     51  C   UNL A   1      39.485  28.864  28.111  1.00  0.00     0.031 C 
ATOM     52  C   UNL A   1      42.621  32.165  32.101  1.00  0.00     0.029 A 
ATOM     53  C   UNL A   1      41.636  32.829  32.939  1.00  0.00     0.049 A 
ATOM     54  H   UNL A   1      39.926  33.821  32.153  1.00  0.00     0.167 HD
ATOM     55  C   UNL A   1      41.532  27.564  28.995  1.00  0.00     0.031 A 
ATOM     56  C   UNL A   1      41.397  32.527  34.250  1.00  0.00     0.031 A 
ATOM     57  C   UNL A   1      42.455  27.710  30.112  1.00  0.00     0.049 A 
ATOM     58  C   UNL A   1      41.799  31.115  34.630  1.00  0.00     0.074 A 
ATOM     59  C   UNL A   1      43.675  28.355  30.240  1.00  0.00     0.029 A 
ATOM     60  N   UNL A   1      42.018  27.435  31.401  1.00  0.00    -0.354 N 
ATOM     61  N   UNL A   1      42.079  30.179  33.765  1.00  0.00    -0.248 NA
ATOM     62  C   UNL A   1      41.868  30.633  36.008  1.00  0.00     0.031 C 
ATOM     63  C   UNL A   1      43.928  28.543  31.623  1.00  0.00     0.029 A 
ATOM     64  C   UNL A   1      42.881  27.982  32.331  1.00  0.00     0.049 A 
ATOM     65  H   UNL A   1      41.206  26.923  31.622  1.00  0.00     0.167 HD
ATOM     66  C   UNL A   1      42.333  29.005  34.422  1.00  0.00     0.074 A 
ATOM     67  C   UNL A   1      42.207  29.342  35.828  1.00  0.00     0.031 C 
ATOM     68  C   UNL A   1      42.607  27.847  33.754  1.00  0.00     0.031 A 
BRANCH  55  69
ATOM     69  C   UNL A   1      41.824  26.780  27.746  1.00  0.00    -0.014 A 
ATOM     70  C   UNL A   1      41.935  25.381  27.809  1.00  0.00     0.009 A 
ATOM     71  C   UNL A   1      42.055  27.374  26.493  1.00  0.00     0.009 A 
ATOM     72  C   UNL A   1      42.357  24.625  26.709  1.00  0.00     0.001 A 
ATOM     73  C   UNL A   1      42.519  26.629  25.401  1.00  0.00     0.001 A 
ATOM     74  C   UNL A   1      42.681  25.254  25.514  1.00  0.00     0.000 A 
ENDBRANCH  55  69
BRANCH  56  75
ATOM     75  C   UNL A   1      40.230  33.259  34.821  1.00  0.00    -0.014 A 
ATOM     76  C   UNL A   1      38.982  32.603  34.841  1.00  0.00     0.009 A 
ATOM     77  C   UNL A   1      40.412  34.376  35.647  1.00  0.00     0.009 A 
ATOM     78  C   UNL A   1      37.988  32.982  35.748  1.00  0.00     0.001 A 
ATOM     79  C   UNL A   1      39.408  34.758  36.547  1.00  0.00     0.001 A 
ATOM     80  C   UNL A   1      38.215  34.040  36.623  1.00  0.00     0.000 A 
ENDBRANCH  56  75
BRANCH  68  81
ATOM     81  C   UNL A   1      42.706  26.476  34.368  1.00  0.00    -0.014 A 
ATOM     82  C   UNL A   1      41.720  25.909  35.186  1.00  0.00     0.009 A 
ATOM     83  C   UNL A   1      43.782  25.641  33.991  1.00  0.00     0.009 A 
ATOM     84  C   UNL A   1      41.825  24.585  35.634  1.00  0.00     0.001 A 
ATOM     85  C   UNL A   1      43.867  24.309  34.400  1.00  0.00     0.001 A 
ATOM     86  C   UNL A   1      42.891  23.783  35.234  1.00  0.00     0.000 A 
ENDBRANCH  68  81
ENDBRANCH  42  43
ENDBRANCH  34  37
ENDBRANCH  32  33
ENDBRANCH  31  32
ENDBRANCH   1  31
TORSDOF 14
ENDMDL
MODEL 3
REMARK VINA RESULT:     -13.1      3.668      9.288
REMARK SMILES Cc1ccc(C(=O)NC2CC2)cc1NC(=O)[C@@H]1[C@@H](C(=O)NCCCNC(=O)c2ccc(-c3c4nc(c(-c5ccccc5)c5ccc([nH]5)c(-c5ccccc5)c5nc(c(-c6ccccc6)c6ccc3[nH]6)C=C5)C=C4)cc2)[C@H]2C=C[C@@H]1C2
REMARK SMILES IDX 22 1 21 2 19 3 20 4 18 6 17 7 79 8 76 9 78 10 80 11 77 12
REMARK SMILES IDX 15 13 14 14 16 16 13 17 1 18 2 19 3 20 4 21 12 22 5 23 6 24
REMARK SMILES IDX 7 25 8 26 9 28 10 29 11 30 23 31 24 32 25 33 26 34 27 36
REMARK SMILES IDX 28 37 29 38 75 39 30 40 74 41 31 42 32 43 33 44 68 45 34 46
REMARK SMILES IDX 73 47 67 48 69 49 35 50 72 51 66 52 65 53 36 55 58 56 43 57
REMARK SMILES IDX 57 58 44 59 47 60 56 61 70 62 45 63 46 64 55 66 71 67 48 68
REMARK SMILES IDX 37 69 38 70 42 71 39 72 41 73 40 74 59 75 60 76 64 77 61 78
REMARK SMILES IDX 63 79 62 80 49 81 50 82 54 83 51 84 53 85 52 86
REMARK H PARENT 21 5 14 15 8 27 25 35 69 54 47 65
REMARK Flexibility Score: inf
ROOT
ATOM      1  C   UNL A   1      36.111  21.935  24.819  1.00  0.00     0.117 C 
ENDROOT
BRANCH   1   2
ATOM      2  N   UNL A   1      35.613  23.220  25.274  1.00  0.00    -0.356 N 
ATOM      3  C   UNL A   1      34.519  23.958  24.962  1.00  0.00     0.224 C 
ATOM      4  O   UNL A   1      34.436  25.049  25.540  1.00  0.00    -0.275 OA
ATOM      5  H   UNL A   1      36.187  23.645  25.950  1.00  0.00     0.163 HD
BRANCH   3   6
ATOM      6  C   UNL A   1      33.473  23.592  23.911  1.00  0.00     0.098 C 
ATOM      7  C   UNL A   1      32.636  24.886  23.557  1.00  0.00     0.099 C 
ATOM      8  C   UNL A   1      31.177  24.364  23.537  1.00  0.00     0.025 C 
ATOM      9  C   UNL A   1      32.349  22.579  24.214  1.00  0.00     0.025 C 
ATOM     10  C   UNL A   1      30.773  24.089  24.964  1.00  0.00    -0.027 C 
ATOM     11  C   UNL A   1      31.369  22.915  23.081  1.00  0.00     0.017 C 
ATOM     12  C   UNL A   1      31.486  23.033  25.377  1.00  0.00    -0.027 C 
BRANCH   7  13
ATOM     13  C   UNL A   1      32.983  25.582  22.252  1.00  0.00     0.228 C 
ATOM     14  N   UNL A   1      32.469  26.824  21.952  1.00  0.00    -0.326 N 
ATOM     15  H   UNL A   1      32.712  27.147  21.053  1.00  0.00     0.169 HD
ATOM     16  O   UNL A   1      33.653  25.015  21.384  1.00  0.00    -0.274 OA
BRANCH  14  17
ATOM     17  C   UNL A   1      31.659  27.728  22.681  1.00  0.00     0.044 A 
ATOM     18  C   UNL A   1      33.629  28.302  24.249  1.00  0.00     0.046 C 
ATOM     19  C   UNL A   1      32.229  28.486  23.722  1.00  0.00    -0.027 A 
ATOM     20  C   UNL A   1      31.447  29.471  24.351  1.00  0.00     0.006 A 
ATOM     21  C   UNL A   1      30.128  29.704  23.959  1.00  0.00     0.014 A 
ATOM     22  C   UNL A   1      30.287  27.887  22.412  1.00  0.00     0.040 A 
ATOM     23  C   UNL A   1      29.517  28.904  22.986  1.00  0.00     0.041 A 
BRANCH  23  24
ATOM     24  C   UNL A   1      28.083  29.211  22.665  1.00  0.00     0.251 C 
ATOM     25  O   UNL A   1      27.204  28.477  23.126  1.00  0.00    -0.269 OA
ATOM     26  N   UNL A   1      27.658  30.286  21.912  1.00  0.00    -0.349 N 
ATOM     27  H   UNL A   1      26.680  30.345  21.808  1.00  0.00     0.164 HD
BRANCH  26  28
ATOM     28  C   UNL A   1      28.375  31.321  21.263  1.00  0.00     0.082 C 
ATOM     29  C   UNL A   1      27.653  32.563  20.820  1.00  0.00     0.027 C 
ATOM     30  C   UNL A   1      28.666  32.640  21.921  1.00  0.00     0.027 C 
ENDBRANCH  26  28
ENDBRANCH  23  24
ENDBRANCH  14  17
ENDBRANCH   7  13
ENDBRANCH   3   6
ENDBRANCH   1   2
BRANCH   1  31
ATOM     31  C   UNL A   1      37.615  21.803  25.004  1.00  0.00     0.042 C 
BRANCH  31  32
ATOM     32  C   UNL A   1      38.175  22.907  25.891  1.00  0.00     0.118 C 
BRANCH  32  33
ATOM     33  N   UNL A   1      39.598  22.765  26.193  1.00  0.00    -0.352 N 
ATOM     34  C   UNL A   1      40.490  23.698  26.702  1.00  0.00     0.251 C 
ATOM     35  H   UNL A   1      39.980  21.877  26.007  1.00  0.00     0.163 HD
ATOM     36  O   UNL A   1      41.656  23.404  26.880  1.00  0.00    -0.269 OA
BRANCH  34  37
ATOM     37  C   UNL A   1      39.970  25.014  27.154  1.00  0.00     0.039 A 
ATOM     38  C   UNL A   1      40.403  26.155  26.471  1.00  0.00     0.014 A 
ATOM     39  C   UNL A   1      39.278  25.131  28.355  1.00  0.00     0.014 A 
ATOM     40  C   UNL A   1      40.383  27.383  27.127  1.00  0.00     0.010 A 
ATOM     41  C   UNL A   1      39.357  26.320  29.049  1.00  0.00     0.010 A 
ATOM     42  C   UNL A   1      39.973  27.426  28.459  1.00  0.00    -0.014 A 
BRANCH  42  43
ATOM     43  C   UNL A   1      40.264  28.547  29.341  1.00  0.00     0.031 A 
ATOM     44  C   UNL A   1      39.235  29.564  29.618  1.00  0.00     0.074 A 
ATOM     45  C   UNL A   1      41.485  28.660  29.909  1.00  0.00     0.049 A 
ATOM     46  N   UNL A   1      39.498  30.806  29.848  1.00  0.00    -0.248 NA
ATOM     47  C   UNL A   1      37.808  29.260  29.611  1.00  0.00     0.031 C 
ATOM     48  C   UNL A   1      41.900  29.588  30.956  1.00  0.00     0.029 A 
ATOM     49  N   UNL A   1      42.670  28.073  29.494  1.00  0.00    -0.354 N 
ATOM     50  C   UNL A   1      38.336  31.388  30.290  1.00  0.00     0.074 A 
ATOM     51  C   UNL A   1      37.297  30.413  30.051  1.00  0.00     0.031 C 
ATOM     52  C   UNL A   1      43.240  29.685  30.945  1.00  0.00     0.029 A 
ATOM     53  C   UNL A   1      43.730  28.930  29.804  1.00  0.00     0.049 A 
ATOM     54  H   UNL A   1      42.752  27.195  29.054  1.00  0.00     0.167 HD
ATOM     55  C   UNL A   1      38.376  32.574  30.959  1.00  0.00     0.031 A 
ATOM     56  C   UNL A   1      44.527  29.437  28.817  1.00  0.00     0.031 A 
ATOM     57  C   UNL A   1      39.735  33.079  31.101  1.00  0.00     0.049 A 
ATOM     58  C   UNL A   1      44.418  30.942  28.664  1.00  0.00     0.074 A 
ATOM     59  C   UNL A   1      40.658  33.004  32.131  1.00  0.00     0.029 A 
ATOM     60  N   UNL A   1      40.436  33.482  29.972  1.00  0.00    -0.354 N 
ATOM     61  N   UNL A   1      43.472  31.663  29.202  1.00  0.00    -0.248 NA
ATOM     62  C   UNL A   1      45.332  31.745  27.853  1.00  0.00     0.031 C 
ATOM     63  C   UNL A   1      41.941  33.283  31.592  1.00  0.00     0.029 A 
ATOM     64  C   UNL A   1      41.788  33.560  30.246  1.00  0.00     0.049 A 
ATOM     65  H   UNL A   1      40.027  33.682  29.098  1.00  0.00     0.167 HD
ATOM     66  C   UNL A   1      43.613  32.969  28.817  1.00  0.00     0.074 A 
ATOM     67  C   UNL A   1      44.803  32.976  27.987  1.00  0.00     0.031 C 
ATOM     68  C   UNL A   1      42.727  33.934  29.199  1.00  0.00     0.031 A 
BRANCH  55  69
ATOM     69  C   UNL A   1      37.198  33.067  31.751  1.00  0.00    -0.014 A 
ATOM     70  C   UNL A   1      36.200  33.828  31.120  1.00  0.00     0.009 A 
ATOM     71  C   UNL A   1      37.050  32.859  33.134  1.00  0.00     0.009 A 
ATOM     72  C   UNL A   1      35.168  34.438  31.844  1.00  0.00     0.001 A 
ATOM     73  C   UNL A   1      36.047  33.501  33.871  1.00  0.00     0.001 A 
ATOM     74  C   UNL A   1      35.112  34.301  33.225  1.00  0.00     0.000 A 
ENDBRANCH  55  69
BRANCH  56  75
ATOM     75  C   UNL A   1      44.754  28.485  27.692  1.00  0.00    -0.014 A 
ATOM     76  C   UNL A   1      45.455  27.293  27.965  1.00  0.00     0.009 A 
ATOM     77  C   UNL A   1      43.995  28.561  26.517  1.00  0.00     0.009 A 
ATOM     78  C   UNL A   1      45.303  26.169  27.146  1.00  0.00     0.001 A 
ATOM     79  C   UNL A   1      43.854  27.435  25.695  1.00  0.00     0.001 A 
ATOM     80  C   UNL A   1      44.476  26.233  26.029  1.00  0.00     0.000 A 
ENDBRANCH  56  75
BRANCH  68  81
ATOM     81  C   UNL A   1      42.682  35.346  28.677  1.00  0.00    -0.014 A 
ATOM     82  C   UNL A   1      41.997  35.734  27.518  1.00  0.00     0.009 A 
ATOM     83  C   UNL A   1      43.235  36.378  29.468  1.00  0.00     0.009 A 
ATOM     84  C   UNL A   1      41.903  37.082  27.149  1.00  0.00     0.001 A 
ATOM     85  C   UNL A   1      43.106  37.726  29.126  1.00  0.00     0.001 A 
ATOM     86  C   UNL A   1      42.447  38.078  27.957  1.00  0.00     0.000 A 
ENDBRANCH  68  81
ENDBRANCH  42  43
ENDBRANCH  34  37
ENDBRANCH  32  33
ENDBRANCH  31  32
ENDBRANCH   1  31
TORSDOF 14
ENDMDL
