MODEL 1
REMARK VINA RESULT:     -12.9      0.000      0.000
REMARK SMILES O=C(NCCCNC(=O)c1nnn(-c2ccc(C(F)(F)F)cc2)c1-c1cccc(Cl)c1)c1ccc(-c2c3nc(c(-c4ccccc4)c4ccc([nH]4)c(-c4ccccc4)c4nc(c(-c5ccccc5)c5ccc2[nH]5)C=C4)C=C3)cc1
REMARK SMILES IDX 5 1 4 2 3 3 1 4 2 5 32 7 33 8 79 9 34 10 78 11 35 12 36 13
REMARK SMILES IDX 37 14 72 15 38 16 77 17 71 18 73 19 39 20 76 21 70 22 69 23
REMARK SMILES IDX 40 25 62 26 47 27 61 28 48 29 51 30 60 31 74 32 49 33 50 34
REMARK SMILES IDX 59 36 75 37 52 38 41 39 42 40 46 41 43 42 45 43 44 44 63 45
REMARK SMILES IDX 64 46 68 47 65 48 67 49 66 50 53 51 54 52 58 53 55 54 57 55
REMARK SMILES IDX 56 56 6 57 7 58 8 59 9 61 10 62 11 63 24 64 12 65 13 66
REMARK SMILES IDX 25 67 26 68 31 69 27 70 29 71 28 72 30 73 14 74 15 75 23 76
REMARK SMILES IDX 16 77 22 78 17 79 18 80 19 81 20 82 21 83
REMARK H PARENT 3 6 73 24 51 35 7 60
REMARK Flexibility Score: inf
ROOT
ATOM      1  C   UNL A   1      32.783  28.705  27.254  1.00  0.00     0.042 C 
ENDROOT
BRANCH   1   2
ATOM      2  C   UNL A   1      33.261  30.064  26.744  1.00  0.00     0.118 C 
BRANCH   2   3
ATOM      3  N   UNL A   1      33.481  31.067  27.769  1.00  0.00    -0.352 N 
ATOM      4  O   UNL A   1      34.397  32.561  29.108  1.00  0.00    -0.269 OA
ATOM      5  C   UNL A   1      34.570  31.527  28.456  1.00  0.00     0.251 C 
ATOM      6  H   UNL A   1      32.649  31.524  28.033  1.00  0.00     0.163 HD
BRANCH   5   7
ATOM      7  C   UNL A   1      35.902  30.863  28.527  1.00  0.00     0.039 A 
ATOM      8  C   UNL A   1      36.158  29.519  28.256  1.00  0.00     0.014 A 
ATOM      9  C   UNL A   1      36.972  31.663  28.973  1.00  0.00     0.014 A 
ATOM     10  C   UNL A   1      37.413  28.966  28.510  1.00  0.00     0.010 A 
ATOM     11  C   UNL A   1      38.238  31.124  29.202  1.00  0.00     0.010 A 
ATOM     12  C   UNL A   1      38.448  29.763  29.006  1.00  0.00    -0.014 A 
BRANCH  12  13
ATOM     13  C   UNL A   1      39.761  29.142  29.196  1.00  0.00     0.031 A 
ATOM     14  C   UNL A   1      40.174  28.888  30.607  1.00  0.00     0.074 A 
ATOM     15  C   UNL A   1      40.521  28.653  28.197  1.00  0.00     0.049 A 
ATOM     16  N   UNL A   1      41.247  29.281  31.217  1.00  0.00    -0.248 NA
ATOM     17  C   UNL A   1      39.251  28.114  31.451  1.00  0.00     0.031 C 
ATOM     18  C   UNL A   1      40.157  28.494  26.788  1.00  0.00     0.029 A 
ATOM     19  N   UNL A   1      41.758  28.074  28.270  1.00  0.00    -0.354 N 
ATOM     20  C   UNL A   1      41.218  28.678  32.476  1.00  0.00     0.074 A 
ATOM     21  C   UNL A   1      39.926  28.050  32.598  1.00  0.00     0.031 C 
ATOM     22  C   UNL A   1      41.046  27.667  26.194  1.00  0.00     0.029 A 
ATOM     23  C   UNL A   1      42.103  27.350  27.140  1.00  0.00     0.049 A 
ATOM     24  H   UNL A   1      42.348  28.165  29.053  1.00  0.00     0.167 HD
ATOM     25  C   UNL A   1      42.323  28.573  33.266  1.00  0.00     0.031 A 
ATOM     26  C   UNL A   1      43.145  26.496  27.004  1.00  0.00     0.031 A 
ATOM     27  C   UNL A   1      43.361  29.493  32.892  1.00  0.00     0.049 A 
ATOM     28  C   UNL A   1      44.127  26.774  28.073  1.00  0.00     0.074 A 
ATOM     29  C   UNL A   1      43.472  30.865  32.788  1.00  0.00     0.029 A 
ATOM     30  N   UNL A   1      44.470  28.984  32.265  1.00  0.00    -0.354 N 
ATOM     31  N   UNL A   1      44.873  27.838  28.120  1.00  0.00    -0.248 NA
ATOM     32  C   UNL A   1      44.058  26.005  29.305  1.00  0.00     0.031 C 
ATOM     33  C   UNL A   1      44.374  31.083  31.705  1.00  0.00     0.029 A 
ATOM     34  C   UNL A   1      44.763  29.830  31.230  1.00  0.00     0.049 A 
ATOM     35  H   UNL A   1      44.961  28.167  32.512  1.00  0.00     0.167 HD
ATOM     36  C   UNL A   1      45.025  28.104  29.471  1.00  0.00     0.074 A 
ATOM     37  C   UNL A   1      44.626  26.873  30.145  1.00  0.00     0.031 C 
ATOM     38  C   UNL A   1      45.187  29.383  29.923  1.00  0.00     0.031 A 
BRANCH  25  39
ATOM     39  C   UNL A   1      42.604  27.380  34.152  1.00  0.00    -0.014 A 
ATOM     40  C   UNL A   1      43.429  26.347  33.664  1.00  0.00     0.009 A 
ATOM     41  C   UNL A   1      41.863  27.096  35.315  1.00  0.00     0.009 A 
ATOM     42  C   UNL A   1      43.440  25.077  34.255  1.00  0.00     0.001 A 
ATOM     43  C   UNL A   1      41.910  25.844  35.937  1.00  0.00     0.001 A 
ATOM     44  C   UNL A   1      42.674  24.825  35.387  1.00  0.00     0.000 A 
ENDBRANCH  25  39
BRANCH  26  45
ATOM     45  C   UNL A   1      43.258  25.310  26.131  1.00  0.00    -0.014 A 
ATOM     46  C   UNL A   1      44.354  25.152  25.269  1.00  0.00     0.009 A 
ATOM     47  C   UNL A   1      42.408  24.207  26.323  1.00  0.00     0.009 A 
ATOM     48  C   UNL A   1      44.604  23.924  24.643  1.00  0.00     0.001 A 
ATOM     49  C   UNL A   1      42.653  22.982  25.694  1.00  0.00     0.001 A 
ATOM     50  C   UNL A   1      43.759  22.837  24.864  1.00  0.00     0.000 A 
ENDBRANCH  26  45
BRANCH  38  51
ATOM     51  C   UNL A   1      45.504  30.457  28.914  1.00  0.00    -0.014 A 
ATOM     52  C   UNL A   1      46.821  30.820  28.583  1.00  0.00     0.009 A 
ATOM     53  C   UNL A   1      44.452  31.014  28.173  1.00  0.00     0.009 A 
ATOM     54  C   UNL A   1      47.074  31.746  27.568  1.00  0.00     0.001 A 
ATOM     55  C   UNL A   1      44.707  31.921  27.142  1.00  0.00     0.001 A 
ATOM     56  C   UNL A   1      46.017  32.293  26.844  1.00  0.00     0.000 A 
ENDBRANCH  38  51
ENDBRANCH  12  13
ENDBRANCH   5   7
ENDBRANCH   2   3
ENDBRANCH   1   2
BRANCH   1  57
ATOM     57  C   UNL A   1      33.070  27.522  26.342  1.00  0.00     0.118 C 
BRANCH  57  58
ATOM     58  N   UNL A   1      33.613  27.888  25.051  1.00  0.00    -0.351 N 
ATOM     59  C   UNL A   1      33.562  27.195  23.857  1.00  0.00     0.274 C 
ATOM     60  H   UNL A   1      34.084  28.752  25.019  1.00  0.00     0.163 HD
ATOM     61  O   UNL A   1      34.138  27.670  22.891  1.00  0.00    -0.267 OA
BRANCH  59  62
ATOM     62  C   UNL A   1      32.841  25.928  23.784  1.00  0.00     0.178 A 
ATOM     63  N   UNL A   1      31.504  25.883  23.466  1.00  0.00    -0.124 NA
ATOM     64  C   UNL A   1      33.309  24.632  23.964  1.00  0.00     0.108 A 
ATOM     65  N   UNL A   1      31.140  24.613  23.363  1.00  0.00    -0.061 NA
ATOM     66  N   UNL A   1      32.168  23.851  23.791  1.00  0.00    -0.212 N 
BRANCH  64  67
ATOM     67  C   UNL A   1      34.665  24.096  24.091  1.00  0.00     0.004 A 
ATOM     68  C   UNL A   1      35.200  23.321  23.043  1.00  0.00     0.010 A 
ATOM     69  C   UNL A   1      35.452  24.362  25.212  1.00  0.00     0.031 A 
ATOM     70  C   UNL A   1      36.495  22.812  23.116  1.00  0.00     0.002 A 
ATOM     71  C   UNL A   1      36.748  23.847  25.280  1.00  0.00     0.041 A 
ATOM     72  C   UNL A   1      37.271  23.077  24.239  1.00  0.00     0.020 A 
ATOM     73  Cl  UNL A   1      37.717  24.164  26.666  1.00  0.00    -0.084 Cl
ENDBRANCH  64  67
BRANCH  66  74
ATOM     74  C   UNL A   1      32.079  22.442  23.880  1.00  0.00     0.067 A 
ATOM     75  C   UNL A   1      31.997  21.682  22.710  1.00  0.00     0.029 A 
ATOM     76  C   UNL A   1      32.230  21.817  25.126  1.00  0.00     0.029 A 
ATOM     77  C   UNL A   1      32.206  20.302  22.784  1.00  0.00     0.015 A 
ATOM     78  C   UNL A   1      32.407  20.439  25.193  1.00  0.00     0.015 A 
ATOM     79  C   UNL A   1      32.444  19.673  24.019  1.00  0.00     0.056 A 
BRANCH  79  80
ATOM     80  C   UNL A   1      32.791  18.203  24.073  1.00  0.00     0.416 C 
ATOM     81  F   UNL A   1      32.741  17.604  22.855  1.00  0.00    -0.166 F 
ATOM     82  F   UNL A   1      34.052  17.995  24.547  1.00  0.00    -0.166 F 
ATOM     83  F   UNL A   1      31.969  17.481  24.884  1.00  0.00    -0.166 F 
ENDBRANCH  79  80
ENDBRANCH  66  74
ENDBRANCH  59  62
ENDBRANCH  57  58
ENDBRANCH   1  57
TORSDOF 13
ENDMDL
MODEL 2
REMARK VINA RESULT:     -12.9      1.781      5.355
REMARK SMILES O=C(NCCCNC(=O)c1nnn(-c2ccc(C(F)(F)F)cc2)c1-c1cccc(Cl)c1)c1ccc(-c2c3nc(c(-c4ccccc4)c4ccc([nH]4)c(-c4ccccc4)c4nc(c(-c5ccccc5)c5ccc2[nH]5)C=C4)C=C3)cc1
REMARK SMILES IDX 5 1 4 2 3 3 1 4 2 5 32 7 33 8 79 9 34 10 78 11 35 12 36 13
REMARK SMILES IDX 37 14 72 15 38 16 77 17 71 18 73 19 39 20 76 21 70 22 69 23
REMARK SMILES IDX 40 25 62 26 47 27 61 28 48 29 51 30 60 31 74 32 49 33 50 34
REMARK SMILES IDX 59 36 75 37 52 38 41 39 42 40 46 41 43 42 45 43 44 44 63 45
REMARK SMILES IDX 64 46 68 47 65 48 67 49 66 50 53 51 54 52 58 53 55 54 57 55
REMARK SMILES IDX 56 56 6 57 7 58 8 59 9 61 10 62 11 63 24 64 12 65 13 66
REMARK SMILES IDX 25 67 26 68 31 69 27 70 29 71 28 72 30 73 14 74 15 75 23 76
REMARK SMILES IDX 16 77 22 78 17 79 18 80 19 81 20 82 21 83
REMARK H PARENT 3 6 73 24 51 35 7 60
REMARK Flexibility Score: inf
ROOT
ATOM      1  C   UNL A   1      33.262  28.210  26.892  1.00  0.00     0.042 C 
ENDROOT
BRANCH   1   2
ATOM      2  C   UNL A   1      34.620  28.911  26.946  1.00  0.00     0.118 C 
BRANCH   2   3
ATOM      3  N   UNL A   1      34.870  29.681  28.150  1.00  0.00    -0.352 N 
ATOM      4  O   UNL A   1      35.823  30.879  29.738  1.00  0.00    -0.269 OA
ATOM      5  C   UNL A   1      35.981  30.008  28.878  1.00  0.00     0.251 C 
ATOM      6  H   UNL A   1      34.044  30.057  28.534  1.00  0.00     0.163 HD
BRANCH   5   7
ATOM      7  C   UNL A   1      37.322  29.369  28.758  1.00  0.00     0.039 A 
ATOM      8  C   UNL A   1      37.902  28.513  29.693  1.00  0.00     0.014 A 
ATOM      9  C   UNL A   1      38.080  29.725  27.626  1.00  0.00     0.014 A 
ATOM     10  C   UNL A   1      39.228  28.102  29.556  1.00  0.00     0.010 A 
ATOM     11  C   UNL A   1      39.396  29.294  27.467  1.00  0.00     0.010 A 
ATOM     12  C   UNL A   1      39.985  28.510  28.455  1.00  0.00    -0.014 A 
BRANCH  12  13
ATOM     13  C   UNL A   1      41.351  27.998  28.332  1.00  0.00     0.031 A 
ATOM     14  C   UNL A   1      41.498  26.650  27.709  1.00  0.00     0.074 A 
ATOM     15  C   UNL A   1      42.459  28.720  28.590  1.00  0.00     0.049 A 
ATOM     16  N   UNL A   1      42.084  25.599  28.187  1.00  0.00    -0.248 NA
ATOM     17  C   UNL A   1      40.885  26.448  26.387  1.00  0.00     0.031 C 
ATOM     18  C   UNL A   1      42.548  30.152  28.882  1.00  0.00     0.029 A 
ATOM     19  N   UNL A   1      43.768  28.330  28.522  1.00  0.00    -0.354 N 
ATOM     20  C   UNL A   1      42.055  24.644  27.171  1.00  0.00     0.074 A 
ATOM     21  C   UNL A   1      41.226  25.187  26.123  1.00  0.00     0.031 C 
ATOM     22  C   UNL A   1      43.832  30.551  28.742  1.00  0.00     0.029 A 
ATOM     23  C   UNL A   1      44.664  29.386  28.483  1.00  0.00     0.049 A 
ATOM     24  H   UNL A   1      44.047  27.386  28.502  1.00  0.00     0.167 HD
ATOM     25  C   UNL A   1      42.863  23.547  27.169  1.00  0.00     0.031 A 
ATOM     26  C   UNL A   1      45.985  29.326  28.194  1.00  0.00     0.031 A 
ATOM     27  C   UNL A   1      43.396  23.250  28.470  1.00  0.00     0.049 A 
ATOM     28  C   UNL A   1      46.442  27.931  28.361  1.00  0.00     0.074 A 
ATOM     29  C   UNL A   1      42.866  22.952  29.709  1.00  0.00     0.029 A 
ATOM     30  N   UNL A   1      44.724  23.513  28.691  1.00  0.00    -0.354 N 
ATOM     31  N   UNL A   1      46.563  27.335  29.511  1.00  0.00    -0.248 NA
ATOM     32  C   UNL A   1      46.465  27.057  27.199  1.00  0.00     0.031 C 
ATOM     33  C   UNL A   1      43.779  23.516  30.648  1.00  0.00     0.029 A 
ATOM     34  C   UNL A   1      44.812  24.108  29.920  1.00  0.00     0.049 A 
ATOM     35  H   UNL A   1      45.472  23.313  28.081  1.00  0.00     0.167 HD
ATOM     36  C   UNL A   1      46.255  26.008  29.255  1.00  0.00     0.074 A 
ATOM     37  C   UNL A   1      46.343  25.873  27.805  1.00  0.00     0.031 C 
ATOM     38  C   UNL A   1      45.685  25.221  30.214  1.00  0.00     0.031 A 
BRANCH  25  39
ATOM     39  C   UNL A   1      43.463  22.953  25.914  1.00  0.00    -0.014 A 
ATOM     40  C   UNL A   1      43.459  21.553  25.753  1.00  0.00     0.009 A 
ATOM     41  C   UNL A   1      44.285  23.684  25.037  1.00  0.00     0.009 A 
ATOM     42  C   UNL A   1      44.297  20.920  24.826  1.00  0.00     0.001 A 
ATOM     43  C   UNL A   1      45.087  23.059  24.076  1.00  0.00     0.001 A 
ATOM     44  C   UNL A   1      45.117  21.674  23.994  1.00  0.00     0.000 A 
ENDBRANCH  25  39
BRANCH  26  45
ATOM     45  C   UNL A   1      46.843  30.360  27.580  1.00  0.00    -0.014 A 
ATOM     46  C   UNL A   1      46.282  31.460  26.915  1.00  0.00     0.009 A 
ATOM     47  C   UNL A   1      48.221  30.393  27.861  1.00  0.00     0.009 A 
ATOM     48  C   UNL A   1      47.068  32.567  26.569  1.00  0.00     0.001 A 
ATOM     49  C   UNL A   1      49.008  31.494  27.510  1.00  0.00     0.001 A 
ATOM     50  C   UNL A   1      48.428  32.588  26.876  1.00  0.00     0.000 A 
ENDBRANCH  26  45
BRANCH  38  51
ATOM     51  C   UNL A   1      45.677  25.725  31.634  1.00  0.00    -0.014 A 
ATOM     52  C   UNL A   1      44.627  26.500  32.157  1.00  0.00     0.009 A 
ATOM     53  C   UNL A   1      46.681  25.285  32.510  1.00  0.00     0.009 A 
ATOM     54  C   UNL A   1      44.606  26.860  33.507  1.00  0.00     0.001 A 
ATOM     55  C   UNL A   1      46.646  25.625  33.864  1.00  0.00     0.001 A 
ATOM     56  C   UNL A   1      45.614  26.418  34.361  1.00  0.00     0.000 A 
ENDBRANCH  38  51
ENDBRANCH  12  13
ENDBRANCH   5   7
ENDBRANCH   2   3
ENDBRANCH   1   2
BRANCH   1  57
ATOM     57  C   UNL A   1      33.170  27.030  25.937  1.00  0.00     0.118 C 
BRANCH  57  58
ATOM     58  N   UNL A   1      33.437  27.364  24.555  1.00  0.00    -0.351 N 
ATOM     59  C   UNL A   1      33.250  26.595  23.422  1.00  0.00     0.274 C 
ATOM     60  H   UNL A   1      33.803  28.265  24.400  1.00  0.00     0.163 HD
ATOM     61  O   UNL A   1      33.596  27.062  22.347  1.00  0.00    -0.267 OA
BRANCH  59  62
ATOM     62  C   UNL A   1      32.663  25.264  23.537  1.00  0.00     0.178 A 
ATOM     63  N   UNL A   1      31.335  25.042  23.261  1.00  0.00    -0.124 NA
ATOM     64  C   UNL A   1      33.265  24.058  23.876  1.00  0.00     0.108 A 
ATOM     65  N   UNL A   1      31.104  23.739  23.338  1.00  0.00    -0.061 NA
ATOM     66  N   UNL A   1      32.210  23.150  23.838  1.00  0.00    -0.212 N 
BRANCH  64  67
ATOM     67  C   UNL A   1      34.671  23.684  24.038  1.00  0.00     0.004 A 
ATOM     68  C   UNL A   1      35.311  22.952  23.019  1.00  0.00     0.010 A 
ATOM     69  C   UNL A   1      35.401  24.064  25.166  1.00  0.00     0.031 A 
ATOM     70  C   UNL A   1      36.654  22.597  23.126  1.00  0.00     0.002 A 
ATOM     71  C   UNL A   1      36.746  23.702  25.268  1.00  0.00     0.041 A 
ATOM     72  C   UNL A   1      37.373  22.974  24.255  1.00  0.00     0.020 A 
ATOM     73  Cl  UNL A   1      37.645  24.160  26.661  1.00  0.00    -0.084 Cl
ENDBRANCH  64  67
BRANCH  66  74
ATOM     74  C   UNL A   1      32.268  21.764  24.116  1.00  0.00     0.067 A 
ATOM     75  C   UNL A   1      32.155  20.846  23.068  1.00  0.00     0.029 A 
ATOM     76  C   UNL A   1      32.593  21.332  25.409  1.00  0.00     0.029 A 
ATOM     77  C   UNL A   1      32.504  19.512  23.297  1.00  0.00     0.015 A 
ATOM     78  C   UNL A   1      32.911  19.996  25.634  1.00  0.00     0.015 A 
ATOM     79  C   UNL A   1      32.915  19.081  24.572  1.00  0.00     0.056 A 
BRANCH  79  80
ATOM     80  C   UNL A   1      33.408  17.668  24.778  1.00  0.00     0.416 C 
ATOM     81  F   UNL A   1      34.753  17.551  24.623  1.00  0.00    -0.166 F 
ATOM     82  F   UNL A   1      33.129  17.210  26.031  1.00  0.00    -0.166 F 
ATOM     83  F   UNL A   1      32.848  16.769  23.922  1.00  0.00    -0.166 F 
ENDBRANCH  79  80
ENDBRANCH  66  74
ENDBRANCH  59  62
ENDBRANCH  57  58
ENDBRANCH   1  57
TORSDOF 13
ENDMDL
MODEL 3
REMARK VINA RESULT:     -12.7      3.818      7.868
REMARK SMILES O=C(NCCCNC(=O)c1nnn(-c2ccc(C(F)(F)F)cc2)c1-c1cccc(Cl)c1)c1ccc(-c2c3nc(c(-c4ccccc4)c4ccc([nH]4)c(-c4ccccc4)c4nc(c(-c5ccccc5)c5ccc2[nH]5)C=C4)C=C3)cc1
REMARK SMILES IDX 5 1 4 2 3 3 1 4 2 5 32 7 33 8 79 9 34 10 78 11 35 12 36 13
REMARK SMILES IDX 37 14 72 15 38 16 77 17 71 18 73 19 39 20 76 21 70 22 69 23
REMARK SMILES IDX 40 25 62 26 47 27 61 28 48 29 51 30 60 31 74 32 49 33 50 34
REMARK SMILES IDX 59 36 75 37 52 38 41 39 42 40 46 41 43 42 45 43 44 44 63 45
REMARK SMILES IDX 64 46 68 47 65 48 67 49 66 50 53 51 54 52 58 53 55 54 57 55
REMARK SMILES IDX 56 56 6 57 7 58 8 59 9 61 10 62 11 63 24 64 12 65 13 66
REMARK SMILES IDX 25 67 26 68 31 69 27 70 29 71 28 72 30 73 14 74 15 75 23 76
REMARK SMILES IDX 16 77 22 78 17 79 18 80 19 81 20 82 21 83
REMARK H PARENT 3 6 73 24 51 35 7 60
REMARK Flexibility Score: inf
ROOT
ATOM      1  C   UNL A   1      36.706  23.049  24.720  1.00  0.00     0.042 C 
ENDROOT
BRANCH   1   2
ATOM      2  C   UNL A   1      37.103  22.024  25.782  1.00  0.00     0.118 C 
BRANCH   2   3
ATOM      3  N   UNL A   1      38.503  21.639  25.776  1.00  0.00    -0.352 N 
ATOM      4  O   UNL A   1      40.632  21.386  26.294  1.00  0.00    -0.269 OA
ATOM      5  C   UNL A   1      39.643  22.123  26.356  1.00  0.00     0.251 C 
ATOM      6  H   UNL A   1      38.671  20.841  25.224  1.00  0.00     0.163 HD
BRANCH   5   7
ATOM      7  C   UNL A   1      39.799  23.462  26.990  1.00  0.00     0.039 A 
ATOM      8  C   UNL A   1      38.956  24.556  26.799  1.00  0.00     0.014 A 
ATOM      9  C   UNL A   1      40.940  23.638  27.797  1.00  0.00     0.014 A 
ATOM     10  C   UNL A   1      39.287  25.809  27.315  1.00  0.00     0.010 A 
ATOM     11  C   UNL A   1      41.262  24.880  28.340  1.00  0.00     0.010 A 
ATOM     12  C   UNL A   1      40.453  25.979  28.066  1.00  0.00    -0.014 A 
BRANCH  12  13
ATOM     13  C   UNL A   1      40.718  27.303  28.634  1.00  0.00     0.031 A 
ATOM     14  C   UNL A   1      41.884  28.043  28.069  1.00  0.00     0.074 A 
ATOM     15  C   UNL A   1      39.898  27.938  29.494  1.00  0.00     0.049 A 
ATOM     16  N   UNL A   1      42.905  28.538  28.693  1.00  0.00    -0.248 NA
ATOM     17  C   UNL A   1      41.921  28.230  26.611  1.00  0.00     0.031 C 
ATOM     18  C   UNL A   1      38.551  27.540  29.908  1.00  0.00     0.029 A 
ATOM     19  N   UNL A   1      40.063  29.159  30.087  1.00  0.00    -0.354 N 
ATOM     20  C   UNL A   1      43.641  29.237  27.735  1.00  0.00     0.074 A 
ATOM     21  C   UNL A   1      43.041  28.935  26.459  1.00  0.00     0.031 C 
ATOM     22  C   UNL A   1      37.942  28.595  30.495  1.00  0.00     0.029 A 
ATOM     23  C   UNL A   1      38.895  29.687  30.612  1.00  0.00     0.049 A 
ATOM     24  H   UNL A   1      40.932  29.619  30.137  1.00  0.00     0.167 HD
ATOM     25  C   UNL A   1      44.582  30.166  28.064  1.00  0.00     0.031 A 
ATOM     26  C   UNL A   1      38.696  30.952  31.054  1.00  0.00     0.031 A 
ATOM     27  C   UNL A   1      45.035  30.038  29.421  1.00  0.00     0.049 A 
ATOM     28  C   UNL A   1      40.011  31.572  31.317  1.00  0.00     0.074 A 
ATOM     29  C   UNL A   1      45.642  29.048  30.169  1.00  0.00     0.029 A 
ATOM     30  N   UNL A   1      44.620  30.982  30.325  1.00  0.00    -0.354 N 
ATOM     31  N   UNL A   1      40.789  31.241  32.305  1.00  0.00    -0.248 NA
ATOM     32  C   UNL A   1      40.633  32.366  30.271  1.00  0.00     0.031 C 
ATOM     33  C   UNL A   1      45.134  29.220  31.491  1.00  0.00     0.029 A 
ATOM     34  C   UNL A   1      44.264  30.310  31.464  1.00  0.00     0.049 A 
ATOM     35  H   UNL A   1      44.584  31.955  30.183  1.00  0.00     0.167 HD
ATOM     36  C   UNL A   1      42.074  31.414  31.815  1.00  0.00     0.074 A 
ATOM     37  C   UNL A   1      41.915  32.236  30.620  1.00  0.00     0.031 C 
ATOM     38  C   UNL A   1      43.108  30.641  32.264  1.00  0.00     0.031 A 
BRANCH  25  39
ATOM     39  C   UNL A   1      44.826  31.425  27.263  1.00  0.00    -0.014 A 
ATOM     40  C   UNL A   1      46.153  31.804  26.976  1.00  0.00     0.009 A 
ATOM     41  C   UNL A   1      43.833  32.398  27.041  1.00  0.00     0.009 A 
ATOM     42  C   UNL A   1      46.472  33.107  26.574  1.00  0.00     0.001 A 
ATOM     43  C   UNL A   1      44.144  33.686  26.592  1.00  0.00     0.001 A 
ATOM     44  C   UNL A   1      45.467  34.050  26.390  1.00  0.00     0.000 A 
ENDBRANCH  25  39
BRANCH  26  45
ATOM     45  C   UNL A   1      37.445  31.738  31.070  1.00  0.00    -0.014 A 
ATOM     46  C   UNL A   1      36.859  32.182  29.876  1.00  0.00     0.009 A 
ATOM     47  C   UNL A   1      36.691  31.842  32.252  1.00  0.00     0.009 A 
ATOM     48  C   UNL A   1      35.552  32.689  29.862  1.00  0.00     0.001 A 
ATOM     49  C   UNL A   1      35.390  32.354  32.241  1.00  0.00     0.001 A 
ATOM     50  C   UNL A   1      34.815  32.765  31.043  1.00  0.00     0.000 A 
ENDBRANCH  26  45
BRANCH  38  51
ATOM     51  C   UNL A   1      42.891  29.817  33.506  1.00  0.00    -0.014 A 
ATOM     52  C   UNL A   1      43.144  30.313  34.797  1.00  0.00     0.009 A 
ATOM     53  C   UNL A   1      42.277  28.562  33.383  1.00  0.00     0.009 A 
ATOM     54  C   UNL A   1      42.832  29.556  35.929  1.00  0.00     0.001 A 
ATOM     55  C   UNL A   1      41.942  27.816  34.515  1.00  0.00     0.001 A 
ATOM     56  C   UNL A   1      42.226  28.309  35.788  1.00  0.00     0.000 A 
ENDBRANCH  38  51
ENDBRANCH  12  13
ENDBRANCH   5   7
ENDBRANCH   2   3
ENDBRANCH   1   2
BRANCH   1  57
ATOM     57  C   UNL A   1      35.375  23.748  24.948  1.00  0.00     0.118 C 
BRANCH  57  58
ATOM     58  N   UNL A   1      34.689  23.337  26.154  1.00  0.00    -0.351 N 
ATOM     59  C   UNL A   1      33.348  23.440  26.472  1.00  0.00     0.274 C 
ATOM     60  H   UNL A   1      35.257  22.928  26.846  1.00  0.00     0.163 HD
ATOM     61  O   UNL A   1      32.989  23.073  27.580  1.00  0.00    -0.267 OA
BRANCH  59  62
ATOM     62  C   UNL A   1      32.411  23.984  25.494  1.00  0.00     0.178 A 
ATOM     63  N   UNL A   1      31.738  23.166  24.617  1.00  0.00    -0.124 NA
ATOM     64  C   UNL A   1      32.012  25.298  25.287  1.00  0.00     0.108 A 
ATOM     65  N   UNL A   1      30.880  23.906  23.928  1.00  0.00    -0.061 NA
ATOM     66  N   UNL A   1      31.126  25.201  24.216  1.00  0.00    -0.212 N 
BRANCH  64  67
ATOM     67  C   UNL A   1      32.233  26.516  26.067  1.00  0.00     0.004 A 
ATOM     68  C   UNL A   1      31.180  27.036  26.846  1.00  0.00     0.010 A 
ATOM     69  C   UNL A   1      33.473  27.158  26.083  1.00  0.00     0.031 A 
ATOM     70  C   UNL A   1      31.358  28.180  27.621  1.00  0.00     0.002 A 
ATOM     71  C   UNL A   1      33.643  28.306  26.859  1.00  0.00     0.041 A 
ATOM     72  C   UNL A   1      32.594  28.817  27.627  1.00  0.00     0.020 A 
ATOM     73  Cl  UNL A   1      35.166  29.105  26.871  1.00  0.00    -0.084 Cl
ENDBRANCH  64  67
BRANCH  66  74
ATOM     74  C   UNL A   1      30.430  26.260  23.587  1.00  0.00     0.067 A 
ATOM     75  C   UNL A   1      29.072  26.449  23.860  1.00  0.00     0.029 A 
ATOM     76  C   UNL A   1      31.140  27.196  22.823  1.00  0.00     0.029 A 
ATOM     77  C   UNL A   1      28.467  27.650  23.479  1.00  0.00     0.015 A 
ATOM     78  C   UNL A   1      30.522  28.376  22.422  1.00  0.00     0.015 A 
ATOM     79  C   UNL A   1      29.193  28.637  22.786  1.00  0.00     0.056 A 
BRANCH  79  80
ATOM     80  C   UNL A   1      28.566  29.979  22.489  1.00  0.00     0.416 C 
ATOM     81  F   UNL A   1      27.666  29.928  21.472  1.00  0.00    -0.166 F 
ATOM     82  F   UNL A   1      27.894  30.476  23.566  1.00  0.00    -0.166 F 
ATOM     83  F   UNL A   1      29.472  30.936  22.146  1.00  0.00    -0.166 F 
ENDBRANCH  79  80
ENDBRANCH  66  74
ENDBRANCH  59  62
ENDBRANCH  57  58
ENDBRANCH   1  57
TORSDOF 13
ENDMDL
