MODEL 1
REMARK VINA RESULT:     -12.2      0.000      0.000
REMARK SMILES O=C(N/N=C/c1ccc(C(=O)NCCCNC(=O)c2ccc(-c3c4nc(c(-c5ccccc5)c5ccc([nH]5)c(-c5ccccc5)c5nc(c(-c6ccccc6)c6ccc3[nH]6)C=C5)C=C4)cc2)cc1)C(=O)Nc1ccc2c(c1)OCO2
REMARK SMILES IDX 13 1 12 2 10 3 11 4 9 6 6 7 7 8 68 9 8 10 67 11 5 12 4 13
REMARK SMILES IDX 3 14 1 15 2 16 69 18 70 19 71 20 72 22 73 23 77 24 74 25
REMARK SMILES IDX 76 26 75 27 78 28 80 29 79 30 14 31 15 32 16 33 17 34 18 36
REMARK SMILES IDX 19 37 20 38 66 39 21 40 65 41 22 42 23 43 24 44 59 45 25 46
REMARK SMILES IDX 64 47 58 48 60 49 26 50 63 51 57 52 56 53 27 55 49 56 34 57
REMARK SMILES IDX 48 58 35 59 38 60 47 61 61 62 36 63 37 64 46 66 62 67 39 68
REMARK SMILES IDX 28 69 29 70 33 71 30 72 32 73 31 74 50 75 51 76 55 77 52 78
REMARK SMILES IDX 54 79 53 80 40 81 41 82 45 83 42 84 44 85 43 86
REMARK H PARENT 12 5 3 17 71 21 16 35 60 54 38 65
REMARK Flexibility Score: inf
ROOT
ATOM      1  C   UNL A   1      41.311  19.792  27.539  1.00  0.00     0.118 C 
ENDROOT
BRANCH   1   2
ATOM      2  N   UNL A   1      41.777  21.014  28.177  1.00  0.00    -0.352 N 
ATOM      3  C   UNL A   1      41.363  22.315  28.021  1.00  0.00     0.251 C 
ATOM      4  O   UNL A   1      41.894  23.197  28.689  1.00  0.00    -0.269 OA
ATOM      5  H   UNL A   1      42.508  20.888  28.825  1.00  0.00     0.163 HD
BRANCH   3   6
ATOM      6  C   UNL A   1      40.214  22.639  27.143  1.00  0.00     0.039 A 
ATOM      7  C   UNL A   1      37.426  23.068  25.840  1.00  0.00    -0.005 A 
ATOM      8  C   UNL A   1      38.290  24.031  26.652  1.00  0.00     0.010 A 
ATOM      9  C   UNL A   1      38.437  21.982  25.612  1.00  0.00     0.010 A 
ATOM     10  C   UNL A   1      39.548  23.826  27.296  1.00  0.00     0.014 A 
ATOM     11  C   UNL A   1      39.727  21.807  26.171  1.00  0.00     0.014 A 
BRANCH   7  12
ATOM     12  C   UNL A   1      35.394  23.262  25.201  1.00  0.00     0.141 C 
ATOM     13  N   UNL A   1      34.225  22.560  25.387  1.00  0.00    -0.180 NA
BRANCH  13  14
ATOM     14  N   UNL A   1      33.371  22.601  24.348  1.00  0.00    -0.239 N 
ATOM     15  O   UNL A   1      31.511  23.472  23.435  1.00  0.00    -0.262 OA
ATOM     16  C   UNL A   1      32.080  23.107  24.467  1.00  0.00     0.329 C 
ATOM     17  H   UNL A   1      33.670  22.261  23.473  1.00  0.00     0.194 HD
BRANCH  16  18
ATOM     18  C   UNL A   1      31.313  23.275  25.819  1.00  0.00     0.315 C 
ATOM     19  O   UNL A   1      30.544  22.374  26.164  1.00  0.00    -0.263 OA
ATOM     20  N   UNL A   1      31.588  24.271  26.753  1.00  0.00    -0.318 N 
ATOM     21  H   UNL A   1      31.666  24.004  27.697  1.00  0.00     0.170 HD
BRANCH  20  22
ATOM     22  C   UNL A   1      31.758  25.622  26.440  1.00  0.00     0.045 A 
ATOM     23  C   UNL A   1      33.476  26.083  25.943  1.00  0.00     0.030 A 
ATOM     24  C   UNL A   1      30.314  26.488  25.716  1.00  0.00     0.076 A 
ATOM     25  C   UNL A   1      33.717  27.412  24.698  1.00  0.00     0.053 A 
ATOM     26  C   UNL A   1      30.613  27.671  24.366  1.00  0.00     0.167 A 
ATOM     27  C   UNL A   1      32.276  28.126  23.902  1.00  0.00     0.165 A 
ATOM     28  O   UNL A   1      29.794  28.180  23.408  1.00  0.00    -0.454 OA
ATOM     29  O   UNL A   1      32.166  28.822  22.741  1.00  0.00    -0.454 OA
ATOM     30  C   UNL A   1      30.770  28.524  22.356  1.00  0.00     0.468 C 
ENDBRANCH  20  22
ENDBRANCH  16  18
ENDBRANCH  13  14
ENDBRANCH   7  12
ENDBRANCH   3   6
ENDBRANCH   1   2
BRANCH   1  31
ATOM     31  C   UNL A   1      42.463  19.084  26.830  1.00  0.00     0.042 C 
BRANCH  31  32
ATOM     32  C   UNL A   1      42.588  19.495  25.379  1.00  0.00     0.118 C 
BRANCH  32  33
ATOM     33  N   UNL A   1      43.817  18.994  24.794  1.00  0.00    -0.352 N 
ATOM     34  C   UNL A   1      44.902  19.691  24.338  1.00  0.00     0.251 C 
ATOM     35  H   UNL A   1      43.880  18.015  24.713  1.00  0.00     0.163 HD
ATOM     36  O   UNL A   1      45.712  19.141  23.600  1.00  0.00    -0.269 OA
BRANCH  34  37
ATOM     37  C   UNL A   1      45.092  21.099  24.738  1.00  0.00     0.039 A 
ATOM     38  C   UNL A   1      45.482  21.374  26.049  1.00  0.00     0.014 A 
ATOM     39  C   UNL A   1      44.847  22.145  23.841  1.00  0.00     0.014 A 
ATOM     40  C   UNL A   1      45.637  22.698  26.452  1.00  0.00     0.010 A 
ATOM     41  C   UNL A   1      45.123  23.453  24.208  1.00  0.00     0.010 A 
ATOM     42  C   UNL A   1      45.479  23.745  25.528  1.00  0.00    -0.014 A 
BRANCH  42  43
ATOM     43  C   UNL A   1      45.650  25.153  25.949  1.00  0.00     0.031 A 
ATOM     44  C   UNL A   1      44.478  25.931  26.481  1.00  0.00     0.074 A 
ATOM     45  C   UNL A   1      46.861  25.728  25.837  1.00  0.00     0.049 A 
ATOM     46  N   UNL A   1      44.447  27.153  26.951  1.00  0.00    -0.248 NA
ATOM     47  C   UNL A   1      43.166  25.264  26.461  1.00  0.00     0.031 C 
ATOM     48  C   UNL A   1      48.060  25.079  25.301  1.00  0.00     0.029 A 
ATOM     49  N   UNL A   1      47.289  26.980  26.190  1.00  0.00    -0.354 N 
ATOM     50  C   UNL A   1      43.117  27.398  27.269  1.00  0.00     0.074 A 
ATOM     51  C   UNL A   1      42.363  26.232  26.870  1.00  0.00     0.031 C 
ATOM     52  C   UNL A   1      49.102  25.914  25.429  1.00  0.00     0.029 A 
ATOM     53  C   UNL A   1      48.635  27.170  26.001  1.00  0.00     0.049 A 
ATOM     54  H   UNL A   1      46.689  27.676  26.545  1.00  0.00     0.167 HD
ATOM     55  C   UNL A   1      42.574  28.487  27.862  1.00  0.00     0.031 A 
ATOM     56  C   UNL A   1      49.408  28.238  26.270  1.00  0.00     0.031 A 
ATOM     57  C   UNL A   1      43.332  29.651  28.239  1.00  0.00     0.049 A 
ATOM     58  C   UNL A   1      48.774  29.455  26.882  1.00  0.00     0.074 A 
ATOM     59  C   UNL A   1      42.896  30.792  28.886  1.00  0.00     0.029 A 
ATOM     60  N   UNL A   1      44.685  29.825  27.985  1.00  0.00    -0.354 N 
ATOM     61  N   UNL A   1      47.530  29.644  27.254  1.00  0.00    -0.248 NA
ATOM     62  C   UNL A   1      49.659  30.602  27.122  1.00  0.00     0.031 C 
ATOM     63  C   UNL A   1      43.966  31.691  28.949  1.00  0.00     0.029 A 
ATOM     64  C   UNL A   1      45.091  31.073  28.425  1.00  0.00     0.049 A 
ATOM     65  H   UNL A   1      45.270  29.159  27.556  1.00  0.00     0.167 HD
ATOM     66  C   UNL A   1      47.491  30.917  27.808  1.00  0.00     0.074 A 
ATOM     67  C   UNL A   1      48.839  31.445  27.735  1.00  0.00     0.031 C 
ATOM     68  C   UNL A   1      46.436  31.587  28.336  1.00  0.00     0.031 A 
BRANCH  55  69
ATOM     69  C   UNL A   1      41.087  28.474  28.101  1.00  0.00    -0.014 A 
ATOM     70  C   UNL A   1      40.187  29.065  27.196  1.00  0.00     0.009 A 
ATOM     71  C   UNL A   1      40.573  27.864  29.256  1.00  0.00     0.009 A 
ATOM     72  C   UNL A   1      38.819  29.101  27.474  1.00  0.00     0.001 A 
ATOM     73  C   UNL A   1      39.201  27.864  29.512  1.00  0.00     0.001 A 
ATOM     74  C   UNL A   1      38.326  28.498  28.629  1.00  0.00     0.000 A 
ENDBRANCH  55  69
BRANCH  56  75
ATOM     75  C   UNL A   1      50.868  28.185  26.001  1.00  0.00    -0.014 A 
ATOM     76  C   UNL A   1      51.746  27.640  26.950  1.00  0.00     0.009 A 
ATOM     77  C   UNL A   1      51.394  28.671  24.793  1.00  0.00     0.009 A 
ATOM     78  C   UNL A   1      53.120  27.609  26.709  1.00  0.00     0.001 A 
ATOM     79  C   UNL A   1      52.765  28.606  24.539  1.00  0.00     0.001 A 
ATOM     80  C   UNL A   1      53.629  28.086  25.502  1.00  0.00     0.000 A 
ENDBRANCH  56  75
BRANCH  68  81
ATOM     81  C   UNL A   1      46.708  32.946  28.923  1.00  0.00    -0.014 A 
ATOM     82  C   UNL A   1      46.584  34.118  28.161  1.00  0.00     0.009 A 
ATOM     83  C   UNL A   1      47.064  33.052  30.277  1.00  0.00     0.009 A 
ATOM     84  C   UNL A   1      46.855  35.363  28.733  1.00  0.00     0.001 A 
ATOM     85  C   UNL A   1      47.293  34.299  30.856  1.00  0.00     0.001 A 
ATOM     86  C   UNL A   1      47.201  35.453  30.081  1.00  0.00     0.000 A 
ENDBRANCH  68  81
ENDBRANCH  42  43
ENDBRANCH  34  37
ENDBRANCH  32  33
ENDBRANCH  31  32
ENDBRANCH   1  31
TORSDOF 14
ENDMDL
MODEL 2
REMARK VINA RESULT:     -12.2      5.264     11.014
REMARK SMILES O=C(N/N=C/c1ccc(C(=O)NCCCNC(=O)c2ccc(-c3c4nc(c(-c5ccccc5)c5ccc([nH]5)c(-c5ccccc5)c5nc(c(-c6ccccc6)c6ccc3[nH]6)C=C5)C=C4)cc2)cc1)C(=O)Nc1ccc2c(c1)OCO2
REMARK SMILES IDX 13 1 12 2 10 3 11 4 9 6 6 7 7 8 68 9 8 10 67 11 5 12 4 13
REMARK SMILES IDX 3 14 1 15 2 16 69 18 70 19 71 20 72 22 73 23 77 24 74 25
REMARK SMILES IDX 76 26 75 27 78 28 80 29 79 30 14 31 15 32 16 33 17 34 18 36
REMARK SMILES IDX 19 37 20 38 66 39 21 40 65 41 22 42 23 43 24 44 59 45 25 46
REMARK SMILES IDX 64 47 58 48 60 49 26 50 63 51 57 52 56 53 27 55 49 56 34 57
REMARK SMILES IDX 48 58 35 59 38 60 47 61 61 62 36 63 37 64 46 66 62 67 39 68
REMARK SMILES IDX 28 69 29 70 33 71 30 72 32 73 31 74 50 75 51 76 55 77 52 78
REMARK SMILES IDX 54 79 53 80 40 81 41 82 45 83 42 84 44 85 43 86
REMARK H PARENT 12 5 3 17 71 21 16 35 60 54 38 65
REMARK Flexibility Score: inf
ROOT
ATOM      1  C   UNL A   1      31.045  30.827  25.359  1.00  0.00     0.118 C 
ENDROOT
BRANCH   1   2
ATOM      2  N   UNL A   1      30.020  31.279  24.431  1.00  0.00    -0.352 N 
ATOM      3  C   UNL A   1      29.445  30.640  23.358  1.00  0.00     0.251 C 
ATOM      4  O   UNL A   1      28.570  31.216  22.717  1.00  0.00    -0.269 OA
ATOM      5  H   UNL A   1      29.685  32.189  24.599  1.00  0.00     0.163 HD
BRANCH   3   6
ATOM      6  C   UNL A   1      29.793  29.234  23.044  1.00  0.00     0.039 A 
ATOM      7  C   UNL A   1      30.805  26.297  23.029  1.00  0.00    -0.005 A 
ATOM      8  C   UNL A   1      29.440  26.864  23.415  1.00  0.00     0.010 A 
ATOM      9  C   UNL A   1      31.394  27.520  22.389  1.00  0.00     0.010 A 
ATOM     10  C   UNL A   1      28.984  28.216  23.472  1.00  0.00     0.014 A 
ATOM     11  C   UNL A   1      30.913  28.852  22.356  1.00  0.00     0.014 A 
BRANCH   7  12
ATOM     12  C   UNL A   1      31.592  24.327  23.300  1.00  0.00     0.141 C 
ATOM     13  N   UNL A   1      32.819  23.721  23.158  1.00  0.00    -0.180 NA
BRANCH  13  14
ATOM     14  N   UNL A   1      32.772  22.429  22.784  1.00  0.00    -0.239 N 
ATOM     15  O   UNL A   1      32.237  20.308  23.300  1.00  0.00    -0.262 OA
ATOM     16  C   UNL A   1      32.662  21.392  23.706  1.00  0.00     0.329 C 
ATOM     17  H   UNL A   1      32.816  22.210  21.825  1.00  0.00     0.194 HD
BRANCH  16  18
ATOM     18  C   UNL A   1      33.008  21.515  25.226  1.00  0.00     0.315 C 
ATOM     19  O   UNL A   1      32.101  21.821  26.003  1.00  0.00    -0.263 OA
ATOM     20  N   UNL A   1      34.216  21.106  25.786  1.00  0.00    -0.318 N 
ATOM     21  H   UNL A   1      34.181  20.567  26.609  1.00  0.00     0.170 HD
BRANCH  20  22
ATOM     22  C   UNL A   1      35.474  21.413  25.260  1.00  0.00     0.045 A 
ATOM     23  C   UNL A   1      36.198  22.996  25.876  1.00  0.00     0.030 A 
ATOM     24  C   UNL A   1      36.557  19.996  24.835  1.00  0.00     0.076 A 
ATOM     25  C   UNL A   1      38.019  23.126  26.074  1.00  0.00     0.053 A 
ATOM     26  C   UNL A   1      38.331  20.130  25.216  1.00  0.00     0.167 A 
ATOM     27  C   UNL A   1      39.027  21.669  25.795  1.00  0.00     0.165 A 
ATOM     28  O   UNL A   1      39.299  19.188  25.370  1.00  0.00    -0.454 OA
ATOM     29  O   UNL A   1      40.290  21.381  26.203  1.00  0.00    -0.454 OA
ATOM     30  C   UNL A   1      40.252  19.903  26.240  1.00  0.00     0.468 C 
ENDBRANCH  20  22
ENDBRANCH  16  18
ENDBRANCH  13  14
ENDBRANCH   7  12
ENDBRANCH   3   6
ENDBRANCH   1   2
BRANCH   1  31
ATOM     31  C   UNL A   1      31.053  31.694  26.616  1.00  0.00     0.042 C 
BRANCH  31  32
ATOM     32  C   UNL A   1      32.411  32.306  26.887  1.00  0.00     0.118 C 
BRANCH  32  33
ATOM     33  N   UNL A   1      32.293  33.698  27.276  1.00  0.00    -0.352 N 
ATOM     34  C   UNL A   1      32.958  34.379  28.258  1.00  0.00     0.251 C 
ATOM     35  H   UNL A   1      31.642  34.228  26.761  1.00  0.00     0.163 HD
ATOM     36  O   UNL A   1      32.521  35.454  28.655  1.00  0.00    -0.269 OA
BRANCH  34  37
ATOM     37  C   UNL A   1      34.196  33.816  28.832  1.00  0.00     0.039 A 
ATOM     38  C   UNL A   1      35.422  34.330  28.408  1.00  0.00     0.014 A 
ATOM     39  C   UNL A   1      34.153  32.762  29.750  1.00  0.00     0.014 A 
ATOM     40  C   UNL A   1      36.601  33.791  28.918  1.00  0.00     0.010 A 
ATOM     41  C   UNL A   1      35.320  32.313  30.349  1.00  0.00     0.010 A 
ATOM     42  C   UNL A   1      36.557  32.794  29.907  1.00  0.00    -0.014 A 
BRANCH  42  43
ATOM     43  C   UNL A   1      37.806  32.223  30.457  1.00  0.00     0.031 A 
ATOM     44  C   UNL A   1      38.399  32.779  31.722  1.00  0.00     0.074 A 
ATOM     45  C   UNL A   1      38.408  31.213  29.803  1.00  0.00     0.049 A 
ATOM     46  N   UNL A   1      39.452  32.372  32.385  1.00  0.00    -0.248 NA
ATOM     47  C   UNL A   1      37.742  33.958  32.309  1.00  0.00     0.031 C 
ATOM     48  C   UNL A   1      37.942  30.620  28.548  1.00  0.00     0.029 A 
ATOM     49  N   UNL A   1      39.529  30.492  30.117  1.00  0.00    -0.354 N 
ATOM     50  C   UNL A   1      39.586  33.251  33.453  1.00  0.00     0.074 A 
ATOM     51  C   UNL A   1      38.555  34.253  33.309  1.00  0.00     0.031 C 
ATOM     52  C   UNL A   1      38.728  29.579  28.239  1.00  0.00     0.029 A 
ATOM     53  C   UNL A   1      39.782  29.467  29.239  1.00  0.00     0.049 A 
ATOM     54  H   UNL A   1      40.098  30.688  30.897  1.00  0.00     0.167 HD
ATOM     55  C   UNL A   1      40.472  33.213  34.476  1.00  0.00     0.031 A 
ATOM     56  C   UNL A   1      40.752  28.536  29.248  1.00  0.00     0.031 A 
ATOM     57  C   UNL A   1      41.505  32.220  34.599  1.00  0.00     0.049 A 
ATOM     58  C   UNL A   1      41.755  28.545  30.366  1.00  0.00     0.074 A 
ATOM     59  C   UNL A   1      42.429  32.058  35.616  1.00  0.00     0.029 A 
ATOM     60  N   UNL A   1      41.761  31.228  33.663  1.00  0.00    -0.354 N 
ATOM     61  N   UNL A   1      41.821  29.330  31.415  1.00  0.00    -0.248 NA
ATOM     62  C   UNL A   1      42.811  27.526  30.306  1.00  0.00     0.031 C 
ATOM     63  C   UNL A   1      43.295  31.021  35.253  1.00  0.00     0.029 A 
ATOM     64  C   UNL A   1      42.854  30.477  34.057  1.00  0.00     0.049 A 
ATOM     65  H   UNL A   1      41.240  31.081  32.840  1.00  0.00     0.167 HD
ATOM     66  C   UNL A   1      42.902  28.876  32.160  1.00  0.00     0.074 A 
ATOM     67  C   UNL A   1      43.450  27.739  31.448  1.00  0.00     0.031 C 
ATOM     68  C   UNL A   1      43.393  29.353  33.331  1.00  0.00     0.031 A 
BRANCH  55  69
ATOM     69  C   UNL A   1      40.374  34.301  35.514  1.00  0.00    -0.014 A 
ATOM     70  C   UNL A   1      41.089  35.506  35.391  1.00  0.00     0.009 A 
ATOM     71  C   UNL A   1      39.557  34.117  36.640  1.00  0.00     0.009 A 
ATOM     72  C   UNL A   1      41.036  36.469  36.402  1.00  0.00     0.001 A 
ATOM     73  C   UNL A   1      39.472  35.099  37.628  1.00  0.00     0.001 A 
ATOM     74  C   UNL A   1      40.226  36.267  37.516  1.00  0.00     0.000 A 
ENDBRANCH  55  69
BRANCH  56  75
ATOM     75  C   UNL A   1      40.793  27.496  28.186  1.00  0.00    -0.014 A 
ATOM     76  C   UNL A   1      40.212  26.238  28.402  1.00  0.00     0.009 A 
ATOM     77  C   UNL A   1      41.407  27.756  26.950  1.00  0.00     0.009 A 
ATOM     78  C   UNL A   1      40.268  25.253  27.415  1.00  0.00     0.001 A 
ATOM     79  C   UNL A   1      41.431  26.781  25.952  1.00  0.00     0.001 A 
ATOM     80  C   UNL A   1      40.872  25.526  26.189  1.00  0.00     0.000 A 
ENDBRANCH  56  75
BRANCH  68  81
ATOM     81  C   UNL A   1      44.553  28.614  33.942  1.00  0.00    -0.014 A 
ATOM     82  C   UNL A   1      45.882  28.950  33.646  1.00  0.00     0.009 A 
ATOM     83  C   UNL A   1      44.303  27.581  34.860  1.00  0.00     0.009 A 
ATOM     84  C   UNL A   1      46.936  28.237  34.221  1.00  0.00     0.001 A 
ATOM     85  C   UNL A   1      45.357  26.898  35.465  1.00  0.00     0.001 A 
ATOM     86  C   UNL A   1      46.673  27.217  35.135  1.00  0.00     0.000 A 
ENDBRANCH  68  81
ENDBRANCH  42  43
ENDBRANCH  34  37
ENDBRANCH  32  33
ENDBRANCH  31  32
ENDBRANCH   1  31
TORSDOF 14
ENDMDL
MODEL 3
REMARK VINA RESULT:     -12.1      6.784     11.998
REMARK SMILES O=C(N/N=C/c1ccc(C(=O)NCCCNC(=O)c2ccc(-c3c4nc(c(-c5ccccc5)c5ccc([nH]5)c(-c5ccccc5)c5nc(c(-c6ccccc6)c6ccc3[nH]6)C=C5)C=C4)cc2)cc1)C(=O)Nc1ccc2c(c1)OCO2
REMARK SMILES IDX 13 1 12 2 10 3 11 4 9 6 6 7 7 8 68 9 8 10 67 11 5 12 4 13
REMARK SMILES IDX 3 14 1 15 2 16 69 18 70 19 71 20 72 22 73 23 77 24 74 25
REMARK SMILES IDX 76 26 75 27 78 28 80 29 79 30 14 31 15 32 16 33 17 34 18 36
REMARK SMILES IDX 19 37 20 38 66 39 21 40 65 41 22 42 23 43 24 44 59 45 25 46
REMARK SMILES IDX 64 47 58 48 60 49 26 50 63 51 57 52 56 53 27 55 49 56 34 57
REMARK SMILES IDX 48 58 35 59 38 60 47 61 61 62 36 63 37 64 46 66 62 67 39 68
REMARK SMILES IDX 28 69 29 70 33 71 30 72 32 73 31 74 50 75 51 76 55 77 52 78
REMARK SMILES IDX 54 79 53 80 40 81 41 82 45 83 42 84 44 85 43 86
REMARK H PARENT 12 5 3 17 71 21 16 35 60 54 38 65
REMARK Flexibility Score: inf
ROOT
ATOM      1  C   UNL A   1      33.593  33.893  29.217  1.00  0.00     0.118 C 
ENDROOT
BRANCH   1   2
ATOM      2  N   UNL A   1      35.023  33.885  28.951  1.00  0.00    -0.352 N 
ATOM      3  C   UNL A   1      35.824  32.908  28.408  1.00  0.00     0.251 C 
ATOM      4  O   UNL A   1      37.021  33.131  28.256  1.00  0.00    -0.269 OA
ATOM      5  H   UNL A   1      35.494  34.714  29.200  1.00  0.00     0.163 HD
BRANCH   3   6
ATOM      6  C   UNL A   1      35.234  31.643  27.910  1.00  0.00     0.039 A 
ATOM      7  C   UNL A   1      34.328  29.166  26.267  1.00  0.00    -0.005 A 
ATOM      8  C   UNL A   1      35.526  29.343  27.200  1.00  0.00     0.010 A 
ATOM      9  C   UNL A   1      33.576  30.418  26.613  1.00  0.00     0.010 A 
ATOM     10  C   UNL A   1      35.976  30.491  27.917  1.00  0.00     0.014 A 
ATOM     11  C   UNL A   1      33.970  31.530  27.398  1.00  0.00     0.014 A 
BRANCH   7  12
ATOM     12  C   UNL A   1      33.872  27.572  24.916  1.00  0.00     0.141 C 
ATOM     13  N   UNL A   1      33.792  26.201  24.992  1.00  0.00    -0.180 NA
BRANCH  13  14
ATOM     14  N   UNL A   1      34.129  25.552  23.863  1.00  0.00    -0.239 N 
ATOM     15  O   UNL A   1      33.746  25.192  21.677  1.00  0.00    -0.262 OA
ATOM     16  C   UNL A   1      33.258  25.437  22.783  1.00  0.00     0.329 C 
ATOM     17  H   UNL A   1      35.023  25.144  23.797  1.00  0.00     0.194 HD
BRANCH  16  18
ATOM     18  C   UNL A   1      31.709  25.629  22.867  1.00  0.00     0.315 C 
ATOM     19  O   UNL A   1      31.259  26.770  22.743  1.00  0.00    -0.263 OA
ATOM     20  N   UNL A   1      30.792  24.580  22.870  1.00  0.00    -0.318 N 
ATOM     21  H   UNL A   1      30.012  24.651  22.274  1.00  0.00     0.170 HD
BRANCH  20  22
ATOM     22  C   UNL A   1      30.904  23.435  23.664  1.00  0.00     0.045 A 
ATOM     23  C   UNL A   1      32.010  22.128  22.972  1.00  0.00     0.030 A 
ATOM     24  C   UNL A   1      30.760  23.671  25.476  1.00  0.00     0.076 A 
ATOM     25  C   UNL A   1      32.979  21.079  24.125  1.00  0.00     0.053 A 
ATOM     26  C   UNL A   1      31.874  22.718  26.554  1.00  0.00     0.167 A 
ATOM     27  C   UNL A   1      32.927  21.444  25.881  1.00  0.00     0.165 A 
ATOM     28  O   UNL A   1      32.272  22.908  27.840  1.00  0.00    -0.454 OA
ATOM     29  O   UNL A   1      33.782  21.096  26.878  1.00  0.00    -0.454 OA
ATOM     30  C   UNL A   1      33.565  22.197  27.842  1.00  0.00     0.468 C 
ENDBRANCH  20  22
ENDBRANCH  16  18
ENDBRANCH  13  14
ENDBRANCH   7  12
ENDBRANCH   3   6
ENDBRANCH   1   2
BRANCH   1  31
ATOM     31  C   UNL A   1      32.991  35.254  28.878  1.00  0.00     0.042 C 
BRANCH  31  32
ATOM     32  C   UNL A   1      33.435  36.337  29.839  1.00  0.00     0.118 C 
BRANCH  32  33
ATOM     33  N   UNL A   1      32.562  36.405  30.995  1.00  0.00    -0.352 N 
ATOM     34  C   UNL A   1      32.615  35.690  32.160  1.00  0.00     0.251 C 
ATOM     35  H   UNL A   1      31.827  37.057  30.934  1.00  0.00     0.163 HD
ATOM     36  O   UNL A   1      31.633  35.649  32.893  1.00  0.00    -0.269 OA
BRANCH  34  37
ATOM     37  C   UNL A   1      33.852  34.973  32.526  1.00  0.00     0.039 A 
ATOM     38  C   UNL A   1      33.754  33.655  32.970  1.00  0.00     0.014 A 
ATOM     39  C   UNL A   1      35.098  35.609  32.473  1.00  0.00     0.014 A 
ATOM     40  C   UNL A   1      34.908  32.973  33.348  1.00  0.00     0.010 A 
ATOM     41  C   UNL A   1      36.256  34.890  32.729  1.00  0.00     0.010 A 
ATOM     42  C   UNL A   1      36.169  33.579  33.209  1.00  0.00    -0.014 A 
BRANCH  42  43
ATOM     43  C   UNL A   1      37.399  32.858  33.602  1.00  0.00     0.031 A 
ATOM     44  C   UNL A   1      38.031  31.870  32.660  1.00  0.00     0.074 A 
ATOM     45  C   UNL A   1      37.934  33.086  34.815  1.00  0.00     0.049 A 
ATOM     46  N   UNL A   1      39.138  31.187  32.805  1.00  0.00    -0.248 NA
ATOM     47  C   UNL A   1      37.317  31.593  31.402  1.00  0.00     0.031 C 
ATOM     48  C   UNL A   1      37.385  33.995  35.824  1.00  0.00     0.029 A 
ATOM     49  N   UNL A   1      39.071  32.591  35.395  1.00  0.00    -0.354 N 
ATOM     50  C   UNL A   1      39.243  30.397  31.666  1.00  0.00     0.074 A 
ATOM     51  C   UNL A   1      38.054  30.629  30.878  1.00  0.00     0.031 C 
ATOM     52  C   UNL A   1      38.225  34.047  36.868  1.00  0.00     0.029 A 
ATOM     53  C   UNL A   1      39.338  33.137  36.626  1.00  0.00     0.049 A 
ATOM     54  H   UNL A   1      39.642  31.910  34.970  1.00  0.00     0.167 HD
ATOM     55  C   UNL A   1      40.251  29.572  31.298  1.00  0.00     0.031 A 
ATOM     56  C   UNL A   1      40.371  32.930  37.462  1.00  0.00     0.031 A 
ATOM     57  C   UNL A   1      41.422  29.335  32.099  1.00  0.00     0.049 A 
ATOM     58  C   UNL A   1      41.452  31.970  37.054  1.00  0.00     0.074 A 
ATOM     59  C   UNL A   1      42.525  28.555  31.805  1.00  0.00     0.029 A 
ATOM     60  N   UNL A   1      41.631  29.868  33.363  1.00  0.00    -0.354 N 
ATOM     61  N   UNL A   1      41.582  31.292  35.939  1.00  0.00    -0.248 NA
ATOM     62  C   UNL A   1      42.538  31.760  38.020  1.00  0.00     0.031 C 
ATOM     63  C   UNL A   1      43.363  28.550  32.926  1.00  0.00     0.029 A 
ATOM     64  C   UNL A   1      42.827  29.400  33.881  1.00  0.00     0.049 A 
ATOM     65  H   UNL A   1      41.020  30.488  33.824  1.00  0.00     0.167 HD
ATOM     66  C   UNL A   1      42.783  30.603  36.052  1.00  0.00     0.074 A 
ATOM     67  C   UNL A   1      43.347  30.960  37.339  1.00  0.00     0.031 C 
ATOM     68  C   UNL A   1      43.369  29.758  35.168  1.00  0.00     0.031 A 
BRANCH  55  69
ATOM     69  C   UNL A   1      40.101  28.843  29.988  1.00  0.00    -0.014 A 
ATOM     70  C   UNL A   1      40.504  29.420  28.770  1.00  0.00     0.009 A 
ATOM     71  C   UNL A   1      39.539  27.556  29.967  1.00  0.00     0.009 A 
ATOM     72  C   UNL A   1      40.290  28.753  27.562  1.00  0.00     0.001 A 
ATOM     73  C   UNL A   1      39.365  26.874  28.763  1.00  0.00     0.001 A 
ATOM     74  C   UNL A   1      39.724  27.480  27.559  1.00  0.00     0.000 A 
ENDBRANCH  55  69
BRANCH  56  75
ATOM     75  C   UNL A   1      40.451  33.678  38.743  1.00  0.00    -0.014 A 
ATOM     76  C   UNL A   1      41.233  34.839  38.841  1.00  0.00     0.009 A 
ATOM     77  C   UNL A   1      39.742  33.243  39.874  1.00  0.00     0.009 A 
ATOM     78  C   UNL A   1      41.327  35.531  40.050  1.00  0.00     0.001 A 
ATOM     79  C   UNL A   1      39.809  33.957  41.072  1.00  0.00     0.001 A 
ATOM     80  C   UNL A   1      40.610  35.094  41.162  1.00  0.00     0.000 A 
ENDBRANCH  56  75
BRANCH  68  81
ATOM     81  C   UNL A   1      44.716  29.198  35.542  1.00  0.00    -0.014 A 
ATOM     82  C   UNL A   1      45.908  29.869  35.229  1.00  0.00     0.009 A 
ATOM     83  C   UNL A   1      44.785  27.990  36.254  1.00  0.00     0.009 A 
ATOM     84  C   UNL A   1      47.141  29.318  35.582  1.00  0.00     0.001 A 
ATOM     85  C   UNL A   1      46.016  27.462  36.641  1.00  0.00     0.001 A 
ATOM     86  C   UNL A   1      47.194  28.119  36.293  1.00  0.00     0.000 A 
ENDBRANCH  68  81
ENDBRANCH  42  43
ENDBRANCH  34  37
ENDBRANCH  32  33
ENDBRANCH  31  32
ENDBRANCH   1  31
TORSDOF 14
ENDMDL
