MODEL 1
REMARK VINA RESULT:     -11.8      0.000      0.000
REMARK SMILES O=C(NCCCNC(=O)[C@H]1CCCN1C(=O)CN1C(=O)[C@@H]2[C@H](C1=O)[C@H]1C=C[C@@H]2C1)c1ccc(-c2c3nc(c(-c4ccccc4)c4ccc([nH]4)c(-c4ccccc4)c4nc(c(-c5ccccc5)c5ccc2[nH]5)C=C4)C=C3)cc1
REMARK SMILES IDX 5 1 4 2 3 3 1 4 2 5 30 7 31 8 77 9 32 10 76 11 33 12 34 13
REMARK SMILES IDX 35 14 70 15 36 16 75 17 69 18 71 19 37 20 74 21 68 22 67 23
REMARK SMILES IDX 38 25 60 26 45 27 59 28 46 29 49 30 58 31 72 32 47 33 48 34
REMARK SMILES IDX 57 36 73 37 50 38 39 39 40 40 44 41 41 42 43 43 42 44 61 45
REMARK SMILES IDX 62 46 66 47 63 48 65 49 64 50 51 51 52 52 56 53 53 54 55 55
REMARK SMILES IDX 54 56 6 57 7 58 8 59 9 61 10 62 11 63 14 64 12 65 13 66
REMARK SMILES IDX 15 67 16 68 17 69 18 70 19 71 23 72 21 73 20 74 22 75 24 76
REMARK SMILES IDX 28 77 25 78 27 79 29 80 26 81
REMARK H PARENT 3 6 71 24 49 35 7 60
REMARK Flexibility Score: inf
ROOT
ATOM      1  C   UNL A   1      33.552  30.449  27.236  1.00  0.00     0.042 C 
ENDROOT
BRANCH   1   2
ATOM      2  C   UNL A   1      34.737  31.289  27.705  1.00  0.00     0.118 C 
BRANCH   2   3
ATOM      3  N   UNL A   1      34.767  31.538  29.140  1.00  0.00    -0.352 N 
ATOM      4  O   UNL A   1      35.429  31.475  31.288  1.00  0.00    -0.269 OA
ATOM      5  C   UNL A   1      35.675  31.195  30.117  1.00  0.00     0.251 C 
ATOM      6  H   UNL A   1      33.994  32.047  29.474  1.00  0.00     0.163 HD
BRANCH   5   7
ATOM      7  C   UNL A   1      36.908  30.445  29.789  1.00  0.00     0.039 A 
ATOM      8  C   UNL A   1      37.537  29.647  30.734  1.00  0.00     0.014 A 
ATOM      9  C   UNL A   1      37.459  30.542  28.507  1.00  0.00     0.014 A 
ATOM     10  C   UNL A   1      38.829  29.197  30.508  1.00  0.00     0.010 A 
ATOM     11  C   UNL A   1      38.691  29.938  28.223  1.00  0.00     0.010 A 
ATOM     12  C   UNL A   1      39.426  29.320  29.244  1.00  0.00    -0.014 A 
BRANCH  12  13
ATOM     13  C   UNL A   1      40.801  28.780  29.051  1.00  0.00     0.031 A 
ATOM     14  C   UNL A   1      41.030  27.371  28.563  1.00  0.00     0.074 A 
ATOM     15  C   UNL A   1      41.856  29.605  29.221  1.00  0.00     0.049 A 
ATOM     16  N   UNL A   1      42.162  26.777  28.271  1.00  0.00    -0.248 NA
ATOM     17  C   UNL A   1      39.848  26.511  28.392  1.00  0.00     0.031 C 
ATOM     18  C   UNL A   1      41.777  30.992  29.692  1.00  0.00     0.029 A 
ATOM     19  N   UNL A   1      43.192  29.426  28.961  1.00  0.00    -0.354 N 
ATOM     20  C   UNL A   1      41.833  25.468  27.934  1.00  0.00     0.074 A 
ATOM     21  C   UNL A   1      40.397  25.349  28.068  1.00  0.00     0.031 C 
ATOM     22  C   UNL A   1      42.980  31.569  29.574  1.00  0.00     0.029 A 
ATOM     23  C   UNL A   1      43.938  30.571  29.121  1.00  0.00     0.049 A 
ATOM     24  H   UNL A   1      43.578  28.563  28.686  1.00  0.00     0.167 HD
ATOM     25  C   UNL A   1      42.649  24.457  27.550  1.00  0.00     0.031 A 
ATOM     26  C   UNL A   1      45.252  30.797  28.938  1.00  0.00     0.031 A 
ATOM     27  C   UNL A   1      44.073  24.583  27.383  1.00  0.00     0.049 A 
ATOM     28  C   UNL A   1      46.130  29.664  28.503  1.00  0.00     0.074 A 
ATOM     29  C   UNL A   1      44.981  23.622  26.970  1.00  0.00     0.029 A 
ATOM     30  N   UNL A   1      44.797  25.743  27.612  1.00  0.00    -0.354 N 
ATOM     31  N   UNL A   1      45.796  28.435  28.193  1.00  0.00    -0.248 NA
ATOM     32  C   UNL A   1      47.567  29.946  28.406  1.00  0.00     0.031 C 
ATOM     33  C   UNL A   1      46.259  24.189  26.992  1.00  0.00     0.029 A 
ATOM     34  C   UNL A   1      46.141  25.519  27.366  1.00  0.00     0.049 A 
ATOM     35  H   UNL A   1      44.411  26.600  27.906  1.00  0.00     0.167 HD
ATOM     36  C   UNL A   1      46.980  27.798  27.855  1.00  0.00     0.074 A 
ATOM     37  C   UNL A   1      48.035  28.786  27.970  1.00  0.00     0.031 C 
ATOM     38  C   UNL A   1      47.178  26.509  27.488  1.00  0.00     0.031 A 
BRANCH  25  39
ATOM     39  C   UNL A   1      42.025  23.107  27.321  1.00  0.00    -0.014 A 
ATOM     40  C   UNL A   1      41.791  22.212  28.377  1.00  0.00     0.009 A 
ATOM     41  C   UNL A   1      41.627  22.743  26.024  1.00  0.00     0.009 A 
ATOM     42  C   UNL A   1      41.203  20.967  28.132  1.00  0.00     0.001 A 
ATOM     43  C   UNL A   1      41.014  21.511  25.787  1.00  0.00     0.001 A 
ATOM     44  C   UNL A   1      40.812  20.620  26.840  1.00  0.00     0.000 A 
ENDBRANCH  25  39
BRANCH  26  45
ATOM     45  C   UNL A   1      45.813  32.152  29.186  1.00  0.00    -0.014 A 
ATOM     46  C   UNL A   1      45.877  33.101  28.155  1.00  0.00     0.009 A 
ATOM     47  C   UNL A   1      46.275  32.506  30.464  1.00  0.00     0.009 A 
ATOM     48  C   UNL A   1      46.405  34.371  28.396  1.00  0.00     0.001 A 
ATOM     49  C   UNL A   1      46.771  33.787  30.710  1.00  0.00     0.001 A 
ATOM     50  C   UNL A   1      46.843  34.716  29.675  1.00  0.00     0.000 A 
ENDBRANCH  26  45
BRANCH  38  51
ATOM     51  C   UNL A   1      48.585  26.110  27.153  1.00  0.00    -0.014 A 
ATOM     52  C   UNL A   1      49.426  25.527  28.114  1.00  0.00     0.009 A 
ATOM     53  C   UNL A   1      49.073  26.314  25.853  1.00  0.00     0.009 A 
ATOM     54  C   UNL A   1      50.742  25.195  27.789  1.00  0.00     0.001 A 
ATOM     55  C   UNL A   1      50.380  25.954  25.523  1.00  0.00     0.001 A 
ATOM     56  C   UNL A   1      51.217  25.406  26.494  1.00  0.00     0.000 A 
ENDBRANCH  38  51
ENDBRANCH  12  13
ENDBRANCH   5   7
ENDBRANCH   2   3
ENDBRANCH   1   2
BRANCH   1  57
ATOM     57  C   UNL A   1      33.962  29.115  26.625  1.00  0.00     0.117 C 
BRANCH  57  58
ATOM     58  N   UNL A   1      34.085  29.170  25.176  1.00  0.00    -0.354 N 
ATOM     59  C   UNL A   1      33.273  28.774  24.163  1.00  0.00     0.242 C 
ATOM     60  H   UNL A   1      34.929  29.576  24.869  1.00  0.00     0.163 HD
ATOM     61  O   UNL A   1      33.584  29.201  23.044  1.00  0.00    -0.273 OA
BRANCH  59  62
ATOM     62  C   UNL A   1      32.006  27.904  24.342  1.00  0.00     0.174 C 
ATOM     63  C   UNL A   1      30.788  28.830  24.372  1.00  0.00     0.037 C 
ATOM     64  N   UNL A   1      31.680  26.935  23.310  1.00  0.00    -0.329 N 
ATOM     65  C   UNL A   1      30.454  28.953  22.898  1.00  0.00     0.024 C 
ATOM     66  C   UNL A   1      30.757  27.556  22.355  1.00  0.00     0.120 C 
BRANCH  64  67
ATOM     67  C   UNL A   1      32.004  25.595  23.182  1.00  0.00     0.243 C 
ATOM     68  O   UNL A   1      32.122  25.136  22.034  1.00  0.00    -0.273 OA
BRANCH  67  69
ATOM     69  C   UNL A   1      32.055  24.576  24.365  1.00  0.00     0.228 C 
BRANCH  69  70
ATOM     70  N   UNL A   1      33.321  23.990  24.774  1.00  0.00    -0.273 N 
ATOM     71  C   UNL A   1      33.895  22.936  24.153  1.00  0.00     0.234 C 
ATOM     72  C   UNL A   1      34.336  24.680  25.402  1.00  0.00     0.234 C 
ATOM     73  C   UNL A   1      34.938  22.397  25.080  1.00  0.00     0.099 C 
ATOM     74  O   UNL A   1      33.677  22.549  23.014  1.00  0.00    -0.274 OA
ATOM     75  C   UNL A   1      35.449  23.698  25.728  1.00  0.00     0.099 C 
ATOM     76  O   UNL A   1      34.373  25.867  25.637  1.00  0.00    -0.274 OA
ATOM     77  C   UNL A   1      36.142  21.825  24.339  1.00  0.00     0.025 C 
ATOM     78  C   UNL A   1      36.866  23.804  25.111  1.00  0.00     0.025 C 
ATOM     79  C   UNL A   1      37.199  21.528  25.377  1.00  0.00    -0.027 C 
ATOM     80  C   UNL A   1      36.749  23.102  23.749  1.00  0.00     0.017 C 
ATOM     81  C   UNL A   1      37.666  22.712  25.813  1.00  0.00    -0.027 C 
ENDBRANCH  69  70
ENDBRANCH  67  69
ENDBRANCH  64  67
ENDBRANCH  59  62
ENDBRANCH  57  58
ENDBRANCH   1  57
TORSDOF 13
ENDMDL
MODEL 2
REMARK VINA RESULT:     -11.8      2.322      8.048
REMARK SMILES O=C(NCCCNC(=O)[C@H]1CCCN1C(=O)CN1C(=O)[C@@H]2[C@H](C1=O)[C@H]1C=C[C@@H]2C1)c1ccc(-c2c3nc(c(-c4ccccc4)c4ccc([nH]4)c(-c4ccccc4)c4nc(c(-c5ccccc5)c5ccc2[nH]5)C=C4)C=C3)cc1
REMARK SMILES IDX 5 1 4 2 3 3 1 4 2 5 30 7 31 8 77 9 32 10 76 11 33 12 34 13
REMARK SMILES IDX 35 14 70 15 36 16 75 17 69 18 71 19 37 20 74 21 68 22 67 23
REMARK SMILES IDX 38 25 60 26 45 27 59 28 46 29 49 30 58 31 72 32 47 33 48 34
REMARK SMILES IDX 57 36 73 37 50 38 39 39 40 40 44 41 41 42 43 43 42 44 61 45
REMARK SMILES IDX 62 46 66 47 63 48 65 49 64 50 51 51 52 52 56 53 53 54 55 55
REMARK SMILES IDX 54 56 6 57 7 58 8 59 9 61 10 62 11 63 14 64 12 65 13 66
REMARK SMILES IDX 15 67 16 68 17 69 18 70 19 71 23 72 21 73 20 74 22 75 24 76
REMARK SMILES IDX 28 77 25 78 27 79 29 80 26 81
REMARK H PARENT 3 6 71 24 49 35 7 60
REMARK Flexibility Score: inf
ROOT
ATOM      1  C   UNL A   1      38.090  20.975  24.906  1.00  0.00     0.042 C 
ENDROOT
BRANCH   1   2
ATOM      2  C   UNL A   1      38.823  20.455  26.138  1.00  0.00     0.118 C 
BRANCH   2   3
ATOM      3  N   UNL A   1      39.951  19.581  25.843  1.00  0.00    -0.352 N 
ATOM      4  O   UNL A   1      42.067  18.864  25.592  1.00  0.00    -0.269 OA
ATOM      5  C   UNL A   1      41.310  19.748  25.986  1.00  0.00     0.251 C 
ATOM      6  H   UNL A   1      39.692  18.707  25.472  1.00  0.00     0.163 HD
BRANCH   5   7
ATOM      7  C   UNL A   1      41.874  20.997  26.547  1.00  0.00     0.039 A 
ATOM      8  C   UNL A   1      42.101  21.134  27.909  1.00  0.00     0.014 A 
ATOM      9  C   UNL A   1      42.180  22.064  25.696  1.00  0.00     0.014 A 
ATOM     10  C   UNL A   1      42.341  22.390  28.446  1.00  0.00     0.010 A 
ATOM     11  C   UNL A   1      42.594  23.292  26.229  1.00  0.00     0.010 A 
ATOM     12  C   UNL A   1      42.609  23.490  27.617  1.00  0.00    -0.014 A 
BRANCH  12  13
ATOM     13  C   UNL A   1      42.902  24.806  28.253  1.00  0.00     0.031 A 
ATOM     14  C   UNL A   1      44.319  25.247  28.524  1.00  0.00     0.074 A 
ATOM     15  C   UNL A   1      41.881  25.656  28.495  1.00  0.00     0.049 A 
ATOM     16  N   UNL A   1      44.744  26.393  29.001  1.00  0.00    -0.248 NA
ATOM     17  C   UNL A   1      45.396  24.286  28.243  1.00  0.00     0.031 C 
ATOM     18  C   UNL A   1      40.462  25.355  28.281  1.00  0.00     0.029 A 
ATOM     19  N   UNL A   1      41.876  26.963  28.913  1.00  0.00    -0.354 N 
ATOM     20  C   UNL A   1      46.124  26.269  29.122  1.00  0.00     0.074 A 
ATOM     21  C   UNL A   1      46.466  24.934  28.681  1.00  0.00     0.031 C 
ATOM     22  C   UNL A   1      39.741  26.471  28.451  1.00  0.00     0.029 A 
ATOM     23  C   UNL A   1      40.628  27.540  28.889  1.00  0.00     0.049 A 
ATOM     24  H   UNL A   1      42.687  27.441  29.201  1.00  0.00     0.167 HD
ATOM     25  C   UNL A   1      47.025  27.181  29.561  1.00  0.00     0.031 A 
ATOM     26  C   UNL A   1      40.230  28.788  29.195  1.00  0.00     0.031 A 
ATOM     27  C   UNL A   1      46.691  28.520  29.968  1.00  0.00     0.049 A 
ATOM     28  C   UNL A   1      41.249  29.779  29.669  1.00  0.00     0.074 A 
ATOM     29  C   UNL A   1      47.539  29.526  30.402  1.00  0.00     0.029 A 
ATOM     30  N   UNL A   1      45.409  29.045  29.984  1.00  0.00    -0.354 N 
ATOM     31  N   UNL A   1      42.547  29.637  29.777  1.00  0.00    -0.248 NA
ATOM     32  C   UNL A   1      40.744  31.097  30.074  1.00  0.00     0.031 C 
ATOM     33  C   UNL A   1      46.764  30.645  30.721  1.00  0.00     0.029 A 
ATOM     34  C   UNL A   1      45.439  30.354  30.435  1.00  0.00     0.049 A 
ATOM     35  H   UNL A   1      44.597  28.560  29.713  1.00  0.00     0.167 HD
ATOM     36  C   UNL A   1      43.018  30.851  30.255  1.00  0.00     0.074 A 
ATOM     37  C   UNL A   1      41.868  31.725  30.387  1.00  0.00     0.031 C 
ATOM     38  C   UNL A   1      44.288  31.208  30.564  1.00  0.00     0.031 A 
BRANCH  25  39
ATOM     39  C   UNL A   1      48.462  26.745  29.665  1.00  0.00    -0.014 A 
ATOM     40  C   UNL A   1      48.959  26.097  30.807  1.00  0.00     0.009 A 
ATOM     41  C   UNL A   1      49.325  26.954  28.576  1.00  0.00     0.009 A 
ATOM     42  C   UNL A   1      50.298  25.700  30.869  1.00  0.00     0.001 A 
ATOM     43  C   UNL A   1      50.654  26.530  28.629  1.00  0.00     0.001 A 
ATOM     44  C   UNL A   1      51.142  25.912  29.780  1.00  0.00     0.000 A 
ENDBRANCH  25  39
BRANCH  26  45
ATOM     45  C   UNL A   1      38.794  29.158  29.080  1.00  0.00    -0.014 A 
ATOM     46  C   UNL A   1      37.940  29.069  30.190  1.00  0.00     0.009 A 
ATOM     47  C   UNL A   1      38.274  29.618  27.860  1.00  0.00     0.009 A 
ATOM     48  C   UNL A   1      36.593  29.419  30.075  1.00  0.00     0.001 A 
ATOM     49  C   UNL A   1      36.936  30.000  27.756  1.00  0.00     0.001 A 
ATOM     50  C   UNL A   1      36.095  29.892  28.861  1.00  0.00     0.000 A 
ENDBRANCH  26  45
BRANCH  38  51
ATOM     51  C   UNL A   1      44.497  32.616  31.040  1.00  0.00    -0.014 A 
ATOM     52  C   UNL A   1      44.749  33.661  30.137  1.00  0.00     0.009 A 
ATOM     53  C   UNL A   1      44.434  32.901  32.413  1.00  0.00     0.009 A 
ATOM     54  C   UNL A   1      44.974  34.957  30.605  1.00  0.00     0.001 A 
ATOM     55  C   UNL A   1      44.631  34.202  32.875  1.00  0.00     0.001 A 
ATOM     56  C   UNL A   1      44.913  35.227  31.972  1.00  0.00     0.000 A 
ENDBRANCH  38  51
ENDBRANCH  12  13
ENDBRANCH   5   7
ENDBRANCH   2   3
ENDBRANCH   1   2
BRANCH   1  57
ATOM     57  C   UNL A   1      37.372  22.298  25.143  1.00  0.00     0.117 C 
BRANCH  57  58
ATOM     58  N   UNL A   1      36.258  22.178  26.073  1.00  0.00    -0.354 N 
ATOM     59  C   UNL A   1      35.035  21.596  25.981  1.00  0.00     0.242 C 
ATOM     60  H   UNL A   1      36.426  22.606  26.944  1.00  0.00     0.163 HD
ATOM     61  O   UNL A   1      34.433  21.468  27.054  1.00  0.00    -0.273 OA
BRANCH  59  62
ATOM     62  C   UNL A   1      34.414  21.060  24.669  1.00  0.00     0.174 C 
ATOM     63  C   UNL A   1      34.415  19.531  24.727  1.00  0.00     0.037 C 
ATOM     64  N   UNL A   1      33.032  21.395  24.370  1.00  0.00    -0.329 N 
ATOM     65  C   UNL A   1      33.100  19.245  25.427  1.00  0.00     0.024 C 
ATOM     66  C   UNL A   1      32.168  20.320  24.869  1.00  0.00     0.120 C 
BRANCH  64  67
ATOM     67  C   UNL A   1      32.483  22.438  23.645  1.00  0.00     0.243 C 
ATOM     68  O   UNL A   1      32.953  22.670  22.519  1.00  0.00    -0.273 OA
BRANCH  67  69
ATOM     69  C   UNL A   1      31.441  23.459  24.205  1.00  0.00     0.228 C 
BRANCH  69  70
ATOM     70  N   UNL A   1      31.884  24.619  24.963  1.00  0.00    -0.273 N 
ATOM     71  C   UNL A   1      32.557  25.657  24.420  1.00  0.00     0.234 C 
ATOM     72  C   UNL A   1      31.259  25.100  26.093  1.00  0.00     0.234 C 
ATOM     73  C   UNL A   1      33.164  26.425  25.550  1.00  0.00     0.099 C 
ATOM     74  O   UNL A   1      32.589  25.972  23.239  1.00  0.00    -0.274 OA
ATOM     75  C   UNL A   1      32.070  26.270  26.625  1.00  0.00     0.099 C 
ATOM     76  O   UNL A   1      30.225  24.700  26.581  1.00  0.00    -0.274 OA
ATOM     77  C   UNL A   1      33.235  27.922  25.272  1.00  0.00     0.025 C 
ATOM     78  C   UNL A   1      31.513  27.713  26.696  1.00  0.00     0.025 C 
ATOM     79  C   UNL A   1      33.650  28.592  26.561  1.00  0.00    -0.027 C 
ATOM     80  C   UNL A   1      31.747  28.289  25.290  1.00  0.00     0.017 C 
ATOM     81  C   UNL A   1      32.605  28.506  27.404  1.00  0.00    -0.027 C 
ENDBRANCH  69  70
ENDBRANCH  67  69
ENDBRANCH  64  67
ENDBRANCH  59  62
ENDBRANCH  57  58
ENDBRANCH   1  57
TORSDOF 13
ENDMDL
MODEL 3
REMARK VINA RESULT:     -11.7      3.650      7.326
REMARK SMILES O=C(NCCCNC(=O)[C@H]1CCCN1C(=O)CN1C(=O)[C@@H]2[C@H](C1=O)[C@H]1C=C[C@@H]2C1)c1ccc(-c2c3nc(c(-c4ccccc4)c4ccc([nH]4)c(-c4ccccc4)c4nc(c(-c5ccccc5)c5ccc2[nH]5)C=C4)C=C3)cc1
REMARK SMILES IDX 5 1 4 2 3 3 1 4 2 5 30 7 31 8 77 9 32 10 76 11 33 12 34 13
REMARK SMILES IDX 35 14 70 15 36 16 75 17 69 18 71 19 37 20 74 21 68 22 67 23
REMARK SMILES IDX 38 25 60 26 45 27 59 28 46 29 49 30 58 31 72 32 47 33 48 34
REMARK SMILES IDX 57 36 73 37 50 38 39 39 40 40 44 41 41 42 43 43 42 44 61 45
REMARK SMILES IDX 62 46 66 47 63 48 65 49 64 50 51 51 52 52 56 53 53 54 55 55
REMARK SMILES IDX 54 56 6 57 7 58 8 59 9 61 10 62 11 63 14 64 12 65 13 66
REMARK SMILES IDX 15 67 16 68 17 69 18 70 19 71 23 72 21 73 20 74 22 75 24 76
REMARK SMILES IDX 28 77 25 78 27 79 29 80 26 81
REMARK H PARENT 3 6 71 24 49 35 7 60
REMARK Flexibility Score: inf
ROOT
ATOM      1  C   UNL A   1      31.603  31.463  26.877  1.00  0.00     0.042 C 
ENDROOT
BRANCH   1   2
ATOM      2  C   UNL A   1      32.262  32.784  26.493  1.00  0.00     0.118 C 
BRANCH   2   3
ATOM      3  N   UNL A   1      32.150  33.828  27.504  1.00  0.00    -0.352 N 
ATOM      4  O   UNL A   1      32.618  35.096  29.301  1.00  0.00    -0.269 OA
ATOM      5  C   UNL A   1      32.982  34.207  28.534  1.00  0.00     0.251 C 
ATOM      6  H   UNL A   1      31.327  34.363  27.437  1.00  0.00     0.163 HD
BRANCH   5   7
ATOM      7  C   UNL A   1      34.273  33.523  28.769  1.00  0.00     0.039 A 
ATOM      8  C   UNL A   1      34.356  32.405  29.586  1.00  0.00     0.014 A 
ATOM      9  C   UNL A   1      35.437  34.012  28.165  1.00  0.00     0.014 A 
ATOM     10  C   UNL A   1      35.594  31.963  30.028  1.00  0.00     0.010 A 
ATOM     11  C   UNL A   1      36.681  33.449  28.479  1.00  0.00     0.010 A 
ATOM     12  C   UNL A   1      36.781  32.465  29.472  1.00  0.00    -0.014 A 
BRANCH  12  13
ATOM     13  C   UNL A   1      38.080  31.922  29.959  1.00  0.00     0.031 A 
ATOM     14  C   UNL A   1      38.784  32.521  31.151  1.00  0.00     0.074 A 
ATOM     15  C   UNL A   1      38.581  30.810  29.378  1.00  0.00     0.049 A 
ATOM     16  N   UNL A   1      39.881  32.116  31.745  1.00  0.00    -0.248 NA
ATOM     17  C   UNL A   1      38.199  33.731  31.748  1.00  0.00     0.031 C 
ATOM     18  C   UNL A   1      38.001  30.129  28.216  1.00  0.00     0.029 A 
ATOM     19  N   UNL A   1      39.649  30.017  29.720  1.00  0.00    -0.354 N 
ATOM     20  C   UNL A   1      40.142  33.046  32.745  1.00  0.00     0.074 A 
ATOM     21  C   UNL A   1      39.096  34.043  32.673  1.00  0.00     0.031 C 
ATOM     22  C   UNL A   1      38.642  28.970  28.016  1.00  0.00     0.029 A 
ATOM     23  C   UNL A   1      39.742  28.872  28.965  1.00  0.00     0.049 A 
ATOM     24  H   UNL A   1      40.285  30.248  30.435  1.00  0.00     0.167 HD
ATOM     25  C   UNL A   1      41.158  33.071  33.641  1.00  0.00     0.031 A 
ATOM     26  C   UNL A   1      40.620  27.854  29.016  1.00  0.00     0.031 A 
ATOM     27  C   UNL A   1      42.180  32.062  33.737  1.00  0.00     0.049 A 
ATOM     28  C   UNL A   1      41.728  27.902  30.023  1.00  0.00     0.074 A 
ATOM     29  C   UNL A   1      43.235  31.985  34.631  1.00  0.00     0.029 A 
ATOM     30  N   UNL A   1      42.271  30.948  32.917  1.00  0.00    -0.354 N 
ATOM     31  N   UNL A   1      41.955  28.793  30.957  1.00  0.00    -0.248 NA
ATOM     32  C   UNL A   1      42.708  26.810  29.974  1.00  0.00     0.031 C 
ATOM     33  C   UNL A   1      43.989  30.849  34.322  1.00  0.00     0.029 A 
ATOM     34  C   UNL A   1      43.373  30.188  33.271  1.00  0.00     0.049 A 
ATOM     35  H   UNL A   1      41.644  30.730  32.189  1.00  0.00     0.167 HD
ATOM     36  C   UNL A   1      43.099  28.366  31.614  1.00  0.00     0.074 A 
ATOM     37  C   UNL A   1      43.501  27.120  30.990  1.00  0.00     0.031 C 
ATOM     38  C   UNL A   1      43.761  28.955  32.639  1.00  0.00     0.031 A 
BRANCH  25  39
ATOM     39  C   UNL A   1      41.240  34.253  34.569  1.00  0.00    -0.014 A 
ATOM     40  C   UNL A   1      41.981  35.399  34.244  1.00  0.00     0.009 A 
ATOM     41  C   UNL A   1      40.523  34.231  35.777  1.00  0.00     0.009 A 
ATOM     42  C   UNL A   1      42.032  36.483  35.125  1.00  0.00     0.001 A 
ATOM     43  C   UNL A   1      40.552  35.326  36.642  1.00  0.00     0.001 A 
ATOM     44  C   UNL A   1      41.314  36.448  36.319  1.00  0.00     0.000 A 
ENDBRANCH  25  39
BRANCH  26  45
ATOM     45  C   UNL A   1      40.493  26.715  28.068  1.00  0.00    -0.014 A 
ATOM     46  C   UNL A   1      39.715  25.594  28.395  1.00  0.00     0.009 A 
ATOM     47  C   UNL A   1      41.140  26.751  26.823  1.00  0.00     0.009 A 
ATOM     48  C   UNL A   1      39.600  24.529  27.499  1.00  0.00     0.001 A 
ATOM     49  C   UNL A   1      40.996  25.701  25.916  1.00  0.00     0.001 A 
ATOM     50  C   UNL A   1      40.233  24.587  26.258  1.00  0.00     0.000 A 
ENDBRANCH  26  45
BRANCH  38  51
ATOM     51  C   UNL A   1      44.969  28.236  33.166  1.00  0.00    -0.014 A 
ATOM     52  C   UNL A   1      46.250  28.489  32.651  1.00  0.00     0.009 A 
ATOM     53  C   UNL A   1      44.820  27.296  34.197  1.00  0.00     0.009 A 
ATOM     54  C   UNL A   1      47.354  27.784  33.134  1.00  0.00     0.001 A 
ATOM     55  C   UNL A   1      45.930  26.614  34.697  1.00  0.00     0.001 A 
ATOM     56  C   UNL A   1      47.193  26.849  34.156  1.00  0.00     0.000 A 
ENDBRANCH  38  51
ENDBRANCH  12  13
ENDBRANCH   5   7
ENDBRANCH   2   3
ENDBRANCH   1   2
BRANCH   1  57
ATOM     57  C   UNL A   1      32.589  30.307  26.992  1.00  0.00     0.117 C 
BRANCH  57  58
ATOM     58  N   UNL A   1      33.083  29.855  25.700  1.00  0.00    -0.354 N 
ATOM     59  C   UNL A   1      32.476  29.295  24.623  1.00  0.00     0.242 C 
ATOM     60  H   UNL A   1      34.054  29.979  25.585  1.00  0.00     0.163 HD
ATOM     61  O   UNL A   1      33.161  29.263  23.592  1.00  0.00    -0.273 OA
BRANCH  59  62
ATOM     62  C   UNL A   1      31.019  28.774  24.607  1.00  0.00     0.174 C 
ATOM     63  C   UNL A   1      30.150  29.797  23.873  1.00  0.00     0.037 C 
ATOM     64  N   UNL A   1      30.738  27.525  23.920  1.00  0.00    -0.329 N 
ATOM     65  C   UNL A   1      30.290  29.349  22.432  1.00  0.00     0.024 C 
ATOM     66  C   UNL A   1      30.331  27.825  22.544  1.00  0.00     0.120 C 
BRANCH  64  67
ATOM     67  C   UNL A   1      30.698  26.220  24.380  1.00  0.00     0.243 C 
ATOM     68  O   UNL A   1      30.262  26.024  25.526  1.00  0.00    -0.273 OA
BRANCH  67  69
ATOM     69  C   UNL A   1      31.324  24.995  23.638  1.00  0.00     0.228 C 
BRANCH  69  70
ATOM     70  N   UNL A   1      32.714  24.634  23.862  1.00  0.00    -0.273 N 
ATOM     71  C   UNL A   1      33.176  24.109  25.018  1.00  0.00     0.234 C 
ATOM     72  C   UNL A   1      33.589  24.242  22.872  1.00  0.00     0.234 C 
ATOM     73  C   UNL A   1      34.664  24.248  24.998  1.00  0.00     0.099 C 
ATOM     74  O   UNL A   1      32.519  23.540  25.878  1.00  0.00    -0.274 OA
ATOM     75  C   UNL A   1      34.956  24.027  23.501  1.00  0.00     0.099 C 
ATOM     76  O   UNL A   1      33.333  24.061  21.702  1.00  0.00    -0.274 OA
ATOM     77  C   UNL A   1      35.371  23.101  25.712  1.00  0.00     0.025 C 
ATOM     78  C   UNL A   1      35.656  22.646  23.533  1.00  0.00     0.025 C 
ATOM     79  C   UNL A   1      36.848  23.245  25.426  1.00  0.00    -0.027 C 
ATOM     80  C   UNL A   1      35.063  21.938  24.762  1.00  0.00     0.017 C 
ATOM     81  C   UNL A   1      37.029  22.932  24.130  1.00  0.00    -0.027 C 
ENDBRANCH  69  70
ENDBRANCH  67  69
ENDBRANCH  64  67
ENDBRANCH  59  62
ENDBRANCH  57  58
ENDBRANCH   1  57
TORSDOF 13
ENDMDL
