MODEL 1
REMARK VINA RESULT:     -11.5      0.000      0.000
REMARK SMILES C=CCn1c(=S)[nH]c2cc(C(=O)NCCCNC(=O)c3ccc(-c4c5nc(c(-c6ccccc6)c6ccc([nH]6)c(-c6ccccc6)c6nc(c(-c7ccccc7)c7ccc4[nH]7)C=C6)C=C5)cc3)ccc2c1=O
REMARK SMILES IDX 15 1 14 2 13 3 11 4 12 5 10 7 4 8 5 9 71 10 6 11 7 12 70 13
REMARK SMILES IDX 72 14 8 15 69 17 9 18 68 19 3 20 2 21 1 22 16 23 17 24 18 25
REMARK SMILES IDX 19 27 20 28 21 29 67 30 22 31 66 32 23 33 24 34 25 35 60 36
REMARK SMILES IDX 26 37 65 38 59 39 61 40 27 41 64 42 58 43 57 44 28 46 50 47
REMARK SMILES IDX 35 48 49 49 36 50 39 51 48 52 62 53 37 54 38 55 47 57 63 58
REMARK SMILES IDX 40 59 29 60 30 61 34 62 31 63 33 64 32 65 51 66 52 67 56 68
REMARK SMILES IDX 53 69 55 70 54 71 41 72 42 73 46 74 43 75 45 76 44 77
REMARK H PARENT 13 6 7 16 17 26 61 45 39 56
REMARK Flexibility Score: inf
ROOT
ATOM      1  C   UNL A   1      37.901  19.760  25.003  1.00  0.00     0.042 C 
ENDROOT
BRANCH   1   2
ATOM      2  C   UNL A   1      36.913  20.901  24.769  1.00  0.00     0.118 C 
BRANCH   2   3
ATOM      3  N   UNL A   1      35.623  20.611  25.371  1.00  0.00    -0.352 N 
ATOM      4  C   UNL A   1      34.406  21.237  25.305  1.00  0.00     0.251 C 
ATOM      5  O   UNL A   1      33.466  20.706  25.898  1.00  0.00    -0.269 OA
ATOM      6  H   UNL A   1      35.624  19.807  25.938  1.00  0.00     0.163 HD
BRANCH   4   7
ATOM      7  C   UNL A   1      34.149  22.491  24.540  1.00  0.00     0.041 A 
ATOM      8  N   UNL A   1      33.377  27.377  23.446  1.00  0.00    -0.281 N 
ATOM      9  C   UNL A   1      33.653  27.335  24.813  1.00  0.00     0.180 A 
ATOM     10  C   UNL A   1      33.469  26.250  22.617  1.00  0.00     0.262 A 
ATOM     11  S   UNL A   1      33.707  28.626  25.883  1.00  0.00    -0.040 S 
ATOM     12  N   UNL A   1      33.919  26.102  25.355  1.00  0.00    -0.332 N 
ATOM     13  C   UNL A   1      33.702  24.953  23.265  1.00  0.00     0.064 A 
ATOM     14  O   UNL A   1      33.375  26.277  21.390  1.00  0.00    -0.269 OA
ATOM     15  C   UNL A   1      33.918  24.913  24.630  1.00  0.00     0.054 A 
ATOM     16  H   UNL A   1      34.121  26.056  26.317  1.00  0.00     0.169 HD
ATOM     17  C   UNL A   1      33.729  23.776  22.518  1.00  0.00     0.017 A 
ATOM     18  C   UNL A   1      34.142  23.693  25.272  1.00  0.00     0.040 A 
ATOM     19  C   UNL A   1      33.970  22.556  23.153  1.00  0.00     0.015 A 
BRANCH   8  20
ATOM     20  C   UNL A   1      33.051  28.628  22.750  1.00  0.00     0.155 C 
BRANCH  20  21
ATOM     21  C   UNL A   1      31.588  28.946  22.929  1.00  0.00    -0.013 C 
ATOM     22  C   UNL A   1      30.568  28.276  22.379  1.00  0.00     0.006 C 
ENDBRANCH  20  21
ENDBRANCH   8  20
ENDBRANCH   4   7
ENDBRANCH   2   3
ENDBRANCH   1   2
BRANCH   1  23
ATOM     23  C   UNL A   1      39.155  20.195  25.750  1.00  0.00     0.118 C 
BRANCH  23  24
ATOM     24  N   UNL A   1      40.162  19.144  25.799  1.00  0.00    -0.352 N 
ATOM     25  C   UNL A   1      41.522  19.239  25.982  1.00  0.00     0.251 C 
ATOM     26  H   UNL A   1      39.817  18.229  25.685  1.00  0.00     0.163 HD
ATOM     27  O   UNL A   1      42.235  18.263  25.797  1.00  0.00    -0.269 OA
BRANCH  25  28
ATOM     28  C   UNL A   1      42.124  20.533  26.375  1.00  0.00     0.039 A 
ATOM     29  C   UNL A   1      42.259  20.878  27.719  1.00  0.00     0.014 A 
ATOM     30  C   UNL A   1      42.552  21.415  25.378  1.00  0.00     0.014 A 
ATOM     31  C   UNL A   1      42.657  22.165  28.064  1.00  0.00     0.010 A 
ATOM     32  C   UNL A   1      43.035  22.679  25.729  1.00  0.00     0.010 A 
ATOM     33  C   UNL A   1      43.043  23.082  27.074  1.00  0.00    -0.014 A 
BRANCH  33  34
ATOM     34  C   UNL A   1      43.435  24.460  27.467  1.00  0.00     0.031 A 
ATOM     35  C   UNL A   1      44.867  24.909  27.355  1.00  0.00     0.074 A 
ATOM     36  C   UNL A   1      42.483  25.332  27.858  1.00  0.00     0.049 A 
ATOM     37  N   UNL A   1      45.385  26.082  27.624  1.00  0.00    -0.248 NA
ATOM     38  C   UNL A   1      45.848  23.922  26.873  1.00  0.00     0.031 C 
ATOM     39  C   UNL A   1      41.055  25.024  27.965  1.00  0.00     0.029 A 
ATOM     40  N   UNL A   1      42.565  26.657  28.199  1.00  0.00    -0.354 N 
ATOM     41  C   UNL A   1      46.744  25.969  27.357  1.00  0.00     0.074 A 
ATOM     42  C   UNL A   1      46.981  24.608  26.934  1.00  0.00     0.031 C 
ATOM     43  C   UNL A   1      40.389  26.145  28.279  1.00  0.00     0.029 A 
ATOM     44  C   UNL A   1      41.345  27.231  28.468  1.00  0.00     0.049 A 
ATOM     45  H   UNL A   1      43.415  27.151  28.247  1.00  0.00     0.167 HD
ATOM     46  C   UNL A   1      47.703  26.921  27.442  1.00  0.00     0.031 A 
ATOM     47  C   UNL A   1      41.027  28.487  28.834  1.00  0.00     0.031 A 
ATOM     48  C   UNL A   1      47.462  28.278  27.854  1.00  0.00     0.049 A 
ATOM     49  C   UNL A   1      42.124  29.501  28.997  1.00  0.00     0.074 A 
ATOM     50  C   UNL A   1      48.375  29.312  27.975  1.00  0.00     0.029 A 
ATOM     51  N   UNL A   1      46.224  28.792  28.204  1.00  0.00    -0.354 N 
ATOM     52  N   UNL A   1      43.405  29.372  28.753  1.00  0.00    -0.248 NA
ATOM     53  C   UNL A   1      41.734  30.830  29.489  1.00  0.00     0.031 C 
ATOM     54  C   UNL A   1      47.699  30.436  28.451  1.00  0.00     0.029 A 
ATOM     55  C   UNL A   1      46.354  30.123  28.562  1.00  0.00     0.049 A 
ATOM     56  H   UNL A   1      45.379  28.287  28.198  1.00  0.00     0.167 HD
ATOM     57  C   UNL A   1      43.972  30.605  29.045  1.00  0.00     0.074 A 
ATOM     58  C   UNL A   1      42.893  31.475  29.465  1.00  0.00     0.031 C 
ATOM     59  C   UNL A   1      45.272  30.980  28.973  1.00  0.00     0.031 A 
BRANCH  46  60
ATOM     60  C   UNL A   1      49.115  26.542  27.088  1.00  0.00    -0.014 A 
ATOM     61  C   UNL A   1      49.537  26.592  25.750  1.00  0.00     0.009 A 
ATOM     62  C   UNL A   1      49.990  26.028  28.056  1.00  0.00     0.009 A 
ATOM     63  C   UNL A   1      50.797  26.117  25.384  1.00  0.00     0.001 A 
ATOM     64  C   UNL A   1      51.262  25.578  27.692  1.00  0.00     0.001 A 
ATOM     65  C   UNL A   1      51.659  25.612  26.356  1.00  0.00     0.000 A 
ENDBRANCH  46  60
BRANCH  47  66
ATOM     66  C   UNL A   1      39.603  28.850  29.061  1.00  0.00    -0.014 A 
ATOM     67  C   UNL A   1      39.012  28.678  30.323  1.00  0.00     0.009 A 
ATOM     68  C   UNL A   1      38.815  29.334  28.006  1.00  0.00     0.009 A 
ATOM     69  C   UNL A   1      37.657  28.955  30.518  1.00  0.00     0.001 A 
ATOM     70  C   UNL A   1      37.468  29.642  28.212  1.00  0.00     0.001 A 
ATOM     71  C   UNL A   1      36.887  29.442  29.464  1.00  0.00     0.000 A 
ENDBRANCH  47  66
BRANCH  59  72
ATOM     72  C   UNL A   1      45.617  32.396  29.335  1.00  0.00    -0.014 A 
ATOM     73  C   UNL A   1      45.613  33.388  28.340  1.00  0.00     0.009 A 
ATOM     74  C   UNL A   1      46.055  32.728  30.625  1.00  0.00     0.009 A 
ATOM     75  C   UNL A   1      46.058  34.680  28.626  1.00  0.00     0.001 A 
ATOM     76  C   UNL A   1      46.470  34.028  30.916  1.00  0.00     0.001 A 
ATOM     77  C   UNL A   1      46.481  34.999  29.914  1.00  0.00     0.000 A 
ENDBRANCH  59  72
ENDBRANCH  33  34
ENDBRANCH  25  28
ENDBRANCH  23  24
ENDBRANCH   1  23
TORSDOF 12
ENDMDL
MODEL 2
REMARK VINA RESULT:     -11.5      0.813      1.335
REMARK SMILES C=CCn1c(=S)[nH]c2cc(C(=O)NCCCNC(=O)c3ccc(-c4c5nc(c(-c6ccccc6)c6ccc([nH]6)c(-c6ccccc6)c6nc(c(-c7ccccc7)c7ccc4[nH]7)C=C6)C=C5)cc3)ccc2c1=O
REMARK SMILES IDX 15 1 14 2 13 3 11 4 12 5 10 7 4 8 5 9 71 10 6 11 7 12 70 13
REMARK SMILES IDX 72 14 8 15 69 17 9 18 68 19 3 20 2 21 1 22 16 23 17 24 18 25
REMARK SMILES IDX 19 27 20 28 21 29 67 30 22 31 66 32 23 33 24 34 25 35 60 36
REMARK SMILES IDX 26 37 65 38 59 39 61 40 27 41 64 42 58 43 57 44 28 46 50 47
REMARK SMILES IDX 35 48 49 49 36 50 39 51 48 52 62 53 37 54 38 55 47 57 63 58
REMARK SMILES IDX 40 59 29 60 30 61 34 62 31 63 33 64 32 65 51 66 52 67 56 68
REMARK SMILES IDX 53 69 55 70 54 71 41 72 42 73 46 74 43 75 45 76 44 77
REMARK H PARENT 13 6 7 16 17 26 61 45 39 56
REMARK Flexibility Score: inf
ROOT
ATOM      1  C   UNL A   1      37.895  19.753  25.020  1.00  0.00     0.042 C 
ENDROOT
BRANCH   1   2
ATOM      2  C   UNL A   1      36.883  20.866  24.759  1.00  0.00     0.118 C 
BRANCH   2   3
ATOM      3  N   UNL A   1      35.578  20.528  25.298  1.00  0.00    -0.352 N 
ATOM      4  C   UNL A   1      34.361  21.157  25.249  1.00  0.00     0.251 C 
ATOM      5  O   UNL A   1      33.406  20.578  25.769  1.00  0.00    -0.269 OA
ATOM      6  H   UNL A   1      35.565  19.680  25.798  1.00  0.00     0.163 HD
BRANCH   4   7
ATOM      7  C   UNL A   1      34.122  22.468  24.580  1.00  0.00     0.041 A 
ATOM      8  N   UNL A   1      33.408  27.432  23.861  1.00  0.00    -0.281 N 
ATOM      9  C   UNL A   1      33.675  27.282  25.222  1.00  0.00     0.180 A 
ATOM     10  C   UNL A   1      33.494  26.371  22.948  1.00  0.00     0.262 A 
ATOM     11  S   UNL A   1      33.736  28.486  26.389  1.00  0.00    -0.040 S 
ATOM     12  N   UNL A   1      33.924  26.008  25.669  1.00  0.00    -0.332 N 
ATOM     13  C   UNL A   1      33.709  25.025  23.496  1.00  0.00     0.064 A 
ATOM     14  O   UNL A   1      33.408  26.493  21.727  1.00  0.00    -0.269 OA
ATOM     15  C   UNL A   1      33.916  24.879  24.855  1.00  0.00     0.054 A 
ATOM     16  H   UNL A   1      34.120  25.886  26.626  1.00  0.00     0.169 HD
ATOM     17  C   UNL A   1      33.728  23.909  22.662  1.00  0.00     0.017 A 
ATOM     18  C   UNL A   1      34.123  23.610  25.403  1.00  0.00     0.040 A 
ATOM     19  C   UNL A   1      33.952  22.642  23.202  1.00  0.00     0.015 A 
BRANCH   8  20
ATOM     20  C   UNL A   1      33.100  28.736  23.262  1.00  0.00     0.155 C 
BRANCH  20  21
ATOM     21  C   UNL A   1      31.606  28.905  23.146  1.00  0.00    -0.013 C 
ATOM     22  C   UNL A   1      30.796  29.386  24.098  1.00  0.00     0.006 C 
ENDBRANCH  20  21
ENDBRANCH   8  20
ENDBRANCH   4   7
ENDBRANCH   2   3
ENDBRANCH   1   2
BRANCH   1  23
ATOM     23  C   UNL A   1      39.138  20.232  25.758  1.00  0.00     0.118 C 
BRANCH  23  24
ATOM     24  N   UNL A   1      40.174  19.209  25.817  1.00  0.00    -0.352 N 
ATOM     25  C   UNL A   1      41.516  19.335  26.088  1.00  0.00     0.251 C 
ATOM     26  H   UNL A   1      39.866  18.291  25.636  1.00  0.00     0.163 HD
ATOM     27  O   UNL A   1      42.270  18.391  25.899  1.00  0.00    -0.269 OA
BRANCH  25  28
ATOM     28  C   UNL A   1      42.051  20.624  26.582  1.00  0.00     0.039 A 
ATOM     29  C   UNL A   1      42.063  20.916  27.945  1.00  0.00     0.014 A 
ATOM     30  C   UNL A   1      42.540  21.555  25.661  1.00  0.00     0.014 A 
ATOM     31  C   UNL A   1      42.398  22.196  28.373  1.00  0.00     0.010 A 
ATOM     32  C   UNL A   1      42.960  22.813  26.102  1.00  0.00     0.010 A 
ATOM     33  C   UNL A   1      42.844  23.161  27.457  1.00  0.00    -0.014 A 
BRANCH  33  34
ATOM     34  C   UNL A   1      43.167  24.529  27.936  1.00  0.00     0.031 A 
ATOM     35  C   UNL A   1      44.599  24.976  28.065  1.00  0.00     0.074 A 
ATOM     36  C   UNL A   1      42.165  25.396  28.186  1.00  0.00     0.049 A 
ATOM     37  N   UNL A   1      45.067  26.141  28.438  1.00  0.00    -0.248 NA
ATOM     38  C   UNL A   1      45.645  23.996  27.727  1.00  0.00     0.031 C 
ATOM     39  C   UNL A   1      40.739  25.090  28.056  1.00  0.00     0.029 A 
ATOM     40  N   UNL A   1      42.191  26.714  28.562  1.00  0.00    -0.354 N 
ATOM     41  C   UNL A   1      46.451  26.030  28.390  1.00  0.00     0.074 A 
ATOM     42  C   UNL A   1      46.753  24.677  27.984  1.00  0.00     0.031 C 
ATOM     43  C   UNL A   1      40.030  26.207  28.281  1.00  0.00     0.029 A 
ATOM     44  C   UNL A   1      40.943  27.286  28.644  1.00  0.00     0.049 A 
ATOM     45  H   UNL A   1      43.022  27.204  28.757  1.00  0.00     0.167 HD
ATOM     46  C   UNL A   1      47.384  26.977  28.648  1.00  0.00     0.031 A 
ATOM     47  C   UNL A   1      40.571  28.536  28.979  1.00  0.00     0.031 A 
ATOM     48  C   UNL A   1      47.079  28.326  29.043  1.00  0.00     0.049 A 
ATOM     49  C   UNL A   1      41.626  29.542  29.337  1.00  0.00     0.074 A 
ATOM     50  C   UNL A   1      47.961  29.355  29.330  1.00  0.00     0.029 A 
ATOM     51  N   UNL A   1      45.801  28.838  29.199  1.00  0.00    -0.354 N 
ATOM     52  N   UNL A   1      42.930  29.414  29.300  1.00  0.00    -0.248 NA
ATOM     53  C   UNL A   1      41.161  30.862  29.787  1.00  0.00     0.031 C 
ATOM     54  C   UNL A   1      47.217  30.472  29.715  1.00  0.00     0.029 A 
ATOM     55  C   UNL A   1      45.871  30.161  29.601  1.00  0.00     0.049 A 
ATOM     56  H   UNL A   1      44.968  28.335  29.047  1.00  0.00     0.167 HD
ATOM     57  C   UNL A   1      43.443  30.640  29.704  1.00  0.00     0.074 A 
ATOM     58  C   UNL A   1      42.309  31.504  29.963  1.00  0.00     0.031 C 
ATOM     59  C   UNL A   1      44.737  31.012  29.850  1.00  0.00     0.031 A 
BRANCH  46  60
ATOM     60  C   UNL A   1      48.834  26.601  28.518  1.00  0.00    -0.014 A 
ATOM     61  C   UNL A   1      49.536  26.128  29.638  1.00  0.00     0.009 A 
ATOM     62  C   UNL A   1      49.534  26.823  27.322  1.00  0.00     0.009 A 
ATOM     63  C   UNL A   1      50.912  25.904  29.571  1.00  0.00     0.001 A 
ATOM     64  C   UNL A   1      50.907  26.572  27.250  1.00  0.00     0.001 A 
ATOM     65  C   UNL A   1      51.596  26.125  28.377  1.00  0.00     0.000 A 
ENDBRANCH  46  60
BRANCH  47  66
ATOM     66  C   UNL A   1      39.128  28.898  28.981  1.00  0.00    -0.014 A 
ATOM     67  C   UNL A   1      38.522  29.436  27.834  1.00  0.00     0.009 A 
ATOM     68  C   UNL A   1      38.358  28.746  30.143  1.00  0.00     0.009 A 
ATOM     69  C   UNL A   1      37.186  29.840  27.858  1.00  0.00     0.001 A 
ATOM     70  C   UNL A   1      37.011  29.120  30.154  1.00  0.00     0.001 A 
ATOM     71  C   UNL A   1      36.429  29.676  29.016  1.00  0.00     0.000 A 
ENDBRANCH  47  66
BRANCH  59  72
ATOM     72  C   UNL A   1      45.019  32.420  30.291  1.00  0.00    -0.014 A 
ATOM     73  C   UNL A   1      45.077  32.719  31.662  1.00  0.00     0.009 A 
ATOM     74  C   UNL A   1      45.113  33.464  29.361  1.00  0.00     0.009 A 
ATOM     75  C   UNL A   1      45.206  34.041  32.093  1.00  0.00     0.001 A 
ATOM     76  C   UNL A   1      45.272  34.782  29.795  1.00  0.00     0.001 A 
ATOM     77  C   UNL A   1      45.308  35.070  31.159  1.00  0.00     0.000 A 
ENDBRANCH  59  72
ENDBRANCH  33  34
ENDBRANCH  25  28
ENDBRANCH  23  24
ENDBRANCH   1  23
TORSDOF 12
ENDMDL
MODEL 3
REMARK VINA RESULT:     -11.4      4.683      9.960
REMARK SMILES C=CCn1c(=S)[nH]c2cc(C(=O)NCCCNC(=O)c3ccc(-c4c5nc(c(-c6ccccc6)c6ccc([nH]6)c(-c6ccccc6)c6nc(c(-c7ccccc7)c7ccc4[nH]7)C=C6)C=C5)cc3)ccc2c1=O
REMARK SMILES IDX 15 1 14 2 13 3 11 4 12 5 10 7 4 8 5 9 71 10 6 11 7 12 70 13
REMARK SMILES IDX 72 14 8 15 69 17 9 18 68 19 3 20 2 21 1 22 16 23 17 24 18 25
REMARK SMILES IDX 19 27 20 28 21 29 67 30 22 31 66 32 23 33 24 34 25 35 60 36
REMARK SMILES IDX 26 37 65 38 59 39 61 40 27 41 64 42 58 43 57 44 28 46 50 47
REMARK SMILES IDX 35 48 49 49 36 50 39 51 48 52 62 53 37 54 38 55 47 57 63 58
REMARK SMILES IDX 40 59 29 60 30 61 34 62 31 63 33 64 32 65 51 66 52 67 56 68
REMARK SMILES IDX 53 69 55 70 54 71 41 72 42 73 46 74 43 75 45 76 44 77
REMARK H PARENT 13 6 7 16 17 26 61 45 39 56
REMARK Flexibility Score: inf
ROOT
ATOM      1  C   UNL A   1      31.506  31.892  26.595  1.00  0.00     0.042 C 
ENDROOT
BRANCH   1   2
ATOM      2  C   UNL A   1      31.706  30.400  26.336  1.00  0.00     0.118 C 
BRANCH   2   3
ATOM      3  N   UNL A   1      31.441  30.067  24.948  1.00  0.00    -0.352 N 
ATOM      4  C   UNL A   1      31.387  28.875  24.273  1.00  0.00     0.251 C 
ATOM      5  O   UNL A   1      31.078  28.917  23.081  1.00  0.00    -0.269 OA
ATOM      6  H   UNL A   1      31.268  30.852  24.380  1.00  0.00     0.163 HD
BRANCH   4   7
ATOM      7  C   UNL A   1      31.643  27.546  24.898  1.00  0.00     0.041 A 
ATOM      8  N   UNL A   1      33.986  23.297  26.358  1.00  0.00    -0.281 N 
ATOM      9  C   UNL A   1      34.960  24.067  25.722  1.00  0.00     0.180 A 
ATOM     10  C   UNL A   1      32.690  23.770  26.612  1.00  0.00     0.262 A 
ATOM     11  S   UNL A   1      36.572  23.672  25.476  1.00  0.00    -0.040 S 
ATOM     12  N   UNL A   1      34.569  25.294  25.246  1.00  0.00    -0.332 N 
ATOM     13  C   UNL A   1      32.317  25.066  26.029  1.00  0.00     0.064 A 
ATOM     14  O   UNL A   1      31.853  23.180  27.294  1.00  0.00    -0.269 OA
ATOM     15  C   UNL A   1      33.276  25.797  25.351  1.00  0.00     0.054 A 
ATOM     16  H   UNL A   1      35.247  25.851  24.800  1.00  0.00     0.169 HD
ATOM     17  C   UNL A   1      31.025  25.569  26.171  1.00  0.00     0.017 A 
ATOM     18  C   UNL A   1      32.949  27.032  24.786  1.00  0.00     0.040 A 
ATOM     19  C   UNL A   1      30.699  26.810  25.623  1.00  0.00     0.015 A 
BRANCH   8  20
ATOM     20  C   UNL A   1      34.267  21.958  26.888  1.00  0.00     0.155 C 
BRANCH  20  21
ATOM     21  C   UNL A   1      33.873  20.914  25.874  1.00  0.00    -0.013 C 
ATOM     22  C   UNL A   1      34.671  20.398  24.930  1.00  0.00     0.006 C 
ENDBRANCH  20  21
ENDBRANCH   8  20
ENDBRANCH   4   7
ENDBRANCH   2   3
ENDBRANCH   1   2
BRANCH   1  23
ATOM     23  C   UNL A   1      32.735  32.569  27.187  1.00  0.00     0.118 C 
BRANCH  23  24
ATOM     24  N   UNL A   1      32.466  33.940  27.598  1.00  0.00    -0.352 N 
ATOM     25  C   UNL A   1      33.109  34.718  28.533  1.00  0.00     0.251 C 
ATOM     26  H   UNL A   1      31.711  34.374  27.138  1.00  0.00     0.163 HD
ATOM     27  O   UNL A   1      32.619  35.782  28.887  1.00  0.00    -0.269 OA
BRANCH  25  28
ATOM     28  C   UNL A   1      34.380  34.252  29.131  1.00  0.00     0.039 A 
ATOM     29  C   UNL A   1      35.600  34.511  28.506  1.00  0.00     0.014 A 
ATOM     30  C   UNL A   1      34.346  33.538  30.332  1.00  0.00     0.014 A 
ATOM     31  C   UNL A   1      36.760  33.913  28.984  1.00  0.00     0.010 A 
ATOM     32  C   UNL A   1      35.527  33.010  30.860  1.00  0.00     0.010 A 
ATOM     33  C   UNL A   1      36.737  33.151  30.162  1.00  0.00    -0.014 A 
BRANCH  33  34
ATOM     34  C   UNL A   1      37.985  32.497  30.635  1.00  0.00     0.031 A 
ATOM     35  C   UNL A   1      38.712  33.022  31.844  1.00  0.00     0.074 A 
ATOM     36  C   UNL A   1      38.423  31.384  30.015  1.00  0.00     0.049 A 
ATOM     37  N   UNL A   1      39.797  32.562  32.416  1.00  0.00    -0.248 NA
ATOM     38  C   UNL A   1      38.150  34.213  32.505  1.00  0.00     0.031 C 
ATOM     39  C   UNL A   1      37.779  30.757  28.859  1.00  0.00     0.029 A 
ATOM     40  N   UNL A   1      39.486  30.562  30.290  1.00  0.00    -0.354 N 
ATOM     41  C   UNL A   1      40.051  33.408  33.488  1.00  0.00     0.074 A 
ATOM     42  C   UNL A   1      39.029  34.429  33.474  1.00  0.00     0.031 C 
ATOM     43  C   UNL A   1      38.419  29.615  28.567  1.00  0.00     0.029 A 
ATOM     44  C   UNL A   1      39.560  29.465  29.464  1.00  0.00     0.049 A 
ATOM     45  H   UNL A   1      40.134  30.740  31.009  1.00  0.00     0.167 HD
ATOM     46  C   UNL A   1      41.040  33.329  34.410  1.00  0.00     0.031 A 
ATOM     47  C   UNL A   1      40.449  28.455  29.425  1.00  0.00     0.031 A 
ATOM     48  C   UNL A   1      42.050  32.305  34.427  1.00  0.00     0.049 A 
ATOM     49  C   UNL A   1      41.581  28.438  30.412  1.00  0.00     0.074 A 
ATOM     50  C   UNL A   1      43.096  32.148  35.321  1.00  0.00     0.029 A 
ATOM     51  N   UNL A   1      42.139  31.263  33.517  1.00  0.00    -0.354 N 
ATOM     52  N   UNL A   1      41.814  29.254  31.410  1.00  0.00    -0.248 NA
ATOM     53  C   UNL A   1      42.576  27.366  30.264  1.00  0.00     0.031 C 
ATOM     54  C   UNL A   1      43.850  31.044  34.919  1.00  0.00     0.029 A 
ATOM     55  C   UNL A   1      43.236  30.473  33.816  1.00  0.00     0.049 A 
ATOM     56  H   UNL A   1      41.516  31.109  32.772  1.00  0.00     0.167 HD
ATOM     57  C   UNL A   1      42.969  28.786  32.021  1.00  0.00     0.074 A 
ATOM     58  C   UNL A   1      43.380  27.603  31.293  1.00  0.00     0.031 C 
ATOM     59  C   UNL A   1      43.631  29.295  33.088  1.00  0.00     0.031 A 
BRANCH  46  60
ATOM     60  C   UNL A   1      41.094  34.377  35.487  1.00  0.00    -0.014 A 
ATOM     61  C   UNL A   1      40.327  34.221  36.652  1.00  0.00     0.009 A 
ATOM     62  C   UNL A   1      41.811  35.568  35.301  1.00  0.00     0.009 A 
ATOM     63  C   UNL A   1      40.259  35.244  37.600  1.00  0.00     0.001 A 
ATOM     64  C   UNL A   1      41.764  36.580  36.264  1.00  0.00     0.001 A 
ATOM     65  C   UNL A   1      40.978  36.422  37.406  1.00  0.00     0.000 A 
ENDBRANCH  46  60
BRANCH  47  66
ATOM     66  C   UNL A   1      40.291  27.374  28.416  1.00  0.00    -0.014 A 
ATOM     67  C   UNL A   1      39.568  26.208  28.721  1.00  0.00     0.009 A 
ATOM     68  C   UNL A   1      40.894  27.483  27.155  1.00  0.00     0.009 A 
ATOM     69  C   UNL A   1      39.478  25.165  27.798  1.00  0.00     0.001 A 
ATOM     70  C   UNL A   1      40.773  26.451  26.220  1.00  0.00     0.001 A 
ATOM     71  C   UNL A   1      40.076  25.289  26.545  1.00  0.00     0.000 A 
ENDBRANCH  47  66
BRANCH  59  72
ATOM     72  C   UNL A   1      44.862  28.576  33.561  1.00  0.00    -0.014 A 
ATOM     73  C   UNL A   1      46.112  28.904  33.012  1.00  0.00     0.009 A 
ATOM     74  C   UNL A   1      44.772  27.503  34.460  1.00  0.00     0.009 A 
ATOM     75  C   UNL A   1      47.246  28.159  33.340  1.00  0.00     0.001 A 
ATOM     76  C   UNL A   1      45.914  26.780  34.809  1.00  0.00     0.001 A 
ATOM     77  C   UNL A   1      47.147  27.101  34.242  1.00  0.00     0.000 A 
ENDBRANCH  59  72
ENDBRANCH  33  34
ENDBRANCH  25  28
ENDBRANCH  23  24
ENDBRANCH   1  23
TORSDOF 12
ENDMDL
