MODEL 1
REMARK VINA RESULT:     -11.4      0.000      0.000
REMARK SMILES [NH3+]Cc1c(-c2ccccc2)c(C(=O)NCCCNC(=O)c2ccc(-c3c4nc(c(-c5ccccc5)c5ccc([nH]5)c(-c5ccccc5)c5nc(c(-c6ccccc6)c6ccc3[nH]6)C=C5)C=C4)cc2)c2ccccn12
REMARK SMILES IDX 16 1 15 2 14 3 12 4 13 5 11 7 3 8 4 9 74 10 69 11 73 12
REMARK SMILES IDX 70 13 72 14 71 15 2 16 1 17 5 21 6 22 10 23 7 24 9 25 8 26
REMARK SMILES IDX 17 27 18 28 19 29 20 31 21 32 22 33 68 34 23 35 67 36 24 37
REMARK SMILES IDX 25 38 26 39 61 40 27 41 66 42 60 43 62 44 28 45 65 46 59 47
REMARK SMILES IDX 58 48 29 50 51 51 36 52 50 53 37 54 40 55 49 56 63 57 38 58
REMARK SMILES IDX 39 59 48 61 64 62 41 63 30 64 31 65 35 66 32 67 34 68 33 69
REMARK SMILES IDX 52 70 53 71 57 72 54 73 56 74 55 75 42 76 43 77 47 78 44 79
REMARK SMILES IDX 46 80 45 81
REMARK H PARENT 14 6 1 18 1 19 1 20 18 30 62 49 40 60
REMARK Flexibility Score: inf
ROOT
ATOM      1  C   UNL A   1      33.961  28.474  26.267  1.00  0.00     0.042 C 
ENDROOT
BRANCH   1   2
ATOM      2  C   UNL A   1      33.725  29.464  25.138  1.00  0.00     0.118 C 
BRANCH   2   3
ATOM      3  N   UNL A   1      34.160  29.021  23.830  1.00  0.00    -0.352 N 
ATOM      4  C   UNL A   1      33.592  28.172  22.907  1.00  0.00     0.254 C 
ATOM      5  O   UNL A   1      34.198  28.076  21.839  1.00  0.00    -0.269 OA
ATOM      6  H   UNL A   1      35.024  29.398  23.547  1.00  0.00     0.163 HD
BRANCH   4   7
ATOM      7  C   UNL A   1      32.397  27.373  23.195  1.00  0.00     0.073 A 
ATOM      8  C   UNL A   1      31.097  25.594  23.891  1.00  0.00     0.086 A 
ATOM      9  C   UNL A   1      32.408  26.007  23.664  1.00  0.00     0.022 A 
ATOM     10  N   UNL A   1      30.282  26.676  23.596  1.00  0.00    -0.314 N 
ATOM     11  C   UNL A   1      31.055  27.656  22.966  1.00  0.00     0.059 A 
ATOM     12  C   UNL A   1      28.911  26.847  23.824  1.00  0.00     0.092 A 
ATOM     13  C   UNL A   1      30.334  28.694  22.296  1.00  0.00     0.027 A 
ATOM     14  C   UNL A   1      28.278  27.929  23.347  1.00  0.00     0.018 A 
ATOM     15  C   UNL A   1      29.015  28.850  22.507  1.00  0.00     0.004 A 
BRANCH   8  16
ATOM     16  C   UNL A   1      30.542  24.259  24.284  1.00  0.00     0.315 C 
BRANCH  16  17
ATOM     17  N   UNL A   1      30.389  23.373  23.141  1.00  0.00    -0.353 N 
ATOM     18  H   UNL A   1      29.995  23.895  22.357  1.00  0.00     0.344 HD
ATOM     19  H   UNL A   1      29.764  22.606  23.386  1.00  0.00     0.344 HD
ATOM     20  H   UNL A   1      31.301  22.999  22.876  1.00  0.00     0.344 HD
ENDBRANCH  16  17
ENDBRANCH   8  16
BRANCH   9  21
ATOM     21  C   UNL A   1      33.553  25.121  23.830  1.00  0.00    -0.016 A 
ATOM     22  C   UNL A   1      34.329  25.165  24.993  1.00  0.00     0.009 A 
ATOM     23  C   UNL A   1      33.891  24.225  22.808  1.00  0.00     0.009 A 
ATOM     24  C   UNL A   1      35.434  24.320  25.128  1.00  0.00     0.001 A 
ATOM     25  C   UNL A   1      34.992  23.378  22.948  1.00  0.00     0.001 A 
ATOM     26  C   UNL A   1      35.764  23.428  24.107  1.00  0.00     0.000 A 
ENDBRANCH   9  21
ENDBRANCH   4   7
ENDBRANCH   2   3
ENDBRANCH   1   2
BRANCH   1  27
ATOM     27  C   UNL A   1      33.381  28.861  27.619  1.00  0.00     0.118 C 
BRANCH  27  28
ATOM     28  N   UNL A   1      33.570  30.262  27.971  1.00  0.00    -0.352 N 
ATOM     29  C   UNL A   1      34.660  30.957  28.445  1.00  0.00     0.251 C 
ATOM     30  H   UNL A   1      32.765  30.817  27.847  1.00  0.00     0.163 HD
ATOM     31  O   UNL A   1      34.524  32.130  28.772  1.00  0.00    -0.269 OA
BRANCH  29  32
ATOM     32  C   UNL A   1      35.982  30.306  28.613  1.00  0.00     0.039 A 
ATOM     33  C   UNL A   1      36.882  30.320  27.541  1.00  0.00     0.014 A 
ATOM     34  C   UNL A   1      36.342  29.661  29.795  1.00  0.00     0.014 A 
ATOM     35  C   UNL A   1      38.163  29.779  27.692  1.00  0.00     0.010 A 
ATOM     36  C   UNL A   1      37.652  29.236  29.987  1.00  0.00     0.010 A 
ATOM     37  C   UNL A   1      38.580  29.282  28.937  1.00  0.00    -0.014 A 
BRANCH  37  38
ATOM     38  C   UNL A   1      39.964  28.791  29.166  1.00  0.00     0.031 A 
ATOM     39  C   UNL A   1      41.004  29.710  29.754  1.00  0.00     0.074 A 
ATOM     40  C   UNL A   1      40.314  27.552  28.767  1.00  0.00     0.049 A 
ATOM     41  N   UNL A   1      42.288  29.509  29.919  1.00  0.00    -0.248 NA
ATOM     42  C   UNL A   1      40.549  31.046  30.176  1.00  0.00     0.031 C 
ATOM     43  C   UNL A   1      39.423  26.576  28.136  1.00  0.00     0.029 A 
ATOM     44  N   UNL A   1      41.525  26.905  28.822  1.00  0.00    -0.354 N 
ATOM     45  C   UNL A   1      42.792  30.699  30.431  1.00  0.00     0.074 A 
ATOM     46  C   UNL A   1      41.692  31.634  30.495  1.00  0.00     0.031 C 
ATOM     47  C   UNL A   1      40.108  25.448  27.891  1.00  0.00     0.029 A 
ATOM     48  C   UNL A   1      41.493  25.632  28.304  1.00  0.00     0.049 A 
ATOM     49  H   UNL A   1      42.338  27.313  29.198  1.00  0.00     0.167 HD
ATOM     50  C   UNL A   1      44.052  30.985  30.838  1.00  0.00     0.031 A 
ATOM     51  C   UNL A   1      42.473  24.718  28.168  1.00  0.00     0.031 A 
ATOM     52  C   UNL A   1      45.143  30.049  30.806  1.00  0.00     0.049 A 
ATOM     53  C   UNL A   1      43.861  25.052  28.639  1.00  0.00     0.074 A 
ATOM     54  C   UNL A   1      46.441  30.222  31.253  1.00  0.00     0.029 A 
ATOM     55  N   UNL A   1      45.058  28.760  30.304  1.00  0.00    -0.354 N 
ATOM     56  N   UNL A   1      44.305  26.162  29.176  1.00  0.00    -0.248 NA
ATOM     57  C   UNL A   1      44.878  24.000  28.496  1.00  0.00     0.031 C 
ATOM     58  C   UNL A   1      47.154  29.048  30.984  1.00  0.00     0.029 A 
ATOM     59  C   UNL A   1      46.285  28.129  30.417  1.00  0.00     0.049 A 
ATOM     60  H   UNL A   1      44.246  28.352  29.925  1.00  0.00     0.167 HD
ATOM     61  C   UNL A   1      45.646  25.935  29.458  1.00  0.00     0.074 A 
ATOM     62  C   UNL A   1      45.936  24.576  29.050  1.00  0.00     0.031 C 
ATOM     63  C   UNL A   1      46.555  26.776  30.007  1.00  0.00     0.031 A 
BRANCH  50  64
ATOM     64  C   UNL A   1      44.311  32.371  31.360  1.00  0.00    -0.014 A 
ATOM     65  C   UNL A   1      44.198  32.665  32.729  1.00  0.00     0.009 A 
ATOM     66  C   UNL A   1      44.695  33.392  30.477  1.00  0.00     0.009 A 
ATOM     67  C   UNL A   1      44.420  33.962  33.196  1.00  0.00     0.001 A 
ATOM     68  C   UNL A   1      44.947  34.681  30.952  1.00  0.00     0.001 A 
ATOM     69  C   UNL A   1      44.799  34.968  32.308  1.00  0.00     0.000 A 
ENDBRANCH  50  64
BRANCH  51  70
ATOM     70  C   UNL A   1      42.173  23.389  27.574  1.00  0.00    -0.014 A 
ATOM     71  C   UNL A   1      42.444  23.139  26.219  1.00  0.00     0.009 A 
ATOM     72  C   UNL A   1      41.614  22.365  28.353  1.00  0.00     0.009 A 
ATOM     73  C   UNL A   1      42.135  21.901  25.652  1.00  0.00     0.001 A 
ATOM     74  C   UNL A   1      41.332  21.118  27.789  1.00  0.00     0.001 A 
ATOM     75  C   UNL A   1      41.584  20.891  26.437  1.00  0.00     0.000 A 
ENDBRANCH  51  70
BRANCH  63  76
ATOM     76  C   UNL A   1      47.940  26.240  30.230  1.00  0.00    -0.014 A 
ATOM     77  C   UNL A   1      48.895  26.238  29.201  1.00  0.00     0.009 A 
ATOM     78  C   UNL A   1      48.305  25.769  31.500  1.00  0.00     0.009 A 
ATOM     79  C   UNL A   1      50.180  25.746  29.435  1.00  0.00     0.001 A 
ATOM     80  C   UNL A   1      49.599  25.304  31.738  1.00  0.00     0.001 A 
ATOM     81  C   UNL A   1      50.532  25.285  30.703  1.00  0.00     0.000 A 
ENDBRANCH  63  76
ENDBRANCH  37  38
ENDBRANCH  29  32
ENDBRANCH  27  28
ENDBRANCH   1  27
TORSDOF 13
ENDMDL
MODEL 2
REMARK VINA RESULT:     -11.1      3.032      7.895
REMARK SMILES [NH3+]Cc1c(-c2ccccc2)c(C(=O)NCCCNC(=O)c2ccc(-c3c4nc(c(-c5ccccc5)c5ccc([nH]5)c(-c5ccccc5)c5nc(c(-c6ccccc6)c6ccc3[nH]6)C=C5)C=C4)cc2)c2ccccn12
REMARK SMILES IDX 16 1 15 2 14 3 12 4 13 5 11 7 3 8 4 9 74 10 69 11 73 12
REMARK SMILES IDX 70 13 72 14 71 15 2 16 1 17 5 21 6 22 10 23 7 24 9 25 8 26
REMARK SMILES IDX 17 27 18 28 19 29 20 31 21 32 22 33 68 34 23 35 67 36 24 37
REMARK SMILES IDX 25 38 26 39 61 40 27 41 66 42 60 43 62 44 28 45 65 46 59 47
REMARK SMILES IDX 58 48 29 50 51 51 36 52 50 53 37 54 40 55 49 56 63 57 38 58
REMARK SMILES IDX 39 59 48 61 64 62 41 63 30 64 31 65 35 66 32 67 34 68 33 69
REMARK SMILES IDX 52 70 53 71 57 72 54 73 56 74 55 75 42 76 43 77 47 78 44 79
REMARK SMILES IDX 46 80 45 81
REMARK H PARENT 14 6 1 18 1 19 1 20 18 30 62 49 40 60
REMARK Flexibility Score: inf
ROOT
ATOM      1  C   UNL A   1      36.279  23.604  25.891  1.00  0.00     0.042 C 
ENDROOT
BRANCH   1   2
ATOM      2  C   UNL A   1      35.935  22.355  26.684  1.00  0.00     0.118 C 
BRANCH   2   3
ATOM      3  N   UNL A   1      34.776  22.471  27.545  1.00  0.00    -0.352 N 
ATOM      4  C   UNL A   1      33.426  22.486  27.278  1.00  0.00     0.254 C 
ATOM      5  O   UNL A   1      32.695  22.516  28.268  1.00  0.00    -0.269 OA
ATOM      6  H   UNL A   1      34.995  22.555  28.501  1.00  0.00     0.163 HD
BRANCH   4   7
ATOM      7  C   UNL A   1      32.888  22.546  25.915  1.00  0.00     0.073 A 
ATOM      8  C   UNL A   1      32.085  23.438  23.941  1.00  0.00     0.086 A 
ATOM      9  C   UNL A   1      32.481  23.756  25.239  1.00  0.00     0.022 A 
ATOM     10  N   UNL A   1      32.258  22.071  23.795  1.00  0.00    -0.314 N 
ATOM     11  C   UNL A   1      32.523  21.519  25.052  1.00  0.00     0.059 A 
ATOM     12  C   UNL A   1      32.179  21.281  22.641  1.00  0.00     0.092 A 
ATOM     13  C   UNL A   1      32.403  20.098  25.156  1.00  0.00     0.027 A 
ATOM     14  C   UNL A   1      32.257  19.945  22.732  1.00  0.00     0.018 A 
ATOM     15  C   UNL A   1      32.315  19.341  24.047  1.00  0.00     0.004 A 
BRANCH   8  16
ATOM     16  C   UNL A   1      31.490  24.289  22.861  1.00  0.00     0.315 C 
BRANCH  16  17
ATOM     17  N   UNL A   1      30.052  24.446  23.018  1.00  0.00    -0.353 N 
ATOM     18  H   UNL A   1      29.764  24.052  23.914  1.00  0.00     0.344 HD
ATOM     19  H   UNL A   1      29.572  23.958  22.262  1.00  0.00     0.344 HD
ATOM     20  H   UNL A   1      29.813  25.437  22.990  1.00  0.00     0.344 HD
ENDBRANCH  16  17
ENDBRANCH   8  16
BRANCH   9  21
ATOM     21  C   UNL A   1      32.404  25.107  25.777  1.00  0.00    -0.016 A 
ATOM     22  C   UNL A   1      31.226  25.576  26.368  1.00  0.00     0.009 A 
ATOM     23  C   UNL A   1      33.517  25.954  25.690  1.00  0.00     0.009 A 
ATOM     24  C   UNL A   1      31.165  26.882  26.863  1.00  0.00     0.001 A 
ATOM     25  C   UNL A   1      33.455  27.255  26.190  1.00  0.00     0.001 A 
ATOM     26  C   UNL A   1      32.278  27.719  26.775  1.00  0.00     0.000 A 
ENDBRANCH   9  21
ENDBRANCH   4   7
ENDBRANCH   2   3
ENDBRANCH   1   2
BRANCH   1  27
ATOM     27  C   UNL A   1      37.391  23.451  24.864  1.00  0.00     0.118 C 
BRANCH  27  28
ATOM     28  N   UNL A   1      38.517  22.646  25.317  1.00  0.00    -0.352 N 
ATOM     29  C   UNL A   1      39.604  22.941  26.110  1.00  0.00     0.251 C 
ATOM     30  H   UNL A   1      38.497  21.715  24.996  1.00  0.00     0.163 HD
ATOM     31  O   UNL A   1      40.483  22.100  26.254  1.00  0.00    -0.269 OA
BRANCH  29  32
ATOM     32  C   UNL A   1      39.757  24.268  26.752  1.00  0.00     0.039 A 
ATOM     33  C   UNL A   1      39.200  24.472  28.021  1.00  0.00     0.014 A 
ATOM     34  C   UNL A   1      40.417  25.321  26.122  1.00  0.00     0.014 A 
ATOM     35  C   UNL A   1      39.391  25.689  28.685  1.00  0.00     0.010 A 
ATOM     36  C   UNL A   1      40.713  26.482  26.828  1.00  0.00     0.010 A 
ATOM     37  C   UNL A   1      40.198  26.686  28.117  1.00  0.00    -0.014 A 
BRANCH  37  38
ATOM     38  C   UNL A   1      40.508  27.952  28.833  1.00  0.00     0.031 A 
ATOM     39  C   UNL A   1      41.824  28.112  29.550  1.00  0.00     0.074 A 
ATOM     40  C   UNL A   1      39.578  28.924  28.916  1.00  0.00     0.049 A 
ATOM     41  N   UNL A   1      42.230  29.085  30.327  1.00  0.00    -0.248 NA
ATOM     42  C   UNL A   1      42.796  27.014  29.409  1.00  0.00     0.031 C 
ATOM     43  C   UNL A   1      38.243  28.880  28.314  1.00  0.00     0.029 A 
ATOM     44  N   UNL A   1      39.611  30.139  29.556  1.00  0.00    -0.354 N 
ATOM     45  C   UNL A   1      43.484  28.701  30.787  1.00  0.00     0.074 A 
ATOM     46  C   UNL A   1      43.748  27.384  30.252  1.00  0.00     0.031 C 
ATOM     47  C   UNL A   1      37.599  30.025  28.588  1.00  0.00     0.029 A 
ATOM     48  C   UNL A   1      38.451  30.865  29.419  1.00  0.00     0.049 A 
ATOM     49  H   UNL A   1      40.390  30.459  30.064  1.00  0.00     0.167 HD
ATOM     50  C   UNL A   1      44.355  29.390  31.564  1.00  0.00     0.031 A 
ATOM     51  C   UNL A   1      38.110  32.070  29.915  1.00  0.00     0.031 A 
ATOM     52  C   UNL A   1      44.111  30.712  32.072  1.00  0.00     0.049 A 
ATOM     53  C   UNL A   1      39.097  32.822  30.764  1.00  0.00     0.074 A 
ATOM     54  C   UNL A   1      44.954  31.520  32.816  1.00  0.00     0.029 A 
ATOM     55  N   UNL A   1      42.937  31.424  31.881  1.00  0.00    -0.354 N 
ATOM     56  N   UNL A   1      40.302  32.468  31.138  1.00  0.00    -0.248 NA
ATOM     57  C   UNL A   1      38.679  34.147  31.246  1.00  0.00     0.031 C 
ATOM     58  C   UNL A   1      44.273  32.707  33.109  1.00  0.00     0.029 A 
ATOM     59  C   UNL A   1      43.027  32.656  32.504  1.00  0.00     0.049 A 
ATOM     60  H   UNL A   1      42.156  31.102  31.376  1.00  0.00     0.167 HD
ATOM     61  C   UNL A   1      40.796  33.534  31.878  1.00  0.00     0.074 A 
ATOM     62  C   UNL A   1      39.767  34.554  31.883  1.00  0.00     0.031 C 
ATOM     63  C   UNL A   1      41.994  33.659  32.498  1.00  0.00     0.031 A 
BRANCH  50  64
ATOM     64  C   UNL A   1      45.657  28.719  31.903  1.00  0.00    -0.014 A 
ATOM     65  C   UNL A   1      46.788  28.873  31.084  1.00  0.00     0.009 A 
ATOM     66  C   UNL A   1      45.764  27.942  33.066  1.00  0.00     0.009 A 
ATOM     67  C   UNL A   1      47.985  28.227  31.400  1.00  0.00     0.001 A 
ATOM     68  C   UNL A   1      46.971  27.323  33.396  1.00  0.00     0.001 A 
ATOM     69  C   UNL A   1      48.077  27.456  32.558  1.00  0.00     0.000 A 
ENDBRANCH  50  64
BRANCH  51  70
ATOM     70  C   UNL A   1      36.776  32.650  29.608  1.00  0.00    -0.014 A 
ATOM     71  C   UNL A   1      36.555  33.317  28.393  1.00  0.00     0.009 A 
ATOM     72  C   UNL A   1      35.720  32.544  30.525  1.00  0.00     0.009 A 
ATOM     73  C   UNL A   1      35.312  33.889  28.115  1.00  0.00     0.001 A 
ATOM     74  C   UNL A   1      34.469  33.093  30.233  1.00  0.00     0.001 A 
ATOM     75  C   UNL A   1      34.269  33.774  29.032  1.00  0.00     0.000 A 
ENDBRANCH  51  70
BRANCH  63  76
ATOM     76  C   UNL A   1      42.272  34.955  33.203  1.00  0.00    -0.014 A 
ATOM     77  C   UNL A   1      41.753  35.215  34.481  1.00  0.00     0.009 A 
ATOM     78  C   UNL A   1      43.099  35.912  32.595  1.00  0.00     0.009 A 
ATOM     79  C   UNL A   1      42.035  36.423  35.122  1.00  0.00     0.001 A 
ATOM     80  C   UNL A   1      43.402  37.106  33.251  1.00  0.00     0.001 A 
ATOM     81  C   UNL A   1      42.862  37.363  34.510  1.00  0.00     0.000 A 
ENDBRANCH  63  76
ENDBRANCH  37  38
ENDBRANCH  29  32
ENDBRANCH  27  28
ENDBRANCH   1  27
TORSDOF 13
ENDMDL
MODEL 3
REMARK VINA RESULT:     -11.1      0.493      6.007
REMARK SMILES [NH3+]Cc1c(-c2ccccc2)c(C(=O)NCCCNC(=O)c2ccc(-c3c4nc(c(-c5ccccc5)c5ccc([nH]5)c(-c5ccccc5)c5nc(c(-c6ccccc6)c6ccc3[nH]6)C=C5)C=C4)cc2)c2ccccn12
REMARK SMILES IDX 16 1 15 2 14 3 12 4 13 5 11 7 3 8 4 9 74 10 69 11 73 12
REMARK SMILES IDX 70 13 72 14 71 15 2 16 1 17 5 21 6 22 10 23 7 24 9 25 8 26
REMARK SMILES IDX 17 27 18 28 19 29 20 31 21 32 22 33 68 34 23 35 67 36 24 37
REMARK SMILES IDX 25 38 26 39 61 40 27 41 66 42 60 43 62 44 28 45 65 46 59 47
REMARK SMILES IDX 58 48 29 50 51 51 36 52 50 53 37 54 40 55 49 56 63 57 38 58
REMARK SMILES IDX 39 59 48 61 64 62 41 63 30 64 31 65 35 66 32 67 34 68 33 69
REMARK SMILES IDX 52 70 53 71 57 72 54 73 56 74 55 75 42 76 43 77 47 78 44 79
REMARK SMILES IDX 46 80 45 81
REMARK H PARENT 14 6 1 18 1 19 1 20 18 30 62 49 40 60
REMARK Flexibility Score: inf
ROOT
ATOM      1  C   UNL A   1      34.014  28.363  26.255  1.00  0.00     0.042 C 
ENDROOT
BRANCH   1   2
ATOM      2  C   UNL A   1      33.651  29.273  25.093  1.00  0.00     0.118 C 
BRANCH   2   3
ATOM      3  N   UNL A   1      34.076  28.807  23.790  1.00  0.00    -0.352 N 
ATOM      4  C   UNL A   1      33.523  27.910  22.904  1.00  0.00     0.254 C 
ATOM      5  O   UNL A   1      34.110  27.804  21.828  1.00  0.00    -0.269 OA
ATOM      6  H   UNL A   1      34.919  29.208  23.477  1.00  0.00     0.163 HD
BRANCH   4   7
ATOM      7  C   UNL A   1      32.365  27.076  23.242  1.00  0.00     0.073 A 
ATOM      8  C   UNL A   1      31.149  25.266  24.008  1.00  0.00     0.086 A 
ATOM      9  C   UNL A   1      32.438  25.720  23.734  1.00  0.00     0.022 A 
ATOM     10  N   UNL A   1      30.289  26.313  23.716  1.00  0.00    -0.314 N 
ATOM     11  C   UNL A   1      31.009  27.307  23.046  1.00  0.00     0.059 A 
ATOM     12  C   UNL A   1      28.919  26.440  23.981  1.00  0.00     0.092 A 
ATOM     13  C   UNL A   1      30.233  28.307  22.378  1.00  0.00     0.027 A 
ATOM     14  C   UNL A   1      28.235  27.491  23.502  1.00  0.00     0.018 A 
ATOM     15  C   UNL A   1      28.915  28.421  22.625  1.00  0.00     0.004 A 
BRANCH   8  16
ATOM     16  C   UNL A   1      30.653  23.921  24.440  1.00  0.00     0.315 C 
BRANCH  16  17
ATOM     17  N   UNL A   1      30.423  23.858  25.876  1.00  0.00    -0.353 N 
ATOM     18  H   UNL A   1      29.529  23.400  26.056  1.00  0.00     0.344 HD
ATOM     19  H   UNL A   1      30.404  24.803  26.259  1.00  0.00     0.344 HD
ATOM     20  H   UNL A   1      31.173  23.326  26.317  1.00  0.00     0.344 HD
ENDBRANCH  16  17
ENDBRANCH   8  16
BRANCH   9  21
ATOM     21  C   UNL A   1      33.617  24.878  23.884  1.00  0.00    -0.016 A 
ATOM     22  C   UNL A   1      33.983  23.973  22.883  1.00  0.00     0.009 A 
ATOM     23  C   UNL A   1      34.387  24.963  25.052  1.00  0.00     0.009 A 
ATOM     24  C   UNL A   1      35.108  23.161  23.051  1.00  0.00     0.001 A 
ATOM     25  C   UNL A   1      35.513  24.154  25.215  1.00  0.00     0.001 A 
ATOM     26  C   UNL A   1      35.871  23.252  24.216  1.00  0.00     0.000 A 
ENDBRANCH   9  21
ENDBRANCH   4   7
ENDBRANCH   2   3
ENDBRANCH   1   2
BRANCH   1  27
ATOM     27  C   UNL A   1      33.414  28.736  27.601  1.00  0.00     0.118 C 
BRANCH  27  28
ATOM     28  N   UNL A   1      33.543  30.147  27.943  1.00  0.00    -0.352 N 
ATOM     29  C   UNL A   1      34.605  30.892  28.404  1.00  0.00     0.251 C 
ATOM     30  H   UNL A   1      32.713  30.664  27.822  1.00  0.00     0.163 HD
ATOM     31  O   UNL A   1      34.420  32.060  28.725  1.00  0.00    -0.269 OA
BRANCH  29  32
ATOM     32  C   UNL A   1      35.955  30.301  28.565  1.00  0.00     0.039 A 
ATOM     33  C   UNL A   1      36.844  30.344  27.483  1.00  0.00     0.014 A 
ATOM     34  C   UNL A   1      36.355  29.684  29.748  1.00  0.00     0.014 A 
ATOM     35  C   UNL A   1      38.149  29.862  27.627  1.00  0.00     0.010 A 
ATOM     36  C   UNL A   1      37.684  29.319  29.932  1.00  0.00     0.010 A 
ATOM     37  C   UNL A   1      38.599  29.396  28.872  1.00  0.00    -0.014 A 
BRANCH  37  38
ATOM     38  C   UNL A   1      40.006  28.968  29.092  1.00  0.00     0.031 A 
ATOM     39  C   UNL A   1      40.450  27.589  28.677  1.00  0.00     0.074 A 
ATOM     40  C   UNL A   1      40.862  29.780  29.744  1.00  0.00     0.049 A 
ATOM     41  N   UNL A   1      41.595  26.989  28.891  1.00  0.00    -0.248 NA
ATOM     42  C   UNL A   1      39.465  26.760  27.962  1.00  0.00     0.031 C 
ATOM     43  C   UNL A   1      40.550  31.119  30.249  1.00  0.00     0.029 A 
ATOM     44  N   UNL A   1      42.173  29.588  30.107  1.00  0.00    -0.354 N 
ATOM     45  C   UNL A   1      41.453  25.710  28.366  1.00  0.00     0.074 A 
ATOM     46  C   UNL A   1      40.097  25.599  27.877  1.00  0.00     0.031 C 
ATOM     47  C   UNL A   1      41.645  31.638  30.827  1.00  0.00     0.029 A 
ATOM     48  C   UNL A   1      42.722  30.656  30.776  1.00  0.00     0.049 A 
ATOM     49  H   UNL A   1      42.673  28.764  29.907  1.00  0.00     0.167 HD
ATOM     50  C   UNL A   1      42.374  24.720  28.273  1.00  0.00     0.031 A 
ATOM     51  C   UNL A   1      43.952  30.824  31.298  1.00  0.00     0.031 A 
ATOM     52  C   UNL A   1      43.732  24.836  28.728  1.00  0.00     0.049 A 
ATOM     53  C   UNL A   1      44.961  29.718  31.171  1.00  0.00     0.074 A 
ATOM     54  C   UNL A   1      44.759  23.914  28.624  1.00  0.00     0.029 A 
ATOM     55  N   UNL A   1      44.254  25.949  29.369  1.00  0.00    -0.354 N 
ATOM     56  N   UNL A   1      44.827  28.538  30.618  1.00  0.00    -0.248 NA
ATOM     57  C   UNL A   1      46.297  29.975  31.729  1.00  0.00     0.031 C 
ATOM     58  C   UNL A   1      45.894  24.454  29.239  1.00  0.00     0.029 A 
ATOM     59  C   UNL A   1      45.586  25.731  29.680  1.00  0.00     0.049 A 
ATOM     60  H   UNL A   1      43.753  26.771  29.573  1.00  0.00     0.167 HD
ATOM     61  C   UNL A   1      46.065  27.920  30.739  1.00  0.00     0.074 A 
ATOM     62  C   UNL A   1      46.942  28.864  31.401  1.00  0.00     0.031 C 
ATOM     63  C   UNL A   1      46.443  26.683  30.337  1.00  0.00     0.031 A 
BRANCH  50  64
ATOM     64  C   UNL A   1      41.935  23.426  27.645  1.00  0.00    -0.014 A 
ATOM     65  C   UNL A   1      41.210  22.472  28.378  1.00  0.00     0.009 A 
ATOM     66  C   UNL A   1      42.230  23.165  26.299  1.00  0.00     0.009 A 
ATOM     67  C   UNL A   1      40.829  21.265  27.788  1.00  0.00     0.001 A 
ATOM     68  C   UNL A   1      41.819  21.971  25.702  1.00  0.00     0.001 A 
ATOM     69  C   UNL A   1      41.130  21.018  26.450  1.00  0.00     0.000 A 
ENDBRANCH  50  64
BRANCH  51  70
ATOM     70  C   UNL A   1      44.305  32.099  31.975  1.00  0.00    -0.014 A 
ATOM     71  C   UNL A   1      44.139  32.236  33.363  1.00  0.00     0.009 A 
ATOM     72  C   UNL A   1      44.806  33.186  31.242  1.00  0.00     0.009 A 
ATOM     73  C   UNL A   1      44.441  33.443  33.996  1.00  0.00     0.001 A 
ATOM     74  C   UNL A   1      45.135  34.383  31.884  1.00  0.00     0.001 A 
ATOM     75  C   UNL A   1      44.943  34.513  33.259  1.00  0.00     0.000 A 
ENDBRANCH  51  70
BRANCH  63  76
ATOM     76  C   UNL A   1      47.874  26.291  30.571  1.00  0.00    -0.014 A 
ATOM     77  C   UNL A   1      48.279  25.696  31.776  1.00  0.00     0.009 A 
ATOM     78  C   UNL A   1      48.820  26.484  29.553  1.00  0.00     0.009 A 
ATOM     79  C   UNL A   1      49.612  25.330  31.966  1.00  0.00     0.001 A 
ATOM     80  C   UNL A   1      50.146  26.091  29.735  1.00  0.00     0.001 A 
ATOM     81  C   UNL A   1      50.543  25.522  30.945  1.00  0.00     0.000 A 
ENDBRANCH  63  76
ENDBRANCH  37  38
ENDBRANCH  29  32
ENDBRANCH  27  28
ENDBRANCH   1  27
TORSDOF 13
ENDMDL
