MODEL 1
REMARK VINA RESULT:     -12.9      0.000      0.000
REMARK SMILES O=C1O[C@@H](c2ccc(O)c(O)c2)[C@H](C(=O)NCCCNC(=O)c2ccc(-c3c4nc(c(-c5ccccc5)c5ccc([nH]5)c(-c5ccccc5)c5nc(c(-c6ccccc6)c6ccc3[nH]6)C=C5)C=C4)cc2)/C1=C\c1ccc(O)c(O)c1
REMARK SMILES IDX 18 1 17 2 16 3 14 4 15 5 13 7 1 8 2 9 3 10 71 11 4 12 72 13
REMARK SMILES IDX 5 14 6 15 12 16 7 17 10 18 8 19 11 20 9 22 73 24 74 25 80 26
REMARK SMILES IDX 75 27 78 28 76 29 79 30 77 32 19 34 20 35 21 36 22 38 23 39
REMARK SMILES IDX 24 40 70 41 25 42 69 43 26 44 27 45 28 46 63 47 29 48 68 49
REMARK SMILES IDX 62 50 64 51 30 52 67 53 61 54 60 55 31 57 53 58 38 59 52 60
REMARK SMILES IDX 39 61 42 62 51 63 65 64 40 65 41 66 50 68 66 69 43 70 32 71
REMARK SMILES IDX 33 72 37 73 34 74 36 75 35 76 54 77 55 78 59 79 56 80 58 81
REMARK SMILES IDX 57 82 44 83 45 84 49 85 46 86 48 87 47 88
REMARK H PARENT 16 6 11 21 9 23 79 31 77 33 20 37 64 56 42 67
REMARK Flexibility Score: inf
ROOT
ATOM      1  C   UNL A   1      37.819  20.133  24.918  1.00  0.00     0.042 C 
ENDROOT
BRANCH   1   2
ATOM      2  C   UNL A   1      37.337  21.348  24.147  1.00  0.00     0.117 C 
BRANCH   2   3
ATOM      3  N   UNL A   1      37.092  22.510  24.979  1.00  0.00    -0.355 N 
ATOM      4  C   UNL A   1      35.963  22.976  25.592  1.00  0.00     0.231 C 
ATOM      5  O   UNL A   1      36.121  23.925  26.362  1.00  0.00    -0.274 OA
ATOM      6  H   UNL A   1      37.888  23.070  25.131  1.00  0.00     0.163 HD
BRANCH   4   7
ATOM      7  C   UNL A   1      34.577  22.420  25.244  1.00  0.00     0.161 C 
ATOM      8  O   UNL A   1      32.483  22.628  28.135  1.00  0.00    -0.247 OA
ATOM      9  C   UNL A   1      33.151  22.292  27.174  1.00  0.00     0.335 C 
ATOM     10  O   UNL A   1      33.681  21.063  26.982  1.00  0.00    -0.453 OA
ATOM     11  C   UNL A   1      33.506  23.123  26.012  1.00  0.00     0.054 C 
ATOM     12  C   UNL A   1      34.360  20.986  25.718  1.00  0.00     0.224 C 
ATOM     13  C   UNL A   1      32.850  24.274  25.800  1.00  0.00     0.020 C 
BRANCH  12  14
ATOM     14  C   UNL A   1      33.611  20.099  24.719  1.00  0.00    -0.002 A 
ATOM     15  C   UNL A   1      32.737  20.655  23.755  1.00  0.00     0.012 A 
ATOM     16  C   UNL A   1      33.839  18.715  24.673  1.00  0.00     0.057 A 
ATOM     17  C   UNL A   1      32.115  19.865  22.781  1.00  0.00     0.050 A 
ATOM     18  C   UNL A   1      33.207  17.935  23.713  1.00  0.00     0.157 A 
ATOM     19  C   UNL A   1      32.356  18.502  22.768  1.00  0.00     0.157 A 
BRANCH  18  20
ATOM     20  O   UNL A   1      33.437  16.590  23.694  1.00  0.00    -0.504 OA
ATOM     21  H   UNL A   1      33.531  16.119  24.499  1.00  0.00     0.293 HD
ENDBRANCH  18  20
BRANCH  19  22
ATOM     22  O   UNL A   1      31.786  17.677  21.842  1.00  0.00    -0.504 OA
ATOM     23  H   UNL A   1      32.237  17.489  21.041  1.00  0.00     0.293 HD
ENDBRANCH  19  22
ENDBRANCH  12  14
BRANCH  13  24
ATOM     24  C   UNL A   1      33.085  25.174  24.673  1.00  0.00    -0.021 A 
ATOM     25  C   UNL A   1      33.500  26.499  24.878  1.00  0.00     0.012 A 
ATOM     26  C   UNL A   1      32.943  24.685  23.370  1.00  0.00     0.058 A 
ATOM     27  C   UNL A   1      33.746  27.342  23.789  1.00  0.00     0.051 A 
ATOM     28  C   UNL A   1      33.197  25.526  22.296  1.00  0.00     0.157 A 
ATOM     29  C   UNL A   1      33.589  26.847  22.501  1.00  0.00     0.157 A 
BRANCH  28  30
ATOM     30  O   UNL A   1      33.064  25.044  21.026  1.00  0.00    -0.504 OA
ATOM     31  H   UNL A   1      33.815  24.727  20.563  1.00  0.00     0.293 HD
ENDBRANCH  28  30
BRANCH  29  32
ATOM     32  O   UNL A   1      33.819  27.619  21.396  1.00  0.00    -0.504 OA
ATOM     33  H   UNL A   1      33.220  28.304  21.172  1.00  0.00     0.293 HD
ENDBRANCH  29  32
ENDBRANCH  13  24
ENDBRANCH   4   7
ENDBRANCH   2   3
ENDBRANCH   1   2
BRANCH   1  34
ATOM     34  C   UNL A   1      38.915  20.439  25.926  1.00  0.00     0.118 C 
BRANCH  34  35
ATOM     35  N   UNL A   1      40.015  19.485  25.866  1.00  0.00    -0.352 N 
ATOM     36  C   UNL A   1      41.364  19.659  26.050  1.00  0.00     0.251 C 
ATOM     37  H   UNL A   1      39.746  18.561  25.659  1.00  0.00     0.163 HD
ATOM     38  O   UNL A   1      42.138  18.757  25.748  1.00  0.00    -0.269 OA
BRANCH  36  39
ATOM     39  C   UNL A   1      41.892  20.933  26.585  1.00  0.00     0.039 A 
ATOM     40  C   UNL A   1      42.293  21.929  25.690  1.00  0.00     0.014 A 
ATOM     41  C   UNL A   1      42.006  21.144  27.960  1.00  0.00     0.014 A 
ATOM     42  C   UNL A   1      42.728  23.162  26.177  1.00  0.00     0.010 A 
ATOM     43  C   UNL A   1      42.342  22.404  28.442  1.00  0.00     0.010 A 
ATOM     44  C   UNL A   1      42.710  23.426  27.556  1.00  0.00    -0.014 A 
BRANCH  44  45
ATOM     45  C   UNL A   1      43.060  24.767  28.091  1.00  0.00     0.031 A 
ATOM     46  C   UNL A   1      41.983  25.791  28.336  1.00  0.00     0.074 A 
ATOM     47  C   UNL A   1      44.355  25.087  28.280  1.00  0.00     0.049 A 
ATOM     48  N   UNL A   1      42.105  27.033  28.733  1.00  0.00    -0.248 NA
ATOM     49  C   UNL A   1      40.594  25.377  28.077  1.00  0.00     0.031 C 
ATOM     50  C   UNL A   1      45.495  24.201  28.029  1.00  0.00     0.029 A 
ATOM     51  N   UNL A   1      44.934  26.253  28.717  1.00  0.00    -0.354 N 
ATOM     52  C   UNL A   1      40.815  27.551  28.746  1.00  0.00     0.074 A 
ATOM     53  C   UNL A   1      39.933  26.508  28.275  1.00  0.00     0.031 C 
ATOM     54  C   UNL A   1      46.630  24.845  28.341  1.00  0.00     0.029 A 
ATOM     55  C   UNL A   1      46.306  26.203  28.765  1.00  0.00     0.049 A 
ATOM     56  H   UNL A   1      44.414  27.050  28.972  1.00  0.00     0.167 HD
ATOM     57  C   UNL A   1      40.403  28.781  29.131  1.00  0.00     0.031 A 
ATOM     58  C   UNL A   1      47.206  27.148  29.099  1.00  0.00     0.031 A 
ATOM     59  C   UNL A   1      41.280  29.812  29.618  1.00  0.00     0.049 A 
ATOM     60  C   UNL A   1      46.718  28.506  29.518  1.00  0.00     0.074 A 
ATOM     61  C   UNL A   1      40.948  31.063  30.109  1.00  0.00     0.029 A 
ATOM     62  N   UNL A   1      42.661  29.715  29.669  1.00  0.00    -0.354 N 
ATOM     63  N   UNL A   1      45.487  28.950  29.613  1.00  0.00    -0.248 NA
ATOM     64  C   UNL A   1      47.743  29.493  29.888  1.00  0.00     0.031 C 
ATOM     65  C   UNL A   1      42.132  31.748  30.391  1.00  0.00     0.029 A 
ATOM     66  C   UNL A   1      43.199  30.899  30.145  1.00  0.00     0.049 A 
ATOM     67  H   UNL A   1      43.183  28.922  29.405  1.00  0.00     0.167 HD
ATOM     68  C   UNL A   1      45.589  30.254  30.078  1.00  0.00     0.074 A 
ATOM     69  C   UNL A   1      46.999  30.522  30.268  1.00  0.00     0.031 C 
ATOM     70  C   UNL A   1      44.604  31.151  30.326  1.00  0.00     0.031 A 
BRANCH  57  71
ATOM     71  C   UNL A   1      38.934  29.093  29.032  1.00  0.00    -0.014 A 
ATOM     72  C   UNL A   1      38.080  28.963  30.138  1.00  0.00     0.009 A 
ATOM     73  C   UNL A   1      38.411  29.586  27.826  1.00  0.00     0.009 A 
ATOM     74  C   UNL A   1      36.727  29.294  30.029  1.00  0.00     0.001 A 
ATOM     75  C   UNL A   1      37.065  29.946  27.729  1.00  0.00     0.001 A 
ATOM     76  C   UNL A   1      36.224  29.792  28.829  1.00  0.00     0.000 A 
ENDBRANCH  57  71
BRANCH  58  77
ATOM     77  C   UNL A   1      48.663  26.850  29.040  1.00  0.00    -0.014 A 
ATOM     78  C   UNL A   1      49.399  27.091  27.871  1.00  0.00     0.009 A 
ATOM     79  C   UNL A   1      49.319  26.297  30.152  1.00  0.00     0.009 A 
ATOM     80  C   UNL A   1      50.752  26.747  27.802  1.00  0.00     0.001 A 
ATOM     81  C   UNL A   1      50.680  25.988  30.092  1.00  0.00     0.001 A 
ATOM     82  C   UNL A   1      51.392  26.200  28.913  1.00  0.00     0.000 A 
ENDBRANCH  58  77
BRANCH  70  83
ATOM     83  C   UNL A   1      45.014  32.495  30.861  1.00  0.00    -0.014 A 
ATOM     84  C   UNL A   1      45.272  33.576  30.005  1.00  0.00     0.009 A 
ATOM     85  C   UNL A   1      45.098  32.691  32.249  1.00  0.00     0.009 A 
ATOM     86  C   UNL A   1      45.643  34.817  30.526  1.00  0.00     0.001 A 
ATOM     87  C   UNL A   1      45.435  33.941  32.768  1.00  0.00     0.001 A 
ATOM     88  C   UNL A   1      45.717  35.000  31.907  1.00  0.00     0.000 A 
ENDBRANCH  70  83
ENDBRANCH  44  45
ENDBRANCH  36  39
ENDBRANCH  34  35
ENDBRANCH   1  34
TORSDOF 16
ENDMDL
MODEL 2
REMARK VINA RESULT:     -12.9      0.511      5.725
REMARK SMILES O=C1O[C@@H](c2ccc(O)c(O)c2)[C@H](C(=O)NCCCNC(=O)c2ccc(-c3c4nc(c(-c5ccccc5)c5ccc([nH]5)c(-c5ccccc5)c5nc(c(-c6ccccc6)c6ccc3[nH]6)C=C5)C=C4)cc2)/C1=C\c1ccc(O)c(O)c1
REMARK SMILES IDX 18 1 17 2 16 3 14 4 15 5 13 7 1 8 2 9 3 10 71 11 4 12 72 13
REMARK SMILES IDX 5 14 6 15 12 16 7 17 10 18 8 19 11 20 9 22 73 24 74 25 80 26
REMARK SMILES IDX 75 27 78 28 76 29 79 30 77 32 19 34 20 35 21 36 22 38 23 39
REMARK SMILES IDX 24 40 70 41 25 42 69 43 26 44 27 45 28 46 63 47 29 48 68 49
REMARK SMILES IDX 62 50 64 51 30 52 67 53 61 54 60 55 31 57 53 58 38 59 52 60
REMARK SMILES IDX 39 61 42 62 51 63 65 64 40 65 41 66 50 68 66 69 43 70 32 71
REMARK SMILES IDX 33 72 37 73 34 74 36 75 35 76 54 77 55 78 59 79 56 80 58 81
REMARK SMILES IDX 57 82 44 83 45 84 49 85 46 86 48 87 47 88
REMARK H PARENT 16 6 11 21 9 23 79 31 77 33 20 37 64 56 42 67
REMARK Flexibility Score: inf
ROOT
ATOM      1  C   UNL A   1      37.791  20.182  24.629  1.00  0.00     0.042 C 
ENDROOT
BRANCH   1   2
ATOM      2  C   UNL A   1      37.319  21.481  24.002  1.00  0.00     0.117 C 
BRANCH   2   3
ATOM      3  N   UNL A   1      37.087  22.543  24.963  1.00  0.00    -0.355 N 
ATOM      4  C   UNL A   1      35.975  22.917  25.663  1.00  0.00     0.231 C 
ATOM      5  O   UNL A   1      36.147  23.783  26.524  1.00  0.00    -0.274 OA
ATOM      6  H   UNL A   1      37.879  23.100  25.144  1.00  0.00     0.163 HD
BRANCH   4   7
ATOM      7  C   UNL A   1      34.586  22.373  25.309  1.00  0.00     0.161 C 
ATOM      8  O   UNL A   1      32.486  22.582  28.197  1.00  0.00    -0.247 OA
ATOM      9  C   UNL A   1      33.155  22.246  27.235  1.00  0.00     0.335 C 
ATOM     10  O   UNL A   1      33.676  21.014  27.038  1.00  0.00    -0.453 OA
ATOM     11  C   UNL A   1      33.518  23.080  26.078  1.00  0.00     0.054 C 
ATOM     12  C   UNL A   1      34.357  20.938  25.775  1.00  0.00     0.224 C 
ATOM     13  C   UNL A   1      32.871  24.236  25.870  1.00  0.00     0.020 C 
BRANCH  12  14
ATOM     14  C   UNL A   1      33.605  20.061  24.770  1.00  0.00    -0.002 A 
ATOM     15  C   UNL A   1      32.748  20.630  23.797  1.00  0.00     0.012 A 
ATOM     16  C   UNL A   1      33.812  18.674  24.728  1.00  0.00     0.057 A 
ATOM     17  C   UNL A   1      32.124  19.848  22.818  1.00  0.00     0.050 A 
ATOM     18  C   UNL A   1      33.177  17.903  23.762  1.00  0.00     0.157 A 
ATOM     19  C   UNL A   1      32.344  18.482  22.809  1.00  0.00     0.157 A 
BRANCH  18  20
ATOM     20  O   UNL A   1      33.388  16.555  23.747  1.00  0.00    -0.504 OA
ATOM     21  H   UNL A   1      33.256  16.068  22.956  1.00  0.00     0.293 HD
ENDBRANCH  18  20
BRANCH  19  22
ATOM     22  O   UNL A   1      31.771  17.664  21.878  1.00  0.00    -0.504 OA
ATOM     23  H   UNL A   1      32.279  16.989  21.470  1.00  0.00     0.293 HD
ENDBRANCH  19  22
ENDBRANCH  12  14
BRANCH  13  24
ATOM     24  C   UNL A   1      33.115  25.140  24.748  1.00  0.00    -0.021 A 
ATOM     25  C   UNL A   1      33.516  26.468  24.961  1.00  0.00     0.012 A 
ATOM     26  C   UNL A   1      32.995  24.652  23.443  1.00  0.00     0.058 A 
ATOM     27  C   UNL A   1      33.771  27.316  23.878  1.00  0.00     0.051 A 
ATOM     28  C   UNL A   1      33.258  25.498  22.374  1.00  0.00     0.157 A 
ATOM     29  C   UNL A   1      33.636  26.821  22.587  1.00  0.00     0.157 A 
BRANCH  28  30
ATOM     30  O   UNL A   1      33.146  25.017  21.101  1.00  0.00    -0.504 OA
ATOM     31  H   UNL A   1      33.356  24.122  20.918  1.00  0.00     0.293 HD
ENDBRANCH  28  30
BRANCH  29  32
ATOM     32  O   UNL A   1      33.875  27.598  21.487  1.00  0.00    -0.504 OA
ATOM     33  H   UNL A   1      34.205  28.468  21.592  1.00  0.00     0.293 HD
ENDBRANCH  29  32
ENDBRANCH  13  24
ENDBRANCH   4   7
ENDBRANCH   2   3
ENDBRANCH   1   2
BRANCH   1  34
ATOM     34  C   UNL A   1      38.712  20.374  25.823  1.00  0.00     0.118 C 
BRANCH  34  35
ATOM     35  N   UNL A   1      39.838  19.448  25.818  1.00  0.00    -0.352 N 
ATOM     36  C   UNL A   1      41.174  19.660  26.049  1.00  0.00     0.251 C 
ATOM     37  H   UNL A   1      39.600  18.514  25.614  1.00  0.00     0.163 HD
ATOM     38  O   UNL A   1      41.982  18.773  25.789  1.00  0.00    -0.269 OA
BRANCH  36  39
ATOM     39  C   UNL A   1      41.649  20.954  26.584  1.00  0.00     0.039 A 
ATOM     40  C   UNL A   1      42.148  21.911  25.696  1.00  0.00     0.014 A 
ATOM     41  C   UNL A   1      41.618  21.221  27.953  1.00  0.00     0.014 A 
ATOM     42  C   UNL A   1      42.536  23.163  26.176  1.00  0.00     0.010 A 
ATOM     43  C   UNL A   1      41.907  22.500  28.416  1.00  0.00     0.010 A 
ATOM     44  C   UNL A   1      42.373  23.484  27.533  1.00  0.00    -0.014 A 
BRANCH  44  45
ATOM     45  C   UNL A   1      42.671  24.845  28.047  1.00  0.00     0.031 A 
ATOM     46  C   UNL A   1      44.065  25.199  28.493  1.00  0.00     0.074 A 
ATOM     47  C   UNL A   1      41.669  25.736  28.186  1.00  0.00     0.049 A 
ATOM     48  N   UNL A   1      44.498  26.311  29.033  1.00  0.00    -0.248 NA
ATOM     49  C   UNL A   1      45.101  24.164  28.339  1.00  0.00     0.031 C 
ATOM     50  C   UNL A   1      40.266  25.496  27.839  1.00  0.00     0.029 A 
ATOM     51  N   UNL A   1      41.675  27.021  28.668  1.00  0.00    -0.354 N 
ATOM     52  C   UNL A   1      45.845  26.097  29.304  1.00  0.00     0.074 A 
ATOM     53  C   UNL A   1      46.147  24.739  28.913  1.00  0.00     0.031 C 
ATOM     54  C   UNL A   1      39.554  26.605  28.094  1.00  0.00     0.029 A 
ATOM     55  C   UNL A   1      40.436  27.615  28.668  1.00  0.00     0.049 A 
ATOM     56  H   UNL A   1      42.490  27.475  28.983  1.00  0.00     0.167 HD
ATOM     57  C   UNL A   1      46.751  26.962  29.817  1.00  0.00     0.031 A 
ATOM     58  C   UNL A   1      40.047  28.832  29.096  1.00  0.00     0.031 A 
ATOM     59  C   UNL A   1      46.453  28.319  30.187  1.00  0.00     0.049 A 
ATOM     60  C   UNL A   1      41.076  29.768  29.665  1.00  0.00     0.074 A 
ATOM     61  C   UNL A   1      47.321  29.298  30.639  1.00  0.00     0.029 A 
ATOM     62  N   UNL A   1      45.191  28.888  30.154  1.00  0.00    -0.354 N 
ATOM     63  N   UNL A   1      42.364  29.582  29.829  1.00  0.00    -0.248 NA
ATOM     64  C   UNL A   1      40.600  31.090  30.100  1.00  0.00     0.031 C 
ATOM     65  C   UNL A   1      46.573  30.436  30.947  1.00  0.00     0.029 A 
ATOM     66  C   UNL A   1      45.250  30.192  30.617  1.00  0.00     0.049 A 
ATOM     67  H   UNL A   1      44.372  28.433  29.848  1.00  0.00     0.167 HD
ATOM     68  C   UNL A   1      42.854  30.769  30.358  1.00  0.00     0.074 A 
ATOM     69  C   UNL A   1      41.731  31.675  30.466  1.00  0.00     0.031 C 
ATOM     70  C   UNL A   1      44.122  31.080  30.722  1.00  0.00     0.031 A 
BRANCH  57  71
ATOM     71  C   UNL A   1      48.156  26.465  30.024  1.00  0.00    -0.014 A 
ATOM     72  C   UNL A   1      48.545  25.841  31.219  1.00  0.00     0.009 A 
ATOM     73  C   UNL A   1      49.088  26.567  28.978  1.00  0.00     0.009 A 
ATOM     74  C   UNL A   1      49.846  25.355  31.373  1.00  0.00     0.001 A 
ATOM     75  C   UNL A   1      50.378  26.052  29.123  1.00  0.00     0.001 A 
ATOM     76  C   UNL A   1      50.757  25.454  30.323  1.00  0.00     0.000 A 
ENDBRANCH  57  71
BRANCH  58  77
ATOM     77  C   UNL A   1      38.618  29.235  29.015  1.00  0.00    -0.014 A 
ATOM     78  C   UNL A   1      38.082  29.748  27.824  1.00  0.00     0.009 A 
ATOM     79  C   UNL A   1      37.786  29.131  30.142  1.00  0.00     0.009 A 
ATOM     80  C   UNL A   1      36.756  30.186  27.775  1.00  0.00     0.001 A 
ATOM     81  C   UNL A   1      36.450  29.536  30.079  1.00  0.00     0.001 A 
ATOM     82  C   UNL A   1      35.941  30.075  28.900  1.00  0.00     0.000 A 
ENDBRANCH  58  77
BRANCH  70  83
ATOM     83  C   UNL A   1      44.368  32.470  31.241  1.00  0.00    -0.014 A 
ATOM     84  C   UNL A   1      44.307  32.760  32.612  1.00  0.00     0.009 A 
ATOM     85  C   UNL A   1      44.711  33.493  30.343  1.00  0.00     0.009 A 
ATOM     86  C   UNL A   1      44.548  34.057  33.071  1.00  0.00     0.001 A 
ATOM     87  C   UNL A   1      44.985  34.780  30.808  1.00  0.00     0.001 A 
ATOM     88  C   UNL A   1      44.893  35.063  32.170  1.00  0.00     0.000 A 
ENDBRANCH  70  83
ENDBRANCH  44  45
ENDBRANCH  36  39
ENDBRANCH  34  35
ENDBRANCH   1  34
TORSDOF 16
ENDMDL
MODEL 3
REMARK VINA RESULT:     -12.8      4.043      9.280
REMARK SMILES O=C1O[C@@H](c2ccc(O)c(O)c2)[C@H](C(=O)NCCCNC(=O)c2ccc(-c3c4nc(c(-c5ccccc5)c5ccc([nH]5)c(-c5ccccc5)c5nc(c(-c6ccccc6)c6ccc3[nH]6)C=C5)C=C4)cc2)/C1=C\c1ccc(O)c(O)c1
REMARK SMILES IDX 18 1 17 2 16 3 14 4 15 5 13 7 1 8 2 9 3 10 71 11 4 12 72 13
REMARK SMILES IDX 5 14 6 15 12 16 7 17 10 18 8 19 11 20 9 22 73 24 74 25 80 26
REMARK SMILES IDX 75 27 78 28 76 29 79 30 77 32 19 34 20 35 21 36 22 38 23 39
REMARK SMILES IDX 24 40 70 41 25 42 69 43 26 44 27 45 28 46 63 47 29 48 68 49
REMARK SMILES IDX 62 50 64 51 30 52 67 53 61 54 60 55 31 57 53 58 38 59 52 60
REMARK SMILES IDX 39 61 42 62 51 63 65 64 40 65 41 66 50 68 66 69 43 70 32 71
REMARK SMILES IDX 33 72 37 73 34 74 36 75 35 76 54 77 55 78 59 79 56 80 58 81
REMARK SMILES IDX 57 82 44 83 45 84 49 85 46 86 48 87 47 88
REMARK H PARENT 16 6 11 21 9 23 79 31 77 33 20 37 64 56 42 67
REMARK Flexibility Score: inf
ROOT
ATOM      1  C   UNL A   1      31.594  31.261  26.670  1.00  0.00     0.042 C 
ENDROOT
BRANCH   1   2
ATOM      2  C   UNL A   1      31.730  29.843  27.194  1.00  0.00     0.117 C 
BRANCH   2   3
ATOM      3  N   UNL A   1      32.998  29.218  26.867  1.00  0.00    -0.355 N 
ATOM      4  C   UNL A   1      33.406  28.482  25.791  1.00  0.00     0.231 C 
ATOM      5  O   UNL A   1      34.609  28.217  25.744  1.00  0.00    -0.274 OA
ATOM      6  H   UNL A   1      33.697  29.348  27.549  1.00  0.00     0.163 HD
BRANCH   4   7
ATOM      7  C   UNL A   1      32.400  27.927  24.775  1.00  0.00     0.161 C 
ATOM      8  O   UNL A   1      34.043  27.502  21.627  1.00  0.00    -0.247 OA
ATOM      9  C   UNL A   1      33.328  27.818  22.562  1.00  0.00     0.335 C 
ATOM     10  O   UNL A   1      32.604  28.958  22.639  1.00  0.00    -0.453 OA
ATOM     11  C   UNL A   1      33.073  27.037  23.782  1.00  0.00     0.054 C 
ATOM     12  C   UNL A   1      31.823  28.990  23.846  1.00  0.00     0.224 C 
ATOM     13  C   UNL A   1      33.414  25.740  23.816  1.00  0.00     0.020 C 
BRANCH  12  14
ATOM     14  C   UNL A   1      30.326  28.835  23.564  1.00  0.00    -0.002 A 
ATOM     15  C   UNL A   1      29.691  27.572  23.643  1.00  0.00     0.012 A 
ATOM     16  C   UNL A   1      29.522  29.955  23.305  1.00  0.00     0.057 A 
ATOM     17  C   UNL A   1      28.309  27.430  23.473  1.00  0.00     0.050 A 
ATOM     18  C   UNL A   1      28.153  29.804  23.123  1.00  0.00     0.157 A 
ATOM     19  C   UNL A   1      27.546  28.555  23.212  1.00  0.00     0.157 A 
BRANCH  18  20
ATOM     20  O   UNL A   1      27.393  30.908  22.863  1.00  0.00    -0.504 OA
ATOM     21  H   UNL A   1      27.047  31.047  22.003  1.00  0.00     0.293 HD
ENDBRANCH  18  20
BRANCH  19  22
ATOM     22  O   UNL A   1      26.193  28.486  23.043  1.00  0.00    -0.504 OA
ATOM     23  H   UNL A   1      25.833  28.377  22.184  1.00  0.00     0.293 HD
ENDBRANCH  19  22
ENDBRANCH  12  14
BRANCH  13  24
ATOM     24  C   UNL A   1      33.191  24.847  24.952  1.00  0.00    -0.021 A 
ATOM     25  C   UNL A   1      34.259  24.173  25.565  1.00  0.00     0.012 A 
ATOM     26  C   UNL A   1      31.897  24.709  25.466  1.00  0.00     0.058 A 
ATOM     27  C   UNL A   1      34.035  23.341  26.667  1.00  0.00     0.051 A 
ATOM     28  C   UNL A   1      31.686  23.889  26.565  1.00  0.00     0.157 A 
ATOM     29  C   UNL A   1      32.743  23.204  27.158  1.00  0.00     0.157 A 
BRANCH  28  30
ATOM     30  O   UNL A   1      30.423  23.760  27.067  1.00  0.00    -0.504 OA
ATOM     31  H   UNL A   1      30.158  24.272  27.806  1.00  0.00     0.293 HD
ENDBRANCH  28  30
BRANCH  29  32
ATOM     32  O   UNL A   1      32.460  22.410  28.236  1.00  0.00    -0.504 OA
ATOM     33  H   UNL A   1      31.661  22.531  28.709  1.00  0.00     0.293 HD
ENDBRANCH  29  32
ENDBRANCH  13  24
ENDBRANCH   4   7
ENDBRANCH   2   3
ENDBRANCH   1   2
BRANCH   1  34
ATOM     34  C   UNL A   1      32.837  32.113  26.869  1.00  0.00     0.118 C 
BRANCH  34  35
ATOM     35  N   UNL A   1      32.530  33.444  27.377  1.00  0.00    -0.352 N 
ATOM     36  C   UNL A   1      33.141  34.196  28.350  1.00  0.00     0.251 C 
ATOM     37  H   UNL A   1      31.754  33.876  26.952  1.00  0.00     0.163 HD
ATOM     38  O   UNL A   1      32.591  35.210  28.766  1.00  0.00    -0.269 OA
BRANCH  36  39
ATOM     39  C   UNL A   1      34.443  33.780  28.915  1.00  0.00     0.039 A 
ATOM     40  C   UNL A   1      34.459  32.995  30.071  1.00  0.00     0.014 A 
ATOM     41  C   UNL A   1      35.643  34.171  28.320  1.00  0.00     0.014 A 
ATOM     42  C   UNL A   1      35.676  32.536  30.578  1.00  0.00     0.010 A 
ATOM     43  C   UNL A   1      36.845  33.631  28.765  1.00  0.00     0.010 A 
ATOM     44  C   UNL A   1      36.875  32.810  29.901  1.00  0.00    -0.014 A 
BRANCH  44  45
ATOM     45  C   UNL A   1      38.168  32.239  30.356  1.00  0.00     0.031 A 
ATOM     46  C   UNL A   1      38.673  30.946  29.775  1.00  0.00     0.074 A 
ATOM     47  C   UNL A   1      38.846  32.845  31.351  1.00  0.00     0.049 A 
ATOM     48  N   UNL A   1      39.742  30.261  30.097  1.00  0.00    -0.248 NA
ATOM     49  C   UNL A   1      37.862  30.326  28.713  1.00  0.00     0.031 C 
ATOM     50  C   UNL A   1      38.434  34.075  32.034  1.00  0.00     0.029 A 
ATOM     51  N   UNL A   1      40.021  32.502  31.971  1.00  0.00    -0.354 N 
ATOM     52  C   UNL A   1      39.715  29.124  29.298  1.00  0.00     0.074 A 
ATOM     53  C   UNL A   1      38.505  29.186  28.511  1.00  0.00     0.031 C 
ATOM     54  C   UNL A   1      39.355  34.395  32.957  1.00  0.00     0.029 A 
ATOM     55  C   UNL A   1      40.394  33.371  32.967  1.00  0.00     0.049 A 
ATOM     56  H   UNL A   1      40.549  31.707  31.725  1.00  0.00     0.167 HD
ATOM     57  C   UNL A   1      40.626  28.126  29.217  1.00  0.00     0.031 A 
ATOM     58  C   UNL A   1      41.446  33.342  33.808  1.00  0.00     0.031 A 
ATOM     59  C   UNL A   1      41.839  28.076  29.988  1.00  0.00     0.049 A 
ATOM     60  C   UNL A   1      42.439  32.219  33.697  1.00  0.00     0.074 A 
ATOM     61  C   UNL A   1      42.864  27.148  29.919  1.00  0.00     0.029 A 
ATOM     62  N   UNL A   1      42.188  28.985  30.972  1.00  0.00    -0.354 N 
ATOM     63  N   UNL A   1      42.446  31.200  32.872  1.00  0.00    -0.248 NA
ATOM     64  C   UNL A   1      43.577  32.247  34.628  1.00  0.00     0.031 C 
ATOM     65  C   UNL A   1      43.799  27.457  30.909  1.00  0.00     0.029 A 
ATOM     66  C   UNL A   1      43.394  28.618  31.547  1.00  0.00     0.049 A 
ATOM     67  H   UNL A   1      41.658  29.775  31.227  1.00  0.00     0.167 HD
ATOM     68  C   UNL A   1      43.598  30.483  33.165  1.00  0.00     0.074 A 
ATOM     69  C   UNL A   1      44.277  31.195  34.226  1.00  0.00     0.031 C 
ATOM     70  C   UNL A   1      44.055  29.337  32.605  1.00  0.00     0.031 A 
BRANCH  57  71
ATOM     71  C   UNL A   1      40.344  26.993  28.270  1.00  0.00    -0.014 A 
ATOM     72  C   UNL A   1      40.859  26.982  26.964  1.00  0.00     0.009 A 
ATOM     73  C   UNL A   1      39.602  25.886  28.714  1.00  0.00     0.009 A 
ATOM     74  C   UNL A   1      40.613  25.899  26.116  1.00  0.00     0.001 A 
ATOM     75  C   UNL A   1      39.385  24.792  27.875  1.00  0.00     0.001 A 
ATOM     76  C   UNL A   1      39.884  24.804  26.574  1.00  0.00     0.000 A 
ENDBRANCH  57  71
BRANCH  58  77
ATOM     77  C   UNL A   1      41.613  34.403  34.838  1.00  0.00    -0.014 A 
ATOM     78  C   UNL A   1      41.042  34.265  36.111  1.00  0.00     0.009 A 
ATOM     79  C   UNL A   1      42.326  35.576  34.539  1.00  0.00     0.009 A 
ATOM     80  C   UNL A   1      41.147  35.294  37.051  1.00  0.00     0.001 A 
ATOM     81  C   UNL A   1      42.461  36.588  35.493  1.00  0.00     0.001 A 
ATOM     82  C   UNL A   1      41.860  36.452  36.742  1.00  0.00     0.000 A 
ENDBRANCH  58  77
BRANCH  70  83
ATOM     83  C   UNL A   1      45.366  28.798  33.107  1.00  0.00    -0.014 A 
ATOM     84  C   UNL A   1      45.420  27.850  34.139  1.00  0.00     0.009 A 
ATOM     85  C   UNL A   1      46.562  29.217  32.503  1.00  0.00     0.009 A 
ATOM     86  C   UNL A   1      46.650  27.359  34.583  1.00  0.00     0.001 A 
ATOM     87  C   UNL A   1      47.787  28.699  32.925  1.00  0.00     0.001 A 
ATOM     88  C   UNL A   1      47.831  27.779  33.971  1.00  0.00     0.000 A 
ENDBRANCH  70  83
ENDBRANCH  44  45
ENDBRANCH  36  39
ENDBRANCH  34  35
ENDBRANCH   1  34
TORSDOF 16
ENDMDL
