MODEL 1
REMARK VINA RESULT:      -9.7      0.000      0.000
REMARK SMILES O=C(COc1cc(-c2ccccc2)nc(NCc2ccc(Cl)cc2)n1)NCCCNC(=O)c1ccc(-c2c3nc(c(-c4ccccc4)c4ccc([nH]4)c(-c4ccccc4)c4nc(c(-c5ccccc5)c5ccc2[nH]5)C=C4)C=C3)cc1
REMARK SMILES IDX 1 1 2 2 26 3 3 5 4 6 5 7 6 8 25 9 7 10 15 11 14 12 8 13 9 14
REMARK SMILES IDX 13 15 10 16 12 17 11 18 16 19 17 21 18 22 19 23 24 24 20 25
REMARK SMILES IDX 23 26 21 27 22 28 27 29 28 30 29 31 30 32 31 33 32 35 33 36
REMARK SMILES IDX 34 37 80 38 35 39 79 40 36 41 37 42 38 43 73 44 39 45 78 46
REMARK SMILES IDX 72 47 74 48 40 49 77 50 71 51 70 52 41 54 63 55 48 56 62 57
REMARK SMILES IDX 49 58 52 59 61 60 75 61 50 62 51 63 60 65 76 66 53 67 42 68
REMARK SMILES IDX 43 69 47 70 44 71 46 72 45 73 64 74 65 75 69 76 66 77 68 78
REMARK SMILES IDX 67 79 54 80 55 81 59 82 56 83 58 84 57 85
REMARK H PARENT 26 4 16 20 30 34 74 53 52 64
REMARK Flexibility Score: inf
ROOT
ATOM      1  O   UNL A   1      44.354  22.549  23.142  1.00  0.00    -0.271 OA
ATOM      2  C   UNL A   1      45.271  22.278  23.909  1.00  0.00     0.258 C 
ATOM      3  N   UNL A   1      45.719  20.989  24.137  1.00  0.00    -0.353 N 
ATOM      4  H   UNL A   1      46.598  20.858  24.560  1.00  0.00     0.163 HD
ENDROOT
BRANCH   2   5
ATOM      5  C   UNL A   1      45.981  23.339  24.760  1.00  0.00     0.331 C 
BRANCH   5   6
ATOM      6  O   UNL A   1      45.315  24.603  24.813  1.00  0.00    -0.467 OA
BRANCH   6   7
ATOM      7  C   UNL A   1      46.185  25.660  24.972  1.00  0.00     0.219 A 
ATOM      8  C   UNL A   1      47.465  25.597  24.495  1.00  0.00     0.097 A 
ATOM      9  N   UNL A   1      45.655  26.776  25.482  1.00  0.00    -0.177 NA
ATOM     10  C   UNL A   1      48.226  26.734  24.607  1.00  0.00     0.080 A 
ATOM     11  C   UNL A   1      46.466  27.843  25.568  1.00  0.00     0.226 A 
ATOM     12  N   UNL A   1      47.745  27.857  25.167  1.00  0.00    -0.213 NA
BRANCH  10  13
ATOM     13  C   UNL A   1      49.607  26.733  24.108  1.00  0.00     0.000 A 
ATOM     14  C   UNL A   1      49.902  27.120  22.794  1.00  0.00     0.010 A 
ATOM     15  C   UNL A   1      50.683  26.446  24.973  1.00  0.00     0.010 A 
ATOM     16  C   UNL A   1      51.229  27.256  22.372  1.00  0.00     0.001 A 
ATOM     17  C   UNL A   1      52.006  26.578  24.551  1.00  0.00     0.001 A 
ATOM     18  C   UNL A   1      52.278  26.993  23.251  1.00  0.00     0.000 A 
ENDBRANCH  10  13
BRANCH  11  19
ATOM     19  N   UNL A   1      46.008  29.019  26.084  1.00  0.00    -0.350 N 
ATOM     20  H   UNL A   1      45.035  29.167  26.116  1.00  0.00     0.164 HD
BRANCH  19  21
ATOM     21  C   UNL A   1      46.869  30.052  26.584  1.00  0.00     0.152 C 
BRANCH  21  22
ATOM     22  C   UNL A   1      46.109  31.357  26.611  1.00  0.00    -0.029 A 
ATOM     23  C   UNL A   1      44.710  31.348  26.720  1.00  0.00     0.007 A 
ATOM     24  C   UNL A   1      46.782  32.587  26.568  1.00  0.00     0.007 A 
ATOM     25  C   UNL A   1      43.993  32.545  26.757  1.00  0.00     0.021 A 
ATOM     26  C   UNL A   1      46.065  33.785  26.607  1.00  0.00     0.021 A 
ATOM     27  C   UNL A   1      44.674  33.759  26.697  1.00  0.00     0.041 A 
ATOM     28  Cl  UNL A   1      43.791  35.235  26.736  1.00  0.00    -0.084 Cl
ENDBRANCH  21  22
ENDBRANCH  19  21
ENDBRANCH  11  19
ENDBRANCH   6   7
ENDBRANCH   5   6
ENDBRANCH   2   5
BRANCH   3  29
ATOM     29  C   UNL A   1      44.933  19.827  23.772  1.00  0.00     0.117 C 
BRANCH  29  30
ATOM     30  C   UNL A   1      44.948  18.731  24.819  1.00  0.00     0.042 C 
BRANCH  30  31
ATOM     31  C   UNL A   1      44.058  19.015  26.020  1.00  0.00     0.118 C 
BRANCH  31  32
ATOM     32  N   UNL A   1      42.639  18.803  25.759  1.00  0.00    -0.352 N 
ATOM     33  C   UNL A   1      41.565  19.621  26.016  1.00  0.00     0.251 C 
ATOM     34  H   UNL A   1      42.417  17.944  25.332  1.00  0.00     0.163 HD
ATOM     35  O   UNL A   1      40.425  19.206  25.829  1.00  0.00    -0.269 OA
BRANCH  33  36
ATOM     36  C   UNL A   1      41.773  20.985  26.549  1.00  0.00     0.039 A 
ATOM     37  C   UNL A   1      41.703  21.187  27.930  1.00  0.00     0.014 A 
ATOM     38  C   UNL A   1      42.044  22.059  25.699  1.00  0.00     0.014 A 
ATOM     39  C   UNL A   1      41.979  22.449  28.462  1.00  0.00     0.010 A 
ATOM     40  C   UNL A   1      42.405  23.292  26.235  1.00  0.00     0.010 A 
ATOM     41  C   UNL A   1      42.376  23.502  27.621  1.00  0.00    -0.014 A 
BRANCH  41  42
ATOM     42  C   UNL A   1      42.762  24.829  28.168  1.00  0.00     0.031 A 
ATOM     43  C   UNL A   1      41.722  25.895  28.371  1.00  0.00     0.074 A 
ATOM     44  C   UNL A   1      44.059  25.099  28.415  1.00  0.00     0.049 A 
ATOM     45  N   UNL A   1      41.876  27.136  28.762  1.00  0.00    -0.248 NA
ATOM     46  C   UNL A   1      40.328  25.529  28.074  1.00  0.00     0.031 C 
ATOM     47  C   UNL A   1      45.173  24.166  28.231  1.00  0.00     0.029 A 
ATOM     48  N   UNL A   1      44.662  26.246  28.870  1.00  0.00    -0.354 N 
ATOM     49  C   UNL A   1      40.606  27.699  28.738  1.00  0.00     0.074 A 
ATOM     50  C   UNL A   1      39.702  26.684  28.245  1.00  0.00     0.031 C 
ATOM     51  C   UNL A   1      46.316  24.769  28.593  1.00  0.00     0.029 A 
ATOM     52  C   UNL A   1      46.027  26.142  28.989  1.00  0.00     0.049 A 
ATOM     53  H   UNL A   1      44.163  27.066  29.089  1.00  0.00     0.167 HD
ATOM     54  C   UNL A   1      40.221  28.943  29.110  1.00  0.00     0.031 A 
ATOM     55  C   UNL A   1      46.945  27.054  29.363  1.00  0.00     0.031 A 
ATOM     56  C   UNL A   1      41.118  29.953  29.607  1.00  0.00     0.049 A 
ATOM     57  C   UNL A   1      46.495  28.439  29.741  1.00  0.00     0.074 A 
ATOM     58  C   UNL A   1      40.816  31.226  30.059  1.00  0.00     0.029 A 
ATOM     59  N   UNL A   1      42.492  29.808  29.711  1.00  0.00    -0.354 N 
ATOM     60  N   UNL A   1      45.283  28.935  29.776  1.00  0.00    -0.248 NA
ATOM     61  C   UNL A   1      47.545  29.387  30.142  1.00  0.00     0.031 C 
ATOM     62  C   UNL A   1      42.014  31.871  30.379  1.00  0.00     0.029 A 
ATOM     63  C   UNL A   1      43.056  30.978  30.192  1.00  0.00     0.049 A 
ATOM     64  H   UNL A   1      42.993  28.993  29.477  1.00  0.00     0.167 HD
ATOM     65  C   UNL A   1      45.420  30.240  30.231  1.00  0.00     0.074 A 
ATOM     66  C   UNL A   1      46.831  30.452  30.476  1.00  0.00     0.031 C 
ATOM     67  C   UNL A   1      44.462  31.177  30.431  1.00  0.00     0.031 A 
BRANCH  54  68
ATOM     68  C   UNL A   1      38.762  29.284  28.982  1.00  0.00    -0.014 A 
ATOM     69  C   UNL A   1      38.220  29.733  27.766  1.00  0.00     0.009 A 
ATOM     70  C   UNL A   1      37.907  29.124  30.084  1.00  0.00     0.009 A 
ATOM     71  C   UNL A   1      36.865  30.052  27.668  1.00  0.00     0.001 A 
ATOM     72  C   UNL A   1      36.545  29.411  29.975  1.00  0.00     0.001 A 
ATOM     73  C   UNL A   1      36.028  29.886  28.770  1.00  0.00     0.000 A 
ENDBRANCH  54  68
BRANCH  55  74
ATOM     74  C   UNL A   1      48.385  26.688  29.407  1.00  0.00    -0.014 A 
ATOM     75  C   UNL A   1      48.902  25.955  30.487  1.00  0.00     0.009 A 
ATOM     76  C   UNL A   1      49.256  27.083  28.379  1.00  0.00     0.009 A 
ATOM     77  C   UNL A   1      50.265  25.651  30.550  1.00  0.00     0.001 A 
ATOM     78  C   UNL A   1      50.612  26.750  28.429  1.00  0.00     0.001 A 
ATOM     79  C   UNL A   1      51.116  26.045  29.520  1.00  0.00     0.000 A 
ENDBRANCH  55  74
BRANCH  67  80
ATOM     80  C   UNL A   1      44.900  32.507  30.978  1.00  0.00    -0.014 A 
ATOM     81  C   UNL A   1      44.964  32.747  32.360  1.00  0.00     0.009 A 
ATOM     82  C   UNL A   1      45.293  33.526  30.094  1.00  0.00     0.009 A 
ATOM     83  C   UNL A   1      45.379  33.989  32.843  1.00  0.00     0.001 A 
ATOM     84  C   UNL A   1      45.740  34.754  30.580  1.00  0.00     0.001 A 
ATOM     85  C   UNL A   1      45.772  34.989  31.953  1.00  0.00     0.000 A 
ENDBRANCH  67  80
ENDBRANCH  41  42
ENDBRANCH  33  36
ENDBRANCH  31  32
ENDBRANCH  30  31
ENDBRANCH  29  30
ENDBRANCH   3  29
TORSDOF 16
ENDMDL
MODEL 2
REMARK VINA RESULT:      -9.7      1.564      6.739
REMARK SMILES O=C(COc1cc(-c2ccccc2)nc(NCc2ccc(Cl)cc2)n1)NCCCNC(=O)c1ccc(-c2c3nc(c(-c4ccccc4)c4ccc([nH]4)c(-c4ccccc4)c4nc(c(-c5ccccc5)c5ccc2[nH]5)C=C4)C=C3)cc1
REMARK SMILES IDX 1 1 2 2 26 3 3 5 4 6 5 7 6 8 25 9 7 10 15 11 14 12 8 13 9 14
REMARK SMILES IDX 13 15 10 16 12 17 11 18 16 19 17 21 18 22 19 23 24 24 20 25
REMARK SMILES IDX 23 26 21 27 22 28 27 29 28 30 29 31 30 32 31 33 32 35 33 36
REMARK SMILES IDX 34 37 80 38 35 39 79 40 36 41 37 42 38 43 73 44 39 45 78 46
REMARK SMILES IDX 72 47 74 48 40 49 77 50 71 51 70 52 41 54 63 55 48 56 62 57
REMARK SMILES IDX 49 58 52 59 61 60 75 61 50 62 51 63 60 65 76 66 53 67 42 68
REMARK SMILES IDX 43 69 47 70 44 71 46 72 45 73 64 74 65 75 69 76 66 77 68 78
REMARK SMILES IDX 67 79 54 80 55 81 59 82 56 83 58 84 57 85
REMARK H PARENT 26 4 16 20 30 34 74 53 52 64
REMARK Flexibility Score: inf
ROOT
ATOM      1  O   UNL A   1      46.201  22.453  26.257  1.00  0.00    -0.271 OA
ATOM      2  C   UNL A   1      46.295  22.618  25.045  1.00  0.00     0.258 C 
ATOM      3  N   UNL A   1      46.129  21.601  24.122  1.00  0.00    -0.353 N 
ATOM      4  H   UNL A   1      45.971  21.834  23.179  1.00  0.00     0.163 HD
ENDROOT
BRANCH   2   5
ATOM      5  C   UNL A   1      46.678  23.965  24.418  1.00  0.00     0.331 C 
BRANCH   5   6
ATOM      6  O   UNL A   1      45.811  25.049  24.761  1.00  0.00    -0.467 OA
BRANCH   6   7
ATOM      7  C   UNL A   1      46.493  26.216  25.027  1.00  0.00     0.219 A 
ATOM      8  C   UNL A   1      45.847  27.308  25.537  1.00  0.00     0.097 A 
ATOM      9  N   UNL A   1      47.821  26.156  24.895  1.00  0.00    -0.177 NA
ATOM     10  C   UNL A   1      46.624  28.390  25.868  1.00  0.00     0.080 A 
ATOM     11  C   UNL A   1      48.511  27.258  25.230  1.00  0.00     0.226 A 
ATOM     12  N   UNL A   1      47.956  28.387  25.694  1.00  0.00    -0.213 NA
BRANCH  10  13
ATOM     13  C   UNL A   1      45.991  29.593  26.426  1.00  0.00     0.000 A 
ATOM     14  C   UNL A   1      46.748  30.729  26.742  1.00  0.00     0.010 A 
ATOM     15  C   UNL A   1      44.589  29.672  26.556  1.00  0.00     0.010 A 
ATOM     16  C   UNL A   1      46.122  31.916  27.136  1.00  0.00     0.001 A 
ATOM     17  C   UNL A   1      43.964  30.855  26.951  1.00  0.00     0.001 A 
ATOM     18  C   UNL A   1      44.732  31.981  27.231  1.00  0.00     0.000 A 
ENDBRANCH  10  13
BRANCH  11  19
ATOM     19  N   UNL A   1      49.869  27.284  25.117  1.00  0.00    -0.350 N 
ATOM     20  H   UNL A   1      50.391  27.682  25.851  1.00  0.00     0.164 HD
BRANCH  19  21
ATOM     21  C   UNL A   1      50.579  26.763  23.985  1.00  0.00     0.152 C 
BRANCH  21  22
ATOM     22  C   UNL A   1      50.765  27.864  22.968  1.00  0.00    -0.029 A 
ATOM     23  C   UNL A   1      49.939  27.914  21.834  1.00  0.00     0.007 A 
ATOM     24  C   UNL A   1      51.726  28.867  23.156  1.00  0.00     0.007 A 
ATOM     25  C   UNL A   1      50.091  28.931  20.889  1.00  0.00     0.021 A 
ATOM     26  C   UNL A   1      51.877  29.886  22.212  1.00  0.00     0.021 A 
ATOM     27  C   UNL A   1      51.062  29.911  21.081  1.00  0.00     0.041 A 
ATOM     28  Cl  UNL A   1      51.253  31.161  19.915  1.00  0.00    -0.084 Cl
ENDBRANCH  21  22
ENDBRANCH  19  21
ENDBRANCH  11  19
ENDBRANCH   6   7
ENDBRANCH   5   6
ENDBRANCH   2   5
BRANCH   3  29
ATOM     29  C   UNL A   1      46.179  20.202  24.503  1.00  0.00     0.117 C 
BRANCH  29  30
ATOM     30  C   UNL A   1      44.858  19.479  24.328  1.00  0.00     0.042 C 
BRANCH  30  31
ATOM     31  C   UNL A   1      44.214  19.048  25.638  1.00  0.00     0.118 C 
BRANCH  31  32
ATOM     32  N   UNL A   1      42.761  18.953  25.570  1.00  0.00    -0.352 N 
ATOM     33  C   UNL A   1      41.801  19.843  25.988  1.00  0.00     0.251 C 
ATOM     34  H   UNL A   1      42.415  18.126  25.162  1.00  0.00     0.163 HD
ATOM     35  O   UNL A   1      40.616  19.522  25.952  1.00  0.00    -0.269 OA
BRANCH  33  36
ATOM     36  C   UNL A   1      42.188  21.171  26.512  1.00  0.00     0.039 A 
ATOM     37  C   UNL A   1      42.497  22.189  25.607  1.00  0.00     0.014 A 
ATOM     38  C   UNL A   1      42.239  21.419  27.886  1.00  0.00     0.014 A 
ATOM     39  C   UNL A   1      42.783  23.473  26.077  1.00  0.00     0.010 A 
ATOM     40  C   UNL A   1      42.437  22.716  28.349  1.00  0.00     0.010 A 
ATOM     41  C   UNL A   1      42.712  23.759  27.451  1.00  0.00    -0.014 A 
BRANCH  41  42
ATOM     42  C   UNL A   1      42.924  25.134  27.970  1.00  0.00     0.031 A 
ATOM     43  C   UNL A   1      44.295  25.580  28.396  1.00  0.00     0.074 A 
ATOM     44  C   UNL A   1      41.870  25.960  28.125  1.00  0.00     0.049 A 
ATOM     45  N   UNL A   1      44.663  26.711  28.945  1.00  0.00    -0.248 NA
ATOM     46  C   UNL A   1      45.395  24.622  28.202  1.00  0.00     0.031 C 
ATOM     47  C   UNL A   1      40.482  25.642  27.783  1.00  0.00     0.029 A 
ATOM     48  N   UNL A   1      41.803  27.239  28.621  1.00  0.00    -0.354 N 
ATOM     49  C   UNL A   1      46.027  26.590  29.179  1.00  0.00     0.074 A 
ATOM     50  C   UNL A   1      46.412  25.260  28.761  1.00  0.00     0.031 C 
ATOM     51  C   UNL A   1      39.708  26.704  28.054  1.00  0.00     0.029 A 
ATOM     52  C   UNL A   1      40.531  27.760  28.632  1.00  0.00     0.049 A 
ATOM     53  H   UNL A   1      42.591  27.736  28.939  1.00  0.00     0.167 HD
ATOM     54  C   UNL A   1      46.888  27.509  29.678  1.00  0.00     0.031 A 
ATOM     55  C   UNL A   1      40.077  28.950  29.070  1.00  0.00     0.031 A 
ATOM     56  C   UNL A   1      46.508  28.835  30.088  1.00  0.00     0.049 A 
ATOM     57  C   UNL A   1      41.048  29.941  29.650  1.00  0.00     0.074 A 
ATOM     58  C   UNL A   1      47.317  29.856  30.558  1.00  0.00     0.029 A 
ATOM     59  N   UNL A   1      45.212  29.322  30.084  1.00  0.00    -0.354 N 
ATOM     60  N   UNL A   1      42.346  29.836  29.803  1.00  0.00    -0.248 NA
ATOM     61  C   UNL A   1      40.490  31.221  30.110  1.00  0.00     0.031 C 
ATOM     62  C   UNL A   1      46.501  30.939  30.894  1.00  0.00     0.029 A 
ATOM     63  C   UNL A   1      45.193  30.619  30.571  1.00  0.00     0.049 A 
ATOM     64  H   UNL A   1      44.420  28.820  29.781  1.00  0.00     0.167 HD
ATOM     65  C   UNL A   1      42.763  31.045  30.345  1.00  0.00     0.074 A 
ATOM     66  C   UNL A   1      41.583  31.873  30.479  1.00  0.00     0.031 C 
ATOM     67  C   UNL A   1      44.012  31.433  30.699  1.00  0.00     0.031 A 
BRANCH  54  68
ATOM     68  C   UNL A   1      48.330  27.103  29.818  1.00  0.00    -0.014 A 
ATOM     69  C   UNL A   1      49.261  27.350  28.795  1.00  0.00     0.009 A 
ATOM     70  C   UNL A   1      48.773  26.496  31.003  1.00  0.00     0.009 A 
ATOM     71  C   UNL A   1      50.594  26.960  28.941  1.00  0.00     0.001 A 
ATOM     72  C   UNL A   1      50.113  26.137  31.160  1.00  0.00     0.001 A 
ATOM     73  C   UNL A   1      51.019  26.359  30.124  1.00  0.00     0.000 A 
ENDBRANCH  54  68
BRANCH  55  74
ATOM     74  C   UNL A   1      38.630  29.278  28.974  1.00  0.00    -0.014 A 
ATOM     75  C   UNL A   1      37.794  29.148  30.095  1.00  0.00     0.009 A 
ATOM     76  C   UNL A   1      38.072  29.707  27.760  1.00  0.00     0.009 A 
ATOM     77  C   UNL A   1      36.425  29.412  29.992  1.00  0.00     0.001 A 
ATOM     78  C   UNL A   1      36.709  30.001  27.669  1.00  0.00     0.001 A 
ATOM     79  C   UNL A   1      35.886  29.842  28.782  1.00  0.00     0.000 A 
ENDBRANCH  55  74
BRANCH  67  80
ATOM     80  C   UNL A   1      44.177  32.832  31.227  1.00  0.00    -0.014 A 
ATOM     81  C   UNL A   1      44.312  33.930  30.363  1.00  0.00     0.009 A 
ATOM     82  C   UNL A   1      44.157  33.057  32.613  1.00  0.00     0.009 A 
ATOM     83  C   UNL A   1      44.459  35.220  30.878  1.00  0.00     0.001 A 
ATOM     84  C   UNL A   1      44.269  34.349  33.124  1.00  0.00     0.001 A 
ATOM     85  C   UNL A   1      44.431  35.429  32.257  1.00  0.00     0.000 A 
ENDBRANCH  67  80
ENDBRANCH  41  42
ENDBRANCH  33  36
ENDBRANCH  31  32
ENDBRANCH  30  31
ENDBRANCH  29  30
ENDBRANCH   3  29
TORSDOF 16
ENDMDL
MODEL 3
REMARK VINA RESULT:      -9.6      2.194      4.230
REMARK SMILES O=C(COc1cc(-c2ccccc2)nc(NCc2ccc(Cl)cc2)n1)NCCCNC(=O)c1ccc(-c2c3nc(c(-c4ccccc4)c4ccc([nH]4)c(-c4ccccc4)c4nc(c(-c5ccccc5)c5ccc2[nH]5)C=C4)C=C3)cc1
REMARK SMILES IDX 1 1 2 2 26 3 3 5 4 6 5 7 6 8 25 9 7 10 15 11 14 12 8 13 9 14
REMARK SMILES IDX 13 15 10 16 12 17 11 18 16 19 17 21 18 22 19 23 24 24 20 25
REMARK SMILES IDX 23 26 21 27 22 28 27 29 28 30 29 31 30 32 31 33 32 35 33 36
REMARK SMILES IDX 34 37 80 38 35 39 79 40 36 41 37 42 38 43 73 44 39 45 78 46
REMARK SMILES IDX 72 47 74 48 40 49 77 50 71 51 70 52 41 54 63 55 48 56 62 57
REMARK SMILES IDX 49 58 52 59 61 60 75 61 50 62 51 63 60 65 76 66 53 67 42 68
REMARK SMILES IDX 43 69 47 70 44 71 46 72 45 73 64 74 65 75 69 76 66 77 68 78
REMARK SMILES IDX 67 79 54 80 55 81 59 82 56 83 58 84 57 85
REMARK H PARENT 26 4 16 20 30 34 74 53 52 64
REMARK Flexibility Score: inf
ROOT
ATOM      1  O   UNL A   1      44.273  22.059  23.290  1.00  0.00    -0.271 OA
ATOM      2  C   UNL A   1      45.216  21.549  23.884  1.00  0.00     0.258 C 
ATOM      3  N   UNL A   1      45.188  20.264  24.397  1.00  0.00    -0.353 N 
ATOM      4  H   UNL A   1      46.037  19.828  24.639  1.00  0.00     0.163 HD
ENDROOT
BRANCH   2   5
ATOM      5  C   UNL A   1      46.514  22.308  24.189  1.00  0.00     0.331 C 
BRANCH   5   6
ATOM      6  O   UNL A   1      46.460  23.135  25.354  1.00  0.00    -0.467 OA
BRANCH   6   7
ATOM      7  C   UNL A   1      46.364  24.476  25.054  1.00  0.00     0.219 A 
ATOM      8  C   UNL A   1      45.296  25.218  25.480  1.00  0.00     0.097 A 
ATOM      9  N   UNL A   1      47.432  25.017  24.462  1.00  0.00    -0.177 NA
ATOM     10  C   UNL A   1      45.336  26.566  25.223  1.00  0.00     0.080 A 
ATOM     11  C   UNL A   1      47.392  26.340  24.237  1.00  0.00     0.226 A 
ATOM     12  N   UNL A   1      46.368  27.136  24.578  1.00  0.00    -0.213 NA
BRANCH  10  13
ATOM     13  C   UNL A   1      44.222  27.419  25.659  1.00  0.00     0.000 A 
ATOM     14  C   UNL A   1      44.439  28.516  26.504  1.00  0.00     0.010 A 
ATOM     15  C   UNL A   1      42.923  27.219  25.151  1.00  0.00     0.010 A 
ATOM     16  C   UNL A   1      43.400  29.406  26.797  1.00  0.00     0.001 A 
ATOM     17  C   UNL A   1      41.886  28.105  25.444  1.00  0.00     0.001 A 
ATOM     18  C   UNL A   1      42.129  29.205  26.261  1.00  0.00     0.000 A 
ENDBRANCH  10  13
BRANCH  11  19
ATOM     19  N   UNL A   1      48.437  26.970  23.629  1.00  0.00    -0.350 N 
ATOM     20  H   UNL A   1      49.315  26.952  24.073  1.00  0.00     0.164 HD
BRANCH  19  21
ATOM     21  C   UNL A   1      48.325  27.658  22.376  1.00  0.00     0.152 C 
BRANCH  21  22
ATOM     22  C   UNL A   1      49.581  27.425  21.570  1.00  0.00    -0.029 A 
ATOM     23  C   UNL A   1      49.531  26.631  20.414  1.00  0.00     0.007 A 
ATOM     24  C   UNL A   1      50.797  28.020  21.936  1.00  0.00     0.007 A 
ATOM     25  C   UNL A   1      50.680  26.413  19.652  1.00  0.00     0.021 A 
ATOM     26  C   UNL A   1      51.947  27.804  21.173  1.00  0.00     0.021 A 
ATOM     27  C   UNL A   1      51.884  26.998  20.037  1.00  0.00     0.041 A 
ATOM     28  Cl  UNL A   1      53.302  26.725  19.103  1.00  0.00    -0.084 Cl
ENDBRANCH  21  22
ENDBRANCH  19  21
ENDBRANCH  11  19
ENDBRANCH   6   7
ENDBRANCH   5   6
ENDBRANCH   2   5
BRANCH   3  29
ATOM     29  C   UNL A   1      43.946  19.540  24.590  1.00  0.00     0.117 C 
BRANCH  29  30
ATOM     30  C   UNL A   1      44.053  18.409  25.594  1.00  0.00     0.042 C 
BRANCH  30  31
ATOM     31  C   UNL A   1      42.961  18.420  26.653  1.00  0.00     0.118 C 
BRANCH  31  32
ATOM     32  N   UNL A   1      41.627  18.660  26.113  1.00  0.00    -0.352 N 
ATOM     33  C   UNL A   1      40.843  19.787  26.173  1.00  0.00     0.251 C 
ATOM     34  H   UNL A   1      41.228  17.898  25.633  1.00  0.00     0.163 HD
ATOM     35  O   UNL A   1      39.689  19.748  25.757  1.00  0.00    -0.269 OA
BRANCH  33  36
ATOM     36  C   UNL A   1      41.370  21.035  26.765  1.00  0.00     0.039 A 
ATOM     37  C   UNL A   1      41.852  22.034  25.916  1.00  0.00     0.014 A 
ATOM     38  C   UNL A   1      41.386  21.228  28.149  1.00  0.00     0.014 A 
ATOM     39  C   UNL A   1      42.276  23.254  26.448  1.00  0.00     0.010 A 
ATOM     40  C   UNL A   1      41.724  22.474  28.670  1.00  0.00     0.010 A 
ATOM     41  C   UNL A   1      42.174  23.501  27.827  1.00  0.00    -0.014 A 
BRANCH  41  42
ATOM     42  C   UNL A   1      42.534  24.820  28.409  1.00  0.00     0.031 A 
ATOM     43  C   UNL A   1      41.488  25.890  28.559  1.00  0.00     0.074 A 
ATOM     44  C   UNL A   1      43.815  25.080  28.735  1.00  0.00     0.049 A 
ATOM     45  N   UNL A   1      41.625  27.127  28.971  1.00  0.00    -0.248 NA
ATOM     46  C   UNL A   1      40.113  25.534  28.175  1.00  0.00     0.031 C 
ATOM     47  C   UNL A   1      44.933  24.143  28.609  1.00  0.00     0.029 A 
ATOM     48  N   UNL A   1      44.395  26.220  29.236  1.00  0.00    -0.354 N 
ATOM     49  C   UNL A   1      40.361  27.696  28.876  1.00  0.00     0.074 A 
ATOM     50  C   UNL A   1      39.484  26.691  28.320  1.00  0.00     0.031 C 
ATOM     51  C   UNL A   1      46.056  24.736  29.044  1.00  0.00     0.029 A 
ATOM     52  C   UNL A   1      45.750  26.107  29.436  1.00  0.00     0.049 A 
ATOM     53  H   UNL A   1      43.888  27.041  29.433  1.00  0.00     0.167 HD
ATOM     54  C   UNL A   1      39.961  28.939  29.236  1.00  0.00     0.031 A 
ATOM     55  C   UNL A   1      46.648  27.011  29.873  1.00  0.00     0.031 A 
ATOM     56  C   UNL A   1      40.832  29.939  29.795  1.00  0.00     0.049 A 
ATOM     57  C   UNL A   1      46.184  28.394  30.236  1.00  0.00     0.074 A 
ATOM     58  C   UNL A   1      40.509  31.210  30.240  1.00  0.00     0.029 A 
ATOM     59  N   UNL A   1      42.196  29.786  29.979  1.00  0.00    -0.354 N 
ATOM     60  N   UNL A   1      44.974  28.897  30.203  1.00  0.00    -0.248 NA
ATOM     61  C   UNL A   1      47.212  29.333  30.708  1.00  0.00     0.031 C 
ATOM     62  C   UNL A   1      41.689  31.846  30.638  1.00  0.00     0.029 A 
ATOM     63  C   UNL A   1      42.736  30.948  30.504  1.00  0.00     0.049 A 
ATOM     64  H   UNL A   1      42.706  28.970  29.768  1.00  0.00     0.167 HD
ATOM     65  C   UNL A   1      45.090  30.197  30.678  1.00  0.00     0.074 A 
ATOM     66  C   UNL A   1      46.485  30.399  31.008  1.00  0.00     0.031 C 
ATOM     67  C   UNL A   1      44.126  31.138  30.829  1.00  0.00     0.031 A 
BRANCH  54  68
ATOM     68  C   UNL A   1      38.513  29.290  29.025  1.00  0.00    -0.014 A 
ATOM     69  C   UNL A   1      37.582  29.215  30.074  1.00  0.00     0.009 A 
ATOM     70  C   UNL A   1      38.079  29.734  27.766  1.00  0.00     0.009 A 
ATOM     71  C   UNL A   1      36.242  29.538  29.857  1.00  0.00     0.001 A 
ATOM     72  C   UNL A   1      36.744  30.088  27.560  1.00  0.00     0.001 A 
ATOM     73  C   UNL A   1      35.825  29.979  28.603  1.00  0.00     0.000 A 
ENDBRANCH  54  68
BRANCH  55  74
ATOM     74  C   UNL A   1      48.082  26.637  29.999  1.00  0.00    -0.014 A 
ATOM     75  C   UNL A   1      48.973  26.861  28.937  1.00  0.00     0.009 A 
ATOM     76  C   UNL A   1      48.565  26.041  31.174  1.00  0.00     0.009 A 
ATOM     77  C   UNL A   1      50.310  26.468  29.039  1.00  0.00     0.001 A 
ATOM     78  C   UNL A   1      49.910  25.678  31.285  1.00  0.00     0.001 A 
ATOM     79  C   UNL A   1      50.777  25.882  30.213  1.00  0.00     0.000 A 
ENDBRANCH  55  74
BRANCH  67  80
ATOM     80  C   UNL A   1      44.538  32.460  31.414  1.00  0.00    -0.014 A 
ATOM     81  C   UNL A   1      44.944  33.529  30.599  1.00  0.00     0.009 A 
ATOM     82  C   UNL A   1      44.480  32.651  32.805  1.00  0.00     0.009 A 
ATOM     83  C   UNL A   1      45.317  34.748  31.168  1.00  0.00     0.001 A 
ATOM     84  C   UNL A   1      44.820  33.881  33.368  1.00  0.00     0.001 A 
ATOM     85  C   UNL A   1      45.249  34.925  32.550  1.00  0.00     0.000 A 
ENDBRANCH  67  80
ENDBRANCH  41  42
ENDBRANCH  33  36
ENDBRANCH  31  32
ENDBRANCH  30  31
ENDBRANCH  29  30
ENDBRANCH   3  29
TORSDOF 16
ENDMDL
