MODEL 1
REMARK VINA RESULT:     -12.1      0.000      0.000
REMARK SMILES COc1ccc2c(CC(=O)NCCCNC(=O)c3ccc(-c4c5nc(c(-c6ccccc6)c6ccc([nH]6)c(-c6ccccc6)c6nc(c(-c7ccccc7)c7ccc4[nH]7)C=C6)C=C5)cc3)c(C(=O)c3cc(C)ccn3)[nH]c2c1
REMARK SMILES IDX 12 1 11 2 9 3 10 4 8 6 7 7 3 8 4 9 78 10 5 11 77 12 6 13
REMARK SMILES IDX 76 14 66 15 2 17 1 18 67 19 68 20 69 21 70 22 75 23 71 24
REMARK SMILES IDX 74 25 72 26 73 27 13 28 14 29 15 30 16 31 17 33 18 34 19 35
REMARK SMILES IDX 65 36 20 37 64 38 21 39 22 40 23 41 58 42 24 43 63 44 57 45
REMARK SMILES IDX 59 46 25 47 62 48 56 49 55 50 26 52 48 53 33 54 47 55 34 56
REMARK SMILES IDX 37 57 46 58 60 59 35 60 36 61 45 63 61 64 38 65 27 66 28 67
REMARK SMILES IDX 32 68 29 69 31 70 30 71 49 72 50 73 54 74 51 75 53 76 52 77
REMARK SMILES IDX 39 78 40 79 44 80 41 81 43 82 42 83
REMARK H PARENT 11 5 76 16 15 32 59 51 37 62
REMARK Flexibility Score: inf
ROOT
ATOM      1  C   UNL A   1      33.616  27.023  25.139  1.00  0.00     0.117 C 
ENDROOT
BRANCH   1   2
ATOM      2  N   UNL A   1      33.881  25.862  25.962  1.00  0.00    -0.356 N 
ATOM      3  C   UNL A   1      34.437  24.660  25.629  1.00  0.00     0.224 C 
ATOM      4  O   UNL A   1      34.748  23.918  26.565  1.00  0.00    -0.275 OA
ATOM      5  H   UNL A   1      33.620  25.953  26.906  1.00  0.00     0.163 HD
BRANCH   3   6
ATOM      6  C   UNL A   1      34.778  24.313  24.185  1.00  0.00     0.138 C 
BRANCH   6   7
ATOM      7  C   UNL A   1      33.784  23.427  23.483  1.00  0.00    -0.002 A 
ATOM      8  C   UNL A   1      32.675  19.370  23.824  1.00  0.00     0.120 A 
ATOM      9  C   UNL A   1      33.647  19.798  24.725  1.00  0.00     0.047 A 
ATOM     10  C   UNL A   1      32.159  20.244  22.863  1.00  0.00     0.073 A 
ATOM     11  C   UNL A   1      34.091  21.127  24.712  1.00  0.00     0.014 A 
ATOM     12  C   UNL A   1      32.604  21.571  22.876  1.00  0.00     0.050 A 
ATOM     13  C   UNL A   1      33.557  22.038  23.774  1.00  0.00     0.004 A 
ATOM     14  N   UNL A   1      32.246  22.632  22.083  1.00  0.00    -0.351 N 
ATOM     15  C   UNL A   1      32.863  23.795  22.496  1.00  0.00     0.093 A 
ATOM     16  H   UNL A   1      31.628  22.572  21.319  1.00  0.00     0.167 HD
BRANCH   8  17
ATOM     17  O   UNL A   1      32.193  18.088  23.772  1.00  0.00    -0.497 OA
ATOM     18  C   UNL A   1      33.200  17.090  23.620  1.00  0.00     0.278 C 
ENDBRANCH   8  17
BRANCH  15  19
ATOM     19  C   UNL A   1      32.583  25.125  21.965  1.00  0.00     0.227 C 
ATOM     20  O   UNL A   1      33.272  25.666  21.103  1.00  0.00    -0.285 OA
BRANCH  19  21
ATOM     21  C   UNL A   1      31.454  25.909  22.534  1.00  0.00     0.113 A 
ATOM     22  C   UNL A   1      31.271  27.235  22.151  1.00  0.00     0.036 A 
ATOM     23  N   UNL A   1      30.645  25.252  23.402  1.00  0.00    -0.253 NA
ATOM     24  C   UNL A   1      30.189  27.936  22.688  1.00  0.00    -0.047 A 
ATOM     25  C   UNL A   1      29.586  25.940  23.874  1.00  0.00     0.112 A 
ATOM     26  C   UNL A   1      29.929  29.367  22.323  1.00  0.00     0.044 C 
ATOM     27  C   UNL A   1      29.324  27.264  23.557  1.00  0.00     0.023 A 
ENDBRANCH  19  21
ENDBRANCH  15  19
ENDBRANCH   6   7
ENDBRANCH   3   6
ENDBRANCH   1   2
BRANCH   1  28
ATOM     28  C   UNL A   1      34.071  28.329  25.782  1.00  0.00     0.042 C 
BRANCH  28  29
ATOM     29  C   UNL A   1      33.581  28.537  27.213  1.00  0.00     0.118 C 
BRANCH  29  30
ATOM     30  N   UNL A   1      33.550  29.938  27.605  1.00  0.00    -0.352 N 
ATOM     31  C   UNL A   1      34.490  30.714  28.236  1.00  0.00     0.251 C 
ATOM     32  H   UNL A   1      32.715  30.409  27.378  1.00  0.00     0.163 HD
ATOM     33  O   UNL A   1      34.182  31.842  28.611  1.00  0.00    -0.269 OA
BRANCH  31  34
ATOM     34  C   UNL A   1      35.861  30.215  28.488  1.00  0.00     0.039 A 
ATOM     35  C   UNL A   1      36.786  30.251  27.438  1.00  0.00     0.014 A 
ATOM     36  C   UNL A   1      36.228  29.651  29.713  1.00  0.00     0.014 A 
ATOM     37  C   UNL A   1      38.085  29.777  27.630  1.00  0.00     0.010 A 
ATOM     38  C   UNL A   1      37.542  29.229  29.923  1.00  0.00     0.010 A 
ATOM     39  C   UNL A   1      38.483  29.285  28.882  1.00  0.00    -0.014 A 
BRANCH  39  40
ATOM     40  C   UNL A   1      39.872  28.814  29.118  1.00  0.00     0.031 A 
ATOM     41  C   UNL A   1      40.892  29.735  29.730  1.00  0.00     0.074 A 
ATOM     42  C   UNL A   1      40.231  27.574  28.735  1.00  0.00     0.049 A 
ATOM     43  N   UNL A   1      42.170  29.532  29.932  1.00  0.00    -0.248 NA
ATOM     44  C   UNL A   1      40.418  31.061  30.153  1.00  0.00     0.031 C 
ATOM     45  C   UNL A   1      39.348  26.588  28.109  1.00  0.00     0.029 A 
ATOM     46  N   UNL A   1      41.444  26.935  28.809  1.00  0.00    -0.354 N 
ATOM     47  C   UNL A   1      42.654  30.708  30.491  1.00  0.00     0.074 A 
ATOM     48  C   UNL A   1      41.542  31.632  30.562  1.00  0.00     0.031 C 
ATOM     49  C   UNL A   1      40.045  25.466  27.868  1.00  0.00     0.029 A 
ATOM     50  C   UNL A   1      41.428  25.664  28.291  1.00  0.00     0.049 A 
ATOM     51  H   UNL A   1      42.249  27.349  29.197  1.00  0.00     0.167 HD
ATOM     52  C   UNL A   1      43.908  30.992  30.919  1.00  0.00     0.031 A 
ATOM     53  C   UNL A   1      42.417  24.760  28.162  1.00  0.00     0.031 A 
ATOM     54  C   UNL A   1      45.015  30.077  30.863  1.00  0.00     0.049 A 
ATOM     55  C   UNL A   1      43.798  25.098  28.646  1.00  0.00     0.074 A 
ATOM     56  C   UNL A   1      46.319  30.272  31.288  1.00  0.00     0.029 A 
ATOM     57  N   UNL A   1      44.947  28.790  30.356  1.00  0.00    -0.354 N 
ATOM     58  N   UNL A   1      44.232  26.208  29.191  1.00  0.00    -0.248 NA
ATOM     59  C   UNL A   1      44.823  24.053  28.505  1.00  0.00     0.031 C 
ATOM     60  C   UNL A   1      47.047  29.107  31.017  1.00  0.00     0.029 A 
ATOM     61  C   UNL A   1      46.186  28.178  30.457  1.00  0.00     0.049 A 
ATOM     62  H   UNL A   1      44.139  28.372  29.980  1.00  0.00     0.167 HD
ATOM     63  C   UNL A   1      45.571  25.987  29.483  1.00  0.00     0.074 A 
ATOM     64  C   UNL A   1      45.875  24.634  29.064  1.00  0.00     0.031 C 
ATOM     65  C   UNL A   1      46.470  26.830  30.044  1.00  0.00     0.031 A 
BRANCH  52  66
ATOM     66  C   UNL A   1      44.144  32.360  31.493  1.00  0.00    -0.014 A 
ATOM     67  C   UNL A   1      44.480  33.441  30.663  1.00  0.00     0.009 A 
ATOM     68  C   UNL A   1      43.994  32.579  32.871  1.00  0.00     0.009 A 
ATOM     69  C   UNL A   1      44.691  34.710  31.208  1.00  0.00     0.001 A 
ATOM     70  C   UNL A   1      44.183  33.853  33.409  1.00  0.00     0.001 A 
ATOM     71  C   UNL A   1      44.539  34.915  32.578  1.00  0.00     0.000 A 
ENDBRANCH  52  66
BRANCH  53  72
ATOM     72  C   UNL A   1      42.139  23.436  27.550  1.00  0.00    -0.014 A 
ATOM     73  C   UNL A   1      41.560  22.408  28.311  1.00  0.00     0.009 A 
ATOM     74  C   UNL A   1      42.466  23.188  26.208  1.00  0.00     0.009 A 
ATOM     75  C   UNL A   1      41.341  21.150  27.748  1.00  0.00     0.001 A 
ATOM     76  C   UNL A   1      42.221  21.936  25.641  1.00  0.00     0.001 A 
ATOM     77  C   UNL A   1      41.668  20.916  26.414  1.00  0.00     0.000 A 
ENDBRANCH  53  72
BRANCH  65  78
ATOM     78  C   UNL A   1      47.854  26.299  30.276  1.00  0.00    -0.014 A 
ATOM     79  C   UNL A   1      48.229  25.770  31.520  1.00  0.00     0.009 A 
ATOM     80  C   UNL A   1      48.783  26.302  29.226  1.00  0.00     0.009 A 
ATOM     81  C   UNL A   1      49.521  25.279  31.715  1.00  0.00     0.001 A 
ATOM     82  C   UNL A   1      50.069  25.792  29.417  1.00  0.00     0.001 A 
ATOM     83  C   UNL A   1      50.438  25.288  30.664  1.00  0.00     0.000 A 
ENDBRANCH  65  78
ENDBRANCH  39  40
ENDBRANCH  31  34
ENDBRANCH  29  30
ENDBRANCH  28  29
ENDBRANCH   1  28
TORSDOF 14
ENDMDL
MODEL 2
REMARK VINA RESULT:     -11.9      2.378      7.913
REMARK SMILES COc1ccc2c(CC(=O)NCCCNC(=O)c3ccc(-c4c5nc(c(-c6ccccc6)c6ccc([nH]6)c(-c6ccccc6)c6nc(c(-c7ccccc7)c7ccc4[nH]7)C=C6)C=C5)cc3)c(C(=O)c3cc(C)ccn3)[nH]c2c1
REMARK SMILES IDX 12 1 11 2 9 3 10 4 8 6 7 7 3 8 4 9 78 10 5 11 77 12 6 13
REMARK SMILES IDX 76 14 66 15 2 17 1 18 67 19 68 20 69 21 70 22 75 23 71 24
REMARK SMILES IDX 74 25 72 26 73 27 13 28 14 29 15 30 16 31 17 33 18 34 19 35
REMARK SMILES IDX 65 36 20 37 64 38 21 39 22 40 23 41 58 42 24 43 63 44 57 45
REMARK SMILES IDX 59 46 25 47 62 48 56 49 55 50 26 52 48 53 33 54 47 55 34 56
REMARK SMILES IDX 37 57 46 58 60 59 35 60 36 61 45 63 61 64 38 65 27 66 28 67
REMARK SMILES IDX 32 68 29 69 31 70 30 71 49 72 50 73 54 74 51 75 53 76 52 77
REMARK SMILES IDX 39 78 40 79 44 80 41 81 43 82 42 83
REMARK H PARENT 11 5 76 16 15 32 59 51 37 62
REMARK Flexibility Score: inf
ROOT
ATOM      1  C   UNL A   1      34.313  24.459  25.621  1.00  0.00     0.117 C 
ENDROOT
BRANCH   1   2
ATOM      2  N   UNL A   1      34.445  25.881  25.382  1.00  0.00    -0.356 N 
ATOM      3  C   UNL A   1      33.639  26.913  25.769  1.00  0.00     0.224 C 
ATOM      4  O   UNL A   1      34.091  28.051  25.619  1.00  0.00    -0.275 OA
ATOM      5  H   UNL A   1      35.236  26.143  24.860  1.00  0.00     0.163 HD
BRANCH   3   6
ATOM      6  C   UNL A   1      32.311  26.665  26.474  1.00  0.00     0.138 C 
BRANCH   6   7
ATOM      7  C   UNL A   1      31.127  26.465  25.565  1.00  0.00    -0.002 A 
ATOM      8  C   UNL A   1      29.095  28.889  22.772  1.00  0.00     0.120 A 
ATOM      9  C   UNL A   1      30.196  29.483  23.384  1.00  0.00     0.047 A 
ATOM     10  C   UNL A   1      28.700  27.593  23.116  1.00  0.00     0.073 A 
ATOM     11  C   UNL A   1      30.954  28.773  24.325  1.00  0.00     0.014 A 
ATOM     12  C   UNL A   1      29.479  26.895  24.047  1.00  0.00     0.050 A 
ATOM     13  C   UNL A   1      30.596  27.450  24.663  1.00  0.00     0.004 A 
ATOM     14  N   UNL A   1      29.344  25.619  24.534  1.00  0.00    -0.351 N 
ATOM     15  C   UNL A   1      30.389  25.292  25.373  1.00  0.00     0.093 A 
ATOM     16  H   UNL A   1      28.598  25.015  24.313  1.00  0.00     0.167 HD
BRANCH   8  17
ATOM     17  O   UNL A   1      28.303  29.517  21.846  1.00  0.00    -0.497 OA
ATOM     18  C   UNL A   1      28.793  30.788  21.425  1.00  0.00     0.278 C 
ENDBRANCH   8  17
BRANCH  15  19
ATOM     19  C   UNL A   1      30.627  23.967  25.936  1.00  0.00     0.227 C 
ATOM     20  O   UNL A   1      30.371  23.672  27.102  1.00  0.00    -0.285 OA
BRANCH  19  21
ATOM     21  C   UNL A   1      31.276  22.928  25.093  1.00  0.00     0.113 A 
ATOM     22  C   UNL A   1      31.726  21.745  25.675  1.00  0.00     0.036 A 
ATOM     23  N   UNL A   1      31.373  23.204  23.768  1.00  0.00    -0.253 NA
ATOM     24  C   UNL A   1      32.312  20.782  24.851  1.00  0.00    -0.047 A 
ATOM     25  C   UNL A   1      31.906  22.241  22.991  1.00  0.00     0.112 A 
ATOM     26  C   UNL A   1      32.820  19.486  25.407  1.00  0.00     0.044 C 
ATOM     27  C   UNL A   1      32.387  21.035  23.478  1.00  0.00     0.023 A 
ENDBRANCH  19  21
ENDBRANCH  15  19
ENDBRANCH   6   7
ENDBRANCH   3   6
ENDBRANCH   1   2
BRANCH   1  28
ATOM     28  C   UNL A   1      35.603  23.813  26.118  1.00  0.00     0.042 C 
BRANCH  28  29
ATOM     29  C   UNL A   1      36.724  23.757  25.084  1.00  0.00     0.118 C 
BRANCH  29  30
ATOM     30  N   UNL A   1      37.737  22.760  25.398  1.00  0.00    -0.352 N 
ATOM     31  C   UNL A   1      38.939  22.877  26.049  1.00  0.00     0.251 C 
ATOM     32  H   UNL A   1      37.523  21.848  25.093  1.00  0.00     0.163 HD
ATOM     33  O   UNL A   1      39.710  21.920  26.061  1.00  0.00    -0.269 OA
BRANCH  31  34
ATOM     34  C   UNL A   1      39.334  24.134  26.723  1.00  0.00     0.039 A 
ATOM     35  C   UNL A   1      40.111  25.055  26.011  1.00  0.00     0.014 A 
ATOM     36  C   UNL A   1      39.014  24.388  28.060  1.00  0.00     0.014 A 
ATOM     37  C   UNL A   1      40.518  26.247  26.616  1.00  0.00     0.010 A 
ATOM     38  C   UNL A   1      39.371  25.603  28.646  1.00  0.00     0.010 A 
ATOM     39  C   UNL A   1      40.130  26.543  27.931  1.00  0.00    -0.014 A 
BRANCH  39  40
ATOM     40  C   UNL A   1      40.517  27.823  28.577  1.00  0.00     0.031 A 
ATOM     41  C   UNL A   1      41.905  28.006  29.127  1.00  0.00     0.074 A 
ATOM     42  C   UNL A   1      39.607  28.805  28.715  1.00  0.00     0.049 A 
ATOM     43  N   UNL A   1      42.401  29.015  29.799  1.00  0.00    -0.248 NA
ATOM     44  C   UNL A   1      42.855  26.903  28.910  1.00  0.00     0.031 C 
ATOM     45  C   UNL A   1      38.220  28.750  28.248  1.00  0.00     0.029 A 
ATOM     46  N   UNL A   1      39.712  30.042  29.301  1.00  0.00    -0.354 N 
ATOM     47  C   UNL A   1      43.712  28.663  30.096  1.00  0.00     0.074 A 
ATOM     48  C   UNL A   1      43.923  27.334  29.565  1.00  0.00     0.031 C 
ATOM     49  C   UNL A   1      37.608  29.906  28.554  1.00  0.00     0.029 A 
ATOM     50  C   UNL A   1      38.547  30.768  29.266  1.00  0.00     0.049 A 
ATOM     51  H   UNL A   1      40.543  30.378  29.707  1.00  0.00     0.167 HD
ATOM     52  C   UNL A   1      44.659  29.385  30.742  1.00  0.00     0.031 A 
ATOM     53  C   UNL A   1      38.262  31.987  29.759  1.00  0.00     0.031 A 
ATOM     54  C   UNL A   1      44.460  30.710  31.263  1.00  0.00     0.049 A 
ATOM     55  C   UNL A   1      39.330  32.768  30.469  1.00  0.00     0.074 A 
ATOM     56  C   UNL A   1      45.369  31.525  31.918  1.00  0.00     0.029 A 
ATOM     57  N   UNL A   1      43.273  31.418  31.180  1.00  0.00    -0.354 N 
ATOM     58  N   UNL A   1      40.570  32.428  30.722  1.00  0.00    -0.248 NA
ATOM     59  C   UNL A   1      38.960  34.107  30.953  1.00  0.00     0.031 C 
ATOM     60  C   UNL A   1      44.721  32.721  32.253  1.00  0.00     0.029 A 
ATOM     61  C   UNL A   1      43.424  32.660  31.774  1.00  0.00     0.049 A 
ATOM     62  H   UNL A   1      42.445  31.087  30.763  1.00  0.00     0.167 HD
ATOM     63  C   UNL A   1      41.136  33.518  31.370  1.00  0.00     0.074 A 
ATOM     64  C   UNL A   1      40.108  34.534  31.461  1.00  0.00     0.031 C 
ATOM     65  C   UNL A   1      42.394  33.663  31.849  1.00  0.00     0.031 A 
BRANCH  52  66
ATOM     66  C   UNL A   1      46.007  28.747  30.916  1.00  0.00    -0.014 A 
ATOM     67  C   UNL A   1      47.017  28.921  29.956  1.00  0.00     0.009 A 
ATOM     68  C   UNL A   1      46.285  27.995  32.068  1.00  0.00     0.009 A 
ATOM     69  C   UNL A   1      48.269  28.328  30.133  1.00  0.00     0.001 A 
ATOM     70  C   UNL A   1      47.545  27.423  32.253  1.00  0.00     0.001 A 
ATOM     71  C   UNL A   1      48.532  27.583  31.282  1.00  0.00     0.000 A 
ENDBRANCH  52  66
BRANCH  53  72
ATOM     72  C   UNL A   1      36.900  32.556  29.594  1.00  0.00    -0.014 A 
ATOM     73  C   UNL A   1      36.571  33.291  28.444  1.00  0.00     0.009 A 
ATOM     74  C   UNL A   1      35.929  32.381  30.592  1.00  0.00     0.009 A 
ATOM     75  C   UNL A   1      35.305  33.863  28.310  1.00  0.00     0.001 A 
ATOM     76  C   UNL A   1      34.655  32.934  30.443  1.00  0.00     0.001 A 
ATOM     77  C   UNL A   1      34.348  33.682  29.307  1.00  0.00     0.000 A 
ENDBRANCH  53  72
BRANCH  65  78
ATOM     78  C   UNL A   1      42.740  34.981  32.476  1.00  0.00    -0.014 A 
ATOM     79  C   UNL A   1      43.419  35.973  31.753  1.00  0.00     0.009 A 
ATOM     80  C   UNL A   1      42.353  35.243  33.799  1.00  0.00     0.009 A 
ATOM     81  C   UNL A   1      43.729  37.195  32.354  1.00  0.00     0.001 A 
ATOM     82  C   UNL A   1      42.646  36.472  34.391  1.00  0.00     0.001 A 
ATOM     83  C   UNL A   1      43.341  37.444  33.671  1.00  0.00     0.000 A 
ENDBRANCH  65  78
ENDBRANCH  39  40
ENDBRANCH  31  34
ENDBRANCH  29  30
ENDBRANCH  28  29
ENDBRANCH   1  28
TORSDOF 14
ENDMDL
MODEL 3
REMARK VINA RESULT:     -11.7      2.906      7.102
REMARK SMILES COc1ccc2c(CC(=O)NCCCNC(=O)c3ccc(-c4c5nc(c(-c6ccccc6)c6ccc([nH]6)c(-c6ccccc6)c6nc(c(-c7ccccc7)c7ccc4[nH]7)C=C6)C=C5)cc3)c(C(=O)c3cc(C)ccn3)[nH]c2c1
REMARK SMILES IDX 12 1 11 2 9 3 10 4 8 6 7 7 3 8 4 9 78 10 5 11 77 12 6 13
REMARK SMILES IDX 76 14 66 15 2 17 1 18 67 19 68 20 69 21 70 22 75 23 71 24
REMARK SMILES IDX 74 25 72 26 73 27 13 28 14 29 15 30 16 31 17 33 18 34 19 35
REMARK SMILES IDX 65 36 20 37 64 38 21 39 22 40 23 41 58 42 24 43 63 44 57 45
REMARK SMILES IDX 59 46 25 47 62 48 56 49 55 50 26 52 48 53 33 54 47 55 34 56
REMARK SMILES IDX 37 57 46 58 60 59 35 60 36 61 45 63 61 64 38 65 27 66 28 67
REMARK SMILES IDX 32 68 29 69 31 70 30 71 49 72 50 73 54 74 51 75 53 76 52 77
REMARK SMILES IDX 39 78 40 79 44 80 41 81 43 82 42 83
REMARK H PARENT 11 5 76 16 15 32 59 51 37 62
REMARK Flexibility Score: inf
ROOT
ATOM      1  C   UNL A   1      31.310  30.741  25.512  1.00  0.00     0.117 C 
ENDROOT
BRANCH   1   2
ATOM      2  N   UNL A   1      32.585  30.069  25.647  1.00  0.00    -0.356 N 
ATOM      3  C   UNL A   1      32.863  28.745  25.827  1.00  0.00     0.224 C 
ATOM      4  O   UNL A   1      34.043  28.406  25.699  1.00  0.00    -0.275 OA
ATOM      5  H   UNL A   1      33.372  30.658  25.605  1.00  0.00     0.163 HD
BRANCH   3   6
ATOM      6  C   UNL A   1      31.755  27.721  26.041  1.00  0.00     0.138 C 
BRANCH   6   7
ATOM      7  C   UNL A   1      31.719  26.593  25.043  1.00  0.00    -0.002 A 
ATOM      8  C   UNL A   1      31.536  22.387  25.332  1.00  0.00     0.120 A 
ATOM      9  C   UNL A   1      31.514  23.068  26.547  1.00  0.00     0.047 A 
ATOM     10  C   UNL A   1      31.652  23.084  24.126  1.00  0.00     0.073 A 
ATOM     11  C   UNL A   1      31.563  24.468  26.578  1.00  0.00     0.014 A 
ATOM     12  C   UNL A   1      31.685  24.483  24.177  1.00  0.00     0.050 A 
ATOM     13  C   UNL A   1      31.644  25.196  25.370  1.00  0.00     0.004 A 
ATOM     14  N   UNL A   1      31.759  25.403  23.161  1.00  0.00    -0.351 N 
ATOM     15  C   UNL A   1      31.672  26.691  23.649  1.00  0.00     0.093 A 
ATOM     16  H   UNL A   1      31.861  25.174  22.209  1.00  0.00     0.167 HD
BRANCH   8  17
ATOM     17  O   UNL A   1      31.495  21.022  25.220  1.00  0.00    -0.497 OA
ATOM     18  C   UNL A   1      32.510  20.474  24.382  1.00  0.00     0.278 C 
ENDBRANCH   8  17
BRANCH  15  19
ATOM     19  C   UNL A   1      31.568  27.892  22.825  1.00  0.00     0.227 C 
ATOM     20  O   UNL A   1      32.540  28.458  22.330  1.00  0.00    -0.285 OA
BRANCH  19  21
ATOM     21  C   UNL A   1      30.233  28.517  22.622  1.00  0.00     0.113 A 
ATOM     22  C   UNL A   1      29.111  27.967  23.237  1.00  0.00     0.036 A 
ATOM     23  N   UNL A   1      30.203  29.625  21.839  1.00  0.00    -0.253 NA
ATOM     24  C   UNL A   1      27.877  28.591  23.041  1.00  0.00    -0.047 A 
ATOM     25  C   UNL A   1      29.006  30.229  21.700  1.00  0.00     0.112 A 
ATOM     26  C   UNL A   1      26.626  28.057  23.670  1.00  0.00     0.044 C 
ATOM     27  C   UNL A   1      27.832  29.754  22.267  1.00  0.00     0.023 A 
ENDBRANCH  19  21
ENDBRANCH  15  19
ENDBRANCH   6   7
ENDBRANCH   3   6
ENDBRANCH   1   2
BRANCH   1  28
ATOM     28  C   UNL A   1      31.139  31.902  26.487  1.00  0.00     0.042 C 
BRANCH  28  29
ATOM     29  C   UNL A   1      32.443  32.431  27.079  1.00  0.00     0.118 C 
BRANCH  29  30
ATOM     30  N   UNL A   1      32.330  33.797  27.569  1.00  0.00    -0.352 N 
ATOM     31  C   UNL A   1      33.116  34.503  28.445  1.00  0.00     0.251 C 
ATOM     32  H   UNL A   1      31.564  34.300  27.210  1.00  0.00     0.163 HD
ATOM     33  O   UNL A   1      32.737  35.604  28.837  1.00  0.00    -0.269 OA
BRANCH  31  34
ATOM     34  C   UNL A   1      34.402  33.960  28.940  1.00  0.00     0.039 A 
ATOM     35  C   UNL A   1      34.407  33.266  30.155  1.00  0.00     0.014 A 
ATOM     36  C   UNL A   1      35.606  34.184  28.267  1.00  0.00     0.014 A 
ATOM     37  C   UNL A   1      35.601  32.751  30.665  1.00  0.00     0.010 A 
ATOM     38  C   UNL A   1      36.790  33.622  28.746  1.00  0.00     0.010 A 
ATOM     39  C   UNL A   1      36.800  32.902  29.952  1.00  0.00    -0.014 A 
BRANCH  39  40
ATOM     40  C   UNL A   1      38.073  32.327  30.457  1.00  0.00     0.031 A 
ATOM     41  C   UNL A   1      38.603  31.040  29.887  1.00  0.00     0.074 A 
ATOM     42  C   UNL A   1      38.728  32.935  31.464  1.00  0.00     0.049 A 
ATOM     43  N   UNL A   1      39.647  30.341  30.257  1.00  0.00    -0.248 NA
ATOM     44  C   UNL A   1      37.851  30.452  28.767  1.00  0.00     0.031 C 
ATOM     45  C   UNL A   1      38.312  34.174  32.123  1.00  0.00     0.029 A 
ATOM     46  N   UNL A   1      39.883  32.581  32.117  1.00  0.00    -0.354 N 
ATOM     47  C   UNL A   1      39.669  29.227  29.427  1.00  0.00     0.074 A 
ATOM     48  C   UNL A   1      38.515  29.323  28.560  1.00  0.00     0.031 C 
ATOM     49  C   UNL A   1      39.205  34.484  33.077  1.00  0.00     0.029 A 
ATOM     50  C   UNL A   1      40.235  33.451  33.119  1.00  0.00     0.049 A 
ATOM     51  H   UNL A   1      40.408  31.781  31.889  1.00  0.00     0.167 HD
ATOM     52  C   UNL A   1      40.574  28.220  29.381  1.00  0.00     0.031 A 
ATOM     53  C   UNL A   1      41.267  33.417  33.983  1.00  0.00     0.031 A 
ATOM     54  C   UNL A   1      41.729  28.123  30.231  1.00  0.00     0.049 A 
ATOM     55  C   UNL A   1      42.258  32.291  33.910  1.00  0.00     0.074 A 
ATOM     56  C   UNL A   1      42.711  27.146  30.245  1.00  0.00     0.029 A 
ATOM     57  N   UNL A   1      42.063  29.041  31.214  1.00  0.00    -0.354 N 
ATOM     58  N   UNL A   1      42.274  31.258  33.105  1.00  0.00    -0.248 NA
ATOM     59  C   UNL A   1      43.379  32.334  34.861  1.00  0.00     0.031 C 
ATOM     60  C   UNL A   1      43.629  27.462  31.254  1.00  0.00     0.029 A 
ATOM     61  C   UNL A   1      43.235  28.653  31.841  1.00  0.00     0.049 A 
ATOM     62  H   UNL A   1      41.544  29.848  31.433  1.00  0.00     0.167 HD
ATOM     63  C   UNL A   1      43.418  30.542  33.432  1.00  0.00     0.074 A 
ATOM     64  C   UNL A   1      44.075  31.264  34.501  1.00  0.00     0.031 C 
ATOM     65  C   UNL A   1      43.881  29.387  32.897  1.00  0.00     0.031 A 
BRANCH  52  66
ATOM     66  C   UNL A   1      40.346  27.138  28.365  1.00  0.00    -0.014 A 
ATOM     67  C   UNL A   1      40.909  27.225  27.082  1.00  0.00     0.009 A 
ATOM     68  C   UNL A   1      39.593  26.004  28.704  1.00  0.00     0.009 A 
ATOM     69  C   UNL A   1      40.694  26.209  26.148  1.00  0.00     0.001 A 
ATOM     70  C   UNL A   1      39.400  24.979  27.776  1.00  0.00     0.001 A 
ATOM     71  C   UNL A   1      39.944  25.086  26.496  1.00  0.00     0.000 A 
ENDBRANCH  52  66
BRANCH  53  72
ATOM     72  C   UNL A   1      41.425  34.492  34.995  1.00  0.00    -0.014 A 
ATOM     73  C   UNL A   1      40.807  34.382  36.251  1.00  0.00     0.009 A 
ATOM     74  C   UNL A   1      42.180  35.638  34.705  1.00  0.00     0.009 A 
ATOM     75  C   UNL A   1      40.919  35.414  37.185  1.00  0.00     0.001 A 
ATOM     76  C   UNL A   1      42.311  36.656  35.652  1.00  0.00     0.001 A 
ATOM     77  C   UNL A   1      41.673  36.548  36.887  1.00  0.00     0.000 A 
ENDBRANCH  53  72
BRANCH  65  78
ATOM     78  C   UNL A   1      45.179  28.858  33.430  1.00  0.00    -0.014 A 
ATOM     79  C   UNL A   1      46.406  29.252  32.875  1.00  0.00     0.009 A 
ATOM     80  C   UNL A   1      45.174  27.977  34.522  1.00  0.00     0.009 A 
ATOM     81  C   UNL A   1      47.604  28.749  33.388  1.00  0.00     0.001 A 
ATOM     82  C   UNL A   1      46.373  27.492  35.046  1.00  0.00     0.001 A 
ATOM     83  C   UNL A   1      47.587  27.873  34.473  1.00  0.00     0.000 A 
ENDBRANCH  65  78
ENDBRANCH  39  40
ENDBRANCH  31  34
ENDBRANCH  29  30
ENDBRANCH  28  29
ENDBRANCH   1  28
TORSDOF 14
ENDMDL
