MODEL 1
REMARK VINA RESULT:     -10.9      0.000      0.000
REMARK SMILES C[C@@H]([NH2+]C[C@H]1CCC[C@@H]1C(=O)NCCCNC(=O)c1ccc(-c2c3nc(c(-c4ccccc4)c4ccc([nH]4)c(-c4ccccc4)c4nc(c(-c5ccccc5)c5ccc2[nH]5)C=C4)C=C3)cc1)c1cc(F)ccc1O
REMARK SMILES IDX 10 1 11 2 12 3 9 5 5 6 6 7 7 8 8 9 4 10 3 11 2 14 1 15 67 16
REMARK SMILES IDX 68 17 73 18 69 19 72 20 70 21 71 22 74 23 13 25 14 26 15 27
REMARK SMILES IDX 16 28 17 29 18 31 19 32 20 33 66 34 21 35 65 36 22 37 23 38
REMARK SMILES IDX 24 39 59 40 25 41 64 42 58 43 60 44 26 45 63 46 57 47 56 48
REMARK SMILES IDX 27 50 49 51 34 52 48 53 35 54 38 55 47 56 61 57 36 58 37 59
REMARK SMILES IDX 46 61 62 62 39 63 28 64 29 65 33 66 30 67 32 68 31 69 50 70
REMARK SMILES IDX 51 71 55 72 52 73 54 74 53 75 40 76 41 77 45 78 42 79 44 80
REMARK SMILES IDX 43 81
REMARK H PARENT 12 4 3 12 3 13 74 24 16 30 60 49 38 60
REMARK Flexibility Score: inf
ROOT
ATOM      1  C   UNL A   1      33.479  28.807  26.574  1.00  0.00     0.223 C 
ATOM      2  O   UNL A   1      34.642  28.593  26.912  1.00  0.00    -0.275 OA
ATOM      3  N   UNL A   1      32.910  29.990  26.945  1.00  0.00    -0.356 N 
ATOM      4  H   UNL A   1      33.518  30.627  27.383  1.00  0.00     0.163 HD
ENDROOT
BRANCH   1   5
ATOM      5  C   UNL A   1      32.671  27.838  25.719  1.00  0.00     0.087 C 
ATOM      6  C   UNL A   1      32.705  26.401  26.270  1.00  0.00     0.057 C 
ATOM      7  C   UNL A   1      33.941  25.818  25.559  1.00  0.00     0.010 C 
ATOM      8  C   UNL A   1      33.942  26.435  24.166  1.00  0.00     0.001 C 
ATOM      9  C   UNL A   1      33.255  27.787  24.302  1.00  0.00     0.014 C 
BRANCH   6  10
ATOM     10  C   UNL A   1      31.462  25.528  25.976  1.00  0.00     0.265 C 
BRANCH  10  11
ATOM     11  N   UNL A   1      30.192  26.140  25.562  1.00  0.00    -0.340 N 
ATOM     12  H   UNL A   1      29.493  25.831  26.237  1.00  0.00     0.346 HD
ATOM     13  H   UNL A   1      30.437  27.129  25.518  1.00  0.00     0.346 HD
BRANCH  11  14
ATOM     14  C   UNL A   1      29.607  25.905  24.225  1.00  0.00     0.214 C 
ATOM     15  C   UNL A   1      30.664  25.066  23.473  1.00  0.00     0.081 C 
BRANCH  14  16
ATOM     16  C   UNL A   1      29.111  27.163  23.480  1.00  0.00     0.054 A 
ATOM     17  C   UNL A   1      30.034  28.000  22.820  1.00  0.00     0.053 A 
ATOM     18  C   UNL A   1      27.798  27.669  23.518  1.00  0.00     0.124 A 
ATOM     19  C   UNL A   1      29.686  29.232  22.265  1.00  0.00     0.123 A 
ATOM     20  C   UNL A   1      27.441  28.912  22.968  1.00  0.00     0.050 A 
ATOM     21  F   UNL A   1      30.633  29.978  21.682  1.00  0.00    -0.207 F 
ATOM     22  C   UNL A   1      28.392  29.702  22.340  1.00  0.00     0.043 A 
BRANCH  18  23
ATOM     23  O   UNL A   1      26.756  27.001  24.093  1.00  0.00    -0.507 OA
ATOM     24  H   UNL A   1      26.698  26.938  25.026  1.00  0.00     0.293 HD
ENDBRANCH  18  23
ENDBRANCH  14  16
ENDBRANCH  11  14
ENDBRANCH  10  11
ENDBRANCH   6  10
ENDBRANCH   1   5
BRANCH   3  25
ATOM     25  C   UNL A   1      31.540  30.451  26.789  1.00  0.00     0.117 C 
BRANCH  25  26
ATOM     26  C   UNL A   1      31.464  31.975  26.749  1.00  0.00     0.042 C 
BRANCH  26  27
ATOM     27  C   UNL A   1      32.741  32.673  27.212  1.00  0.00     0.118 C 
BRANCH  27  28
ATOM     28  N   UNL A   1      32.506  34.031  27.683  1.00  0.00    -0.352 N 
ATOM     29  C   UNL A   1      33.169  34.769  28.633  1.00  0.00     0.251 C 
ATOM     30  H   UNL A   1      31.753  34.494  27.251  1.00  0.00     0.163 HD
ATOM     31  O   UNL A   1      32.706  35.845  28.996  1.00  0.00    -0.269 OA
BRANCH  29  32
ATOM     32  C   UNL A   1      34.422  34.268  29.236  1.00  0.00     0.039 A 
ATOM     33  C   UNL A   1      34.348  33.545  30.430  1.00  0.00     0.014 A 
ATOM     34  C   UNL A   1      35.664  34.527  28.652  1.00  0.00     0.014 A 
ATOM     35  C   UNL A   1      35.511  33.026  31.003  1.00  0.00     0.010 A 
ATOM     36  C   UNL A   1      36.814  33.949  29.182  1.00  0.00     0.010 A 
ATOM     37  C   UNL A   1      36.750  33.193  30.363  1.00  0.00    -0.014 A 
BRANCH  37  38
ATOM     38  C   UNL A   1      37.986  32.575  30.908  1.00  0.00     0.031 A 
ATOM     39  C   UNL A   1      38.532  31.307  30.309  1.00  0.00     0.074 A 
ATOM     40  C   UNL A   1      38.584  33.121  31.985  1.00  0.00     0.049 A 
ATOM     41  N   UNL A   1      39.559  30.590  30.689  1.00  0.00    -0.248 NA
ATOM     42  C   UNL A   1      37.816  30.762  29.144  1.00  0.00     0.031 C 
ATOM     43  C   UNL A   1      38.140  34.331  32.680  1.00  0.00     0.029 A 
ATOM     44  N   UNL A   1      39.695  32.723  32.688  1.00  0.00    -0.354 N 
ATOM     45  C   UNL A   1      39.603  29.504  29.823  1.00  0.00     0.074 A 
ATOM     46  C   UNL A   1      38.471  29.631  28.931  1.00  0.00     0.031 C 
ATOM     47  C   UNL A   1      38.983  34.591  33.692  1.00  0.00     0.029 A 
ATOM     48  C   UNL A   1      39.999  33.545  33.746  1.00  0.00     0.049 A 
ATOM     49  H   UNL A   1      40.223  31.925  32.456  1.00  0.00     0.167 HD
ATOM     50  C   UNL A   1      40.511  28.502  29.765  1.00  0.00     0.031 A 
ATOM     51  C   UNL A   1      40.979  33.462  34.665  1.00  0.00     0.031 A 
ATOM     52  C   UNL A   1      41.638  28.376  30.649  1.00  0.00     0.049 A 
ATOM     53  C   UNL A   1      41.957  32.321  34.597  1.00  0.00     0.074 A 
ATOM     54  C   UNL A   1      42.642  27.423  30.637  1.00  0.00     0.029 A 
ATOM     55  N   UNL A   1      41.909  29.227  31.710  1.00  0.00    -0.354 N 
ATOM     56  N   UNL A   1      42.021  31.338  33.731  1.00  0.00    -0.248 NA
ATOM     57  C   UNL A   1      43.004  32.286  35.627  1.00  0.00     0.031 C 
ATOM     58  C   UNL A   1      43.488  27.664  31.724  1.00  0.00     0.029 A 
ATOM     59  C   UNL A   1      43.048  28.806  32.375  1.00  0.00     0.049 A 
ATOM     60  H   UNL A   1      41.370  30.015  31.953  1.00  0.00     0.167 HD
ATOM     61  C   UNL A   1      43.132  30.587  34.094  1.00  0.00     0.074 A 
ATOM     62  C   UNL A   1      43.719  31.237  35.248  1.00  0.00     0.031 C 
ATOM     63  C   UNL A   1      43.623  29.461  33.522  1.00  0.00     0.031 A 
BRANCH  50  64
ATOM     64  C   UNL A   1      40.313  27.450  28.707  1.00  0.00    -0.014 A 
ATOM     65  C   UNL A   1      39.546  26.300  28.956  1.00  0.00     0.009 A 
ATOM     66  C   UNL A   1      40.874  27.627  27.432  1.00  0.00     0.009 A 
ATOM     67  C   UNL A   1      39.379  25.332  27.964  1.00  0.00     0.001 A 
ATOM     68  C   UNL A   1      40.678  26.672  26.432  1.00  0.00     0.001 A 
ATOM     69  C   UNL A   1      39.940  25.520  26.701  1.00  0.00     0.000 A 
ENDBRANCH  50  64
BRANCH  51  70
ATOM     70  C   UNL A   1      41.095  34.494  35.729  1.00  0.00    -0.014 A 
ATOM     71  C   UNL A   1      40.403  34.347  36.941  1.00  0.00     0.009 A 
ATOM     72  C   UNL A   1      41.888  35.635  35.535  1.00  0.00     0.009 A 
ATOM     73  C   UNL A   1      40.480  35.335  37.925  1.00  0.00     0.001 A 
ATOM     74  C   UNL A   1      41.987  36.607  36.533  1.00  0.00     0.001 A 
ATOM     75  C   UNL A   1      41.275  36.462  37.722  1.00  0.00     0.000 A 
ENDBRANCH  51  70
BRANCH  63  76
ATOM     76  C   UNL A   1      44.881  28.882  34.107  1.00  0.00    -0.014 A 
ATOM     77  C   UNL A   1      44.837  27.900  35.109  1.00  0.00     0.009 A 
ATOM     78  C   UNL A   1      46.129  29.299  33.617  1.00  0.00     0.009 A 
ATOM     79  C   UNL A   1      46.021  27.373  35.632  1.00  0.00     0.001 A 
ATOM     80  C   UNL A   1      47.308  28.748  34.120  1.00  0.00     0.001 A 
ATOM     81  C   UNL A   1      47.253  27.794  35.133  1.00  0.00     0.000 A 
ENDBRANCH  63  76
ENDBRANCH  37  38
ENDBRANCH  29  32
ENDBRANCH  27  28
ENDBRANCH  26  27
ENDBRANCH  25  26
ENDBRANCH   3  25
TORSDOF 15
ENDMDL
MODEL 2
REMARK VINA RESULT:     -10.8      0.623      5.965
REMARK SMILES C[C@@H]([NH2+]C[C@H]1CCC[C@@H]1C(=O)NCCCNC(=O)c1ccc(-c2c3nc(c(-c4ccccc4)c4ccc([nH]4)c(-c4ccccc4)c4nc(c(-c5ccccc5)c5ccc2[nH]5)C=C4)C=C3)cc1)c1cc(F)ccc1O
REMARK SMILES IDX 10 1 11 2 12 3 9 5 5 6 6 7 7 8 8 9 4 10 3 11 2 14 1 15 67 16
REMARK SMILES IDX 68 17 73 18 69 19 72 20 70 21 71 22 74 23 13 25 14 26 15 27
REMARK SMILES IDX 16 28 17 29 18 31 19 32 20 33 66 34 21 35 65 36 22 37 23 38
REMARK SMILES IDX 24 39 59 40 25 41 64 42 58 43 60 44 26 45 63 46 57 47 56 48
REMARK SMILES IDX 27 50 49 51 34 52 48 53 35 54 38 55 47 56 61 57 36 58 37 59
REMARK SMILES IDX 46 61 62 62 39 63 28 64 29 65 33 66 30 67 32 68 31 69 50 70
REMARK SMILES IDX 51 71 55 72 52 73 54 74 53 75 40 76 41 77 45 78 42 79 44 80
REMARK SMILES IDX 43 81
REMARK H PARENT 12 4 3 12 3 13 74 24 16 30 60 49 38 60
REMARK Flexibility Score: inf
ROOT
ATOM      1  C   UNL A   1      33.460  29.048  26.740  1.00  0.00     0.223 C 
ATOM      2  O   UNL A   1      34.581  28.810  27.188  1.00  0.00    -0.275 OA
ATOM      3  N   UNL A   1      32.895  30.255  27.029  1.00  0.00    -0.356 N 
ATOM      4  H   UNL A   1      33.481  30.887  27.506  1.00  0.00     0.163 HD
ENDROOT
BRANCH   1   5
ATOM      5  C   UNL A   1      32.704  28.080  25.837  1.00  0.00     0.087 C 
ATOM      6  C   UNL A   1      32.979  26.608  26.196  1.00  0.00     0.057 C 
ATOM      7  C   UNL A   1      34.204  26.291  25.318  1.00  0.00     0.010 C 
ATOM      8  C   UNL A   1      33.988  27.058  24.020  1.00  0.00     0.001 C 
ATOM      9  C   UNL A   1      33.148  28.275  24.383  1.00  0.00     0.014 C 
BRANCH   6  10
ATOM     10  C   UNL A   1      31.837  25.609  25.896  1.00  0.00     0.265 C 
BRANCH  10  11
ATOM     11  N   UNL A   1      30.494  26.084  25.538  1.00  0.00    -0.340 N 
ATOM     12  H   UNL A   1      29.857  25.690  26.230  1.00  0.00     0.346 HD
ATOM     13  H   UNL A   1      30.627  27.095  25.505  1.00  0.00     0.346 HD
BRANCH  11  14
ATOM     14  C   UNL A   1      29.890  25.808  24.217  1.00  0.00     0.214 C 
ATOM     15  C   UNL A   1      31.014  25.129  23.403  1.00  0.00     0.081 C 
BRANCH  14  16
ATOM     16  C   UNL A   1      29.209  27.008  23.526  1.00  0.00     0.054 A 
ATOM     17  C   UNL A   1      29.991  27.969  22.852  1.00  0.00     0.053 A 
ATOM     18  C   UNL A   1      27.845  27.344  23.631  1.00  0.00     0.124 A 
ATOM     19  C   UNL A   1      29.467  29.159  22.344  1.00  0.00     0.123 A 
ATOM     20  C   UNL A   1      27.313  28.544  23.130  1.00  0.00     0.050 A 
ATOM     21  F   UNL A   1      30.287  30.031  21.744  1.00  0.00    -0.207 F 
ATOM     22  C   UNL A   1      28.129  29.461  22.485  1.00  0.00     0.043 A 
BRANCH  18  23
ATOM     23  O   UNL A   1      26.922  26.538  24.231  1.00  0.00    -0.507 OA
ATOM     24  H   UNL A   1      26.161  26.264  23.757  1.00  0.00     0.293 HD
ENDBRANCH  18  23
ENDBRANCH  14  16
ENDBRANCH  11  14
ENDBRANCH  10  11
ENDBRANCH   6  10
ENDBRANCH   1   5
BRANCH   3  25
ATOM     25  C   UNL A   1      31.560  30.750  26.738  1.00  0.00     0.117 C 
BRANCH  25  26
ATOM     26  C   UNL A   1      31.522  32.276  26.712  1.00  0.00     0.042 C 
BRANCH  26  27
ATOM     27  C   UNL A   1      32.813  32.937  27.190  1.00  0.00     0.118 C 
BRANCH  27  28
ATOM     28  N   UNL A   1      32.583  34.207  27.867  1.00  0.00    -0.352 N 
ATOM     29  C   UNL A   1      33.251  34.786  28.917  1.00  0.00     0.251 C 
ATOM     30  H   UNL A   1      31.829  34.732  27.515  1.00  0.00     0.163 HD
ATOM     31  O   UNL A   1      32.792  35.794  29.445  1.00  0.00    -0.269 OA
BRANCH  29  32
ATOM     32  C   UNL A   1      34.505  34.195  29.430  1.00  0.00     0.039 A 
ATOM     33  C   UNL A   1      34.437  33.320  30.517  1.00  0.00     0.014 A 
ATOM     34  C   UNL A   1      35.743  34.517  28.868  1.00  0.00     0.014 A 
ATOM     35  C   UNL A   1      35.601  32.717  30.999  1.00  0.00     0.010 A 
ATOM     36  C   UNL A   1      36.892  33.860  29.300  1.00  0.00     0.010 A 
ATOM     37  C   UNL A   1      36.834  32.954  30.370  1.00  0.00    -0.014 A 
BRANCH  37  38
ATOM     38  C   UNL A   1      38.068  32.255  30.810  1.00  0.00     0.031 A 
ATOM     39  C   UNL A   1      38.933  32.843  31.891  1.00  0.00     0.074 A 
ATOM     40  C   UNL A   1      38.447  31.120  30.191  1.00  0.00     0.049 A 
ATOM     41  N   UNL A   1      40.076  32.411  32.361  1.00  0.00    -0.248 NA
ATOM     42  C   UNL A   1      38.462  34.093  32.510  1.00  0.00     0.031 C 
ATOM     43  C   UNL A   1      37.716  30.460  29.106  1.00  0.00     0.029 A 
ATOM     44  N   UNL A   1      39.547  30.321  30.382  1.00  0.00    -0.354 N 
ATOM     45  C   UNL A   1      40.468  33.341  33.316  1.00  0.00     0.074 A 
ATOM     46  C   UNL A   1      39.466  34.386  33.323  1.00  0.00     0.031 C 
ATOM     47  C   UNL A   1      38.373  29.346  28.747  1.00  0.00     0.029 A 
ATOM     48  C   UNL A   1      39.591  29.235  29.541  1.00  0.00     0.049 A 
ATOM     49  H   UNL A   1      40.238  30.509  31.057  1.00  0.00     0.167 HD
ATOM     50  C   UNL A   1      41.553  33.320  34.126  1.00  0.00     0.031 A 
ATOM     51  C   UNL A   1      40.515  28.264  29.415  1.00  0.00     0.031 A 
ATOM     52  C   UNL A   1      42.548  32.282  34.122  1.00  0.00     0.049 A 
ATOM     53  C   UNL A   1      41.728  28.281  30.305  1.00  0.00     0.074 A 
ATOM     54  C   UNL A   1      43.657  32.147  34.938  1.00  0.00     0.029 A 
ATOM     55  N   UNL A   1      42.558  31.201  33.253  1.00  0.00    -0.354 N 
ATOM     56  N   UNL A   1      42.049  29.134  31.248  1.00  0.00    -0.248 NA
ATOM     57  C   UNL A   1      42.697  27.193  30.119  1.00  0.00     0.031 C 
ATOM     58  C   UNL A   1      44.369  31.015  34.527  1.00  0.00     0.029 A 
ATOM     59  C   UNL A   1      43.669  30.410  33.496  1.00  0.00     0.049 A 
ATOM     60  H   UNL A   1      41.876  31.023  32.565  1.00  0.00     0.167 HD
ATOM     61  C   UNL A   1      43.242  28.668  31.787  1.00  0.00     0.074 A 
ATOM     62  C   UNL A   1      43.577  27.451  31.077  1.00  0.00     0.031 C 
ATOM     63  C   UNL A   1      43.990  29.200  32.783  1.00  0.00     0.031 A 
BRANCH  50  64
ATOM     64  C   UNL A   1      41.726  34.470  35.082  1.00  0.00    -0.014 A 
ATOM     65  C   UNL A   1      42.415  35.634  34.706  1.00  0.00     0.009 A 
ATOM     66  C   UNL A   1      41.162  34.401  36.365  1.00  0.00     0.009 A 
ATOM     67  C   UNL A   1      42.570  36.688  35.609  1.00  0.00     0.001 A 
ATOM     68  C   UNL A   1      41.291  35.470  37.255  1.00  0.00     0.001 A 
ATOM     69  C   UNL A   1      42.004  36.608  36.880  1.00  0.00     0.000 A 
ENDBRANCH  50  64
BRANCH  51  70
ATOM     70  C   UNL A   1      40.329  27.183  28.411  1.00  0.00    -0.014 A 
ATOM     71  C   UNL A   1      39.605  26.026  28.738  1.00  0.00     0.009 A 
ATOM     72  C   UNL A   1      40.881  27.298  27.126  1.00  0.00     0.009 A 
ATOM     73  C   UNL A   1      39.463  24.994  27.807  1.00  0.00     0.001 A 
ATOM     74  C   UNL A   1      40.711  26.277  26.188  1.00  0.00     0.001 A 
ATOM     75  C   UNL A   1      40.012  25.122  26.532  1.00  0.00     0.000 A 
ENDBRANCH  51  70
BRANCH  63  76
ATOM     76  C   UNL A   1      45.226  28.448  33.194  1.00  0.00    -0.014 A 
ATOM     77  C   UNL A   1      45.179  27.441  34.170  1.00  0.00     0.009 A 
ATOM     78  C   UNL A   1      46.449  28.728  32.563  1.00  0.00     0.009 A 
ATOM     79  C   UNL A   1      46.341  26.753  34.530  1.00  0.00     0.001 A 
ATOM     80  C   UNL A   1      47.601  28.018  32.903  1.00  0.00     0.001 A 
ATOM     81  C   UNL A   1      47.548  27.039  33.892  1.00  0.00     0.000 A 
ENDBRANCH  63  76
ENDBRANCH  37  38
ENDBRANCH  29  32
ENDBRANCH  27  28
ENDBRANCH  26  27
ENDBRANCH  25  26
ENDBRANCH   3  25
TORSDOF 15
ENDMDL
MODEL 3
REMARK VINA RESULT:     -10.7      4.260      9.001
REMARK SMILES C[C@@H]([NH2+]C[C@H]1CCC[C@@H]1C(=O)NCCCNC(=O)c1ccc(-c2c3nc(c(-c4ccccc4)c4ccc([nH]4)c(-c4ccccc4)c4nc(c(-c5ccccc5)c5ccc2[nH]5)C=C4)C=C3)cc1)c1cc(F)ccc1O
REMARK SMILES IDX 10 1 11 2 12 3 9 5 5 6 6 7 7 8 8 9 4 10 3 11 2 14 1 15 67 16
REMARK SMILES IDX 68 17 73 18 69 19 72 20 70 21 71 22 74 23 13 25 14 26 15 27
REMARK SMILES IDX 16 28 17 29 18 31 19 32 20 33 66 34 21 35 65 36 22 37 23 38
REMARK SMILES IDX 24 39 59 40 25 41 64 42 58 43 60 44 26 45 63 46 57 47 56 48
REMARK SMILES IDX 27 50 49 51 34 52 48 53 35 54 38 55 47 56 61 57 36 58 37 59
REMARK SMILES IDX 46 61 62 62 39 63 28 64 29 65 33 66 30 67 32 68 31 69 50 70
REMARK SMILES IDX 51 71 55 72 52 73 54 74 53 75 40 76 41 77 45 78 42 79 44 80
REMARK SMILES IDX 43 81
REMARK H PARENT 12 4 3 12 3 13 74 24 16 30 60 49 38 60
REMARK Flexibility Score: inf
ROOT
ATOM      1  C   UNL A   1      36.602  23.141  25.467  1.00  0.00     0.223 C 
ATOM      2  O   UNL A   1      37.111  24.090  26.061  1.00  0.00    -0.275 OA
ATOM      3  N   UNL A   1      37.309  21.977  25.391  1.00  0.00    -0.356 N 
ATOM      4  H   UNL A   1      38.147  21.962  25.908  1.00  0.00     0.163 HD
ENDROOT
BRANCH   1   5
ATOM      5  C   UNL A   1      35.204  23.192  24.862  1.00  0.00     0.087 C 
ATOM      6  C   UNL A   1      34.701  24.634  24.670  1.00  0.00     0.057 C 
ATOM      7  C   UNL A   1      34.005  24.910  26.016  1.00  0.00     0.010 C 
ATOM      8  C   UNL A   1      33.358  23.592  26.421  1.00  0.00     0.001 C 
ATOM      9  C   UNL A   1      34.210  22.494  25.798  1.00  0.00     0.014 C 
BRANCH   6  10
ATOM     10  C   UNL A   1      33.711  24.861  23.503  1.00  0.00     0.265 C 
BRANCH  10  11
ATOM     11  N   UNL A   1      33.284  26.217  23.130  1.00  0.00    -0.340 N 
ATOM     12  H   UNL A   1      34.069  26.832  23.342  1.00  0.00     0.346 HD
ATOM     13  H   UNL A   1      33.001  26.091  22.159  1.00  0.00     0.346 HD
BRANCH  11  14
ATOM     14  C   UNL A   1      32.089  26.853  23.722  1.00  0.00     0.214 C 
ATOM     15  C   UNL A   1      31.358  27.509  22.529  1.00  0.00     0.081 C 
BRANCH  14  16
ATOM     16  C   UNL A   1      32.351  27.783  24.926  1.00  0.00     0.054 A 
ATOM     17  C   UNL A   1      31.584  27.647  26.101  1.00  0.00     0.053 A 
ATOM     18  C   UNL A   1      33.209  28.900  24.922  1.00  0.00     0.124 A 
ATOM     19  C   UNL A   1      31.651  28.548  27.165  1.00  0.00     0.123 A 
ATOM     20  C   UNL A   1      33.276  29.816  25.986  1.00  0.00     0.050 A 
ATOM     21  F   UNL A   1      30.863  28.361  28.231  1.00  0.00    -0.207 F 
ATOM     22  C   UNL A   1      32.489  29.642  27.115  1.00  0.00     0.043 A 
BRANCH  18  23
ATOM     23  O   UNL A   1      34.047  29.196  23.886  1.00  0.00    -0.507 OA
ATOM     24  H   UNL A   1      34.282  28.530  23.270  1.00  0.00     0.293 HD
ENDBRANCH  18  23
ENDBRANCH  14  16
ENDBRANCH  11  14
ENDBRANCH  10  11
ENDBRANCH   6  10
ENDBRANCH   1   5
BRANCH   3  25
ATOM     25  C   UNL A   1      37.012  20.754  24.664  1.00  0.00     0.117 C 
BRANCH  25  26
ATOM     26  C   UNL A   1      38.038  19.663  24.959  1.00  0.00     0.042 C 
BRANCH  26  27
ATOM     27  C   UNL A   1      39.131  20.088  25.938  1.00  0.00     0.118 C 
BRANCH  27  28
ATOM     28  N   UNL A   1      40.327  19.262  25.844  1.00  0.00    -0.352 N 
ATOM     29  C   UNL A   1      41.648  19.587  26.035  1.00  0.00     0.251 C 
ATOM     30  H   UNL A   1      40.163  18.322  25.605  1.00  0.00     0.163 HD
ATOM     31  O   UNL A   1      42.520  18.775  25.747  1.00  0.00    -0.269 OA
BRANCH  29  32
ATOM     32  C   UNL A   1      42.027  20.914  26.565  1.00  0.00     0.039 A 
ATOM     33  C   UNL A   1      42.413  21.909  25.664  1.00  0.00     0.014 A 
ATOM     34  C   UNL A   1      42.031  21.175  27.937  1.00  0.00     0.014 A 
ATOM     35  C   UNL A   1      42.740  23.184  26.132  1.00  0.00     0.010 A 
ATOM     36  C   UNL A   1      42.285  22.464  28.398  1.00  0.00     0.010 A 
ATOM     37  C   UNL A   1      42.643  23.482  27.500  1.00  0.00    -0.014 A 
BRANCH  37  38
ATOM     38  C   UNL A   1      42.900  24.853  28.009  1.00  0.00     0.031 A 
ATOM     39  C   UNL A   1      44.285  25.263  28.428  1.00  0.00     0.074 A 
ATOM     40  C   UNL A   1      41.873  25.713  28.154  1.00  0.00     0.049 A 
ATOM     41  N   UNL A   1      44.689  26.393  28.954  1.00  0.00    -0.248 NA
ATOM     42  C   UNL A   1      45.354  24.266  28.254  1.00  0.00     0.031 C 
ATOM     43  C   UNL A   1      40.476  25.431  27.816  1.00  0.00     0.029 A 
ATOM     44  N   UNL A   1      41.844  26.999  28.632  1.00  0.00    -0.354 N 
ATOM     45  C   UNL A   1      46.050  26.236  29.187  1.00  0.00     0.074 A 
ATOM     46  C   UNL A   1      46.393  24.887  28.793  1.00  0.00     0.031 C 
ATOM     47  C   UNL A   1      39.733  26.519  28.071  1.00  0.00     0.029 A 
ATOM     48  C   UNL A   1      40.589  27.559  28.633  1.00  0.00     0.049 A 
ATOM     49  H   UNL A   1      42.647  27.477  28.944  1.00  0.00     0.167 HD
ATOM     50  C   UNL A   1      46.937  27.138  29.670  1.00  0.00     0.031 A 
ATOM     51  C   UNL A   1      40.170  28.768  29.048  1.00  0.00     0.031 A 
ATOM     52  C   UNL A   1      46.599  28.480  30.061  1.00  0.00     0.049 A 
ATOM     53  C   UNL A   1      41.171  29.741  29.611  1.00  0.00     0.074 A 
ATOM     54  C   UNL A   1      47.436  29.483  30.514  1.00  0.00     0.029 A 
ATOM     55  N   UNL A   1      45.315  29.006  30.049  1.00  0.00    -0.354 N 
ATOM     56  N   UNL A   1      42.465  29.598  29.764  1.00  0.00    -0.248 NA
ATOM     57  C   UNL A   1      40.652  31.044  30.045  1.00  0.00     0.031 C 
ATOM     58  C   UNL A   1      46.653  30.599  30.831  1.00  0.00     0.029 A 
ATOM     59  C   UNL A   1      45.335  30.311  30.513  1.00  0.00     0.049 A 
ATOM     60  H   UNL A   1      44.510  28.523  29.753  1.00  0.00     0.167 HD
ATOM     61  C   UNL A   1      42.919  30.804  30.284  1.00  0.00     0.074 A 
ATOM     62  C   UNL A   1      41.764  31.670  30.404  1.00  0.00     0.031 C 
ATOM     63  C   UNL A   1      44.179  31.162  30.628  1.00  0.00     0.031 A 
BRANCH  50  64
ATOM     64  C   UNL A   1      48.367  26.693  29.814  1.00  0.00    -0.014 A 
ATOM     65  C   UNL A   1      48.828  26.087  30.994  1.00  0.00     0.009 A 
ATOM     66  C   UNL A   1      49.259  26.850  28.742  1.00  0.00     0.009 A 
ATOM     67  C   UNL A   1      50.160  25.685  31.111  1.00  0.00     0.001 A 
ATOM     68  C   UNL A   1      50.583  26.418  28.850  1.00  0.00     0.001 A 
ATOM     69  C   UNL A   1      51.035  25.847  30.038  1.00  0.00     0.000 A 
ENDBRANCH  50  64
BRANCH  51  70
ATOM     70  C   UNL A   1      38.734  29.138  28.943  1.00  0.00    -0.014 A 
ATOM     71  C   UNL A   1      37.881  29.001  30.048  1.00  0.00     0.009 A 
ATOM     72  C   UNL A   1      38.207  29.620  27.735  1.00  0.00     0.009 A 
ATOM     73  C   UNL A   1      36.523  29.311  29.938  1.00  0.00     0.001 A 
ATOM     74  C   UNL A   1      36.855  29.958  27.637  1.00  0.00     0.001 A 
ATOM     75  C   UNL A   1      36.012  29.793  28.734  1.00  0.00     0.000 A 
ENDBRANCH  51  70
BRANCH  63  76
ATOM     76  C   UNL A   1      44.385  32.565  31.129  1.00  0.00    -0.014 A 
ATOM     77  C   UNL A   1      44.641  33.627  30.249  1.00  0.00     0.009 A 
ATOM     78  C   UNL A   1      44.282  32.830  32.505  1.00  0.00     0.009 A 
ATOM     79  C   UNL A   1      44.822  34.922  30.741  1.00  0.00     0.001 A 
ATOM     80  C   UNL A   1      44.433  34.130  32.989  1.00  0.00     0.001 A 
ATOM     81  C   UNL A   1      44.712  35.172  32.109  1.00  0.00     0.000 A 
ENDBRANCH  63  76
ENDBRANCH  37  38
ENDBRANCH  29  32
ENDBRANCH  27  28
ENDBRANCH  26  27
ENDBRANCH  25  26
ENDBRANCH   3  25
TORSDOF 15
ENDMDL
