MODEL 1
REMARK VINA RESULT:     -11.5      0.000      0.000
REMARK SMILES O=C(NCCCNC(=O)[C@H]1CCCN1S(=O)(=O)c1ccccc1Cl)c1ccc(-c2c3nc(c(-c4ccccc4)c4ccc([nH]4)c(-c4ccccc4)c4nc(c(-c5ccccc5)c5ccc2[nH]5)C=C4)C=C3)cc1
REMARK SMILES IDX 5 1 4 2 3 3 1 4 2 5 25 7 26 8 72 9 27 10 71 11 28 12 29 13
REMARK SMILES IDX 30 14 65 15 31 16 70 17 64 18 66 19 32 20 69 21 63 22 62 23
REMARK SMILES IDX 33 25 55 26 40 27 54 28 41 29 44 30 53 31 67 32 42 33 43 34
REMARK SMILES IDX 52 36 68 37 45 38 34 39 35 40 39 41 36 42 38 43 37 44 56 45
REMARK SMILES IDX 57 46 61 47 58 48 60 49 59 50 46 51 47 52 51 53 48 54 50 55
REMARK SMILES IDX 49 56 6 57 7 58 8 59 9 61 10 62 11 63 14 64 12 65 13 66
REMARK SMILES IDX 15 67 16 68 17 69 18 70 19 71 23 72 20 73 22 74 24 75 21 76
REMARK H PARENT 3 6 66 24 44 35 7 60
REMARK Flexibility Score: inf
ROOT
ATOM      1  C   UNL A   1      31.249  32.296  26.403  1.00  0.00     0.042 C 
ENDROOT
BRANCH   1   2
ATOM      2  C   UNL A   1      32.468  32.839  27.149  1.00  0.00     0.118 C 
BRANCH   2   3
ATOM      3  N   UNL A   1      32.281  34.203  27.625  1.00  0.00    -0.352 N 
ATOM      4  O   UNL A   1      32.528  35.990  28.971  1.00  0.00    -0.269 OA
ATOM      5  C   UNL A   1      32.951  34.898  28.604  1.00  0.00     0.251 C 
ATOM      6  H   UNL A   1      31.563  34.705  27.176  1.00  0.00     0.163 HD
BRANCH   5   7
ATOM      7  C   UNL A   1      34.163  34.331  29.233  1.00  0.00     0.039 A 
ATOM      8  C   UNL A   1      35.433  34.562  28.695  1.00  0.00     0.014 A 
ATOM      9  C   UNL A   1      34.028  33.581  30.405  1.00  0.00     0.014 A 
ATOM     10  C   UNL A   1      36.544  33.932  29.248  1.00  0.00     0.010 A 
ATOM     11  C   UNL A   1      35.156  33.009  31.001  1.00  0.00     0.010 A 
ATOM     12  C   UNL A   1      36.418  33.147  30.405  1.00  0.00    -0.014 A 
BRANCH  12  13
ATOM     13  C   UNL A   1      37.622  32.503  30.989  1.00  0.00     0.031 A 
ATOM     14  C   UNL A   1      38.201  32.982  32.293  1.00  0.00     0.074 A 
ATOM     15  C   UNL A   1      38.179  31.454  30.354  1.00  0.00     0.049 A 
ATOM     16  N   UNL A   1      39.214  32.500  32.971  1.00  0.00    -0.248 NA
ATOM     17  C   UNL A   1      37.569  34.157  32.912  1.00  0.00     0.031 C 
ATOM     18  C   UNL A   1      37.716  30.896  29.082  1.00  0.00     0.029 A 
ATOM     19  N   UNL A   1      39.239  30.656  30.703  1.00  0.00    -0.354 N 
ATOM     20  C   UNL A   1      39.355  33.324  34.080  1.00  0.00     0.074 A 
ATOM     21  C   UNL A   1      38.340  34.351  33.974  1.00  0.00     0.031 C 
ATOM     22  C   UNL A   1      38.451  29.813  28.785  1.00  0.00     0.029 A 
ATOM     23  C   UNL A   1      39.468  29.634  29.816  1.00  0.00     0.049 A 
ATOM     24  H   UNL A   1      39.783  30.803  31.510  1.00  0.00     0.167 HD
ATOM     25  C   UNL A   1      40.244  33.233  35.099  1.00  0.00     0.031 A 
ATOM     26  C   UNL A   1      40.392  28.657  29.827  1.00  0.00     0.031 A 
ATOM     27  C   UNL A   1      41.250  32.209  35.212  1.00  0.00     0.049 A 
ATOM     28  C   UNL A   1      41.378  28.588  30.957  1.00  0.00     0.074 A 
ATOM     29  C   UNL A   1      42.169  32.011  36.229  1.00  0.00     0.029 A 
ATOM     30  N   UNL A   1      41.473  31.215  34.272  1.00  0.00    -0.354 N 
ATOM     31  N   UNL A   1      41.470  29.351  32.018  1.00  0.00    -0.248 NA
ATOM     32  C   UNL A   1      42.384  27.521  30.889  1.00  0.00     0.031 C 
ATOM     33  C   UNL A   1      42.979  30.924  35.881  1.00  0.00     0.029 A 
ATOM     34  C   UNL A   1      42.531  30.415  34.674  1.00  0.00     0.049 A 
ATOM     35  H   UNL A   1      40.957  31.095  33.442  1.00  0.00     0.167 HD
ATOM     36  C   UNL A   1      42.529  28.842  32.758  1.00  0.00     0.074 A 
ATOM     37  C   UNL A   1      43.038  27.697  32.029  1.00  0.00     0.031 C 
ATOM     38  C   UNL A   1      43.031  29.282  33.937  1.00  0.00     0.031 A 
BRANCH  25  39
ATOM     39  C   UNL A   1      40.187  34.294  36.162  1.00  0.00    -0.014 A 
ATOM     40  C   UNL A   1      39.372  34.153  37.297  1.00  0.00     0.009 A 
ATOM     41  C   UNL A   1      40.982  35.445  36.038  1.00  0.00     0.009 A 
ATOM     42  C   UNL A   1      39.327  35.159  38.266  1.00  0.00     0.001 A 
ATOM     43  C   UNL A   1      40.955  36.436  37.021  1.00  0.00     0.001 A 
ATOM     44  C   UNL A   1      40.120  36.298  38.128  1.00  0.00     0.000 A 
ENDBRANCH  25  39
BRANCH  26  45
ATOM     45  C   UNL A   1      40.414  27.650  28.736  1.00  0.00    -0.014 A 
ATOM     46  C   UNL A   1      39.670  26.466  28.846  1.00  0.00     0.009 A 
ATOM     47  C   UNL A   1      41.160  27.879  27.568  1.00  0.00     0.009 A 
ATOM     48  C   UNL A   1      39.685  25.524  27.816  1.00  0.00     0.001 A 
ATOM     49  C   UNL A   1      41.151  26.947  26.530  1.00  0.00     0.001 A 
ATOM     50  C   UNL A   1      40.420  25.768  26.657  1.00  0.00     0.000 A 
ENDBRANCH  26  45
BRANCH  38  51
ATOM     51  C   UNL A   1      44.168  28.499  34.527  1.00  0.00    -0.014 A 
ATOM     52  C   UNL A   1      45.503  28.836  34.257  1.00  0.00     0.009 A 
ATOM     53  C   UNL A   1      43.896  27.423  35.385  1.00  0.00     0.009 A 
ATOM     54  C   UNL A   1      46.545  28.084  34.806  1.00  0.00     0.001 A 
ATOM     55  C   UNL A   1      44.940  26.689  35.953  1.00  0.00     0.001 A 
ATOM     56  C   UNL A   1      46.262  27.015  35.655  1.00  0.00     0.000 A 
ENDBRANCH  38  51
ENDBRANCH  12  13
ENDBRANCH   5   7
ENDBRANCH   2   3
ENDBRANCH   1   2
BRANCH   1  57
ATOM     57  C   UNL A   1      31.403  30.853  25.928  1.00  0.00     0.117 C 
BRANCH  57  58
ATOM     58  N   UNL A   1      32.317  30.115  26.774  1.00  0.00    -0.355 N 
ATOM     59  C   UNL A   1      32.863  28.876  26.632  1.00  0.00     0.238 C 
ATOM     60  H   UNL A   1      32.590  30.589  27.592  1.00  0.00     0.163 HD
ATOM     61  O   UNL A   1      33.447  28.435  27.628  1.00  0.00    -0.273 OA
BRANCH  59  62
ATOM     62  C   UNL A   1      32.879  28.131  25.287  1.00  0.00     0.162 C 
ATOM     63  C   UNL A   1      33.717  26.858  25.402  1.00  0.00     0.032 C 
ATOM     64  N   UNL A   1      31.555  27.632  24.801  1.00  0.00    -0.185 NA
ATOM     65  C   UNL A   1      32.732  25.863  25.991  1.00  0.00     0.019 C 
ATOM     66  C   UNL A   1      31.371  26.280  25.441  1.00  0.00     0.103 C 
BRANCH  64  67
ATOM     67  S   UNL A   1      31.338  27.542  23.088  1.00  0.00     0.245 S 
ATOM     68  O   UNL A   1      32.487  28.144  22.447  1.00  0.00    -0.207 OA
ATOM     69  O   UNL A   1      31.019  26.158  22.808  1.00  0.00    -0.207 OA
BRANCH  67  70
ATOM     70  C   UNL A   1      29.879  28.488  22.715  1.00  0.00     0.101 A 
ATOM     71  C   UNL A   1      30.075  29.731  22.081  1.00  0.00     0.023 A 
ATOM     72  C   UNL A   1      28.592  28.128  23.126  1.00  0.00     0.061 A 
ATOM     73  C   UNL A   1      28.996  30.575  21.814  1.00  0.00     0.002 A 
ATOM     74  C   UNL A   1      27.511  28.970  22.820  1.00  0.00     0.022 A 
ATOM     75  Cl  UNL A   1      28.184  26.702  24.013  1.00  0.00    -0.083 Cl
ATOM     76  C   UNL A   1      27.711  30.187  22.169  1.00  0.00     0.002 A 
ENDBRANCH  67  70
ENDBRANCH  64  67
ENDBRANCH  59  62
ENDBRANCH  57  58
ENDBRANCH   1  57
TORSDOF 12
ENDMDL
MODEL 2
REMARK VINA RESULT:     -11.4      4.742      9.536
REMARK SMILES O=C(NCCCNC(=O)[C@H]1CCCN1S(=O)(=O)c1ccccc1Cl)c1ccc(-c2c3nc(c(-c4ccccc4)c4ccc([nH]4)c(-c4ccccc4)c4nc(c(-c5ccccc5)c5ccc2[nH]5)C=C4)C=C3)cc1
REMARK SMILES IDX 5 1 4 2 3 3 1 4 2 5 25 7 26 8 72 9 27 10 71 11 28 12 29 13
REMARK SMILES IDX 30 14 65 15 31 16 70 17 64 18 66 19 32 20 69 21 63 22 62 23
REMARK SMILES IDX 33 25 55 26 40 27 54 28 41 29 44 30 53 31 67 32 42 33 43 34
REMARK SMILES IDX 52 36 68 37 45 38 34 39 35 40 39 41 36 42 38 43 37 44 56 45
REMARK SMILES IDX 57 46 61 47 58 48 60 49 59 50 46 51 47 52 51 53 48 54 50 55
REMARK SMILES IDX 49 56 6 57 7 58 8 59 9 61 10 62 11 63 14 64 12 65 13 66
REMARK SMILES IDX 15 67 16 68 17 69 18 70 19 71 23 72 20 73 22 74 24 75 21 76
REMARK H PARENT 3 6 66 24 44 35 7 60
REMARK Flexibility Score: inf
ROOT
ATOM      1  C   UNL A   1      37.832  19.531  25.041  1.00  0.00     0.042 C 
ENDROOT
BRANCH   1   2
ATOM      2  C   UNL A   1      39.022  20.139  25.784  1.00  0.00     0.118 C 
BRANCH   2   3
ATOM      3  N   UNL A   1      40.200  19.284  25.765  1.00  0.00    -0.352 N 
ATOM      4  O   UNL A   1      42.386  18.752  25.811  1.00  0.00    -0.269 OA
ATOM      5  C   UNL A   1      41.512  19.580  26.048  1.00  0.00     0.251 C 
ATOM      6  H   UNL A   1      40.031  18.348  25.511  1.00  0.00     0.163 HD
BRANCH   5   7
ATOM      7  C   UNL A   1      41.882  20.895  26.615  1.00  0.00     0.039 A 
ATOM      8  C   UNL A   1      41.833  21.129  27.992  1.00  0.00     0.014 A 
ATOM      9  C   UNL A   1      42.319  21.904  25.750  1.00  0.00     0.014 A 
ATOM     10  C   UNL A   1      42.086  22.406  28.487  1.00  0.00     0.010 A 
ATOM     11  C   UNL A   1      42.643  23.165  26.258  1.00  0.00     0.010 A 
ATOM     12  C   UNL A   1      42.492  23.438  27.625  1.00  0.00    -0.014 A 
BRANCH  12  13
ATOM     13  C   UNL A   1      42.778  24.785  28.180  1.00  0.00     0.031 A 
ATOM     14  C   UNL A   1      44.186  25.206  28.507  1.00  0.00     0.074 A 
ATOM     15  C   UNL A   1      41.762  25.652  28.359  1.00  0.00     0.049 A 
ATOM     16  N   UNL A   1      44.619  26.361  28.947  1.00  0.00    -0.248 NA
ATOM     17  C   UNL A   1      45.242  24.198  28.326  1.00  0.00     0.031 C 
ATOM     18  C   UNL A   1      40.353  25.365  28.085  1.00  0.00     0.029 A 
ATOM     19  N   UNL A   1      41.761  26.953  28.791  1.00  0.00    -0.354 N 
ATOM     20  C   UNL A   1      45.990  26.213  29.117  1.00  0.00     0.074 A 
ATOM     21  C   UNL A   1      46.314  24.849  28.756  1.00  0.00     0.031 C 
ATOM     22  C   UNL A   1      39.630  26.475  28.301  1.00  0.00     0.029 A 
ATOM     23  C   UNL A   1      40.516  27.532  28.779  1.00  0.00     0.049 A 
ATOM     24  H   UNL A   1      42.574  27.426  29.082  1.00  0.00     0.167 HD
ATOM     25  C   UNL A   1      46.899  27.130  29.530  1.00  0.00     0.031 A 
ATOM     26  C   UNL A   1      40.125  28.775  29.113  1.00  0.00     0.031 A 
ATOM     27  C   UNL A   1      46.582  28.489  29.882  1.00  0.00     0.049 A 
ATOM     28  C   UNL A   1      41.149  29.765  29.586  1.00  0.00     0.074 A 
ATOM     29  C   UNL A   1      47.441  29.502  30.272  1.00  0.00     0.029 A 
ATOM     30  N   UNL A   1      45.303  29.023  29.894  1.00  0.00    -0.354 N 
ATOM     31  N   UNL A   1      42.446  29.621  29.701  1.00  0.00    -0.248 NA
ATOM     32  C   UNL A   1      40.651  31.093  29.971  1.00  0.00     0.031 C 
ATOM     33  C   UNL A   1      46.676  30.637  30.566  1.00  0.00     0.029 A 
ATOM     34  C   UNL A   1      45.347  30.345  30.307  1.00  0.00     0.049 A 
ATOM     35  H   UNL A   1      44.484  28.536  29.644  1.00  0.00     0.167 HD
ATOM     36  C   UNL A   1      42.924  30.844  30.149  1.00  0.00     0.074 A 
ATOM     37  C   UNL A   1      41.778  31.723  30.272  1.00  0.00     0.031 C 
ATOM     38  C   UNL A   1      44.199  31.207  30.430  1.00  0.00     0.031 A 
BRANCH  25  39
ATOM     39  C   UNL A   1      48.328  26.678  29.654  1.00  0.00    -0.014 A 
ATOM     40  C   UNL A   1      48.801  26.054  30.820  1.00  0.00     0.009 A 
ATOM     41  C   UNL A   1      49.209  26.855  28.576  1.00  0.00     0.009 A 
ATOM     42  C   UNL A   1      50.136  25.653  30.916  1.00  0.00     0.001 A 
ATOM     43  C   UNL A   1      50.535  26.429  28.664  1.00  0.00     0.001 A 
ATOM     44  C   UNL A   1      51.001  25.839  29.838  1.00  0.00     0.000 A 
ENDBRANCH  25  39
BRANCH  26  45
ATOM     45  C   UNL A   1      38.696  29.155  28.992  1.00  0.00    -0.014 A 
ATOM     46  C   UNL A   1      37.839  29.062  30.100  1.00  0.00     0.009 A 
ATOM     47  C   UNL A   1      38.185  29.635  27.776  1.00  0.00     0.009 A 
ATOM     48  C   UNL A   1      36.497  29.427  29.987  1.00  0.00     0.001 A 
ATOM     49  C   UNL A   1      36.849  30.024  27.674  1.00  0.00     0.001 A 
ATOM     50  C   UNL A   1      36.004  29.914  28.777  1.00  0.00     0.000 A 
ENDBRANCH  26  45
BRANCH  38  51
ATOM     51  C   UNL A   1      44.423  32.627  30.864  1.00  0.00    -0.014 A 
ATOM     52  C   UNL A   1      44.407  32.986  32.220  1.00  0.00     0.009 A 
ATOM     53  C   UNL A   1      44.676  33.614  29.899  1.00  0.00     0.009 A 
ATOM     54  C   UNL A   1      44.604  34.317  32.599  1.00  0.00     0.001 A 
ATOM     55  C   UNL A   1      44.898  34.938  30.283  1.00  0.00     0.001 A 
ATOM     56  C   UNL A   1      44.852  35.289  31.630  1.00  0.00     0.000 A 
ENDBRANCH  38  51
ENDBRANCH  12  13
ENDBRANCH   5   7
ENDBRANCH   2   3
ENDBRANCH   1   2
BRANCH   1  57
ATOM     57  C   UNL A   1      36.752  20.542  24.662  1.00  0.00     0.117 C 
BRANCH  57  58
ATOM     58  N   UNL A   1      35.898  20.847  25.790  1.00  0.00    -0.355 N 
ATOM     59  C   UNL A   1      34.876  21.737  25.922  1.00  0.00     0.238 C 
ATOM     60  H   UNL A   1      36.088  20.321  26.600  1.00  0.00     0.163 HD
ATOM     61  O   UNL A   1      34.472  21.915  27.076  1.00  0.00    -0.273 OA
BRANCH  59  62
ATOM     62  C   UNL A   1      34.175  22.373  24.710  1.00  0.00     0.162 C 
ATOM     63  C   UNL A   1      33.136  21.408  24.138  1.00  0.00     0.032 C 
ATOM     64  N   UNL A   1      33.382  23.610  24.990  1.00  0.00    -0.185 NA
ATOM     65  C   UNL A   1      31.928  21.656  25.024  1.00  0.00     0.019 C 
ATOM     66  C   UNL A   1      32.016  23.130  25.411  1.00  0.00     0.103 C 
BRANCH  64  67
ATOM     67  S   UNL A   1      33.266  24.767  23.711  1.00  0.00     0.245 S 
ATOM     68  O   UNL A   1      34.302  24.485  22.741  1.00  0.00    -0.207 OA
ATOM     69  O   UNL A   1      31.880  24.745  23.290  1.00  0.00    -0.207 OA
BRANCH  67  70
ATOM     70  C   UNL A   1      33.551  26.361  24.446  1.00  0.00     0.101 A 
ATOM     71  C   UNL A   1      33.545  26.418  25.854  1.00  0.00     0.023 A 
ATOM     72  C   UNL A   1      33.648  27.549  23.716  1.00  0.00     0.061 A 
ATOM     73  C   UNL A   1      33.688  27.636  26.521  1.00  0.00     0.002 A 
ATOM     74  C   UNL A   1      33.826  28.763  24.398  1.00  0.00     0.022 A 
ATOM     75  Cl  UNL A   1      33.558  27.679  21.996  1.00  0.00    -0.083 Cl
ATOM     76  C   UNL A   1      33.845  28.808  25.792  1.00  0.00     0.002 A 
ENDBRANCH  67  70
ENDBRANCH  64  67
ENDBRANCH  59  62
ENDBRANCH  57  58
ENDBRANCH   1  57
TORSDOF 12
ENDMDL
MODEL 3
REMARK VINA RESULT:     -11.4      3.871      8.168
REMARK SMILES O=C(NCCCNC(=O)[C@H]1CCCN1S(=O)(=O)c1ccccc1Cl)c1ccc(-c2c3nc(c(-c4ccccc4)c4ccc([nH]4)c(-c4ccccc4)c4nc(c(-c5ccccc5)c5ccc2[nH]5)C=C4)C=C3)cc1
REMARK SMILES IDX 5 1 4 2 3 3 1 4 2 5 25 7 26 8 72 9 27 10 71 11 28 12 29 13
REMARK SMILES IDX 30 14 65 15 31 16 70 17 64 18 66 19 32 20 69 21 63 22 62 23
REMARK SMILES IDX 33 25 55 26 40 27 54 28 41 29 44 30 53 31 67 32 42 33 43 34
REMARK SMILES IDX 52 36 68 37 45 38 34 39 35 40 39 41 36 42 38 43 37 44 56 45
REMARK SMILES IDX 57 46 61 47 58 48 60 49 59 50 46 51 47 52 51 53 48 54 50 55
REMARK SMILES IDX 49 56 6 57 7 58 8 59 9 61 10 62 11 63 14 64 12 65 13 66
REMARK SMILES IDX 15 67 16 68 17 69 18 70 19 71 23 72 20 73 22 74 24 75 21 76
REMARK H PARENT 3 6 66 24 44 35 7 60
REMARK Flexibility Score: inf
ROOT
ATOM      1  C   UNL A   1      34.100  28.552  25.848  1.00  0.00     0.042 C 
ENDROOT
BRANCH   1   2
ATOM      2  C   UNL A   1      33.699  28.684  27.317  1.00  0.00     0.118 C 
BRANCH   2   3
ATOM      3  N   UNL A   1      33.683  30.065  27.780  1.00  0.00    -0.352 N 
ATOM      4  O   UNL A   1      34.380  31.897  28.885  1.00  0.00    -0.269 OA
ATOM      5  C   UNL A   1      34.652  30.790  28.431  1.00  0.00     0.251 C 
ATOM      6  H   UNL A   1      32.849  30.555  27.597  1.00  0.00     0.163 HD
BRANCH   5   7
ATOM      7  C   UNL A   1      36.013  30.239  28.608  1.00  0.00     0.039 A 
ATOM      8  C   UNL A   1      36.404  29.650  29.813  1.00  0.00     0.014 A 
ATOM      9  C   UNL A   1      36.905  30.284  27.531  1.00  0.00     0.014 A 
ATOM     10  C   UNL A   1      37.722  29.234  29.985  1.00  0.00     0.010 A 
ATOM     11  C   UNL A   1      38.207  29.799  27.683  1.00  0.00     0.010 A 
ATOM     12  C   UNL A   1      38.638  29.305  28.923  1.00  0.00    -0.014 A 
BRANCH  12  13
ATOM     13  C   UNL A   1      40.032  28.835  29.125  1.00  0.00     0.031 A 
ATOM     14  C   UNL A   1      40.453  27.455  28.699  1.00  0.00     0.074 A 
ATOM     15  C   UNL A   1      40.936  29.673  29.668  1.00  0.00     0.049 A 
ATOM     16  N   UNL A   1      41.640  26.902  28.751  1.00  0.00    -0.248 NA
ATOM     17  C   UNL A   1      39.407  26.577  28.151  1.00  0.00     0.031 C 
ATOM     18  C   UNL A   1      40.654  31.035  30.127  1.00  0.00     0.029 A 
ATOM     19  N   UNL A   1      42.278  29.512  29.903  1.00  0.00    -0.354 N 
ATOM     20  C   UNL A   1      41.479  25.610  28.267  1.00  0.00     0.074 A 
ATOM     21  C   UNL A   1      40.076  25.451  27.948  1.00  0.00     0.031 C 
ATOM     22  C   UNL A   1      41.798  31.604  30.536  1.00  0.00     0.029 A 
ATOM     23  C   UNL A   1      42.880  30.633  30.418  1.00  0.00     0.049 A 
ATOM     24  H   UNL A   1      42.761  28.674  29.721  1.00  0.00     0.167 HD
ATOM     25  C   UNL A   1      42.415  24.644  28.097  1.00  0.00     0.031 A 
ATOM     26  C   UNL A   1      44.162  30.859  30.759  1.00  0.00     0.031 A 
ATOM     27  C   UNL A   1      43.812  24.801  28.406  1.00  0.00     0.049 A 
ATOM     28  C   UNL A   1      45.175  29.766  30.579  1.00  0.00     0.074 A 
ATOM     29  C   UNL A   1      44.842  23.892  28.229  1.00  0.00     0.029 A 
ATOM     30  N   UNL A   1      44.374  25.939  28.963  1.00  0.00    -0.354 N 
ATOM     31  N   UNL A   1      45.013  28.565  30.081  1.00  0.00    -0.248 NA
ATOM     32  C   UNL A   1      46.548  30.065  31.006  1.00  0.00     0.031 C 
ATOM     33  C   UNL A   1      46.020  24.464  28.723  1.00  0.00     0.029 A 
ATOM     34  C   UNL A   1      45.733  25.747  29.158  1.00  0.00     0.049 A 
ATOM     35  H   UNL A   1      43.881  26.762  29.186  1.00  0.00     0.167 HD
ATOM     36  C   UNL A   1      46.268  27.971  30.112  1.00  0.00     0.074 A 
ATOM     37  C   UNL A   1      47.182  28.951  30.665  1.00  0.00     0.031 C 
ATOM     38  C   UNL A   1      46.630  26.728  29.714  1.00  0.00     0.031 A 
BRANCH  25  39
ATOM     39  C   UNL A   1      41.946  23.313  27.579  1.00  0.00    -0.014 A 
ATOM     40  C   UNL A   1      41.507  22.301  28.448  1.00  0.00     0.009 A 
ATOM     41  C   UNL A   1      41.918  23.076  26.195  1.00  0.00     0.009 A 
ATOM     42  C   UNL A   1      41.087  21.067  27.943  1.00  0.00     0.001 A 
ATOM     43  C   UNL A   1      41.472  21.853  25.692  1.00  0.00     0.001 A 
ATOM     44  C   UNL A   1      41.067  20.845  26.567  1.00  0.00     0.000 A 
ENDBRANCH  25  39
BRANCH  26  45
ATOM     45  C   UNL A   1      44.560  32.187  31.289  1.00  0.00    -0.014 A 
ATOM     46  C   UNL A   1      44.959  33.210  30.415  1.00  0.00     0.009 A 
ATOM     47  C   UNL A   1      44.521  32.446  32.668  1.00  0.00     0.009 A 
ATOM     48  C   UNL A   1      45.326  34.460  30.914  1.00  0.00     0.001 A 
ATOM     49  C   UNL A   1      44.864  33.706  33.160  1.00  0.00     0.001 A 
ATOM     50  C   UNL A   1      45.273  34.710  32.284  1.00  0.00     0.000 A 
ENDBRANCH  26  45
BRANCH  38  51
ATOM     51  C   UNL A   1      48.084  26.371  29.832  1.00  0.00    -0.014 A 
ATOM     52  C   UNL A   1      48.604  25.810  31.008  1.00  0.00     0.009 A 
ATOM     53  C   UNL A   1      48.939  26.580  28.739  1.00  0.00     0.009 A 
ATOM     54  C   UNL A   1      49.963  25.500  31.099  1.00  0.00     0.001 A 
ATOM     55  C   UNL A   1      50.291  26.245  28.824  1.00  0.00     0.001 A 
ATOM     56  C   UNL A   1      50.804  25.715  30.006  1.00  0.00     0.000 A 
ENDBRANCH  38  51
ENDBRANCH  12  13
ENDBRANCH   5   7
ENDBRANCH   2   3
ENDBRANCH   1   2
BRANCH   1  57
ATOM     57  C   UNL A   1      33.227  29.359  24.889  1.00  0.00     0.117 C 
BRANCH  57  58
ATOM     58  N   UNL A   1      33.651  29.183  23.517  1.00  0.00    -0.355 N 
ATOM     59  C   UNL A   1      33.779  28.060  22.759  1.00  0.00     0.238 C 
ATOM     60  H   UNL A   1      33.886  30.018  23.051  1.00  0.00     0.163 HD
ATOM     61  O   UNL A   1      34.365  28.210  21.681  1.00  0.00    -0.273 OA
BRANCH  59  62
ATOM     62  C   UNL A   1      33.122  26.724  23.145  1.00  0.00     0.162 C 
ATOM     63  C   UNL A   1      31.633  26.933  23.424  1.00  0.00     0.032 C 
ATOM     64  N   UNL A   1      33.131  25.663  22.091  1.00  0.00    -0.185 NA
ATOM     65  C   UNL A   1      31.024  26.882  22.035  1.00  0.00     0.019 C 
ATOM     66  C   UNL A   1      31.907  25.916  21.250  1.00  0.00     0.103 C 
BRANCH  64  67
ATOM     67  S   UNL A   1      33.182  24.024  22.637  1.00  0.00     0.245 S 
ATOM     68  O   UNL A   1      31.992  23.763  23.418  1.00  0.00    -0.207 OA
ATOM     69  O   UNL A   1      33.438  23.227  21.455  1.00  0.00    -0.207 OA
BRANCH  67  70
ATOM     70  C   UNL A   1      34.621  23.881  23.672  1.00  0.00     0.101 A 
ATOM     71  C   UNL A   1      35.752  23.264  23.100  1.00  0.00     0.023 A 
ATOM     72  C   UNL A   1      34.643  24.225  25.026  1.00  0.00     0.061 A 
ATOM     73  C   UNL A   1      36.904  23.043  23.857  1.00  0.00     0.002 A 
ATOM     74  C   UNL A   1      35.820  24.029  25.767  1.00  0.00     0.022 A 
ATOM     75  Cl  UNL A   1      33.317  24.883  25.917  1.00  0.00    -0.083 Cl
ATOM     76  C   UNL A   1      36.944  23.441  25.187  1.00  0.00     0.002 A 
ENDBRANCH  67  70
ENDBRANCH  64  67
ENDBRANCH  59  62
ENDBRANCH  57  58
ENDBRANCH   1  57
TORSDOF 12
ENDMDL
