MODEL 1
REMARK VINA RESULT:     -11.9      0.000      0.000
REMARK SMILES O=C(NCCCNC(=O)c1ccc(-c2c3nc(c(-c4ccccc4)c4ccc([nH]4)c(-c4ccccc4)c4nc(c(-c5ccccc5)c5ccc2[nH]5)C=C4)C=C3)cc1)c1ccc(Nc2ccc(F)cc2[N+](=O)[O-])cc1
REMARK SMILES IDX 4 1 3 2 1 3 2 4 58 6 59 7 74 8 60 9 73 10 61 11 62 12 63 14
REMARK SMILES IDX 64 15 69 16 65 17 68 18 66 19 67 20 70 21 71 22 72 23 5 24
REMARK SMILES IDX 6 25 7 26 8 27 9 29 10 30 11 31 57 32 12 33 56 34 13 35
REMARK SMILES IDX 14 36 15 37 50 38 16 39 55 40 49 41 51 42 17 43 54 44 48 45
REMARK SMILES IDX 47 46 18 48 40 49 25 50 39 51 26 52 29 53 38 54 52 55 27 56
REMARK SMILES IDX 28 57 37 59 53 60 30 61 19 62 20 63 24 64 21 65 23 66 22 67
REMARK SMILES IDX 41 68 42 69 46 70 43 71 45 72 44 73 31 74 32 75 36 76 33 77
REMARK SMILES IDX 35 78 34 79
REMARK H PARENT 3 5 62 13 7 28 51 47 29 58
REMARK Flexibility Score: inf
ROOT
ATOM      1  C   UNL A   1      35.690  21.148  25.333  1.00  0.00     0.118 C 
ENDROOT
BRANCH   1   2
ATOM      2  N   UNL A   1      34.845  19.968  25.475  1.00  0.00    -0.352 N 
ATOM      3  O   UNL A   1      32.920  18.808  25.659  1.00  0.00    -0.269 OA
ATOM      4  C   UNL A   1      33.491  19.828  25.284  1.00  0.00     0.251 C 
ATOM      5  H   UNL A   1      35.315  19.149  25.749  1.00  0.00     0.163 HD
BRANCH   4   6
ATOM      6  C   UNL A   1      32.721  20.916  24.650  1.00  0.00     0.039 A 
ATOM      7  C   UNL A   1      32.601  20.979  23.264  1.00  0.00     0.016 A 
ATOM      8  C   UNL A   1      32.117  21.892  25.443  1.00  0.00     0.016 A 
ATOM      9  C   UNL A   1      32.022  22.093  22.668  1.00  0.00     0.027 A 
ATOM     10  C   UNL A   1      31.467  22.973  24.835  1.00  0.00     0.027 A 
ATOM     11  C   UNL A   1      31.444  23.108  23.438  1.00  0.00     0.039 A 
BRANCH  11  12
ATOM     12  N   UNL A   1      30.808  24.223  22.858  1.00  0.00    -0.350 N 
ATOM     13  H   UNL A   1      30.077  24.012  22.233  1.00  0.00     0.167 HD
BRANCH  12  14
ATOM     14  C   UNL A   1      31.066  25.596  23.041  1.00  0.00     0.118 A 
ATOM     15  C   UNL A   1      30.121  26.334  23.776  1.00  0.00     0.036 A 
ATOM     16  C   UNL A   1      32.256  26.257  22.680  1.00  0.00     0.295 A 
ATOM     17  C   UNL A   1      30.376  27.653  24.164  1.00  0.00     0.042 A 
ATOM     18  C   UNL A   1      32.532  27.573  23.078  1.00  0.00     0.127 A 
ATOM     19  C   UNL A   1      31.584  28.251  23.825  1.00  0.00     0.130 A 
ATOM     20  F   UNL A   1      31.834  29.504  24.224  1.00  0.00    -0.207 F 
BRANCH  16  21
ATOM     21  N   UNL A   1      33.236  25.619  21.816  1.00  0.00     0.065 N 
ATOM     22  O   UNL A   1      33.120  25.822  20.597  1.00  0.00    -0.258 OA
ATOM     23  O   UNL A   1      34.072  24.875  22.344  1.00  0.00    -0.258 OA
ENDBRANCH  16  21
ENDBRANCH  12  14
ENDBRANCH  11  12
ENDBRANCH   4   6
ENDBRANCH   1   2
BRANCH   1  24
ATOM     24  C   UNL A   1      37.004  20.840  24.636  1.00  0.00     0.042 C 
BRANCH  24  25
ATOM     25  C   UNL A   1      38.225  21.098  25.503  1.00  0.00     0.118 C 
BRANCH  25  26
ATOM     26  N   UNL A   1      39.138  19.961  25.543  1.00  0.00    -0.352 N 
ATOM     27  C   UNL A   1      40.460  19.900  25.912  1.00  0.00     0.251 C 
ATOM     28  H   UNL A   1      38.745  19.103  25.262  1.00  0.00     0.163 HD
ATOM     29  O   UNL A   1      41.113  18.882  25.705  1.00  0.00    -0.269 OA
BRANCH  27  30
ATOM     30  C   UNL A   1      41.104  21.076  26.532  1.00  0.00     0.039 A 
ATOM     31  C   UNL A   1      41.729  22.023  25.715  1.00  0.00     0.014 A 
ATOM     32  C   UNL A   1      41.075  21.253  27.916  1.00  0.00     0.014 A 
ATOM     33  C   UNL A   1      42.237  23.195  26.280  1.00  0.00     0.010 A 
ATOM     34  C   UNL A   1      41.493  22.458  28.464  1.00  0.00     0.010 A 
ATOM     35  C   UNL A   1      42.074  23.444  27.651  1.00  0.00    -0.014 A 
BRANCH  35  36
ATOM     36  C   UNL A   1      42.494  24.721  28.280  1.00  0.00     0.031 A 
ATOM     37  C   UNL A   1      41.480  25.812  28.495  1.00  0.00     0.074 A 
ATOM     38  C   UNL A   1      43.794  24.943  28.548  1.00  0.00     0.049 A 
ATOM     39  N   UNL A   1      41.670  27.056  28.851  1.00  0.00    -0.248 NA
ATOM     40  C   UNL A   1      40.073  25.463  28.240  1.00  0.00     0.031 C 
ATOM     41  C   UNL A   1      44.881  23.982  28.358  1.00  0.00     0.029 A 
ATOM     42  N   UNL A   1      44.426  26.068  29.019  1.00  0.00    -0.354 N 
ATOM     43  C   UNL A   1      40.412  27.647  28.826  1.00  0.00     0.074 A 
ATOM     44  C   UNL A   1      39.476  26.637  28.384  1.00  0.00     0.031 C 
ATOM     45  C   UNL A   1      46.041  24.550  28.726  1.00  0.00     0.029 A 
ATOM     46  C   UNL A   1      45.788  25.930  29.126  1.00  0.00     0.049 A 
ATOM     47  H   UNL A   1      43.947  26.896  29.257  1.00  0.00     0.167 HD
ATOM     48  C   UNL A   1      40.065  28.914  29.154  1.00  0.00     0.031 A 
ATOM     49  C   UNL A   1      46.732  26.821  29.486  1.00  0.00     0.031 A 
ATOM     50  C   UNL A   1      40.991  29.909  29.620  1.00  0.00     0.049 A 
ATOM     51  C   UNL A   1      46.323  28.223  29.839  1.00  0.00     0.074 A 
ATOM     52  C   UNL A   1      40.729  31.203  30.035  1.00  0.00     0.029 A 
ATOM     53  N   UNL A   1      42.359  29.717  29.739  1.00  0.00    -0.354 N 
ATOM     54  N   UNL A   1      45.126  28.755  29.850  1.00  0.00    -0.248 NA
ATOM     55  C   UNL A   1      47.398  29.146  30.231  1.00  0.00     0.031 C 
ATOM     56  C   UNL A   1      41.945  31.807  30.370  1.00  0.00     0.029 A 
ATOM     57  C   UNL A   1      42.956  30.875  30.208  1.00  0.00     0.049 A 
ATOM     58  H   UNL A   1      42.834  28.883  29.524  1.00  0.00     0.167 HD
ATOM     59  C   UNL A   1      45.298  30.064  30.278  1.00  0.00     0.074 A 
ATOM     60  C   UNL A   1      46.715  30.245  30.523  1.00  0.00     0.031 C 
ATOM     61  C   UNL A   1      44.365  31.031  30.455  1.00  0.00     0.031 A 
BRANCH  48  62
ATOM     62  C   UNL A   1      38.619  29.291  29.011  1.00  0.00    -0.014 A 
ATOM     63  C   UNL A   1      38.107  29.763  27.793  1.00  0.00     0.009 A 
ATOM     64  C   UNL A   1      37.751  29.149  30.105  1.00  0.00     0.009 A 
ATOM     65  C   UNL A   1      36.762  30.124  27.683  1.00  0.00     0.001 A 
ATOM     66  C   UNL A   1      36.401  29.483  29.985  1.00  0.00     0.001 A 
ATOM     67  C   UNL A   1      35.910  29.980  28.778  1.00  0.00     0.000 A 
ENDBRANCH  48  62
BRANCH  49  68
ATOM     68  C   UNL A   1      48.159  26.413  29.538  1.00  0.00    -0.014 A 
ATOM     69  C   UNL A   1      48.698  25.875  30.716  1.00  0.00     0.009 A 
ATOM     70  C   UNL A   1      48.989  26.558  28.415  1.00  0.00     0.009 A 
ATOM     71  C   UNL A   1      50.045  25.514  30.779  1.00  0.00     0.001 A 
ATOM     72  C   UNL A   1      50.331  26.172  28.473  1.00  0.00     0.001 A 
ATOM     73  C   UNL A   1      50.859  25.658  29.656  1.00  0.00     0.000 A 
ENDBRANCH  49  68
BRANCH  61  74
ATOM     74  C   UNL A   1      44.837  32.356  30.980  1.00  0.00    -0.014 A 
ATOM     75  C   UNL A   1      45.202  33.394  30.111  1.00  0.00     0.009 A 
ATOM     76  C   UNL A   1      44.856  32.582  32.365  1.00  0.00     0.009 A 
ATOM     77  C   UNL A   1      45.599  34.631  30.623  1.00  0.00     0.001 A 
ATOM     78  C   UNL A   1      45.230  33.827  32.872  1.00  0.00     0.001 A 
ATOM     79  C   UNL A   1      45.607  34.848  32.001  1.00  0.00     0.000 A 
ENDBRANCH  61  74
ENDBRANCH  35  36
ENDBRANCH  27  30
ENDBRANCH  25  26
ENDBRANCH  24  25
ENDBRANCH   1  24
TORSDOF 13
ENDMDL
MODEL 2
REMARK VINA RESULT:     -11.7      1.357      6.234
REMARK SMILES O=C(NCCCNC(=O)c1ccc(-c2c3nc(c(-c4ccccc4)c4ccc([nH]4)c(-c4ccccc4)c4nc(c(-c5ccccc5)c5ccc2[nH]5)C=C4)C=C3)cc1)c1ccc(Nc2ccc(F)cc2[N+](=O)[O-])cc1
REMARK SMILES IDX 4 1 3 2 1 3 2 4 58 6 59 7 74 8 60 9 73 10 61 11 62 12 63 14
REMARK SMILES IDX 64 15 69 16 65 17 68 18 66 19 67 20 70 21 71 22 72 23 5 24
REMARK SMILES IDX 6 25 7 26 8 27 9 29 10 30 11 31 57 32 12 33 56 34 13 35
REMARK SMILES IDX 14 36 15 37 50 38 16 39 55 40 49 41 51 42 17 43 54 44 48 45
REMARK SMILES IDX 47 46 18 48 40 49 25 50 39 51 26 52 29 53 38 54 52 55 27 56
REMARK SMILES IDX 28 57 37 59 53 60 30 61 19 62 20 63 24 64 21 65 23 66 22 67
REMARK SMILES IDX 41 68 42 69 46 70 43 71 45 72 44 73 31 74 32 75 36 76 33 77
REMARK SMILES IDX 35 78 34 79
REMARK H PARENT 3 5 62 13 7 28 51 47 29 58
REMARK Flexibility Score: inf
ROOT
ATOM      1  C   UNL A   1      36.689  20.885  24.810  1.00  0.00     0.118 C 
ENDROOT
BRANCH   1   2
ATOM      2  N   UNL A   1      35.338  20.431  25.117  1.00  0.00    -0.352 N 
ATOM      3  O   UNL A   1      33.173  20.624  25.721  1.00  0.00    -0.269 OA
ATOM      4  C   UNL A   1      34.175  21.152  25.248  1.00  0.00     0.251 C 
ATOM      5  H   UNL A   1      35.244  19.461  25.253  1.00  0.00     0.163 HD
BRANCH   4   6
ATOM      6  C   UNL A   1      34.141  22.571  24.840  1.00  0.00     0.039 A 
ATOM      7  C   UNL A   1      34.315  23.579  25.784  1.00  0.00     0.016 A 
ATOM      8  C   UNL A   1      33.927  22.903  23.502  1.00  0.00     0.016 A 
ATOM      9  C   UNL A   1      34.114  24.907  25.424  1.00  0.00     0.027 A 
ATOM     10  C   UNL A   1      33.803  24.248  23.134  1.00  0.00     0.027 A 
ATOM     11  C   UNL A   1      33.857  25.267  24.097  1.00  0.00     0.039 A 
BRANCH  11  12
ATOM     12  N   UNL A   1      33.699  26.609  23.699  1.00  0.00    -0.350 N 
ATOM     13  H   UNL A   1      34.162  26.858  22.867  1.00  0.00     0.167 HD
BRANCH  12  14
ATOM     14  C   UNL A   1      32.974  27.647  24.318  1.00  0.00     0.118 A 
ATOM     15  C   UNL A   1      33.656  28.428  25.267  1.00  0.00     0.036 A 
ATOM     16  C   UNL A   1      31.676  28.061  23.960  1.00  0.00     0.295 A 
ATOM     17  C   UNL A   1      33.082  29.588  25.798  1.00  0.00     0.042 A 
ATOM     18  C   UNL A   1      31.096  29.230  24.471  1.00  0.00     0.127 A 
ATOM     19  C   UNL A   1      31.816  29.984  25.382  1.00  0.00     0.130 A 
ATOM     20  F   UNL A   1      31.284  31.109  25.873  1.00  0.00    -0.207 F 
BRANCH  16  21
ATOM     21  N   UNL A   1      30.846  27.252  23.082  1.00  0.00     0.065 N 
ATOM     22  O   UNL A   1      30.620  26.087  23.447  1.00  0.00    -0.258 OA
ATOM     23  O   UNL A   1      30.477  27.755  22.013  1.00  0.00    -0.258 OA
ENDBRANCH  16  21
ENDBRANCH  12  14
ENDBRANCH  11  12
ENDBRANCH   4   6
ENDBRANCH   1   2
BRANCH   1  24
ATOM     24  C   UNL A   1      37.737  19.825  25.103  1.00  0.00     0.042 C 
BRANCH  24  25
ATOM     25  C   UNL A   1      39.001  20.383  25.736  1.00  0.00     0.118 C 
BRANCH  25  26
ATOM     26  N   UNL A   1      40.064  19.390  25.838  1.00  0.00    -0.352 N 
ATOM     27  C   UNL A   1      41.395  19.547  26.140  1.00  0.00     0.251 C 
ATOM     28  H   UNL A   1      39.785  18.462  25.663  1.00  0.00     0.163 HD
ATOM     29  O   UNL A   1      42.176  18.610  25.999  1.00  0.00    -0.269 OA
BRANCH  27  30
ATOM     30  C   UNL A   1      41.893  20.857  26.608  1.00  0.00     0.039 A 
ATOM     31  C   UNL A   1      42.389  21.772  25.674  1.00  0.00     0.014 A 
ATOM     32  C   UNL A   1      41.852  21.189  27.962  1.00  0.00     0.014 A 
ATOM     33  C   UNL A   1      42.752  23.055  26.090  1.00  0.00     0.010 A 
ATOM     34  C   UNL A   1      42.121  22.491  28.360  1.00  0.00     0.010 A 
ATOM     35  C   UNL A   1      42.569  23.440  27.427  1.00  0.00    -0.014 A 
BRANCH  35  36
ATOM     36  C   UNL A   1      42.831  24.823  27.896  1.00  0.00     0.031 A 
ATOM     37  C   UNL A   1      44.217  25.208  28.336  1.00  0.00     0.074 A 
ATOM     38  C   UNL A   1      41.811  25.690  28.037  1.00  0.00     0.049 A 
ATOM     39  N   UNL A   1      44.618  26.293  28.948  1.00  0.00    -0.248 NA
ATOM     40  C   UNL A   1      45.285  24.227  28.086  1.00  0.00     0.031 C 
ATOM     41  C   UNL A   1      40.416  25.433  27.676  1.00  0.00     0.029 A 
ATOM     42  N   UNL A   1      41.791  26.965  28.547  1.00  0.00    -0.354 N 
ATOM     43  C   UNL A   1      45.973  26.107  29.189  1.00  0.00     0.074 A 
ATOM     44  C   UNL A   1      46.317  24.793  28.692  1.00  0.00     0.031 C 
ATOM     45  C   UNL A   1      39.680  26.519  27.959  1.00  0.00     0.029 A 
ATOM     46  C   UNL A   1      40.539  27.529  28.568  1.00  0.00     0.049 A 
ATOM     47  H   UNL A   1      42.598  27.430  28.868  1.00  0.00     0.167 HD
ATOM     48  C   UNL A   1      46.857  26.959  29.760  1.00  0.00     0.031 A 
ATOM     49  C   UNL A   1      40.124  28.719  29.044  1.00  0.00     0.031 A 
ATOM     50  C   UNL A   1      46.521  28.276  30.228  1.00  0.00     0.049 A 
ATOM     51  C   UNL A   1      41.122  29.645  29.681  1.00  0.00     0.074 A 
ATOM     52  C   UNL A   1      47.357  29.238  30.767  1.00  0.00     0.029 A 
ATOM     53  N   UNL A   1      45.245  28.817  30.205  1.00  0.00    -0.354 N 
ATOM     54  N   UNL A   1      42.408  29.472  29.864  1.00  0.00    -0.248 NA
ATOM     55  C   UNL A   1      40.609  30.932  30.173  1.00  0.00     0.031 C 
ATOM     56  C   UNL A   1      46.578  30.350  31.105  1.00  0.00     0.029 A 
ATOM     57  C   UNL A   1      45.268  30.096  30.734  1.00  0.00     0.049 A 
ATOM     58  H   UNL A   1      44.443  28.361  29.863  1.00  0.00     0.167 HD
ATOM     59  C   UNL A   1      42.864  30.637  30.465  1.00  0.00     0.074 A 
ATOM     60  C   UNL A   1      41.718  31.512  30.610  1.00  0.00     0.031 C 
ATOM     61  C   UNL A   1      44.120  30.955  30.860  1.00  0.00     0.031 A 
BRANCH  48  62
ATOM     62  C   UNL A   1      48.273  26.483  29.914  1.00  0.00    -0.014 A 
ATOM     63  C   UNL A   1      48.681  25.773  31.053  1.00  0.00     0.009 A 
ATOM     64  C   UNL A   1      49.205  26.728  28.894  1.00  0.00     0.009 A 
ATOM     65  C   UNL A   1      50.006  25.351  31.187  1.00  0.00     0.001 A 
ATOM     66  C   UNL A   1      50.521  26.280  29.017  1.00  0.00     0.001 A 
ATOM     67  C   UNL A   1      50.923  25.602  30.167  1.00  0.00     0.000 A 
ENDBRANCH  48  62
BRANCH  49  68
ATOM     68  C   UNL A   1      38.695  29.108  28.932  1.00  0.00    -0.014 A 
ATOM     69  C   UNL A   1      38.179  29.557  27.707  1.00  0.00     0.009 A 
ATOM     70  C   UNL A   1      37.841  29.034  30.044  1.00  0.00     0.009 A 
ATOM     71  C   UNL A   1      36.843  29.948  27.602  1.00  0.00     0.001 A 
ATOM     72  C   UNL A   1      36.498  29.402  29.929  1.00  0.00     0.001 A 
ATOM     73  C   UNL A   1      36.002  29.865  28.712  1.00  0.00     0.000 A 
ENDBRANCH  49  68
BRANCH  61  74
ATOM     74  C   UNL A   1      44.334  32.321  31.444  1.00  0.00    -0.014 A 
ATOM     75  C   UNL A   1      44.251  32.542  32.826  1.00  0.00     0.009 A 
ATOM     76  C   UNL A   1      44.684  33.386  30.599  1.00  0.00     0.009 A 
ATOM     77  C   UNL A   1      44.493  33.814  33.349  1.00  0.00     0.001 A 
ATOM     78  C   UNL A   1      44.950  34.649  31.128  1.00  0.00     0.001 A 
ATOM     79  C   UNL A   1      44.848  34.863  32.502  1.00  0.00     0.000 A 
ENDBRANCH  61  74
ENDBRANCH  35  36
ENDBRANCH  27  30
ENDBRANCH  25  26
ENDBRANCH  24  25
ENDBRANCH   1  24
TORSDOF 13
ENDMDL
MODEL 3
REMARK VINA RESULT:     -11.6      3.502      8.633
REMARK SMILES O=C(NCCCNC(=O)c1ccc(-c2c3nc(c(-c4ccccc4)c4ccc([nH]4)c(-c4ccccc4)c4nc(c(-c5ccccc5)c5ccc2[nH]5)C=C4)C=C3)cc1)c1ccc(Nc2ccc(F)cc2[N+](=O)[O-])cc1
REMARK SMILES IDX 4 1 3 2 1 3 2 4 58 6 59 7 74 8 60 9 73 10 61 11 62 12 63 14
REMARK SMILES IDX 64 15 69 16 65 17 68 18 66 19 67 20 70 21 71 22 72 23 5 24
REMARK SMILES IDX 6 25 7 26 8 27 9 29 10 30 11 31 57 32 12 33 56 34 13 35
REMARK SMILES IDX 14 36 15 37 50 38 16 39 55 40 49 41 51 42 17 43 54 44 48 45
REMARK SMILES IDX 47 46 18 48 40 49 25 50 39 51 26 52 29 53 38 54 52 55 27 56
REMARK SMILES IDX 28 57 37 59 53 60 30 61 19 62 20 63 24 64 21 65 23 66 22 67
REMARK SMILES IDX 41 68 42 69 46 70 43 71 45 72 44 73 31 74 32 75 36 76 33 77
REMARK SMILES IDX 35 78 34 79
REMARK H PARENT 3 5 62 13 7 28 51 47 29 58
REMARK Flexibility Score: inf
ROOT
ATOM      1  C   UNL A   1      31.885  29.650  25.172  1.00  0.00     0.118 C 
ENDROOT
BRANCH   1   2
ATOM      2  N   UNL A   1      30.872  30.006  24.185  1.00  0.00    -0.352 N 
ATOM      3  O   UNL A   1      29.583  29.749  22.352  1.00  0.00    -0.269 OA
ATOM      4  C   UNL A   1      30.254  29.226  23.236  1.00  0.00     0.251 C 
ATOM      5  H   UNL A   1      30.588  30.948  24.199  1.00  0.00     0.163 HD
BRANCH   4   6
ATOM      6  C   UNL A   1      30.419  27.759  23.271  1.00  0.00     0.039 A 
ATOM      7  C   UNL A   1      29.678  26.988  24.163  1.00  0.00     0.016 A 
ATOM      8  C   UNL A   1      31.328  27.142  22.410  1.00  0.00     0.016 A 
ATOM      9  C   UNL A   1      29.959  25.634  24.308  1.00  0.00     0.027 A 
ATOM     10  C   UNL A   1      31.549  25.763  22.510  1.00  0.00     0.027 A 
ATOM     11  C   UNL A   1      30.895  24.996  23.486  1.00  0.00     0.039 A 
BRANCH  11  12
ATOM     12  N   UNL A   1      31.162  23.616  23.581  1.00  0.00    -0.350 N 
ATOM     13  H   UNL A   1      30.557  23.035  23.066  1.00  0.00     0.167 HD
BRANCH  12  14
ATOM     14  C   UNL A   1      32.168  22.947  24.305  1.00  0.00     0.118 A 
ATOM     15  C   UNL A   1      33.354  22.634  23.616  1.00  0.00     0.036 A 
ATOM     16  C   UNL A   1      32.147  22.700  25.691  1.00  0.00     0.295 A 
ATOM     17  C   UNL A   1      34.473  22.137  24.292  1.00  0.00     0.042 A 
ATOM     18  C   UNL A   1      33.267  22.219  26.383  1.00  0.00     0.127 A 
ATOM     19  C   UNL A   1      34.423  21.951  25.668  1.00  0.00     0.130 A 
ATOM     20  F   UNL A   1      35.506  21.502  26.313  1.00  0.00    -0.207 F 
BRANCH  16  21
ATOM     21  N   UNL A   1      30.929  22.874  26.466  1.00  0.00     0.065 N 
ATOM     22  O   UNL A   1      29.995  22.095  26.219  1.00  0.00    -0.258 OA
ATOM     23  O   UNL A   1      30.885  23.817  27.266  1.00  0.00    -0.258 OA
ENDBRANCH  16  21
ENDBRANCH  12  14
ENDBRANCH  11  12
ENDBRANCH   4   6
ENDBRANCH   1   2
BRANCH   1  24
ATOM     24  C   UNL A   1      31.645  30.317  26.515  1.00  0.00     0.042 C 
BRANCH  24  25
ATOM     25  C   UNL A   1      32.807  31.180  26.979  1.00  0.00     0.118 C 
BRANCH  25  26
ATOM     26  N   UNL A   1      32.408  32.553  27.264  1.00  0.00    -0.352 N 
ATOM     27  C   UNL A   1      33.015  33.506  28.046  1.00  0.00     0.251 C 
ATOM     28  H   UNL A   1      31.575  32.844  26.827  1.00  0.00     0.163 HD
ATOM     29  O   UNL A   1      32.430  34.553  28.310  1.00  0.00    -0.269 OA
BRANCH  27  30
ATOM     30  C   UNL A   1      34.363  33.256  28.596  1.00  0.00     0.039 A 
ATOM     31  C   UNL A   1      34.489  32.599  29.823  1.00  0.00     0.014 A 
ATOM     32  C   UNL A   1      35.501  33.652  27.891  1.00  0.00     0.014 A 
ATOM     33  C   UNL A   1      35.758  32.253  30.294  1.00  0.00     0.010 A 
ATOM     34  C   UNL A   1      36.753  33.225  28.311  1.00  0.00     0.010 A 
ATOM     35  C   UNL A   1      36.895  32.517  29.515  1.00  0.00    -0.014 A 
BRANCH  35  36
ATOM     36  C   UNL A   1      38.251  32.069  29.916  1.00  0.00     0.031 A 
ATOM     37  C   UNL A   1      38.785  30.760  29.403  1.00  0.00     0.074 A 
ATOM     38  C   UNL A   1      38.951  32.775  30.825  1.00  0.00     0.049 A 
ATOM     39  N   UNL A   1      39.853  30.102  29.772  1.00  0.00    -0.248 NA
ATOM     40  C   UNL A   1      37.989  30.087  28.364  1.00  0.00     0.031 C 
ATOM     41  C   UNL A   1      38.536  34.045  31.424  1.00  0.00     0.029 A 
ATOM     42  N   UNL A   1      40.158  32.507  31.423  1.00  0.00    -0.354 N 
ATOM     43  C   UNL A   1      39.837  28.922  29.038  1.00  0.00     0.074 A 
ATOM     44  C   UNL A   1      38.635  28.938  28.233  1.00  0.00     0.031 C 
ATOM     45  C   UNL A   1      39.478  34.454  32.288  1.00  0.00     0.029 A 
ATOM     46  C   UNL A   1      40.537  33.452  32.344  1.00  0.00     0.049 A 
ATOM     47  H   UNL A   1      40.700  31.712  31.211  1.00  0.00     0.167 HD
ATOM     48  C   UNL A   1      40.748  27.920  29.025  1.00  0.00     0.031 A 
ATOM     49  C   UNL A   1      41.608  33.497  33.160  1.00  0.00     0.031 A 
ATOM     50  C   UNL A   1      41.956  27.918  29.804  1.00  0.00     0.049 A 
ATOM     51  C   UNL A   1      42.601  32.370  33.133  1.00  0.00     0.074 A 
ATOM     52  C   UNL A   1      42.971  26.978  29.815  1.00  0.00     0.029 A 
ATOM     53  N   UNL A   1      42.313  28.908  30.704  1.00  0.00    -0.354 N 
ATOM     54  N   UNL A   1      42.594  31.281  32.404  1.00  0.00    -0.248 NA
ATOM     55  C   UNL A   1      43.753  32.481  34.040  1.00  0.00     0.031 C 
ATOM     56  C   UNL A   1      43.927  27.382  30.753  1.00  0.00     0.029 A 
ATOM     57  C   UNL A   1      43.528  28.596  31.289  1.00  0.00     0.049 A 
ATOM     58  H   UNL A   1      41.783  29.714  30.899  1.00  0.00     0.167 HD
ATOM     59  C   UNL A   1      43.750  30.592  32.742  1.00  0.00     0.074 A 
ATOM     60  C   UNL A   1      44.440  31.388  33.736  1.00  0.00     0.031 C 
ATOM     61  C   UNL A   1      44.203  29.406  32.268  1.00  0.00     0.031 A 
BRANCH  48  62
ATOM     62  C   UNL A   1      40.462  26.740  28.141  1.00  0.00    -0.014 A 
ATOM     63  C   UNL A   1      40.997  26.656  26.847  1.00  0.00     0.009 A 
ATOM     64  C   UNL A   1      39.665  25.688  28.619  1.00  0.00     0.009 A 
ATOM     65  C   UNL A   1      40.708  25.559  26.032  1.00  0.00     0.001 A 
ATOM     66  C   UNL A   1      39.402  24.579  27.813  1.00  0.00     0.001 A 
ATOM     67  C   UNL A   1      39.914  24.520  26.518  1.00  0.00     0.000 A 
ENDBRANCH  48  62
BRANCH  49  68
ATOM     68  C   UNL A   1      41.802  34.655  34.069  1.00  0.00    -0.014 A 
ATOM     69  C   UNL A   1      42.484  35.797  33.624  1.00  0.00     0.009 A 
ATOM     70  C   UNL A   1      41.311  34.626  35.384  1.00  0.00     0.009 A 
ATOM     71  C   UNL A   1      42.691  36.878  34.482  1.00  0.00     0.001 A 
ATOM     72  C   UNL A   1      41.498  35.720  36.233  1.00  0.00     0.001 A 
ATOM     73  C   UNL A   1      42.194  36.841  35.785  1.00  0.00     0.000 A 
ENDBRANCH  49  68
BRANCH  61  74
ATOM     74  C   UNL A   1      45.526  28.918  32.783  1.00  0.00    -0.014 A 
ATOM     75  C   UNL A   1      45.605  28.074  33.900  1.00  0.00     0.009 A 
ATOM     76  C   UNL A   1      46.702  29.263  32.100  1.00  0.00     0.009 A 
ATOM     77  C   UNL A   1      46.844  27.600  34.336  1.00  0.00     0.001 A 
ATOM     78  C   UNL A   1      47.936  28.768  32.524  1.00  0.00     0.001 A 
ATOM     79  C   UNL A   1      48.006  27.942  33.645  1.00  0.00     0.000 A 
ENDBRANCH  61  74
ENDBRANCH  35  36
ENDBRANCH  27  30
ENDBRANCH  25  26
ENDBRANCH  24  25
ENDBRANCH   1  24
TORSDOF 13
ENDMDL
