MODEL 1
REMARK VINA RESULT:     -11.3      0.000      0.000
REMARK SMILES O=C(NCCCNC(=O)[C@@H](c1ccccc1)[C@H](C(=O)c1ccccc1)c1ccccc1)c1ccc(-c2c3nc(c(-c4ccccc4)c4ccc([nH]4)c(-c4ccccc4)c4nc(c(-c5ccccc5)c5ccc2[nH]5)C=C4)C=C3)cc1
REMARK SMILES IDX 5 1 4 2 3 3 1 4 2 5 32 7 33 8 79 9 34 10 78 11 35 12 36 13
REMARK SMILES IDX 37 14 72 15 38 16 77 17 71 18 73 19 39 20 76 21 70 22 69 23
REMARK SMILES IDX 40 25 62 26 47 27 61 28 48 29 51 30 60 31 74 32 49 33 50 34
REMARK SMILES IDX 59 36 75 37 52 38 41 39 42 40 46 41 43 42 45 43 44 44 63 45
REMARK SMILES IDX 64 46 68 47 65 48 67 49 66 50 53 51 54 52 58 53 55 54 57 55
REMARK SMILES IDX 56 56 6 57 7 58 8 59 9 61 10 62 11 63 12 64 16 65 13 66
REMARK SMILES IDX 15 67 14 68 17 69 26 70 27 71 31 72 28 73 30 74 29 75 18 76
REMARK SMILES IDX 19 77 20 78 21 79 25 80 22 81 24 82 23 83
REMARK H PARENT 3 6 73 24 51 35 7 60
REMARK Flexibility Score: inf
ROOT
ATOM      1  C   UNL A   1      34.223  28.353  25.835  1.00  0.00     0.042 C 
ENDROOT
BRANCH   1   2
ATOM      2  C   UNL A   1      33.724  28.562  27.248  1.00  0.00     0.118 C 
BRANCH   2   3
ATOM      3  N   UNL A   1      33.703  29.975  27.611  1.00  0.00    -0.352 N 
ATOM      4  O   UNL A   1      34.260  31.825  28.754  1.00  0.00    -0.269 OA
ATOM      5  C   UNL A   1      34.607  30.737  28.309  1.00  0.00     0.251 C 
ATOM      6  H   UNL A   1      32.906  30.466  27.306  1.00  0.00     0.163 HD
BRANCH   5   7
ATOM      7  C   UNL A   1      35.985  30.248  28.532  1.00  0.00     0.039 A 
ATOM      8  C   UNL A   1      36.961  30.384  27.545  1.00  0.00     0.014 A 
ATOM      9  C   UNL A   1      36.319  29.691  29.769  1.00  0.00     0.014 A 
ATOM     10  C   UNL A   1      38.209  29.805  27.715  1.00  0.00     0.010 A 
ATOM     11  C   UNL A   1      37.615  29.224  29.988  1.00  0.00     0.010 A 
ATOM     12  C   UNL A   1      38.560  29.252  28.950  1.00  0.00    -0.014 A 
BRANCH  12  13
ATOM     13  C   UNL A   1      39.944  28.775  29.170  1.00  0.00     0.031 A 
ATOM     14  C   UNL A   1      40.990  29.693  29.723  1.00  0.00     0.074 A 
ATOM     15  C   UNL A   1      40.249  27.505  28.841  1.00  0.00     0.049 A 
ATOM     16  N   UNL A   1      42.270  29.479  29.886  1.00  0.00    -0.248 NA
ATOM     17  C   UNL A   1      40.545  31.034  30.136  1.00  0.00     0.031 C 
ATOM     18  C   UNL A   1      39.304  26.518  28.310  1.00  0.00     0.029 A 
ATOM     19  N   UNL A   1      41.438  26.829  28.898  1.00  0.00    -0.354 N 
ATOM     20  C   UNL A   1      42.790  30.666  30.384  1.00  0.00     0.074 A 
ATOM     21  C   UNL A   1      41.691  31.603  30.478  1.00  0.00     0.031 C 
ATOM     22  C   UNL A   1      39.944  25.360  28.109  1.00  0.00     0.029 A 
ATOM     23  C   UNL A   1      41.356  25.545  28.416  1.00  0.00     0.049 A 
ATOM     24  H   UNL A   1      42.269  27.222  29.249  1.00  0.00     0.167 HD
ATOM     25  C   UNL A   1      44.071  30.944  30.726  1.00  0.00     0.031 A 
ATOM     26  C   UNL A   1      42.316  24.630  28.199  1.00  0.00     0.031 A 
ATOM     27  C   UNL A   1      45.154  30.003  30.612  1.00  0.00     0.049 A 
ATOM     28  C   UNL A   1      43.735  24.979  28.529  1.00  0.00     0.074 A 
ATOM     29  C   UNL A   1      46.484  30.171  30.956  1.00  0.00     0.029 A 
ATOM     30  N   UNL A   1      45.031  28.717  30.104  1.00  0.00    -0.354 N 
ATOM     31  N   UNL A   1      44.212  26.097  29.020  1.00  0.00    -0.248 NA
ATOM     32  C   UNL A   1      44.746  23.945  28.279  1.00  0.00     0.031 C 
ATOM     33  C   UNL A   1      47.177  29.011  30.594  1.00  0.00     0.029 A 
ATOM     34  C   UNL A   1      46.267  28.092  30.094  1.00  0.00     0.049 A 
ATOM     35  H   UNL A   1      44.191  28.310  29.794  1.00  0.00     0.167 HD
ATOM     36  C   UNL A   1      45.576  25.893  29.168  1.00  0.00     0.074 A 
ATOM     37  C   UNL A   1      45.847  24.542  28.715  1.00  0.00     0.031 C 
ATOM     38  C   UNL A   1      46.516  26.746  29.643  1.00  0.00     0.031 A 
BRANCH  25  39
ATOM     39  C   UNL A   1      44.371  32.343  31.195  1.00  0.00    -0.014 A 
ATOM     40  C   UNL A   1      44.749  33.358  30.301  1.00  0.00     0.009 A 
ATOM     41  C   UNL A   1      44.272  32.650  32.562  1.00  0.00     0.009 A 
ATOM     42  C   UNL A   1      45.072  34.633  30.772  1.00  0.00     0.001 A 
ATOM     43  C   UNL A   1      44.562  33.934  33.026  1.00  0.00     0.001 A 
ATOM     44  C   UNL A   1      44.977  34.920  32.133  1.00  0.00     0.000 A 
ENDBRANCH  25  39
BRANCH  26  45
ATOM     45  C   UNL A   1      41.945  23.316  27.612  1.00  0.00    -0.014 A 
ATOM     46  C   UNL A   1      41.409  22.301  28.416  1.00  0.00     0.009 A 
ATOM     47  C   UNL A   1      42.065  23.099  26.229  1.00  0.00     0.009 A 
ATOM     48  C   UNL A   1      41.007  21.090  27.845  1.00  0.00     0.001 A 
ATOM     49  C   UNL A   1      41.635  21.901  25.659  1.00  0.00     0.001 A 
ATOM     50  C   UNL A   1      41.112  20.895  26.468  1.00  0.00     0.000 A 
ENDBRANCH  26  45
BRANCH  38  51
ATOM     51  C   UNL A   1      47.923  26.229  29.753  1.00  0.00    -0.014 A 
ATOM     52  C   UNL A   1      48.811  26.279  28.669  1.00  0.00     0.009 A 
ATOM     53  C   UNL A   1      48.382  25.754  30.992  1.00  0.00     0.009 A 
ATOM     54  C   UNL A   1      50.130  25.846  28.821  1.00  0.00     0.001 A 
ATOM     55  C   UNL A   1      49.708  25.351  31.148  1.00  0.00     0.001 A 
ATOM     56  C   UNL A   1      50.579  25.391  30.062  1.00  0.00     0.000 A 
ENDBRANCH  38  51
ENDBRANCH  12  13
ENDBRANCH   5   7
ENDBRANCH   2   3
ENDBRANCH   1   2
BRANCH   1  57
ATOM     57  C   UNL A   1      33.267  28.907  24.798  1.00  0.00     0.117 C 
BRANCH  57  58
ATOM     58  N   UNL A   1      33.608  28.543  23.449  1.00  0.00    -0.355 N 
ATOM     59  C   UNL A   1      33.681  27.306  22.880  1.00  0.00     0.228 C 
ATOM     60  H   UNL A   1      33.817  29.295  22.849  1.00  0.00     0.163 HD
ATOM     61  O   UNL A   1      34.036  27.268  21.698  1.00  0.00    -0.274 OA
BRANCH  59  62
ATOM     62  C   UNL A   1      33.360  26.006  23.651  1.00  0.00     0.124 C 
BRANCH  62  63
ATOM     63  C   UNL A   1      31.906  25.996  24.135  1.00  0.00    -0.035 A 
ATOM     64  C   UNL A   1      31.660  25.824  25.512  1.00  0.00     0.004 A 
ATOM     65  C   UNL A   1      30.790  26.203  23.322  1.00  0.00     0.004 A 
ATOM     66  C   UNL A   1      30.361  25.795  26.028  1.00  0.00     0.000 A 
ATOM     67  C   UNL A   1      29.485  26.155  23.827  1.00  0.00     0.000 A 
ATOM     68  C   UNL A   1      29.270  25.943  25.181  1.00  0.00     0.000 A 
ENDBRANCH  62  63
BRANCH  62  69
ATOM     69  C   UNL A   1      34.066  24.735  23.027  1.00  0.00     0.108 C 
BRANCH  69  70
ATOM     70  C   UNL A   1      35.100  24.117  23.990  1.00  0.00    -0.036 A 
ATOM     71  C   UNL A   1      36.168  23.329  23.528  1.00  0.00     0.004 A 
ATOM     72  C   UNL A   1      34.988  24.333  25.374  1.00  0.00     0.004 A 
ATOM     73  C   UNL A   1      37.041  22.707  24.421  1.00  0.00     0.000 A 
ATOM     74  C   UNL A   1      35.880  23.731  26.266  1.00  0.00     0.000 A 
ATOM     75  C   UNL A   1      36.895  22.904  25.791  1.00  0.00     0.000 A 
ENDBRANCH  69  70
BRANCH  69  76
ATOM     76  C   UNL A   1      33.124  23.642  22.471  1.00  0.00     0.171 C 
ATOM     77  O   UNL A   1      32.801  23.580  21.286  1.00  0.00    -0.293 OA
BRANCH  76  78
ATOM     78  C   UNL A   1      32.649  22.548  23.384  1.00  0.00     0.018 A 
ATOM     79  C   UNL A   1      33.316  21.316  23.310  1.00  0.00     0.012 A 
ATOM     80  C   UNL A   1      31.703  22.749  24.397  1.00  0.00     0.012 A 
ATOM     81  C   UNL A   1      33.160  20.367  24.325  1.00  0.00     0.001 A 
ATOM     82  C   UNL A   1      31.553  21.800  25.416  1.00  0.00     0.001 A 
ATOM     83  C   UNL A   1      32.305  20.625  25.395  1.00  0.00     0.000 A 
ENDBRANCH  76  78
ENDBRANCH  69  76
ENDBRANCH  62  69
ENDBRANCH  59  62
ENDBRANCH  57  58
ENDBRANCH   1  57
TORSDOF 15
ENDMDL
MODEL 2
REMARK VINA RESULT:     -11.2      3.007      6.288
REMARK SMILES O=C(NCCCNC(=O)[C@@H](c1ccccc1)[C@H](C(=O)c1ccccc1)c1ccccc1)c1ccc(-c2c3nc(c(-c4ccccc4)c4ccc([nH]4)c(-c4ccccc4)c4nc(c(-c5ccccc5)c5ccc2[nH]5)C=C4)C=C3)cc1
REMARK SMILES IDX 5 1 4 2 3 3 1 4 2 5 32 7 33 8 79 9 34 10 78 11 35 12 36 13
REMARK SMILES IDX 37 14 72 15 38 16 77 17 71 18 73 19 39 20 76 21 70 22 69 23
REMARK SMILES IDX 40 25 62 26 47 27 61 28 48 29 51 30 60 31 74 32 49 33 50 34
REMARK SMILES IDX 59 36 75 37 52 38 41 39 42 40 46 41 43 42 45 43 44 44 63 45
REMARK SMILES IDX 64 46 68 47 65 48 67 49 66 50 53 51 54 52 58 53 55 54 57 55
REMARK SMILES IDX 56 56 6 57 7 58 8 59 9 61 10 62 11 63 12 64 16 65 13 66
REMARK SMILES IDX 15 67 14 68 17 69 26 70 27 71 31 72 28 73 30 74 29 75 18 76
REMARK SMILES IDX 19 77 20 78 21 79 25 80 22 81 24 82 23 83
REMARK H PARENT 3 6 73 24 51 35 7 60
REMARK Flexibility Score: inf
ROOT
ATOM      1  C   UNL A   1      32.910  29.008  23.538  1.00  0.00     0.042 C 
ENDROOT
BRANCH   1   2
ATOM      2  C   UNL A   1      33.246  29.175  25.003  1.00  0.00     0.118 C 
BRANCH   2   3
ATOM      3  N   UNL A   1      32.663  30.393  25.557  1.00  0.00    -0.352 N 
ATOM      4  O   UNL A   1      32.138  31.904  27.131  1.00  0.00    -0.269 OA
ATOM      5  C   UNL A   1      32.939  31.075  26.716  1.00  0.00     0.251 C 
ATOM      6  H   UNL A   1      31.951  30.794  25.007  1.00  0.00     0.163 HD
BRANCH   5   7
ATOM      7  C   UNL A   1      34.186  30.808  27.463  1.00  0.00     0.039 A 
ATOM      8  C   UNL A   1      34.465  29.533  27.958  1.00  0.00     0.014 A 
ATOM      9  C   UNL A   1      35.117  31.836  27.628  1.00  0.00     0.014 A 
ATOM     10  C   UNL A   1      35.570  29.326  28.768  1.00  0.00     0.010 A 
ATOM     11  C   UNL A   1      36.295  31.595  28.336  1.00  0.00     0.010 A 
ATOM     12  C   UNL A   1      36.514  30.345  28.936  1.00  0.00    -0.014 A 
BRANCH  12  13
ATOM     13  C   UNL A   1      37.766  30.067  29.675  1.00  0.00     0.031 A 
ATOM     14  C   UNL A   1      38.829  29.196  29.080  1.00  0.00     0.074 A 
ATOM     15  C   UNL A   1      37.918  30.593  30.906  1.00  0.00     0.049 A 
ATOM     16  N   UNL A   1      39.938  28.764  29.621  1.00  0.00    -0.248 NA
ATOM     17  C   UNL A   1      38.614  28.739  27.697  1.00  0.00     0.031 C 
ATOM     18  C   UNL A   1      36.953  31.468  31.577  1.00  0.00     0.029 A 
ATOM     19  N   UNL A   1      38.937  30.464  31.812  1.00  0.00    -0.354 N 
ATOM     20  C   UNL A   1      40.536  27.956  28.664  1.00  0.00     0.074 A 
ATOM     21  C   UNL A   1      39.656  27.941  27.514  1.00  0.00     0.031 C 
ATOM     22  C   UNL A   1      37.434  31.814  32.778  1.00  0.00     0.029 A 
ATOM     23  C   UNL A   1      38.696  31.120  32.994  1.00  0.00     0.049 A 
ATOM     24  H   UNL A   1      39.759  29.954  31.635  1.00  0.00     0.167 HD
ATOM     25  C   UNL A   1      41.710  27.285  28.743  1.00  0.00     0.031 A 
ATOM     26  C   UNL A   1      39.389  31.127  34.147  1.00  0.00     0.031 A 
ATOM     27  C   UNL A   1      42.565  27.301  29.902  1.00  0.00     0.049 A 
ATOM     28  C   UNL A   1      40.655  30.331  34.233  1.00  0.00     0.074 A 
ATOM     29  C   UNL A   1      43.789  26.680  30.080  1.00  0.00     0.029 A 
ATOM     30  N   UNL A   1      42.277  27.965  31.086  1.00  0.00    -0.354 N 
ATOM     31  N   UNL A   1      41.222  29.587  33.314  1.00  0.00    -0.248 NA
ATOM     32  C   UNL A   1      41.378  30.375  35.510  1.00  0.00     0.031 C 
ATOM     33  C   UNL A   1      44.208  26.914  31.393  1.00  0.00     0.029 A 
ATOM     34  C   UNL A   1      43.284  27.743  32.010  1.00  0.00     0.049 A 
ATOM     35  H   UNL A   1      41.475  28.512  31.246  1.00  0.00     0.167 HD
ATOM     36  C   UNL A   1      42.385  29.098  33.888  1.00  0.00     0.074 A 
ATOM     37  C   UNL A   1      42.442  29.632  35.236  1.00  0.00     0.031 C 
ATOM     38  C   UNL A   1      43.324  28.286  33.345  1.00  0.00     0.031 A 
BRANCH  25  39
ATOM     39  C   UNL A   1      42.099  26.433  27.566  1.00  0.00    -0.014 A 
ATOM     40  C   UNL A   1      41.740  25.077  27.483  1.00  0.00     0.009 A 
ATOM     41  C   UNL A   1      42.839  27.000  26.516  1.00  0.00     0.009 A 
ATOM     42  C   UNL A   1      42.160  24.297  26.403  1.00  0.00     0.001 A 
ATOM     43  C   UNL A   1      43.228  26.227  25.420  1.00  0.00     0.001 A 
ATOM     44  C   UNL A   1      42.902  24.873  25.372  1.00  0.00     0.000 A 
ENDBRANCH  25  39
BRANCH  26  45
ATOM     45  C   UNL A   1      38.863  31.897  35.303  1.00  0.00    -0.014 A 
ATOM     46  C   UNL A   1      38.152  31.255  36.326  1.00  0.00     0.009 A 
ATOM     47  C   UNL A   1      39.132  33.272  35.420  1.00  0.00     0.009 A 
ATOM     48  C   UNL A   1      37.713  31.977  37.439  1.00  0.00     0.001 A 
ATOM     49  C   UNL A   1      38.719  33.983  36.546  1.00  0.00     0.001 A 
ATOM     50  C   UNL A   1      38.004  33.336  37.552  1.00  0.00     0.000 A 
ENDBRANCH  26  45
BRANCH  38  51
ATOM     51  C   UNL A   1      44.528  27.965  34.185  1.00  0.00    -0.014 A 
ATOM     52  C   UNL A   1      44.577  26.818  34.990  1.00  0.00     0.009 A 
ATOM     53  C   UNL A   1      45.659  28.793  34.105  1.00  0.00     0.009 A 
ATOM     54  C   UNL A   1      45.733  26.516  35.714  1.00  0.00     0.001 A 
ATOM     55  C   UNL A   1      46.822  28.473  34.804  1.00  0.00     0.001 A 
ATOM     56  C   UNL A   1      46.856  27.339  35.613  1.00  0.00     0.000 A 
ENDBRANCH  38  51
ENDBRANCH  12  13
ENDBRANCH   5   7
ENDBRANCH   2   3
ENDBRANCH   1   2
BRANCH   1  57
ATOM     57  C   UNL A   1      34.045  28.383  22.753  1.00  0.00     0.117 C 
BRANCH  57  58
ATOM     58  N   UNL A   1      33.604  27.495  21.711  1.00  0.00    -0.355 N 
ATOM     59  C   UNL A   1      33.339  26.159  21.769  1.00  0.00     0.228 C 
ATOM     60  H   UNL A   1      33.474  27.912  20.829  1.00  0.00     0.163 HD
ATOM     61  O   UNL A   1      33.005  25.621  20.708  1.00  0.00    -0.274 OA
BRANCH  59  62
ATOM     62  C   UNL A   1      33.456  25.334  23.071  1.00  0.00     0.124 C 
BRANCH  62  63
ATOM     63  C   UNL A   1      32.239  25.556  23.975  1.00  0.00    -0.035 A 
ATOM     64  C   UNL A   1      30.955  25.478  23.401  1.00  0.00     0.004 A 
ATOM     65  C   UNL A   1      32.295  25.777  25.353  1.00  0.00     0.004 A 
ATOM     66  C   UNL A   1      29.798  25.678  24.160  1.00  0.00     0.000 A 
ATOM     67  C   UNL A   1      31.143  25.998  26.116  1.00  0.00     0.000 A 
ATOM     68  C   UNL A   1      29.892  25.957  25.518  1.00  0.00     0.000 A 
ENDBRANCH  62  63
BRANCH  62  69
ATOM     69  C   UNL A   1      34.104  23.910  22.836  1.00  0.00     0.108 C 
BRANCH  69  70
ATOM     70  C   UNL A   1      35.295  23.654  23.783  1.00  0.00    -0.036 A 
ATOM     71  C   UNL A   1      36.312  22.737  23.467  1.00  0.00     0.004 A 
ATOM     72  C   UNL A   1      35.382  24.345  25.004  1.00  0.00     0.004 A 
ATOM     73  C   UNL A   1      37.332  22.455  24.376  1.00  0.00     0.000 A 
ATOM     74  C   UNL A   1      36.421  24.080  25.902  1.00  0.00     0.000 A 
ATOM     75  C   UNL A   1      37.385  23.123  25.596  1.00  0.00     0.000 A 
ENDBRANCH  69  70
BRANCH  69  76
ATOM     76  C   UNL A   1      33.129  22.711  22.857  1.00  0.00     0.171 C 
ATOM     77  O   UNL A   1      32.527  22.324  21.856  1.00  0.00    -0.293 OA
BRANCH  76  78
ATOM     78  C   UNL A   1      32.968  21.916  24.121  1.00  0.00     0.018 A 
ATOM     79  C   UNL A   1      33.551  20.640  24.154  1.00  0.00     0.012 A 
ATOM     80  C   UNL A   1      32.422  22.445  25.297  1.00  0.00     0.012 A 
ATOM     81  C   UNL A   1      33.727  19.977  25.372  1.00  0.00     0.001 A 
ATOM     82  C   UNL A   1      32.606  21.782  26.517  1.00  0.00     0.001 A 
ATOM     83  C   UNL A   1      33.286  20.564  26.557  1.00  0.00     0.000 A 
ENDBRANCH  76  78
ENDBRANCH  69  76
ENDBRANCH  62  69
ENDBRANCH  59  62
ENDBRANCH  57  58
ENDBRANCH   1  57
TORSDOF 15
ENDMDL
MODEL 3
REMARK VINA RESULT:     -11.2      1.219      3.291
REMARK SMILES O=C(NCCCNC(=O)[C@@H](c1ccccc1)[C@H](C(=O)c1ccccc1)c1ccccc1)c1ccc(-c2c3nc(c(-c4ccccc4)c4ccc([nH]4)c(-c4ccccc4)c4nc(c(-c5ccccc5)c5ccc2[nH]5)C=C4)C=C3)cc1
REMARK SMILES IDX 5 1 4 2 3 3 1 4 2 5 32 7 33 8 79 9 34 10 78 11 35 12 36 13
REMARK SMILES IDX 37 14 72 15 38 16 77 17 71 18 73 19 39 20 76 21 70 22 69 23
REMARK SMILES IDX 40 25 62 26 47 27 61 28 48 29 51 30 60 31 74 32 49 33 50 34
REMARK SMILES IDX 59 36 75 37 52 38 41 39 42 40 46 41 43 42 45 43 44 44 63 45
REMARK SMILES IDX 64 46 68 47 65 48 67 49 66 50 53 51 54 52 58 53 55 54 57 55
REMARK SMILES IDX 56 56 6 57 7 58 8 59 9 61 10 62 11 63 12 64 16 65 13 66
REMARK SMILES IDX 15 67 14 68 17 69 26 70 27 71 31 72 28 73 30 74 29 75 18 76
REMARK SMILES IDX 19 77 20 78 21 79 25 80 22 81 24 82 23 83
REMARK H PARENT 3 6 73 24 51 35 7 60
REMARK Flexibility Score: inf
ROOT
ATOM      1  C   UNL A   1      33.431  28.357  25.647  1.00  0.00     0.042 C 
ENDROOT
BRANCH   1   2
ATOM      2  C   UNL A   1      33.665  28.537  27.131  1.00  0.00     0.118 C 
BRANCH   2   3
ATOM      3  N   UNL A   1      33.620  29.943  27.520  1.00  0.00    -0.352 N 
ATOM      4  O   UNL A   1      34.137  31.779  28.703  1.00  0.00    -0.269 OA
ATOM      5  C   UNL A   1      34.505  30.704  28.242  1.00  0.00     0.251 C 
ATOM      6  H   UNL A   1      32.819  30.427  27.214  1.00  0.00     0.163 HD
BRANCH   5   7
ATOM      7  C   UNL A   1      35.886  30.230  28.473  1.00  0.00     0.039 A 
ATOM      8  C   UNL A   1      36.861  30.356  27.483  1.00  0.00     0.014 A 
ATOM      9  C   UNL A   1      36.225  29.698  29.720  1.00  0.00     0.014 A 
ATOM     10  C   UNL A   1      38.113  29.790  27.662  1.00  0.00     0.010 A 
ATOM     11  C   UNL A   1      37.526  29.244  29.946  1.00  0.00     0.010 A 
ATOM     12  C   UNL A   1      38.469  29.261  28.907  1.00  0.00    -0.014 A 
BRANCH  12  13
ATOM     13  C   UNL A   1      39.857  28.800  29.135  1.00  0.00     0.031 A 
ATOM     14  C   UNL A   1      40.890  29.729  29.692  1.00  0.00     0.074 A 
ATOM     15  C   UNL A   1      40.177  27.533  28.808  1.00  0.00     0.049 A 
ATOM     16  N   UNL A   1      42.172  29.530  29.862  1.00  0.00    -0.248 NA
ATOM     17  C   UNL A   1      40.429  31.066  30.101  1.00  0.00     0.031 C 
ATOM     18  C   UNL A   1      39.246  26.536  28.274  1.00  0.00     0.029 A 
ATOM     19  N   UNL A   1      41.373  26.869  28.873  1.00  0.00    -0.354 N 
ATOM     20  C   UNL A   1      42.677  30.722  30.361  1.00  0.00     0.074 A 
ATOM     21  C   UNL A   1      41.567  31.647  30.449  1.00  0.00     0.031 C 
ATOM     22  C   UNL A   1      39.899  25.383  28.077  1.00  0.00     0.029 A 
ATOM     23  C   UNL A   1      41.307  25.584  28.392  1.00  0.00     0.049 A 
ATOM     24  H   UNL A   1      42.199  27.272  29.228  1.00  0.00     0.167 HD
ATOM     25  C   UNL A   1      43.953  31.014  30.710  1.00  0.00     0.031 A 
ATOM     26  C   UNL A   1      42.278  24.679  28.180  1.00  0.00     0.031 A 
ATOM     27  C   UNL A   1      45.047  30.084  30.602  1.00  0.00     0.049 A 
ATOM     28  C   UNL A   1      43.691  25.043  28.517  1.00  0.00     0.074 A 
ATOM     29  C   UNL A   1      46.373  30.267  30.952  1.00  0.00     0.029 A 
ATOM     30  N   UNL A   1      44.940  28.797  30.095  1.00  0.00    -0.354 N 
ATOM     31  N   UNL A   1      44.155  26.167  29.009  1.00  0.00    -0.248 NA
ATOM     32  C   UNL A   1      44.715  24.020  28.274  1.00  0.00     0.031 C 
ATOM     33  C   UNL A   1      47.080  29.114  30.595  1.00  0.00     0.029 A 
ATOM     34  C   UNL A   1      46.182  28.185  30.092  1.00  0.00     0.049 A 
ATOM     35  H   UNL A   1      44.105  28.380  29.781  1.00  0.00     0.167 HD
ATOM     36  C   UNL A   1      45.520  25.978  29.165  1.00  0.00     0.074 A 
ATOM     37  C   UNL A   1      45.807  24.629  28.715  1.00  0.00     0.031 C 
ATOM     38  C   UNL A   1      46.448  26.841  29.644  1.00  0.00     0.031 A 
BRANCH  25  39
ATOM     39  C   UNL A   1      44.236  32.416  31.179  1.00  0.00    -0.014 A 
ATOM     40  C   UNL A   1      44.175  32.768  32.537  1.00  0.00     0.009 A 
ATOM     41  C   UNL A   1      44.572  33.405  30.240  1.00  0.00     0.009 A 
ATOM     42  C   UNL A   1      44.392  34.089  32.938  1.00  0.00     0.001 A 
ATOM     43  C   UNL A   1      44.823  34.717  30.646  1.00  0.00     0.001 A 
ATOM     44  C   UNL A   1      44.717  35.061  31.992  1.00  0.00     0.000 A 
ENDBRANCH  25  39
BRANCH  26  45
ATOM     45  C   UNL A   1      41.924  23.361  27.593  1.00  0.00    -0.014 A 
ATOM     46  C   UNL A   1      42.065  23.130  26.218  1.00  0.00     0.009 A 
ATOM     47  C   UNL A   1      41.507  22.306  28.422  1.00  0.00     0.009 A 
ATOM     48  C   UNL A   1      41.787  21.869  25.684  1.00  0.00     0.001 A 
ATOM     49  C   UNL A   1      41.259  21.040  27.890  1.00  0.00     0.001 A 
ATOM     50  C   UNL A   1      41.393  20.824  26.520  1.00  0.00     0.000 A 
ENDBRANCH  26  45
BRANCH  38  51
ATOM     51  C   UNL A   1      47.859  26.339  29.762  1.00  0.00    -0.014 A 
ATOM     52  C   UNL A   1      48.350  25.800  30.960  1.00  0.00     0.009 A 
ATOM     53  C   UNL A   1      48.683  26.340  28.624  1.00  0.00     0.009 A 
ATOM     54  C   UNL A   1      49.648  25.288  31.020  1.00  0.00     0.001 A 
ATOM     55  C   UNL A   1      49.967  25.800  28.680  1.00  0.00     0.001 A 
ATOM     56  C   UNL A   1      50.451  25.280  29.878  1.00  0.00     0.000 A 
ENDBRANCH  38  51
ENDBRANCH  12  13
ENDBRANCH   5   7
ENDBRANCH   2   3
ENDBRANCH   1   2
BRANCH   1  57
ATOM     57  C   UNL A   1      33.761  26.955  25.176  1.00  0.00     0.117 C 
BRANCH  57  58
ATOM     58  N   UNL A   1      33.464  25.937  26.147  1.00  0.00    -0.355 N 
ATOM     59  C   UNL A   1      33.501  24.581  26.015  1.00  0.00     0.228 C 
ATOM     60  H   UNL A   1      33.196  26.266  27.035  1.00  0.00     0.163 HD
ATOM     61  O   UNL A   1      33.160  23.925  27.005  1.00  0.00    -0.274 OA
BRANCH  59  62
ATOM     62  C   UNL A   1      33.925  23.874  24.708  1.00  0.00     0.124 C 
BRANCH  62  63
ATOM     63  C   UNL A   1      35.323  23.260  24.842  1.00  0.00    -0.035 A 
ATOM     64  C   UNL A   1      36.178  23.755  25.847  1.00  0.00     0.004 A 
ATOM     65  C   UNL A   1      35.809  22.199  24.076  1.00  0.00     0.004 A 
ATOM     66  C   UNL A   1      37.471  23.252  26.025  1.00  0.00     0.000 A 
ATOM     67  C   UNL A   1      37.108  21.703  24.233  1.00  0.00     0.000 A 
ATOM     68  C   UNL A   1      37.944  22.236  25.203  1.00  0.00     0.000 A 
ENDBRANCH  62  63
BRANCH  62  69
ATOM     69  C   UNL A   1      32.725  23.128  23.998  1.00  0.00     0.108 C 
BRANCH  69  70
ATOM     70  C   UNL A   1      32.721  21.616  24.303  1.00  0.00    -0.036 A 
ATOM     71  C   UNL A   1      32.928  21.119  25.601  1.00  0.00     0.004 A 
ATOM     72  C   UNL A   1      32.510  20.691  23.265  1.00  0.00     0.004 A 
ATOM     73  C   UNL A   1      33.009  19.747  25.840  1.00  0.00     0.000 A 
ATOM     74  C   UNL A   1      32.564  19.316  23.512  1.00  0.00     0.000 A 
ATOM     75  C   UNL A   1      32.832  18.845  24.795  1.00  0.00     0.000 A 
ENDBRANCH  69  70
BRANCH  69  76
ATOM     76  C   UNL A   1      31.320  23.730  24.233  1.00  0.00     0.171 C 
ATOM     77  O   UNL A   1      30.491  23.215  24.982  1.00  0.00    -0.293 OA
BRANCH  76  78
ATOM     78  C   UNL A   1      30.968  25.046  23.601  1.00  0.00     0.018 A 
ATOM     79  C   UNL A   1      30.195  25.936  24.360  1.00  0.00     0.012 A 
ATOM     80  C   UNL A   1      31.506  25.481  22.383  1.00  0.00     0.012 A 
ATOM     81  C   UNL A   1      30.097  27.280  23.989  1.00  0.00     0.001 A 
ATOM     82  C   UNL A   1      31.413  26.830  22.016  1.00  0.00     0.001 A 
ATOM     83  C   UNL A   1      30.736  27.733  22.836  1.00  0.00     0.000 A 
ENDBRANCH  76  78
ENDBRANCH  69  76
ENDBRANCH  62  69
ENDBRANCH  59  62
ENDBRANCH  57  58
ENDBRANCH   1  57
TORSDOF 15
ENDMDL
