MODEL 1
REMARK VINA RESULT:     -10.8      0.000      0.000
REMARK SMILES C[C@H](CNC(=O)Cn1cccc1C(=O)NCCCNC(=O)c1ccc(-c2c3nc(c(-c4ccccc4)c4ccc([nH]4)c(-c4ccccc4)c4nc(c(-c5ccccc5)c5ccc2[nH]5)C=C4)C=C3)cc1)[NH+](C)C
REMARK SMILES IDX 13 1 14 2 15 3 12 5 8 6 9 7 10 8 11 9 7 10 5 11 4 12 6 14
REMARK SMILES IDX 3 15 2 16 1 17 70 18 71 19 72 20 16 22 17 23 18 24 19 25
REMARK SMILES IDX 20 26 21 28 22 29 23 30 69 31 24 32 68 33 25 34 26 35 27 36
REMARK SMILES IDX 62 37 28 38 67 39 61 40 63 41 29 42 66 43 60 44 59 45 30 47
REMARK SMILES IDX 52 48 37 49 51 50 38 51 41 52 50 53 64 54 39 55 40 56 49 58
REMARK SMILES IDX 65 59 42 60 31 61 32 62 36 63 33 64 35 65 34 66 53 67 54 68
REMARK SMILES IDX 58 69 55 70 57 71 56 72 43 73 44 74 48 75 45 76 47 77 46 78
REMARK H PARENT 15 4 4 13 70 21 19 27 63 46 41 57
REMARK Flexibility Score: inf
ROOT
ATOM      1  C   UNL A   1      33.521  29.325  25.872  1.00  0.00     0.267 C 
ATOM      2  O   UNL A   1      34.657  29.264  26.362  1.00  0.00    -0.268 OA
ATOM      3  N   UNL A   1      32.734  30.213  26.548  1.00  0.00    -0.351 N 
ATOM      4  H   UNL A   1      33.214  30.586  27.323  1.00  0.00     0.163 HD
ENDROOT
BRANCH   1   5
ATOM      5  C   UNL A   1      33.195  28.527  24.686  1.00  0.00     0.107 A 
ATOM      6  N   UNL A   1      32.162  27.682  24.291  1.00  0.00    -0.334 N 
ATOM      7  C   UNL A   1      32.467  27.103  23.071  1.00  0.00     0.087 A 
ATOM      8  C   UNL A   1      33.622  27.653  22.593  1.00  0.00     0.020 A 
ATOM      9  C   UNL A   1      34.063  28.545  23.582  1.00  0.00     0.033 A 
BRANCH   6  10
ATOM     10  C   UNL A   1      30.993  27.211  25.009  1.00  0.00     0.222 C 
BRANCH  10  11
ATOM     11  C   UNL A   1      31.173  26.660  26.418  1.00  0.00     0.240 C 
ATOM     12  N   UNL A   1      31.355  25.354  26.751  1.00  0.00    -0.349 N 
ATOM     13  H   UNL A   1      31.435  25.204  27.721  1.00  0.00     0.163 HD
ATOM     14  O   UNL A   1      31.049  27.438  27.374  1.00  0.00    -0.273 OA
BRANCH  12  15
ATOM     15  C   UNL A   1      31.455  24.132  25.962  1.00  0.00     0.180 C 
BRANCH  15  16
ATOM     16  C   UNL A   1      32.738  23.969  25.105  1.00  0.00     0.199 C 
ATOM     17  C   UNL A   1      33.987  24.577  25.763  1.00  0.00     0.077 C 
BRANCH  16  18
ATOM     18  N   UNL A   1      32.908  22.598  24.571  1.00  0.00    -0.336 N 
ATOM     19  C   UNL A   1      32.025  21.640  25.237  1.00  0.00     0.332 C 
ATOM     20  C   UNL A   1      32.797  22.497  23.120  1.00  0.00     0.332 C 
ATOM     21  H   UNL A   1      33.875  22.354  24.787  1.00  0.00     0.347 HD
ENDBRANCH  16  18
ENDBRANCH  15  16
ENDBRANCH  12  15
ENDBRANCH  10  11
ENDBRANCH   6  10
ENDBRANCH   1   5
BRANCH   3  22
ATOM     22  C   UNL A   1      31.402  30.762  26.455  1.00  0.00     0.118 C 
BRANCH  22  23
ATOM     23  C   UNL A   1      31.397  32.289  26.524  1.00  0.00     0.042 C 
BRANCH  23  24
ATOM     24  C   UNL A   1      32.587  32.811  27.304  1.00  0.00     0.118 C 
BRANCH  24  25
ATOM     25  N   UNL A   1      32.398  34.219  27.630  1.00  0.00    -0.352 N 
ATOM     26  C   UNL A   1      33.013  34.963  28.606  1.00  0.00     0.251 C 
ATOM     27  H   UNL A   1      31.742  34.701  27.077  1.00  0.00     0.163 HD
ATOM     28  O   UNL A   1      32.542  36.026  28.970  1.00  0.00    -0.269 OA
BRANCH  26  29
ATOM     29  C   UNL A   1      34.236  34.439  29.230  1.00  0.00     0.039 A 
ATOM     30  C   UNL A   1      34.122  33.765  30.447  1.00  0.00     0.014 A 
ATOM     31  C   UNL A   1      35.478  34.620  28.610  1.00  0.00     0.014 A 
ATOM     32  C   UNL A   1      35.258  33.202  31.010  1.00  0.00     0.010 A 
ATOM     33  C   UNL A   1      36.602  34.013  29.139  1.00  0.00     0.010 A 
ATOM     34  C   UNL A   1      36.485  33.303  30.335  1.00  0.00    -0.014 A 
BRANCH  34  35
ATOM     35  C   UNL A   1      37.635  32.547  30.860  1.00  0.00     0.031 A 
ATOM     36  C   UNL A   1      37.863  31.256  30.057  1.00  0.00     0.074 A 
ATOM     37  C   UNL A   1      38.228  33.070  31.976  1.00  0.00     0.049 A 
ATOM     38  N   UNL A   1      38.282  30.099  30.459  1.00  0.00    -0.248 NA
ATOM     39  C   UNL A   1      37.496  31.214  28.612  1.00  0.00     0.031 C 
ATOM     40  C   UNL A   1      37.897  34.390  32.569  1.00  0.00     0.029 A 
ATOM     41  N   UNL A   1      39.202  32.628  32.843  1.00  0.00    -0.354 N 
ATOM     42  C   UNL A   1      38.356  29.239  29.338  1.00  0.00     0.074 A 
ATOM     43  C   UNL A   1      37.778  29.958  28.243  1.00  0.00     0.031 C 
ATOM     44  C   UNL A   1      38.576  34.593  33.717  1.00  0.00     0.029 A 
ATOM     45  C   UNL A   1      39.396  33.433  33.997  1.00  0.00     0.049 A 
ATOM     46  H   UNL A   1      39.725  31.811  32.677  1.00  0.00     0.167 HD
ATOM     47  C   UNL A   1      38.993  28.030  29.376  1.00  0.00     0.031 A 
ATOM     48  C   UNL A   1      40.104  33.154  35.133  1.00  0.00     0.031 A 
ATOM     49  C   UNL A   1      39.480  27.783  30.690  1.00  0.00     0.049 A 
ATOM     50  C   UNL A   1      40.730  31.846  34.898  1.00  0.00     0.074 A 
ATOM     51  C   UNL A   1      38.849  27.461  31.863  1.00  0.00     0.029 A 
ATOM     52  N   UNL A   1      40.735  28.264  30.966  1.00  0.00    -0.354 N 
ATOM     53  N   UNL A   1      41.736  31.630  34.109  1.00  0.00    -0.248 NA
ATOM     54  C   UNL A   1      40.121  30.659  35.511  1.00  0.00     0.031 C 
ATOM     55  C   UNL A   1      39.529  28.259  32.809  1.00  0.00     0.029 A 
ATOM     56  C   UNL A   1      40.677  28.805  32.225  1.00  0.00     0.049 A 
ATOM     57  H   UNL A   1      41.523  28.229  30.376  1.00  0.00     0.167 HD
ATOM     58  C   UNL A   1      41.605  30.291  33.839  1.00  0.00     0.074 A 
ATOM     59  C   UNL A   1      40.862  29.715  34.939  1.00  0.00     0.031 C 
ATOM     60  C   UNL A   1      41.603  29.862  32.550  1.00  0.00     0.031 A 
BRANCH  47  61
ATOM     61  C   UNL A   1      39.468  27.091  28.301  1.00  0.00    -0.014 A 
ATOM     62  C   UNL A   1      39.395  25.699  28.576  1.00  0.00     0.009 A 
ATOM     63  C   UNL A   1      40.272  27.486  27.229  1.00  0.00     0.009 A 
ATOM     64  C   UNL A   1      40.189  24.767  27.905  1.00  0.00     0.001 A 
ATOM     65  C   UNL A   1      41.042  26.543  26.529  1.00  0.00     0.001 A 
ATOM     66  C   UNL A   1      41.031  25.196  26.892  1.00  0.00     0.000 A 
ENDBRANCH  47  61
BRANCH  48  67
ATOM     67  C   UNL A   1      40.271  33.728  36.517  1.00  0.00    -0.014 A 
ATOM     68  C   UNL A   1      41.472  34.127  37.109  1.00  0.00     0.009 A 
ATOM     69  C   UNL A   1      39.105  33.946  37.302  1.00  0.00     0.009 A 
ATOM     70  C   UNL A   1      41.484  34.791  38.356  1.00  0.00     0.001 A 
ATOM     71  C   UNL A   1      39.103  34.641  38.514  1.00  0.00     0.001 A 
ATOM     72  C   UNL A   1      40.301  35.081  39.038  1.00  0.00     0.000 A 
ENDBRANCH  48  67
BRANCH  60  73
ATOM     73  C   UNL A   1      42.254  30.807  31.548  1.00  0.00    -0.014 A 
ATOM     74  C   UNL A   1      43.654  30.881  31.471  1.00  0.00     0.009 A 
ATOM     75  C   UNL A   1      41.525  31.718  30.761  1.00  0.00     0.009 A 
ATOM     76  C   UNL A   1      44.296  31.834  30.669  1.00  0.00     0.001 A 
ATOM     77  C   UNL A   1      42.163  32.674  29.954  1.00  0.00     0.001 A 
ATOM     78  C   UNL A   1      43.551  32.733  29.912  1.00  0.00     0.000 A 
ENDBRANCH  60  73
ENDBRANCH  34  35
ENDBRANCH  26  29
ENDBRANCH  24  25
ENDBRANCH  23  24
ENDBRANCH  22  23
ENDBRANCH   3  22
TORSDOF 15
ENDMDL
MODEL 2
REMARK VINA RESULT:     -10.8      1.877      3.279
REMARK SMILES C[C@H](CNC(=O)Cn1cccc1C(=O)NCCCNC(=O)c1ccc(-c2c3nc(c(-c4ccccc4)c4ccc([nH]4)c(-c4ccccc4)c4nc(c(-c5ccccc5)c5ccc2[nH]5)C=C4)C=C3)cc1)[NH+](C)C
REMARK SMILES IDX 13 1 14 2 15 3 12 5 8 6 9 7 10 8 11 9 7 10 5 11 4 12 6 14
REMARK SMILES IDX 3 15 2 16 1 17 70 18 71 19 72 20 16 22 17 23 18 24 19 25
REMARK SMILES IDX 20 26 21 28 22 29 23 30 69 31 24 32 68 33 25 34 26 35 27 36
REMARK SMILES IDX 62 37 28 38 67 39 61 40 63 41 29 42 66 43 60 44 59 45 30 47
REMARK SMILES IDX 52 48 37 49 51 50 38 51 41 52 50 53 64 54 39 55 40 56 49 58
REMARK SMILES IDX 65 59 42 60 31 61 32 62 36 63 33 64 35 65 34 66 53 67 54 68
REMARK SMILES IDX 58 69 55 70 57 71 56 72 43 73 44 74 48 75 45 76 47 77 46 78
REMARK H PARENT 15 4 4 13 70 21 19 27 63 46 41 57
REMARK Flexibility Score: inf
ROOT
ATOM      1  C   UNL A   1      32.694  28.821  25.065  1.00  0.00     0.267 C 
ATOM      2  O   UNL A   1      33.572  28.955  24.203  1.00  0.00    -0.268 OA
ATOM      3  N   UNL A   1      32.406  30.009  25.672  1.00  0.00    -0.351 N 
ATOM      4  H   UNL A   1      32.995  30.724  25.339  1.00  0.00     0.163 HD
ENDROOT
BRANCH   1   5
ATOM      5  C   UNL A   1      32.082  27.506  25.283  1.00  0.00     0.107 A 
ATOM      6  N   UNL A   1      31.060  26.759  24.703  1.00  0.00    -0.334 N 
ATOM      7  C   UNL A   1      30.849  25.602  25.434  1.00  0.00     0.087 A 
ATOM      8  C   UNL A   1      31.802  25.509  26.407  1.00  0.00     0.020 A 
ATOM      9  C   UNL A   1      32.574  26.676  26.304  1.00  0.00     0.033 A 
BRANCH   6  10
ATOM     10  C   UNL A   1      30.130  27.088  23.640  1.00  0.00     0.222 C 
BRANCH  10  11
ATOM     11  C   UNL A   1      30.685  27.584  22.311  1.00  0.00     0.240 C 
ATOM     12  N   UNL A   1      30.648  28.864  21.854  1.00  0.00    -0.349 N 
ATOM     13  H   UNL A   1      31.048  28.974  20.961  1.00  0.00     0.163 HD
ATOM     14  O   UNL A   1      31.128  26.749  21.510  1.00  0.00    -0.273 OA
BRANCH  12  15
ATOM     15  C   UNL A   1      30.136  30.106  22.420  1.00  0.00     0.180 C 
BRANCH  15  16
ATOM     16  C   UNL A   1      28.795  30.626  21.840  1.00  0.00     0.199 C 
ATOM     17  C   UNL A   1      27.575  30.234  22.689  1.00  0.00     0.077 C 
BRANCH  16  18
ATOM     18  N   UNL A   1      28.850  32.049  21.433  1.00  0.00    -0.336 N 
ATOM     19  C   UNL A   1      27.908  32.344  20.353  1.00  0.00     0.332 C 
ATOM     20  C   UNL A   1      28.706  32.998  22.531  1.00  0.00     0.332 C 
ATOM     21  H   UNL A   1      29.799  32.181  21.082  1.00  0.00     0.347 HD
ENDBRANCH  16  18
ENDBRANCH  15  16
ENDBRANCH  12  15
ENDBRANCH  10  11
ENDBRANCH   6  10
ENDBRANCH   1   5
BRANCH   3  22
ATOM     22  C   UNL A   1      31.487  30.519  26.663  1.00  0.00     0.118 C 
BRANCH  22  23
ATOM     23  C   UNL A   1      31.397  32.045  26.639  1.00  0.00     0.042 C 
BRANCH  23  24
ATOM     24  C   UNL A   1      32.661  32.683  27.179  1.00  0.00     0.118 C 
BRANCH  24  25
ATOM     25  N   UNL A   1      32.405  34.067  27.559  1.00  0.00    -0.352 N 
ATOM     26  C   UNL A   1      32.968  34.794  28.577  1.00  0.00     0.251 C 
ATOM     27  H   UNL A   1      31.741  34.544  27.011  1.00  0.00     0.163 HD
ATOM     28  O   UNL A   1      32.445  35.820  28.974  1.00  0.00    -0.269 OA
BRANCH  26  29
ATOM     29  C   UNL A   1      34.200  34.297  29.206  1.00  0.00     0.039 A 
ATOM     30  C   UNL A   1      34.088  33.534  30.371  1.00  0.00     0.014 A 
ATOM     31  C   UNL A   1      35.448  34.587  28.642  1.00  0.00     0.014 A 
ATOM     32  C   UNL A   1      35.236  32.997  30.932  1.00  0.00     0.010 A 
ATOM     33  C   UNL A   1      36.588  34.008  29.167  1.00  0.00     0.010 A 
ATOM     34  C   UNL A   1      36.475  33.212  30.309  1.00  0.00    -0.014 A 
BRANCH  34  35
ATOM     35  C   UNL A   1      37.649  32.485  30.820  1.00  0.00     0.031 A 
ATOM     36  C   UNL A   1      37.890  31.190  30.028  1.00  0.00     0.074 A 
ATOM     37  C   UNL A   1      38.252  33.032  31.919  1.00  0.00     0.049 A 
ATOM     38  N   UNL A   1      38.340  30.046  30.435  1.00  0.00    -0.248 NA
ATOM     39  C   UNL A   1      37.497  31.123  28.591  1.00  0.00     0.031 C 
ATOM     40  C   UNL A   1      37.905  34.352  32.504  1.00  0.00     0.029 A 
ATOM     41  N   UNL A   1      39.250  32.620  32.773  1.00  0.00    -0.354 N 
ATOM     42  C   UNL A   1      38.410  29.175  29.322  1.00  0.00     0.074 A 
ATOM     43  C   UNL A   1      37.798  29.869  28.230  1.00  0.00     0.031 C 
ATOM     44  C   UNL A   1      38.601  34.582  33.636  1.00  0.00     0.029 A 
ATOM     45  C   UNL A   1      39.449  33.443  33.914  1.00  0.00     0.049 A 
ATOM     46  H   UNL A   1      39.788  31.813  32.606  1.00  0.00     0.167 HD
ATOM     47  C   UNL A   1      39.073  27.979  29.361  1.00  0.00     0.031 A 
ATOM     48  C   UNL A   1      40.184  33.191  35.039  1.00  0.00     0.031 A 
ATOM     49  C   UNL A   1      39.588  27.757  30.668  1.00  0.00     0.049 A 
ATOM     50  C   UNL A   1      40.831  31.893  34.808  1.00  0.00     0.074 A 
ATOM     51  C   UNL A   1      38.986  27.437  31.857  1.00  0.00     0.029 A 
ATOM     52  N   UNL A   1      40.839  28.268  30.916  1.00  0.00    -0.354 N 
ATOM     53  N   UNL A   1      41.827  31.688  34.003  1.00  0.00    -0.248 NA
ATOM     54  C   UNL A   1      40.258  30.701  35.445  1.00  0.00     0.031 C 
ATOM     55  C   UNL A   1      39.666  28.259  32.781  1.00  0.00     0.029 A 
ATOM     56  C   UNL A   1      40.793  28.821  32.169  1.00  0.00     0.049 A 
ATOM     57  H   UNL A   1      41.616  28.241  30.312  1.00  0.00     0.167 HD
ATOM     58  C   UNL A   1      41.719  30.344  33.749  1.00  0.00     0.074 A 
ATOM     59  C   UNL A   1      41.008  29.766  34.869  1.00  0.00     0.031 C 
ATOM     60  C   UNL A   1      41.702  29.901  32.466  1.00  0.00     0.031 A 
BRANCH  47  61
ATOM     61  C   UNL A   1      39.547  27.038  28.288  1.00  0.00    -0.014 A 
ATOM     62  C   UNL A   1      39.466  25.647  28.563  1.00  0.00     0.009 A 
ATOM     63  C   UNL A   1      40.356  27.430  27.219  1.00  0.00     0.009 A 
ATOM     64  C   UNL A   1      40.258  24.711  27.895  1.00  0.00     0.001 A 
ATOM     65  C   UNL A   1      41.125  26.482  26.522  1.00  0.00     0.001 A 
ATOM     66  C   UNL A   1      41.106  25.135  26.885  1.00  0.00     0.000 A 
ENDBRANCH  47  61
BRANCH  48  67
ATOM     67  C   UNL A   1      40.365  33.784  36.414  1.00  0.00    -0.014 A 
ATOM     68  C   UNL A   1      39.619  34.825  36.971  1.00  0.00     0.009 A 
ATOM     69  C   UNL A   1      41.348  33.214  37.271  1.00  0.00     0.009 A 
ATOM     70  C   UNL A   1      39.782  35.195  38.325  1.00  0.00     0.001 A 
ATOM     71  C   UNL A   1      41.483  33.543  38.622  1.00  0.00     0.001 A 
ATOM     72  C   UNL A   1      40.684  34.531  39.158  1.00  0.00     0.000 A 
ENDBRANCH  48  67
BRANCH  60  73
ATOM     73  C   UNL A   1      42.315  30.847  31.442  1.00  0.00    -0.014 A 
ATOM     74  C   UNL A   1      43.712  30.940  31.330  1.00  0.00     0.009 A 
ATOM     75  C   UNL A   1      41.555  31.742  30.667  1.00  0.00     0.009 A 
ATOM     76  C   UNL A   1      44.321  31.896  30.505  1.00  0.00     0.001 A 
ATOM     77  C   UNL A   1      42.159  32.701  29.837  1.00  0.00     0.001 A 
ATOM     78  C   UNL A   1      43.545  32.779  29.761  1.00  0.00     0.000 A 
ENDBRANCH  60  73
ENDBRANCH  34  35
ENDBRANCH  26  29
ENDBRANCH  24  25
ENDBRANCH  23  24
ENDBRANCH  22  23
ENDBRANCH   3  22
TORSDOF 15
ENDMDL
MODEL 3
REMARK VINA RESULT:     -10.6      4.624     10.145
REMARK SMILES C[C@H](CNC(=O)Cn1cccc1C(=O)NCCCNC(=O)c1ccc(-c2c3nc(c(-c4ccccc4)c4ccc([nH]4)c(-c4ccccc4)c4nc(c(-c5ccccc5)c5ccc2[nH]5)C=C4)C=C3)cc1)[NH+](C)C
REMARK SMILES IDX 13 1 14 2 15 3 12 5 8 6 9 7 10 8 11 9 7 10 5 11 4 12 6 14
REMARK SMILES IDX 3 15 2 16 1 17 70 18 71 19 72 20 16 22 17 23 18 24 19 25
REMARK SMILES IDX 20 26 21 28 22 29 23 30 69 31 24 32 68 33 25 34 26 35 27 36
REMARK SMILES IDX 62 37 28 38 67 39 61 40 63 41 29 42 66 43 60 44 59 45 30 47
REMARK SMILES IDX 52 48 37 49 51 50 38 51 41 52 50 53 64 54 39 55 40 56 49 58
REMARK SMILES IDX 65 59 42 60 31 61 32 62 36 63 33 64 35 65 34 66 53 67 54 68
REMARK SMILES IDX 58 69 55 70 57 71 56 72 43 73 44 74 48 75 45 76 47 77 46 78
REMARK H PARENT 15 4 4 13 70 21 19 27 63 46 41 57
REMARK Flexibility Score: inf
ROOT
ATOM      1  C   UNL A   1      34.078  20.569  24.803  1.00  0.00     0.267 C 
ATOM      2  O   UNL A   1      33.284  19.642  25.012  1.00  0.00    -0.268 OA
ATOM      3  N   UNL A   1      35.361  20.199  25.085  1.00  0.00    -0.351 N 
ATOM      4  H   UNL A   1      35.390  19.284  25.450  1.00  0.00     0.163 HD
ENDROOT
BRANCH   1   5
ATOM      5  C   UNL A   1      33.586  21.845  24.275  1.00  0.00     0.107 A 
ATOM      6  N   UNL A   1      32.521  22.702  24.538  1.00  0.00    -0.334 N 
ATOM      7  C   UNL A   1      32.502  23.729  23.609  1.00  0.00     0.087 A 
ATOM      8  C   UNL A   1      33.613  23.637  22.821  1.00  0.00     0.020 A 
ATOM      9  C   UNL A   1      34.291  22.483  23.243  1.00  0.00     0.033 A 
BRANCH   6  10
ATOM     10  C   UNL A   1      31.405  22.577  25.455  1.00  0.00     0.222 C 
BRANCH  10  11
ATOM     11  C   UNL A   1      31.438  23.361  26.761  1.00  0.00     0.240 C 
ATOM     12  N   UNL A   1      31.078  24.662  26.924  1.00  0.00    -0.349 N 
ATOM     13  H   UNL A   1      31.188  24.987  27.846  1.00  0.00     0.163 HD
ATOM     14  O   UNL A   1      31.926  22.818  27.762  1.00  0.00    -0.273 OA
BRANCH  12  15
ATOM     15  C   UNL A   1      30.562  25.672  26.008  1.00  0.00     0.180 C 
BRANCH  15  16
ATOM     16  C   UNL A   1      31.566  26.761  25.548  1.00  0.00     0.199 C 
ATOM     17  C   UNL A   1      30.946  27.791  24.590  1.00  0.00     0.077 C 
BRANCH  16  18
ATOM     18  N   UNL A   1      32.355  27.332  26.664  1.00  0.00    -0.336 N 
ATOM     19  C   UNL A   1      33.575  27.988  26.190  1.00  0.00     0.332 C 
ATOM     20  C   UNL A   1      31.600  28.206  27.554  1.00  0.00     0.332 C 
ATOM     21  H   UNL A   1      32.619  26.527  27.233  1.00  0.00     0.347 HD
ENDBRANCH  16  18
ENDBRANCH  15  16
ENDBRANCH  12  15
ENDBRANCH  10  11
ENDBRANCH   6  10
ENDBRANCH   1   5
BRANCH   3  22
ATOM     22  C   UNL A   1      36.689  20.761  25.004  1.00  0.00     0.118 C 
BRANCH  22  23
ATOM     23  C   UNL A   1      37.777  19.689  25.055  1.00  0.00     0.042 C 
BRANCH  23  24
ATOM     24  C   UNL A   1      39.046  20.218  25.693  1.00  0.00     0.118 C 
BRANCH  24  25
ATOM     25  N   UNL A   1      40.016  19.142  25.856  1.00  0.00    -0.352 N 
ATOM     26  C   UNL A   1      41.371  19.231  26.048  1.00  0.00     0.251 C 
ATOM     27  H   UNL A   1      39.649  18.229  25.826  1.00  0.00     0.163 HD
ATOM     28  O   UNL A   1      42.093  18.268  25.856  1.00  0.00    -0.269 OA
BRANCH  26  29
ATOM     29  C   UNL A   1      41.946  20.521  26.456  1.00  0.00     0.039 A 
ATOM     30  C   UNL A   1      42.396  21.391  25.462  1.00  0.00     0.014 A 
ATOM     31  C   UNL A   1      42.033  20.856  27.813  1.00  0.00     0.014 A 
ATOM     32  C   UNL A   1      42.871  22.640  25.830  1.00  0.00     0.010 A 
ATOM     33  C   UNL A   1      42.454  22.121  28.180  1.00  0.00     0.010 A 
ATOM     34  C   UNL A   1      42.868  23.008  27.184  1.00  0.00    -0.014 A 
BRANCH  34  35
ATOM     35  C   UNL A   1      43.207  24.399  27.531  1.00  0.00     0.031 A 
ATOM     36  C   UNL A   1      41.939  25.248  27.726  1.00  0.00     0.074 A 
ATOM     37  C   UNL A   1      44.541  24.698  27.544  1.00  0.00     0.049 A 
ATOM     38  N   UNL A   1      41.731  26.495  27.447  1.00  0.00    -0.248 NA
ATOM     39  C   UNL A   1      40.691  24.602  28.225  1.00  0.00     0.031 C 
ATOM     40  C   UNL A   1      45.632  23.702  27.395  1.00  0.00     0.029 A 
ATOM     41  N   UNL A   1      45.264  25.863  27.669  1.00  0.00    -0.354 N 
ATOM     42  C   UNL A   1      40.413  26.824  27.839  1.00  0.00     0.074 A 
ATOM     43  C   UNL A   1      39.793  25.595  28.234  1.00  0.00     0.031 C 
ATOM     44  C   UNL A   1      46.838  24.303  27.352  1.00  0.00     0.029 A 
ATOM     45  C   UNL A   1      46.661  25.736  27.448  1.00  0.00     0.049 A 
ATOM     46  H   UNL A   1      44.843  26.724  27.896  1.00  0.00     0.167 HD
ATOM     47  C   UNL A   1      39.964  28.114  27.912  1.00  0.00     0.031 A 
ATOM     48  C   UNL A   1      47.598  26.717  27.275  1.00  0.00     0.031 A 
ATOM     49  C   UNL A   1      40.987  29.004  27.481  1.00  0.00     0.049 A 
ATOM     50  C   UNL A   1      46.881  27.986  27.456  1.00  0.00     0.074 A 
ATOM     51  C   UNL A   1      41.512  29.280  26.246  1.00  0.00     0.029 A 
ATOM     52  N   UNL A   1      41.860  29.430  28.451  1.00  0.00    -0.354 N 
ATOM     53  N   UNL A   1      46.468  28.455  28.592  1.00  0.00    -0.248 NA
ATOM     54  C   UNL A   1      46.498  28.750  26.262  1.00  0.00     0.031 C 
ATOM     55  C   UNL A   1      42.896  29.362  26.509  1.00  0.00     0.029 A 
ATOM     56  C   UNL A   1      43.111  29.398  27.891  1.00  0.00     0.049 A 
ATOM     57  H   UNL A   1      41.633  29.704  29.369  1.00  0.00     0.167 HD
ATOM     58  C   UNL A   1      45.471  29.314  28.202  1.00  0.00     0.074 A 
ATOM     59  C   UNL A   1      45.762  29.696  26.838  1.00  0.00     0.031 C 
ATOM     60  C   UNL A   1      44.241  29.216  28.769  1.00  0.00     0.031 A 
BRANCH  47  61
ATOM     61  C   UNL A   1      38.761  28.742  28.561  1.00  0.00    -0.014 A 
ATOM     62  C   UNL A   1      38.125  29.800  27.859  1.00  0.00     0.009 A 
ATOM     63  C   UNL A   1      38.450  28.598  29.915  1.00  0.00     0.009 A 
ATOM     64  C   UNL A   1      37.327  30.746  28.506  1.00  0.00     0.001 A 
ATOM     65  C   UNL A   1      37.617  29.529  30.558  1.00  0.00     0.001 A 
ATOM     66  C   UNL A   1      37.091  30.620  29.865  1.00  0.00     0.000 A 
ENDBRANCH  47  61
BRANCH  48  67
ATOM     67  C   UNL A   1      49.035  26.826  26.829  1.00  0.00    -0.014 A 
ATOM     68  C   UNL A   1      50.136  27.099  27.644  1.00  0.00     0.009 A 
ATOM     69  C   UNL A   1      49.337  26.581  25.460  1.00  0.00     0.009 A 
ATOM     70  C   UNL A   1      51.453  27.027  27.137  1.00  0.00     0.001 A 
ATOM     71  C   UNL A   1      50.637  26.464  24.961  1.00  0.00     0.001 A 
ATOM     72  C   UNL A   1      51.704  26.674  25.810  1.00  0.00     0.000 A 
ENDBRANCH  48  67
BRANCH  60  73
ATOM     73  C   UNL A   1      44.203  28.533  30.130  1.00  0.00    -0.014 A 
ATOM     74  C   UNL A   1      43.864  27.173  30.215  1.00  0.00     0.009 A 
ATOM     75  C   UNL A   1      44.373  29.222  31.345  1.00  0.00     0.009 A 
ATOM     76  C   UNL A   1      43.679  26.538  31.451  1.00  0.00     0.001 A 
ATOM     77  C   UNL A   1      44.191  28.592  32.586  1.00  0.00     0.001 A 
ATOM     78  C   UNL A   1      43.838  27.248  32.637  1.00  0.00     0.000 A 
ENDBRANCH  60  73
ENDBRANCH  34  35
ENDBRANCH  26  29
ENDBRANCH  24  25
ENDBRANCH  23  24
ENDBRANCH  22  23
ENDBRANCH   3  22
TORSDOF 15
ENDMDL
