MODEL 1
REMARK VINA RESULT:     -12.1      0.000      0.000
REMARK SMILES O=C(NCCCNC(=O)c1cc(-c2ccccc2)nc(Nc2nc3ccccc3s2)n1)c1ccc(-c2c3nc(c(-c4ccccc4)c4ccc([nH]4)c(-c4ccccc4)c4nc(c(-c5ccccc5)c5ccc2[nH]5)C=C4)C=C3)cc1
REMARK SMILES IDX 5 1 4 2 3 3 1 4 2 5 32 7 33 8 79 9 34 10 78 11 35 12 36 13
REMARK SMILES IDX 37 14 72 15 38 16 77 17 71 18 73 19 39 20 76 21 70 22 69 23
REMARK SMILES IDX 40 25 62 26 47 27 61 28 48 29 51 30 60 31 74 32 49 33 50 34
REMARK SMILES IDX 59 36 75 37 52 38 41 39 42 40 46 41 43 42 45 43 44 44 63 45
REMARK SMILES IDX 64 46 68 47 65 48 67 49 66 50 53 51 54 52 58 53 55 54 57 55
REMARK SMILES IDX 56 56 6 57 7 58 8 59 9 61 10 62 11 63 31 64 12 65 20 66
REMARK SMILES IDX 19 67 13 68 14 69 18 70 15 71 17 72 16 73 21 74 22 76 23 77
REMARK SMILES IDX 30 78 24 79 29 80 25 81 28 82 26 83 27 84
REMARK H PARENT 3 6 73 24 51 35 7 60 21 75
REMARK Flexibility Score: inf
ROOT
ATOM      1  C   UNL A   1      33.666  27.825  25.914  1.00  0.00     0.042 C 
ENDROOT
BRANCH   1   2
ATOM      2  C   UNL A   1      33.329  28.405  27.281  1.00  0.00     0.118 C 
BRANCH   2   3
ATOM      3  N   UNL A   1      33.398  29.860  27.318  1.00  0.00    -0.352 N 
ATOM      4  O   UNL A   1      34.162  31.903  27.862  1.00  0.00    -0.269 OA
ATOM      5  C   UNL A   1      34.384  30.702  27.775  1.00  0.00     0.251 C 
ATOM      6  H   UNL A   1      32.606  30.317  26.953  1.00  0.00     0.163 HD
BRANCH   5   7
ATOM      7  C   UNL A   1      35.697  30.164  28.193  1.00  0.00     0.039 A 
ATOM      8  C   UNL A   1      35.890  29.645  29.473  1.00  0.00     0.014 A 
ATOM      9  C   UNL A   1      36.753  30.164  27.277  1.00  0.00     0.014 A 
ATOM     10  C   UNL A   1      37.170  29.309  29.897  1.00  0.00     0.010 A 
ATOM     11  C   UNL A   1      38.020  29.722  27.672  1.00  0.00     0.010 A 
ATOM     12  C   UNL A   1      38.250  29.339  29.002  1.00  0.00    -0.014 A 
BRANCH  12  13
ATOM     13  C   UNL A   1      39.599  28.938  29.478  1.00  0.00     0.031 A 
ATOM     14  C   UNL A   1      40.318  29.730  30.534  1.00  0.00     0.074 A 
ATOM     15  C   UNL A   1      40.159  27.816  28.982  1.00  0.00     0.049 A 
ATOM     16  N   UNL A   1      41.475  29.488  31.101  1.00  0.00    -0.248 NA
ATOM     17  C   UNL A   1      39.663  30.957  31.015  1.00  0.00     0.031 C 
ATOM     18  C   UNL A   1      39.563  26.959  27.953  1.00  0.00     0.029 A 
ATOM     19  N   UNL A   1      41.335  27.188  29.297  1.00  0.00    -0.354 N 
ATOM     20  C   UNL A   1      41.698  30.543  31.977  1.00  0.00     0.074 A 
ATOM     21  C   UNL A   1      40.569  31.439  31.853  1.00  0.00     0.031 C 
ATOM     22  C   UNL A   1      40.343  25.885  27.772  1.00  0.00     0.029 A 
ATOM     23  C   UNL A   1      41.522  26.007  28.620  1.00  0.00     0.049 A 
ATOM     24  H   UNL A   1      41.983  27.548  29.944  1.00  0.00     0.167 HD
ATOM     25  C   UNL A   1      42.746  30.744  32.812  1.00  0.00     0.031 A 
ATOM     26  C   UNL A   1      42.531  25.120  28.672  1.00  0.00     0.031 A 
ATOM     27  C   UNL A   1      43.864  29.847  32.947  1.00  0.00     0.049 A 
ATOM     28  C   UNL A   1      43.688  25.377  29.592  1.00  0.00     0.074 A 
ATOM     29  C   UNL A   1      44.953  29.947  33.795  1.00  0.00     0.029 A 
ATOM     30  N   UNL A   1      44.036  28.684  32.211  1.00  0.00    -0.354 N 
ATOM     31  N   UNL A   1      43.866  26.363  30.435  1.00  0.00    -0.248 NA
ATOM     32  C   UNL A   1      44.779  24.395  29.565  1.00  0.00     0.031 C 
ATOM     33  C   UNL A   1      45.810  28.870  33.537  1.00  0.00     0.029 A 
ATOM     34  C   UNL A   1      45.226  28.071  32.568  1.00  0.00     0.049 A 
ATOM     35  H   UNL A   1      43.406  28.346  31.534  1.00  0.00     0.167 HD
ATOM     36  C   UNL A   1      45.080  26.110  31.059  1.00  0.00     0.074 A 
ATOM     37  C   UNL A   1      45.585  24.869  30.506  1.00  0.00     0.031 C 
ATOM     38  C   UNL A   1      45.717  26.839  32.007  1.00  0.00     0.031 A 
BRANCH  25  39
ATOM     39  C   UNL A   1      42.750  32.011  33.624  1.00  0.00    -0.014 A 
ATOM     40  C   UNL A   1      43.319  33.197  33.135  1.00  0.00     0.009 A 
ATOM     41  C   UNL A   1      42.145  32.023  34.892  1.00  0.00     0.009 A 
ATOM     42  C   UNL A   1      43.318  34.356  33.913  1.00  0.00     0.001 A 
ATOM     43  C   UNL A   1      42.122  33.191  35.657  1.00  0.00     0.001 A 
ATOM     44  C   UNL A   1      42.717  34.354  35.172  1.00  0.00     0.000 A 
ENDBRANCH  25  39
BRANCH  26  45
ATOM     45  C   UNL A   1      42.481  23.898  27.829  1.00  0.00    -0.014 A 
ATOM     46  C   UNL A   1      42.101  22.667  28.384  1.00  0.00     0.009 A 
ATOM     47  C   UNL A   1      42.791  23.962  26.461  1.00  0.00     0.009 A 
ATOM     48  C   UNL A   1      42.048  21.521  27.589  1.00  0.00     0.001 A 
ATOM     49  C   UNL A   1      42.710  22.820  25.664  1.00  0.00     0.001 A 
ATOM     50  C   UNL A   1      42.346  21.599  26.229  1.00  0.00     0.000 A 
ENDBRANCH  26  45
BRANCH  38  51
ATOM     51  C   UNL A   1      47.012  26.288  32.531  1.00  0.00    -0.014 A 
ATOM     52  C   UNL A   1      48.245  26.662  31.973  1.00  0.00     0.009 A 
ATOM     53  C   UNL A   1      46.997  25.397  33.614  1.00  0.00     0.009 A 
ATOM     54  C   UNL A   1      49.434  26.123  32.465  1.00  0.00     0.001 A 
ATOM     55  C   UNL A   1      48.189  24.880  34.122  1.00  0.00     0.001 A 
ATOM     56  C   UNL A   1      49.406  25.234  33.541  1.00  0.00     0.000 A 
ENDBRANCH  38  51
ENDBRANCH  12  13
ENDBRANCH   5   7
ENDBRANCH   2   3
ENDBRANCH   1   2
BRANCH   1  57
ATOM     57  C   UNL A   1      32.453  27.400  25.101  1.00  0.00     0.118 C 
BRANCH  57  58
ATOM     58  N   UNL A   1      32.734  27.328  23.677  1.00  0.00    -0.351 N 
ATOM     59  C   UNL A   1      33.357  26.345  22.943  1.00  0.00     0.270 C 
ATOM     60  H   UNL A   1      32.429  28.104  23.154  1.00  0.00     0.163 HD
ATOM     61  O   UNL A   1      33.611  26.558  21.760  1.00  0.00    -0.268 OA
BRANCH  59  62
ATOM     62  C   UNL A   1      33.679  25.037  23.565  1.00  0.00     0.134 A 
ATOM     63  C   UNL A   1      34.915  24.815  24.106  1.00  0.00     0.063 A 
ATOM     64  N   UNL A   1      32.692  24.134  23.583  1.00  0.00    -0.207 NA
ATOM     65  C   UNL A   1      35.125  23.551  24.603  1.00  0.00     0.077 A 
ATOM     66  C   UNL A   1      32.941  22.946  24.140  1.00  0.00     0.230 A 
ATOM     67  N   UNL A   1      34.146  22.615  24.640  1.00  0.00    -0.213 NA
BRANCH  65  68
ATOM     68  C   UNL A   1      36.472  23.151  25.042  1.00  0.00     0.000 A 
ATOM     69  C   UNL A   1      37.249  24.001  25.845  1.00  0.00     0.010 A 
ATOM     70  C   UNL A   1      36.976  21.866  24.764  1.00  0.00     0.010 A 
ATOM     71  C   UNL A   1      38.465  23.569  26.383  1.00  0.00     0.001 A 
ATOM     72  C   UNL A   1      38.191  21.434  25.299  1.00  0.00     0.001 A 
ATOM     73  C   UNL A   1      38.931  22.283  26.116  1.00  0.00     0.000 A 
ENDBRANCH  65  68
BRANCH  66  74
ATOM     74  N   UNL A   1      31.903  22.034  24.308  1.00  0.00    -0.300 N 
ATOM     75  H   UNL A   1      30.999  22.378  24.488  1.00  0.00     0.172 HD
BRANCH  74  76
ATOM     76  C   UNL A   1      32.081  20.698  24.236  1.00  0.00     0.190 A 
ATOM     77  N   UNL A   1      32.083  19.880  25.265  1.00  0.00    -0.220 NA
ATOM     78  S   UNL A   1      32.343  19.921  22.717  1.00  0.00    -0.097 S 
ATOM     79  C   UNL A   1      32.515  18.626  24.895  1.00  0.00     0.084 A 
ATOM     80  C   UNL A   1      32.742  18.452  23.531  1.00  0.00     0.056 A 
ATOM     81  C   UNL A   1      32.758  17.553  25.774  1.00  0.00     0.030 A 
ATOM     82  C   UNL A   1      33.222  17.238  23.014  1.00  0.00     0.021 A 
ATOM     83  C   UNL A   1      33.245  16.344  25.274  1.00  0.00     0.002 A 
ATOM     84  C   UNL A   1      33.478  16.193  23.911  1.00  0.00     0.002 A 
ENDBRANCH  74  76
ENDBRANCH  66  74
ENDBRANCH  59  62
ENDBRANCH  57  58
ENDBRANCH   1  57
TORSDOF 13
ENDMDL
MODEL 2
REMARK VINA RESULT:     -11.9      3.215      8.518
REMARK SMILES O=C(NCCCNC(=O)c1cc(-c2ccccc2)nc(Nc2nc3ccccc3s2)n1)c1ccc(-c2c3nc(c(-c4ccccc4)c4ccc([nH]4)c(-c4ccccc4)c4nc(c(-c5ccccc5)c5ccc2[nH]5)C=C4)C=C3)cc1
REMARK SMILES IDX 5 1 4 2 3 3 1 4 2 5 32 7 33 8 79 9 34 10 78 11 35 12 36 13
REMARK SMILES IDX 37 14 72 15 38 16 77 17 71 18 73 19 39 20 76 21 70 22 69 23
REMARK SMILES IDX 40 25 62 26 47 27 61 28 48 29 51 30 60 31 74 32 49 33 50 34
REMARK SMILES IDX 59 36 75 37 52 38 41 39 42 40 46 41 43 42 45 43 44 44 63 45
REMARK SMILES IDX 64 46 68 47 65 48 67 49 66 50 53 51 54 52 58 53 55 54 57 55
REMARK SMILES IDX 56 56 6 57 7 58 8 59 9 61 10 62 11 63 31 64 12 65 20 66
REMARK SMILES IDX 19 67 13 68 14 69 18 70 15 71 17 72 16 73 21 74 22 76 23 77
REMARK SMILES IDX 30 78 24 79 29 80 25 81 28 82 26 83 27 84
REMARK H PARENT 3 6 73 24 51 35 7 60 21 75
REMARK Flexibility Score: inf
ROOT
ATOM      1  C   UNL A   1      35.779  23.567  25.904  1.00  0.00     0.042 C 
ENDROOT
BRANCH   1   2
ATOM      2  C   UNL A   1      37.031  23.679  25.045  1.00  0.00     0.118 C 
BRANCH   2   3
ATOM      3  N   UNL A   1      38.077  22.742  25.433  1.00  0.00    -0.352 N 
ATOM      4  O   UNL A   1      40.068  22.032  26.199  1.00  0.00    -0.269 OA
ATOM      5  C   UNL A   1      39.248  22.939  26.127  1.00  0.00     0.251 C 
ATOM      6  H   UNL A   1      37.919  21.812  25.153  1.00  0.00     0.163 HD
BRANCH   5   7
ATOM      7  C   UNL A   1      39.538  24.246  26.756  1.00  0.00     0.039 A 
ATOM      8  C   UNL A   1      40.206  25.251  26.058  1.00  0.00     0.014 A 
ATOM      9  C   UNL A   1      39.115  24.475  28.069  1.00  0.00     0.014 A 
ATOM     10  C   UNL A   1      40.619  26.398  26.723  1.00  0.00     0.010 A 
ATOM     11  C   UNL A   1      39.437  25.678  28.706  1.00  0.00     0.010 A 
ATOM     12  C   UNL A   1      40.237  26.629  28.054  1.00  0.00    -0.014 A 
BRANCH  12  13
ATOM     13  C   UNL A   1      40.663  27.883  28.725  1.00  0.00     0.031 A 
ATOM     14  C   UNL A   1      42.104  28.120  29.088  1.00  0.00     0.074 A 
ATOM     15  C   UNL A   1      39.745  28.840  28.966  1.00  0.00     0.049 A 
ATOM     16  N   UNL A   1      42.655  29.180  29.626  1.00  0.00    -0.248 NA
ATOM     17  C   UNL A   1      43.051  27.026  28.820  1.00  0.00     0.031 C 
ATOM     18  C   UNL A   1      38.315  28.733  28.661  1.00  0.00     0.029 A 
ATOM     19  N   UNL A   1      39.879  30.099  29.491  1.00  0.00    -0.354 N 
ATOM     20  C   UNL A   1      43.999  28.871  29.790  1.00  0.00     0.074 A 
ATOM     21  C   UNL A   1      44.179  27.516  29.315  1.00  0.00     0.031 C 
ATOM     22  C   UNL A   1      37.719  29.900  28.941  1.00  0.00     0.029 A 
ATOM     23  C   UNL A   1      38.706  30.813  29.503  1.00  0.00     0.049 A 
ATOM     24  H   UNL A   1      40.733  30.455  29.827  1.00  0.00     0.167 HD
ATOM     25  C   UNL A   1      44.994  29.645  30.287  1.00  0.00     0.031 A 
ATOM     26  C   UNL A   1      38.449  32.065  29.923  1.00  0.00     0.031 A 
ATOM     27  C   UNL A   1      44.819  30.997  30.749  1.00  0.00     0.049 A 
ATOM     28  C   UNL A   1      39.564  32.894  30.486  1.00  0.00     0.074 A 
ATOM     29  C   UNL A   1      45.774  31.875  31.232  1.00  0.00     0.029 A 
ATOM     30  N   UNL A   1      43.605  31.668  30.786  1.00  0.00    -0.354 N 
ATOM     31  N   UNL A   1      40.835  32.595  30.604  1.00  0.00    -0.248 NA
ATOM     32  C   UNL A   1      39.208  34.233  30.971  1.00  0.00     0.031 C 
ATOM     33  C   UNL A   1      45.131  33.060  31.608  1.00  0.00     0.029 A 
ATOM     34  C   UNL A   1      43.784  32.939  31.306  1.00  0.00     0.049 A 
ATOM     35  H   UNL A   1      42.745  31.296  30.486  1.00  0.00     0.167 HD
ATOM     36  C   UNL A   1      41.436  33.717  31.155  1.00  0.00     0.074 A 
ATOM     37  C   UNL A   1      40.392  34.707  31.334  1.00  0.00     0.031 C 
ATOM     38  C   UNL A   1      42.736  33.912  31.482  1.00  0.00     0.031 A 
BRANCH  25  39
ATOM     39  C   UNL A   1      46.362  29.029  30.392  1.00  0.00    -0.014 A 
ATOM     40  C   UNL A   1      46.768  28.328  31.538  1.00  0.00     0.009 A 
ATOM     41  C   UNL A   1      47.253  29.130  29.310  1.00  0.00     0.009 A 
ATOM     42  C   UNL A   1      48.048  27.775  31.614  1.00  0.00     0.001 A 
ATOM     43  C   UNL A   1      48.522  28.554  29.378  1.00  0.00     0.001 A 
ATOM     44  C   UNL A   1      48.923  27.885  30.533  1.00  0.00     0.000 A 
ENDBRANCH  25  39
BRANCH  26  45
ATOM     45  C   UNL A   1      37.071  32.609  29.814  1.00  0.00    -0.014 A 
ATOM     46  C   UNL A   1      36.709  33.413  28.723  1.00  0.00     0.009 A 
ATOM     47  C   UNL A   1      36.106  32.308  30.789  1.00  0.00     0.009 A 
ATOM     48  C   UNL A   1      35.412  33.918  28.619  1.00  0.00     0.001 A 
ATOM     49  C   UNL A   1      34.803  32.792  30.667  1.00  0.00     0.001 A 
ATOM     50  C   UNL A   1      34.459  33.602  29.586  1.00  0.00     0.000 A 
ENDBRANCH  26  45
BRANCH  38  51
ATOM     51  C   UNL A   1      43.106  35.261  32.029  1.00  0.00    -0.014 A 
ATOM     52  C   UNL A   1      42.871  35.593  33.373  1.00  0.00     0.009 A 
ATOM     53  C   UNL A   1      43.716  36.205  31.189  1.00  0.00     0.009 A 
ATOM     54  C   UNL A   1      43.207  36.860  33.854  1.00  0.00     0.001 A 
ATOM     55  C   UNL A   1      44.075  37.460  31.680  1.00  0.00     0.001 A 
ATOM     56  C   UNL A   1      43.810  37.791  33.008  1.00  0.00     0.000 A 
ENDBRANCH  38  51
ENDBRANCH  12  13
ENDBRANCH   5   7
ENDBRANCH   2   3
ENDBRANCH   1   2
BRANCH   1  57
ATOM     57  C   UNL A   1      34.579  22.974  25.183  1.00  0.00     0.118 C 
BRANCH  57  58
ATOM     58  N   UNL A   1      33.487  22.654  26.087  1.00  0.00    -0.351 N 
ATOM     59  C   UNL A   1      32.470  23.447  26.568  1.00  0.00     0.270 C 
ATOM     60  H   UNL A   1      33.472  21.723  26.407  1.00  0.00     0.163 HD
ATOM     61  O   UNL A   1      31.728  22.999  27.439  1.00  0.00    -0.268 OA
BRANCH  59  62
ATOM     62  C   UNL A   1      32.252  24.805  26.011  1.00  0.00     0.134 A 
ATOM     63  C   UNL A   1      32.908  25.881  26.541  1.00  0.00     0.063 A 
ATOM     64  N   UNL A   1      31.421  24.888  24.966  1.00  0.00    -0.207 NA
ATOM     65  C   UNL A   1      32.589  27.099  25.988  1.00  0.00     0.077 A 
ATOM     66  C   UNL A   1      31.204  26.093  24.434  1.00  0.00     0.230 A 
ATOM     67  N   UNL A   1      31.754  27.217  24.928  1.00  0.00    -0.213 NA
BRANCH  65  68
ATOM     68  C   UNL A   1      33.097  28.337  26.601  1.00  0.00     0.000 A 
ATOM     69  C   UNL A   1      34.467  28.499  26.865  1.00  0.00     0.010 A 
ATOM     70  C   UNL A   1      32.247  29.433  26.838  1.00  0.00     0.010 A 
ATOM     71  C   UNL A   1      34.973  29.724  27.312  1.00  0.00     0.001 A 
ATOM     72  C   UNL A   1      32.751  30.657  27.285  1.00  0.00     0.001 A 
ATOM     73  C   UNL A   1      34.115  30.804  27.513  1.00  0.00     0.000 A 
ENDBRANCH  65  68
BRANCH  66  74
ATOM     74  N   UNL A   1      30.461  26.203  23.261  1.00  0.00    -0.300 N 
ATOM     75  H   UNL A   1      30.443  25.438  22.642  1.00  0.00     0.172 HD
BRANCH  74  76
ATOM     76  C   UNL A   1      29.765  27.311  22.935  1.00  0.00     0.190 A 
ATOM     77  N   UNL A   1      30.164  28.231  22.085  1.00  0.00    -0.220 NA
ATOM     78  S   UNL A   1      28.226  27.632  23.649  1.00  0.00    -0.097 S 
ATOM     79  C   UNL A   1      29.350  29.340  22.141  1.00  0.00     0.084 A 
ATOM     80  C   UNL A   1      28.237  29.220  22.971  1.00  0.00     0.056 A 
ATOM     81  C   UNL A   1      29.569  30.552  21.458  1.00  0.00     0.030 A 
ATOM     82  C   UNL A   1      27.338  30.284  23.156  1.00  0.00     0.021 A 
ATOM     83  C   UNL A   1      28.690  31.621  21.641  1.00  0.00     0.002 A 
ATOM     84  C   UNL A   1      27.591  31.487  22.485  1.00  0.00     0.002 A 
ENDBRANCH  74  76
ENDBRANCH  66  74
ENDBRANCH  59  62
ENDBRANCH  57  58
ENDBRANCH   1  57
TORSDOF 13
ENDMDL
MODEL 3
REMARK VINA RESULT:     -11.9      2.899      5.324
REMARK SMILES O=C(NCCCNC(=O)c1cc(-c2ccccc2)nc(Nc2nc3ccccc3s2)n1)c1ccc(-c2c3nc(c(-c4ccccc4)c4ccc([nH]4)c(-c4ccccc4)c4nc(c(-c5ccccc5)c5ccc2[nH]5)C=C4)C=C3)cc1
REMARK SMILES IDX 5 1 4 2 3 3 1 4 2 5 32 7 33 8 79 9 34 10 78 11 35 12 36 13
REMARK SMILES IDX 37 14 72 15 38 16 77 17 71 18 73 19 39 20 76 21 70 22 69 23
REMARK SMILES IDX 40 25 62 26 47 27 61 28 48 29 51 30 60 31 74 32 49 33 50 34
REMARK SMILES IDX 59 36 75 37 52 38 41 39 42 40 46 41 43 42 45 43 44 44 63 45
REMARK SMILES IDX 64 46 68 47 65 48 67 49 66 50 53 51 54 52 58 53 55 54 57 55
REMARK SMILES IDX 56 56 6 57 7 58 8 59 9 61 10 62 11 63 31 64 12 65 20 66
REMARK SMILES IDX 19 67 13 68 14 69 18 70 15 71 17 72 16 73 21 74 22 76 23 77
REMARK SMILES IDX 30 78 24 79 29 80 25 81 28 82 26 83 27 84
REMARK H PARENT 3 6 73 24 51 35 7 60 21 75
REMARK Flexibility Score: inf
ROOT
ATOM      1  C   UNL A   1      31.692  31.581  26.864  1.00  0.00     0.042 C 
ENDROOT
BRANCH   1   2
ATOM      2  C   UNL A   1      32.872  32.541  26.921  1.00  0.00     0.118 C 
BRANCH   2   3
ATOM      3  N   UNL A   1      32.563  33.786  27.614  1.00  0.00    -0.352 N 
ATOM      4  O   UNL A   1      32.666  35.377  29.199  1.00  0.00    -0.269 OA
ATOM      5  C   UNL A   1      33.196  34.414  28.660  1.00  0.00     0.251 C 
ATOM      6  H   UNL A   1      31.767  34.257  27.275  1.00  0.00     0.163 HD
BRANCH   5   7
ATOM      7  C   UNL A   1      34.496  33.915  29.160  1.00  0.00     0.039 A 
ATOM      8  C   UNL A   1      35.695  34.295  28.560  1.00  0.00     0.014 A 
ATOM      9  C   UNL A   1      34.514  33.060  30.267  1.00  0.00     0.014 A 
ATOM     10  C   UNL A   1      36.883  33.680  28.934  1.00  0.00     0.010 A 
ATOM     11  C   UNL A   1      35.726  32.523  30.715  1.00  0.00     0.010 A 
ATOM     12  C   UNL A   1      36.915  32.789  30.018  1.00  0.00    -0.014 A 
BRANCH  12  13
ATOM     13  C   UNL A   1      38.207  32.177  30.417  1.00  0.00     0.031 A 
ATOM     14  C   UNL A   1      39.044  32.771  31.517  1.00  0.00     0.074 A 
ATOM     15  C   UNL A   1      38.607  31.042  29.808  1.00  0.00     0.049 A 
ATOM     16  N   UNL A   1      40.169  32.332  32.026  1.00  0.00    -0.248 NA
ATOM     17  C   UNL A   1      38.563  34.023  32.122  1.00  0.00     0.031 C 
ATOM     18  C   UNL A   1      37.886  30.365  28.727  1.00  0.00     0.029 A 
ATOM     19  N   UNL A   1      39.697  30.242  30.032  1.00  0.00    -0.354 N 
ATOM     20  C   UNL A   1      40.544  33.266  32.984  1.00  0.00     0.074 A 
ATOM     21  C   UNL A   1      39.540  34.307  32.972  1.00  0.00     0.031 C 
ATOM     22  C   UNL A   1      38.516  29.220  28.429  1.00  0.00     0.029 A 
ATOM     23  C   UNL A   1      39.716  29.113  29.249  1.00  0.00     0.049 A 
ATOM     24  H   UNL A   1      40.399  30.456  30.689  1.00  0.00     0.167 HD
ATOM     25  C   UNL A   1      41.625  33.255  33.801  1.00  0.00     0.031 A 
ATOM     26  C   UNL A   1      40.602  28.102  29.193  1.00  0.00     0.031 A 
ATOM     27  C   UNL A   1      42.618  32.213  33.823  1.00  0.00     0.049 A 
ATOM     28  C   UNL A   1      41.798  28.124  30.097  1.00  0.00     0.074 A 
ATOM     29  C   UNL A   1      43.726  32.095  34.644  1.00  0.00     0.029 A 
ATOM     30  N   UNL A   1      42.624  31.109  32.983  1.00  0.00    -0.354 N 
ATOM     31  N   UNL A   1      42.119  29.000  31.018  1.00  0.00    -0.248 NA
ATOM     32  C   UNL A   1      42.751  27.017  29.952  1.00  0.00     0.031 C 
ATOM     33  C   UNL A   1      44.430  30.945  34.268  1.00  0.00     0.029 A 
ATOM     34  C   UNL A   1      43.729  30.319  33.250  1.00  0.00     0.049 A 
ATOM     35  H   UNL A   1      41.942  30.918  32.299  1.00  0.00     0.167 HD
ATOM     36  C   UNL A   1      43.301  28.537  31.580  1.00  0.00     0.074 A 
ATOM     37  C   UNL A   1      43.629  27.297  30.906  1.00  0.00     0.031 C 
ATOM     38  C   UNL A   1      44.045  29.089  32.569  1.00  0.00     0.031 A 
BRANCH  25  39
ATOM     39  C   UNL A   1      41.808  34.432  34.720  1.00  0.00    -0.014 A 
ATOM     40  C   UNL A   1      41.299  34.430  36.029  1.00  0.00     0.009 A 
ATOM     41  C   UNL A   1      42.529  35.553  34.275  1.00  0.00     0.009 A 
ATOM     42  C   UNL A   1      41.474  35.540  36.857  1.00  0.00     0.001 A 
ATOM     43  C   UNL A   1      42.725  36.650  35.116  1.00  0.00     0.001 A 
ATOM     44  C   UNL A   1      42.189  36.648  36.402  1.00  0.00     0.000 A 
ENDBRANCH  25  39
BRANCH  26  45
ATOM     45  C   UNL A   1      40.377  26.979  28.249  1.00  0.00    -0.014 A 
ATOM     46  C   UNL A   1      40.925  27.015  26.958  1.00  0.00     0.009 A 
ATOM     47  C   UNL A   1      39.632  25.854  28.642  1.00  0.00     0.009 A 
ATOM     48  C   UNL A   1      40.717  25.955  26.074  1.00  0.00     0.001 A 
ATOM     49  C   UNL A   1      39.451  24.785  27.765  1.00  0.00     0.001 A 
ATOM     50  C   UNL A   1      39.987  24.838  26.480  1.00  0.00     0.000 A 
ENDBRANCH  26  45
BRANCH  38  51
ATOM     51  C   UNL A   1      45.267  28.332  33.004  1.00  0.00    -0.014 A 
ATOM     52  C   UNL A   1      46.521  28.572  32.422  1.00  0.00     0.009 A 
ATOM     53  C   UNL A   1      45.161  27.378  34.028  1.00  0.00     0.009 A 
ATOM     54  C   UNL A   1      47.639  27.841  32.831  1.00  0.00     0.001 A 
ATOM     55  C   UNL A   1      46.285  26.670  34.453  1.00  0.00     0.001 A 
ATOM     56  C   UNL A   1      47.520  26.893  33.847  1.00  0.00     0.000 A 
ENDBRANCH  38  51
ENDBRANCH  12  13
ENDBRANCH   5   7
ENDBRANCH   2   3
ENDBRANCH   1   2
BRANCH   1  57
ATOM     57  C   UNL A   1      32.036  30.148  27.240  1.00  0.00     0.118 C 
BRANCH  57  58
ATOM     58  N   UNL A   1      33.113  29.602  26.432  1.00  0.00    -0.351 N 
ATOM     59  C   UNL A   1      33.066  28.833  25.291  1.00  0.00     0.270 C 
ATOM     60  H   UNL A   1      34.020  29.814  26.750  1.00  0.00     0.163 HD
ATOM     61  O   UNL A   1      34.111  28.363  24.848  1.00  0.00    -0.268 OA
BRANCH  59  62
ATOM     62  C   UNL A   1      31.777  28.613  24.590  1.00  0.00     0.134 A 
ATOM     63  C   UNL A   1      31.197  29.625  23.877  1.00  0.00     0.063 A 
ATOM     64  N   UNL A   1      31.261  27.382  24.677  1.00  0.00    -0.207 NA
ATOM     65  C   UNL A   1      29.977  29.330  23.316  1.00  0.00     0.077 A 
ATOM     66  C   UNL A   1      30.105  27.142  24.054  1.00  0.00     0.230 A 
ATOM     67  N   UNL A   1      29.429  28.093  23.384  1.00  0.00    -0.213 NA
BRANCH  65  68
ATOM     68  C   UNL A   1      29.184  30.398  22.685  1.00  0.00     0.000 A 
ATOM     69  C   UNL A   1      29.035  31.647  23.308  1.00  0.00     0.010 A 
ATOM     70  C   UNL A   1      28.648  30.238  21.393  1.00  0.00     0.010 A 
ATOM     71  C   UNL A   1      28.407  32.709  22.649  1.00  0.00     0.001 A 
ATOM     72  C   UNL A   1      28.019  31.297  20.735  1.00  0.00     0.001 A 
ATOM     73  C   UNL A   1      27.907  32.534  21.360  1.00  0.00     0.000 A 
ENDBRANCH  65  68
BRANCH  66  74
ATOM     74  N   UNL A   1      29.609  25.842  24.001  1.00  0.00    -0.300 N 
ATOM     75  H   UNL A   1      28.645  25.713  23.848  1.00  0.00     0.172 HD
BRANCH  74  76
ATOM     76  C   UNL A   1      30.389  24.752  24.152  1.00  0.00     0.190 A 
ATOM     77  N   UNL A   1      30.969  24.097  23.172  1.00  0.00    -0.220 NA
ATOM     78  S   UNL A   1      30.695  24.093  25.718  1.00  0.00    -0.097 S 
ATOM     79  C   UNL A   1      31.502  22.909  23.621  1.00  0.00     0.084 A 
ATOM     80  C   UNL A   1      31.425  22.705  24.997  1.00  0.00     0.056 A 
ATOM     81  C   UNL A   1      32.077  21.912  22.810  1.00  0.00     0.030 A 
ATOM     82  C   UNL A   1      31.893  21.522  25.593  1.00  0.00     0.021 A 
ATOM     83  C   UNL A   1      32.536  20.727  23.388  1.00  0.00     0.002 A 
ATOM     84  C   UNL A   1      32.439  20.535  24.763  1.00  0.00     0.002 A 
ENDBRANCH  74  76
ENDBRANCH  66  74
ENDBRANCH  59  62
ENDBRANCH  57  58
ENDBRANCH   1  57
TORSDOF 13
ENDMDL
