MODEL 1
REMARK VINA RESULT:     -10.2      0.000      0.000
REMARK SMILES NC(=O)CC[C@H](NC(=O)CC1CC1)C(=O)NCCCNC(=O)c1ccc(-c2c3nc(c(-c4ccccc4)c4ccc([nH]4)c(-c4ccccc4)c4nc(c(-c5ccccc5)c5ccc2[nH]5)C=C4)C=C3)cc1
REMARK SMILES IDX 17 1 16 2 14 3 15 4 6 6 5 7 4 8 2 9 1 10 3 13 7 14 8 15 9 17
REMARK SMILES IDX 10 18 11 19 12 20 13 21 18 22 19 23 20 24 21 25 22 27 23 28
REMARK SMILES IDX 24 29 70 30 25 31 69 32 26 33 27 34 28 35 63 36 29 37 68 38
REMARK SMILES IDX 62 39 64 40 30 41 67 42 61 43 60 44 31 46 53 47 38 48 52 49
REMARK SMILES IDX 39 50 42 51 51 52 65 53 40 54 41 55 50 57 66 58 43 59 32 60
REMARK SMILES IDX 33 61 37 62 34 63 36 64 35 65 54 66 55 67 59 68 56 69 58 70
REMARK SMILES IDX 57 71 44 72 45 73 49 74 46 75 48 76 47 77
REMARK H PARENT 16 5 1 11 1 12 7 16 20 26 64 45 42 56
REMARK Flexibility Score: inf
ROOT
ATOM      1  C   UNL A   1      36.108  20.599  24.866  1.00  0.00     0.117 C 
ENDROOT
BRANCH   1   2
ATOM      2  N   UNL A   1      35.618  21.084  26.135  1.00  0.00    -0.354 N 
ATOM      3  C   UNL A   1      34.352  21.478  26.445  1.00  0.00     0.242 C 
ATOM      4  O   UNL A   1      34.002  21.352  27.623  1.00  0.00    -0.273 OA
ATOM      5  H   UNL A   1      36.278  21.136  26.862  1.00  0.00     0.163 HD
BRANCH   3   6
ATOM      6  C   UNL A   1      33.344  21.979  25.380  1.00  0.00     0.171 C 
BRANCH   6   7
ATOM      7  C   UNL A   1      32.285  20.870  25.096  1.00  0.00     0.045 C 
BRANCH   7   8
ATOM      8  C   UNL A   1      32.726  19.571  24.391  1.00  0.00     0.102 C 
BRANCH   8   9
ATOM      9  C   UNL A   1      32.734  18.325  25.260  1.00  0.00     0.217 C 
ATOM     10  N   UNL A   1      32.713  18.498  26.610  1.00  0.00    -0.370 N 
ATOM     11  H   UNL A   1      32.718  17.715  27.207  1.00  0.00     0.159 HD
ATOM     12  H   UNL A   1      32.692  19.406  26.991  1.00  0.00     0.159 HD
ATOM     13  O   UNL A   1      32.720  17.191  24.790  1.00  0.00    -0.275 OA
ENDBRANCH   8   9
ENDBRANCH   7   8
ENDBRANCH   6   7
BRANCH   6  14
ATOM     14  N   UNL A   1      33.890  22.550  24.149  1.00  0.00    -0.344 N 
ATOM     15  C   UNL A   1      34.352  23.786  23.835  1.00  0.00     0.220 C 
ATOM     16  H   UNL A   1      33.929  21.912  23.402  1.00  0.00     0.164 HD
ATOM     17  O   UNL A   1      34.384  24.046  22.628  1.00  0.00    -0.275 OA
BRANCH  15  18
ATOM     18  C   UNL A   1      34.920  24.744  24.855  1.00  0.00     0.103 C 
BRANCH  18  19
ATOM     19  C   UNL A   1      33.920  25.502  25.671  1.00  0.00    -0.002 C 
ATOM     20  C   UNL A   1      33.816  27.004  25.574  1.00  0.00     0.004 C 
ATOM     21  C   UNL A   1      32.709  26.140  25.041  1.00  0.00     0.004 C 
ENDBRANCH  18  19
ENDBRANCH  15  18
ENDBRANCH   6  14
ENDBRANCH   3   6
ENDBRANCH   1   2
BRANCH   1  22
ATOM     22  C   UNL A   1      37.277  19.642  24.975  1.00  0.00     0.042 C 
BRANCH  22  23
ATOM     23  C   UNL A   1      38.537  20.302  25.508  1.00  0.00     0.118 C 
BRANCH  23  24
ATOM     24  N   UNL A   1      39.627  19.351  25.701  1.00  0.00    -0.352 N 
ATOM     25  C   UNL A   1      40.928  19.558  26.083  1.00  0.00     0.251 C 
ATOM     26  H   UNL A   1      39.391  18.411  25.528  1.00  0.00     0.163 HD
ATOM     27  O   UNL A   1      41.750  18.654  25.979  1.00  0.00    -0.269 OA
BRANCH  25  28
ATOM     28  C   UNL A   1      41.339  20.871  26.616  1.00  0.00     0.039 A 
ATOM     29  C   UNL A   1      41.381  21.068  27.999  1.00  0.00     0.014 A 
ATOM     30  C   UNL A   1      41.662  21.915  25.747  1.00  0.00     0.014 A 
ATOM     31  C   UNL A   1      41.810  22.295  28.509  1.00  0.00     0.010 A 
ATOM     32  C   UNL A   1      42.184  23.095  26.253  1.00  0.00     0.010 A 
ATOM     33  C   UNL A   1      42.246  23.306  27.638  1.00  0.00    -0.014 A 
BRANCH  33  34
ATOM     34  C   UNL A   1      42.727  24.619  28.129  1.00  0.00     0.031 A 
ATOM     35  C   UNL A   1      41.728  25.706  28.425  1.00  0.00     0.074 A 
ATOM     36  C   UNL A   1      44.047  24.866  28.215  1.00  0.00     0.049 A 
ATOM     37  N   UNL A   1      41.936  26.966  28.706  1.00  0.00    -0.248 NA
ATOM     38  C   UNL A   1      40.304  25.332  28.354  1.00  0.00     0.031 C 
ATOM     39  C   UNL A   1      45.115  23.904  27.932  1.00  0.00     0.029 A 
ATOM     40  N   UNL A   1      44.717  26.017  28.549  1.00  0.00    -0.354 N 
ATOM     41  C   UNL A   1      40.674  27.538  28.812  1.00  0.00     0.074 A 
ATOM     42  C   UNL A   1      39.710  26.504  28.511  1.00  0.00     0.031 C 
ATOM     43  C   UNL A   1      46.304  24.500  28.124  1.00  0.00     0.029 A 
ATOM     44  C   UNL A   1      46.084  25.895  28.490  1.00  0.00     0.049 A 
ATOM     45  H   UNL A   1      44.260  26.851  28.804  1.00  0.00     0.167 HD
ATOM     46  C   UNL A   1      40.346  28.807  29.147  1.00  0.00     0.031 A 
ATOM     47  C   UNL A   1      47.050  26.810  28.693  1.00  0.00     0.031 A 
ATOM     48  C   UNL A   1      41.307  29.826  29.468  1.00  0.00     0.049 A 
ATOM     49  C   UNL A   1      46.661  28.219  29.051  1.00  0.00     0.074 A 
ATOM     50  C   UNL A   1      41.079  31.128  29.874  1.00  0.00     0.029 A 
ATOM     51  N   UNL A   1      42.682  29.652  29.422  1.00  0.00    -0.354 N 
ATOM     52  N   UNL A   1      45.464  28.733  29.196  1.00  0.00    -0.248 NA
ATOM     53  C   UNL A   1      47.757  29.171  29.281  1.00  0.00     0.031 C 
ATOM     54  C   UNL A   1      42.318  31.759  30.025  1.00  0.00     0.029 A 
ATOM     55  C   UNL A   1      43.316  30.830  29.775  1.00  0.00     0.049 A 
ATOM     56  H   UNL A   1      43.139  28.817  29.173  1.00  0.00     0.167 HD
ATOM     57  C   UNL A   1      45.663  30.055  29.576  1.00  0.00     0.074 A 
ATOM     58  C   UNL A   1      47.094  30.262  29.641  1.00  0.00     0.031 C 
ATOM     59  C   UNL A   1      44.742  31.009  29.853  1.00  0.00     0.031 A 
BRANCH  46  60
ATOM     60  C   UNL A   1      38.885  29.162  29.176  1.00  0.00    -0.014 A 
ATOM     61  C   UNL A   1      38.123  29.029  30.349  1.00  0.00     0.009 A 
ATOM     62  C   UNL A   1      38.266  29.663  28.021  1.00  0.00     0.009 A 
ATOM     63  C   UNL A   1      36.764  29.350  30.352  1.00  0.00     0.001 A 
ATOM     64  C   UNL A   1      36.916  30.016  28.035  1.00  0.00     0.001 A 
ATOM     65  C   UNL A   1      36.163  29.848  29.196  1.00  0.00     0.000 A 
ENDBRANCH  46  60
BRANCH  47  66
ATOM     66  C   UNL A   1      48.481  26.424  28.577  1.00  0.00    -0.014 A 
ATOM     67  C   UNL A   1      49.131  26.473  27.334  1.00  0.00     0.009 A 
ATOM     68  C   UNL A   1      49.204  26.000  29.703  1.00  0.00     0.009 A 
ATOM     69  C   UNL A   1      50.465  26.075  27.215  1.00  0.00     0.001 A 
ATOM     70  C   UNL A   1      50.547  25.632  29.586  1.00  0.00     0.001 A 
ATOM     71  C   UNL A   1      51.172  25.659  28.342  1.00  0.00     0.000 A 
ENDBRANCH  47  66
BRANCH  59  72
ATOM     72  C   UNL A   1      45.244  32.347  30.317  1.00  0.00    -0.014 A 
ATOM     73  C   UNL A   1      45.506  32.605  31.670  1.00  0.00     0.009 A 
ATOM     74  C   UNL A   1      45.528  33.340  29.365  1.00  0.00     0.009 A 
ATOM     75  C   UNL A   1      46.023  33.842  32.062  1.00  0.00     0.001 A 
ATOM     76  C   UNL A   1      46.074  34.562  29.757  1.00  0.00     0.001 A 
ATOM     77  C   UNL A   1      46.314  34.815  31.107  1.00  0.00     0.000 A 
ENDBRANCH  59  72
ENDBRANCH  33  34
ENDBRANCH  25  28
ENDBRANCH  23  24
ENDBRANCH  22  23
ENDBRANCH   1  22
TORSDOF 16
ENDMDL
MODEL 2
REMARK VINA RESULT:     -10.1      3.317      7.978
REMARK SMILES NC(=O)CC[C@H](NC(=O)CC1CC1)C(=O)NCCCNC(=O)c1ccc(-c2c3nc(c(-c4ccccc4)c4ccc([nH]4)c(-c4ccccc4)c4nc(c(-c5ccccc5)c5ccc2[nH]5)C=C4)C=C3)cc1
REMARK SMILES IDX 17 1 16 2 14 3 15 4 6 6 5 7 4 8 2 9 1 10 3 13 7 14 8 15 9 17
REMARK SMILES IDX 10 18 11 19 12 20 13 21 18 22 19 23 20 24 21 25 22 27 23 28
REMARK SMILES IDX 24 29 70 30 25 31 69 32 26 33 27 34 28 35 63 36 29 37 68 38
REMARK SMILES IDX 62 39 64 40 30 41 67 42 61 43 60 44 31 46 53 47 38 48 52 49
REMARK SMILES IDX 39 50 42 51 51 52 65 53 40 54 41 55 50 57 66 58 43 59 32 60
REMARK SMILES IDX 33 61 37 62 34 63 36 64 35 65 54 66 55 67 59 68 56 69 58 70
REMARK SMILES IDX 57 71 44 72 45 73 49 74 46 75 48 76 47 77
REMARK H PARENT 16 5 1 11 1 12 7 16 20 26 64 45 42 56
REMARK Flexibility Score: inf
ROOT
ATOM      1  C   UNL A   1      32.865  29.310  25.088  1.00  0.00     0.117 C 
ENDROOT
BRANCH   1   2
ATOM      2  N   UNL A   1      31.590  28.635  25.141  1.00  0.00    -0.354 N 
ATOM      3  C   UNL A   1      30.967  27.948  24.144  1.00  0.00     0.242 C 
ATOM      4  O   UNL A   1      30.206  27.038  24.486  1.00  0.00    -0.273 OA
ATOM      5  H   UNL A   1      31.115  28.675  26.002  1.00  0.00     0.163 HD
BRANCH   3   6
ATOM      6  C   UNL A   1      31.247  28.211  22.643  1.00  0.00     0.171 C 
BRANCH   6   7
ATOM      7  C   UNL A   1      30.015  28.914  21.995  1.00  0.00     0.045 C 
BRANCH   7   8
ATOM      8  C   UNL A   1      29.222  29.952  22.816  1.00  0.00     0.102 C 
BRANCH   8   9
ATOM      9  C   UNL A   1      27.752  29.635  23.027  1.00  0.00     0.217 C 
ATOM     10  N   UNL A   1      27.400  28.325  23.146  1.00  0.00    -0.370 N 
ATOM     11  H   UNL A   1      26.456  28.079  23.284  1.00  0.00     0.159 HD
ATOM     12  H   UNL A   1      28.088  27.623  23.095  1.00  0.00     0.159 HD
ATOM     13  O   UNL A   1      26.895  30.508  23.130  1.00  0.00    -0.275 OA
ENDBRANCH   8   9
ENDBRANCH   7   8
ENDBRANCH   6   7
BRANCH   6  14
ATOM     14  N   UNL A   1      31.728  27.088  21.838  1.00  0.00    -0.344 N 
ATOM     15  C   UNL A   1      32.893  26.394  21.831  1.00  0.00     0.220 C 
ATOM     16  H   UNL A   1      31.078  26.776  21.169  1.00  0.00     0.164 HD
ATOM     17  O   UNL A   1      33.128  25.768  20.793  1.00  0.00    -0.275 OA
BRANCH  15  18
ATOM     18  C   UNL A   1      33.790  26.267  23.041  1.00  0.00     0.103 C 
BRANCH  18  19
ATOM     19  C   UNL A   1      33.666  24.993  23.818  1.00  0.00    -0.002 C 
ATOM     20  C   UNL A   1      34.723  24.584  24.813  1.00  0.00     0.004 C 
ATOM     21  C   UNL A   1      33.361  24.996  25.293  1.00  0.00     0.004 C 
ENDBRANCH  18  19
ENDBRANCH  15  18
ENDBRANCH   6  14
ENDBRANCH   3   6
ENDBRANCH   1   2
BRANCH   1  22
ATOM     22  C   UNL A   1      33.986  28.582  25.800  1.00  0.00     0.042 C 
BRANCH  22  23
ATOM     23  C   UNL A   1      33.899  28.692  27.313  1.00  0.00     0.118 C 
BRANCH  23  24
ATOM     24  N   UNL A   1      33.802  30.075  27.767  1.00  0.00    -0.352 N 
ATOM     25  C   UNL A   1      34.683  30.834  28.496  1.00  0.00     0.251 C 
ATOM     26  H   UNL A   1      32.971  30.537  27.511  1.00  0.00     0.163 HD
ATOM     27  O   UNL A   1      34.327  31.910  28.964  1.00  0.00    -0.269 OA
BRANCH  25  28
ATOM     28  C   UNL A   1      36.060  30.352  28.718  1.00  0.00     0.039 A 
ATOM     29  C   UNL A   1      36.399  29.787  29.951  1.00  0.00     0.014 A 
ATOM     30  C   UNL A   1      37.022  30.479  27.715  1.00  0.00     0.014 A 
ATOM     31  C   UNL A   1      37.689  29.291  30.152  1.00  0.00     0.010 A 
ATOM     32  C   UNL A   1      38.269  29.895  27.878  1.00  0.00     0.010 A 
ATOM     33  C   UNL A   1      38.622  29.312  29.103  1.00  0.00    -0.014 A 
BRANCH  33  34
ATOM     34  C   UNL A   1      39.998  28.782  29.259  1.00  0.00     0.031 A 
ATOM     35  C   UNL A   1      41.089  29.698  29.746  1.00  0.00     0.074 A 
ATOM     36  C   UNL A   1      40.285  27.525  28.876  1.00  0.00     0.049 A 
ATOM     37  N   UNL A   1      42.379  29.491  29.802  1.00  0.00    -0.248 NA
ATOM     38  C   UNL A   1      40.675  31.041  30.192  1.00  0.00     0.031 C 
ATOM     39  C   UNL A   1      39.321  26.548  28.365  1.00  0.00     0.029 A 
ATOM     40  N   UNL A   1      41.485  26.858  28.840  1.00  0.00    -0.354 N 
ATOM     41  C   UNL A   1      42.930  30.684  30.254  1.00  0.00     0.074 A 
ATOM     42  C   UNL A   1      41.843  31.625  30.406  1.00  0.00     0.031 C 
ATOM     43  C   UNL A   1      39.964  25.402  28.085  1.00  0.00     0.029 A 
ATOM     44  C   UNL A   1      41.389  25.579  28.346  1.00  0.00     0.049 A 
ATOM     45  H   UNL A   1      42.333  27.259  29.138  1.00  0.00     0.167 HD
ATOM     46  C   UNL A   1      44.223  30.965  30.537  1.00  0.00     0.031 A 
ATOM     47  C   UNL A   1      42.345  24.660  28.116  1.00  0.00     0.031 A 
ATOM     48  C   UNL A   1      45.297  30.019  30.407  1.00  0.00     0.049 A 
ATOM     49  C   UNL A   1      43.778  25.001  28.424  1.00  0.00     0.074 A 
ATOM     50  C   UNL A   1      46.634  30.185  30.719  1.00  0.00     0.029 A 
ATOM     51  N   UNL A   1      45.151  28.725  29.928  1.00  0.00    -0.354 N 
ATOM     52  N   UNL A   1      44.277  26.116  28.899  1.00  0.00    -0.248 NA
ATOM     53  C   UNL A   1      44.777  23.952  28.172  1.00  0.00     0.031 C 
ATOM     54  C   UNL A   1      47.308  29.008  30.380  1.00  0.00     0.029 A 
ATOM     55  C   UNL A   1      46.379  28.088  29.920  1.00  0.00     0.049 A 
ATOM     56  H   UNL A   1      44.302  28.322  29.637  1.00  0.00     0.167 HD
ATOM     57  C   UNL A   1      45.640  25.889  29.043  1.00  0.00     0.074 A 
ATOM     58  C   UNL A   1      45.888  24.530  28.608  1.00  0.00     0.031 C 
ATOM     59  C   UNL A   1      46.600  26.728  29.501  1.00  0.00     0.031 A 
BRANCH  46  60
ATOM     60  C   UNL A   1      44.544  32.357  31.007  1.00  0.00    -0.014 A 
ATOM     61  C   UNL A   1      44.855  33.382  30.100  1.00  0.00     0.009 A 
ATOM     62  C   UNL A   1      44.508  32.655  32.379  1.00  0.00     0.009 A 
ATOM     63  C   UNL A   1      45.164  34.665  30.557  1.00  0.00     0.001 A 
ATOM     64  C   UNL A   1      44.784  33.946  32.832  1.00  0.00     0.001 A 
ATOM     65  C   UNL A   1      45.124  34.947  31.923  1.00  0.00     0.000 A 
ENDBRANCH  46  60
BRANCH  47  66
ATOM     66  C   UNL A   1      41.981  23.323  27.577  1.00  0.00    -0.014 A 
ATOM     67  C   UNL A   1      41.533  22.308  28.437  1.00  0.00     0.009 A 
ATOM     68  C   UNL A   1      42.084  23.051  26.204  1.00  0.00     0.009 A 
ATOM     69  C   UNL A   1      41.226  21.040  27.939  1.00  0.00     0.001 A 
ATOM     70  C   UNL A   1      41.746  21.791  25.704  1.00  0.00     0.001 A 
ATOM     71  C   UNL A   1      41.328  20.784  26.572  1.00  0.00     0.000 A 
ENDBRANCH  47  66
BRANCH  59  72
ATOM     72  C   UNL A   1      47.997  26.189  29.622  1.00  0.00    -0.014 A 
ATOM     73  C   UNL A   1      48.880  26.187  28.532  1.00  0.00     0.009 A 
ATOM     74  C   UNL A   1      48.455  25.745  30.872  1.00  0.00     0.009 A 
ATOM     75  C   UNL A   1      50.190  25.728  28.690  1.00  0.00     0.001 A 
ATOM     76  C   UNL A   1      49.773  25.317  31.034  1.00  0.00     0.001 A 
ATOM     77  C   UNL A   1      50.637  25.303  29.941  1.00  0.00     0.000 A 
ENDBRANCH  59  72
ENDBRANCH  33  34
ENDBRANCH  25  28
ENDBRANCH  23  24
ENDBRANCH  22  23
ENDBRANCH   1  22
TORSDOF 16
ENDMDL
MODEL 3
REMARK VINA RESULT:      -9.9      1.222      3.205
REMARK SMILES NC(=O)CC[C@H](NC(=O)CC1CC1)C(=O)NCCCNC(=O)c1ccc(-c2c3nc(c(-c4ccccc4)c4ccc([nH]4)c(-c4ccccc4)c4nc(c(-c5ccccc5)c5ccc2[nH]5)C=C4)C=C3)cc1
REMARK SMILES IDX 17 1 16 2 14 3 15 4 6 6 5 7 4 8 2 9 1 10 3 13 7 14 8 15 9 17
REMARK SMILES IDX 10 18 11 19 12 20 13 21 18 22 19 23 20 24 21 25 22 27 23 28
REMARK SMILES IDX 24 29 70 30 25 31 69 32 26 33 27 34 28 35 63 36 29 37 68 38
REMARK SMILES IDX 62 39 64 40 30 41 67 42 61 43 60 44 31 46 53 47 38 48 52 49
REMARK SMILES IDX 39 50 42 51 51 52 65 53 40 54 41 55 50 57 66 58 43 59 32 60
REMARK SMILES IDX 33 61 37 62 34 63 36 64 35 65 54 66 55 67 59 68 56 69 58 70
REMARK SMILES IDX 57 71 44 72 45 73 49 74 46 75 48 76 47 77
REMARK H PARENT 16 5 1 11 1 12 7 16 20 26 64 45 42 56
REMARK Flexibility Score: inf
ROOT
ATOM      1  C   UNL A   1      36.027  21.089  24.938  1.00  0.00     0.117 C 
ENDROOT
BRANCH   1   2
ATOM      2  N   UNL A   1      34.877  20.756  25.744  1.00  0.00    -0.354 N 
ATOM      3  C   UNL A   1      33.679  20.262  25.325  1.00  0.00     0.242 C 
ATOM      4  O   UNL A   1      33.049  19.569  26.130  1.00  0.00    -0.273 OA
ATOM      5  H   UNL A   1      34.970  20.903  26.713  1.00  0.00     0.163 HD
BRANCH   3   6
ATOM      6  C   UNL A   1      33.145  20.468  23.885  1.00  0.00     0.171 C 
BRANCH   6   7
ATOM      7  C   UNL A   1      32.379  21.824  23.798  1.00  0.00     0.045 C 
BRANCH   7   8
ATOM      8  C   UNL A   1      33.026  23.094  24.390  1.00  0.00     0.102 C 
BRANCH   8   9
ATOM      9  C   UNL A   1      33.507  24.116  23.376  1.00  0.00     0.217 C 
ATOM     10  N   UNL A   1      32.963  25.363  23.429  1.00  0.00    -0.370 N 
ATOM     11  H   UNL A   1      33.249  26.053  22.788  1.00  0.00     0.159 HD
ATOM     12  H   UNL A   1      32.283  25.575  24.109  1.00  0.00     0.159 HD
ATOM     13  O   UNL A   1      34.382  23.868  22.552  1.00  0.00    -0.275 OA
ENDBRANCH   8   9
ENDBRANCH   7   8
ENDBRANCH   6   7
BRANCH   6  14
ATOM     14  N   UNL A   1      32.392  19.369  23.280  1.00  0.00    -0.344 N 
ATOM     15  C   UNL A   1      32.762  18.158  22.796  1.00  0.00     0.220 C 
ATOM     16  H   UNL A   1      31.426  19.544  23.211  1.00  0.00     0.164 HD
ATOM     17  O   UNL A   1      31.959  17.633  22.018  1.00  0.00    -0.275 OA
BRANCH  15  18
ATOM     18  C   UNL A   1      33.996  17.420  23.261  1.00  0.00     0.103 C 
BRANCH  18  19
ATOM     19  C   UNL A   1      33.753  16.180  24.065  1.00  0.00    -0.002 C 
ATOM     20  C   UNL A   1      34.410  15.986  25.409  1.00  0.00     0.004 C 
ATOM     21  C   UNL A   1      32.927  16.206  25.324  1.00  0.00     0.004 C 
ENDBRANCH  18  19
ENDBRANCH  15  18
ENDBRANCH   6  14
ENDBRANCH   3   6
ENDBRANCH   1   2
BRANCH   1  22
ATOM     22  C   UNL A   1      37.138  20.059  24.982  1.00  0.00     0.042 C 
BRANCH  22  23
ATOM     23  C   UNL A   1      38.466  20.638  25.438  1.00  0.00     0.118 C 
BRANCH  23  24
ATOM     24  N   UNL A   1      39.498  19.617  25.590  1.00  0.00    -0.352 N 
ATOM     25  C   UNL A   1      40.809  19.731  25.977  1.00  0.00     0.251 C 
ATOM     26  H   UNL A   1      39.207  18.701  25.379  1.00  0.00     0.163 HD
ATOM     27  O   UNL A   1      41.576  18.785  25.835  1.00  0.00    -0.269 OA
BRANCH  25  28
ATOM     28  C   UNL A   1      41.297  20.995  26.563  1.00  0.00     0.039 A 
ATOM     29  C   UNL A   1      41.819  21.983  25.725  1.00  0.00     0.014 A 
ATOM     30  C   UNL A   1      41.256  21.193  27.944  1.00  0.00     0.014 A 
ATOM     31  C   UNL A   1      42.242  23.198  26.270  1.00  0.00     0.010 A 
ATOM     32  C   UNL A   1      41.579  22.433  28.472  1.00  0.00     0.010 A 
ATOM     33  C   UNL A   1      42.094  23.442  27.644  1.00  0.00    -0.014 A 
BRANCH  33  34
ATOM     34  C   UNL A   1      42.510  24.720  28.269  1.00  0.00     0.031 A 
ATOM     35  C   UNL A   1      41.488  25.808  28.471  1.00  0.00     0.074 A 
ATOM     36  C   UNL A   1      43.805  24.940  28.561  1.00  0.00     0.049 A 
ATOM     37  N   UNL A   1      41.664  27.049  28.845  1.00  0.00    -0.248 NA
ATOM     38  C   UNL A   1      40.087  25.462  28.171  1.00  0.00     0.031 C 
ATOM     39  C   UNL A   1      44.893  23.975  28.389  1.00  0.00     0.029 A 
ATOM     40  N   UNL A   1      44.429  26.061  29.050  1.00  0.00    -0.354 N 
ATOM     41  C   UNL A   1      40.406  27.636  28.793  1.00  0.00     0.074 A 
ATOM     42  C   UNL A   1      39.487  26.635  28.300  1.00  0.00     0.031 C 
ATOM     43  C   UNL A   1      46.046  24.540  28.785  1.00  0.00     0.029 A 
ATOM     44  C   UNL A   1      45.788  25.919  29.187  1.00  0.00     0.049 A 
ATOM     45  H   UNL A   1      43.947  26.889  29.279  1.00  0.00     0.167 HD
ATOM     46  C   UNL A   1      40.044  28.892  29.143  1.00  0.00     0.031 A 
ATOM     47  C   UNL A   1      46.722  26.806  29.579  1.00  0.00     0.031 A 
ATOM     48  C   UNL A   1      40.956  29.877  29.655  1.00  0.00     0.049 A 
ATOM     49  C   UNL A   1      46.298  28.201  29.948  1.00  0.00     0.074 A 
ATOM     50  C   UNL A   1      40.683  31.161  30.091  1.00  0.00     0.029 A 
ATOM     51  N   UNL A   1      42.322  29.682  29.803  1.00  0.00    -0.354 N 
ATOM     52  N   UNL A   1      45.097  28.728  29.942  1.00  0.00    -0.248 NA
ATOM     53  C   UNL A   1      47.357  29.121  30.387  1.00  0.00     0.031 C 
ATOM     54  C   UNL A   1      41.892  31.762  30.455  1.00  0.00     0.029 A 
ATOM     55  C   UNL A   1      42.907  30.829  30.307  1.00  0.00     0.049 A 
ATOM     56  H   UNL A   1      42.802  28.852  29.581  1.00  0.00     0.167 HD
ATOM     57  C   UNL A   1      45.250  30.025  30.416  1.00  0.00     0.074 A 
ATOM     58  C   UNL A   1      46.658  30.204  30.702  1.00  0.00     0.031 C 
ATOM     59  C   UNL A   1      44.308  30.980  30.604  1.00  0.00     0.031 A 
BRANCH  46  60
ATOM     60  C   UNL A   1      38.598  29.270  28.975  1.00  0.00    -0.014 A 
ATOM     61  C   UNL A   1      38.096  29.709  27.739  1.00  0.00     0.009 A 
ATOM     62  C   UNL A   1      37.718  29.159  30.062  1.00  0.00     0.009 A 
ATOM     63  C   UNL A   1      36.753  30.070  27.607  1.00  0.00     0.001 A 
ATOM     64  C   UNL A   1      36.368  29.487  29.919  1.00  0.00     0.001 A 
ATOM     65  C   UNL A   1      35.890  29.954  28.696  1.00  0.00     0.000 A 
ENDBRANCH  46  60
BRANCH  47  66
ATOM     66  C   UNL A   1      48.151  26.401  29.654  1.00  0.00    -0.014 A 
ATOM     67  C   UNL A   1      49.001  26.586  28.553  1.00  0.00     0.009 A 
ATOM     68  C   UNL A   1      48.672  25.824  30.823  1.00  0.00     0.009 A 
ATOM     69  C   UNL A   1      50.333  26.173  28.608  1.00  0.00     0.001 A 
ATOM     70  C   UNL A   1      50.014  25.441  30.886  1.00  0.00     0.001 A 
ATOM     71  C   UNL A   1      50.840  25.605  29.776  1.00  0.00     0.000 A 
ENDBRANCH  47  66
BRANCH  59  72
ATOM     72  C   UNL A   1      44.748  32.284  31.206  1.00  0.00    -0.014 A 
ATOM     73  C   UNL A   1      44.798  32.472  32.595  1.00  0.00     0.009 A 
ATOM     74  C   UNL A   1      45.191  33.314  30.361  1.00  0.00     0.009 A 
ATOM     75  C   UNL A   1      45.263  33.678  33.124  1.00  0.00     0.001 A 
ATOM     76  C   UNL A   1      45.684  34.505  30.893  1.00  0.00     0.001 A 
ATOM     77  C   UNL A   1      45.713  34.689  32.275  1.00  0.00     0.000 A 
ENDBRANCH  59  72
ENDBRANCH  33  34
ENDBRANCH  25  28
ENDBRANCH  23  24
ENDBRANCH  22  23
ENDBRANCH   1  22
TORSDOF 16
ENDMDL
