MODEL 1
REMARK VINA RESULT:     -12.3      0.000      0.000
REMARK SMILES Cc1ccc(Nc2c(F)cccc2Cl)c(CC(=O)NCCCNC(=O)c2ccc(-c3c4nc(c(-c5ccccc5)c5ccc([nH]5)c(-c5ccccc5)c5nc(c(-c6ccccc6)c6ccc3[nH]6)C=C5)C=C4)cc2)c1
REMARK SMILES IDX 20 1 19 2 17 3 18 4 16 6 15 7 1 8 2 9 3 10 74 11 4 12 5 13
REMARK SMILES IDX 6 14 7 16 8 17 13 18 9 19 10 20 12 21 14 22 11 23 21 24
REMARK SMILES IDX 22 25 23 26 24 27 25 29 26 30 27 31 73 32 28 33 72 34 29 35
REMARK SMILES IDX 30 36 31 37 66 38 32 39 71 40 65 41 67 42 33 43 70 44 64 45
REMARK SMILES IDX 63 46 34 48 56 49 41 50 55 51 42 52 45 53 54 54 68 55 43 56
REMARK SMILES IDX 44 57 53 59 69 60 46 61 35 62 36 63 40 64 37 65 39 66 38 67
REMARK SMILES IDX 57 68 58 69 62 70 59 71 61 72 60 73 47 74 48 75 52 76 49 77
REMARK SMILES IDX 51 78 50 79
REMARK H PARENT 19 5 6 15 23 28 67 47 45 58
REMARK Flexibility Score: inf
ROOT
ATOM      1  C   UNL A   1      33.800  29.441  27.038  1.00  0.00     0.117 C 
ENDROOT
BRANCH   1   2
ATOM      2  N   UNL A   1      33.857  29.390  25.585  1.00  0.00    -0.356 N 
ATOM      3  C   UNL A   1      32.905  28.964  24.702  1.00  0.00     0.224 C 
ATOM      4  O   UNL A   1      33.195  28.917  23.503  1.00  0.00    -0.275 OA
ATOM      5  H   UNL A   1      34.697  29.707  25.183  1.00  0.00     0.163 HD
BRANCH   3   6
ATOM      6  C   UNL A   1      31.530  28.522  25.176  1.00  0.00     0.137 C 
BRANCH   6   7
ATOM      7  C   UNL A   1      31.265  27.047  24.959  1.00  0.00    -0.015 A 
ATOM      8  C   UNL A   1      31.981  23.844  26.929  1.00  0.00     0.044 C 
ATOM      9  C   UNL A   1      31.513  24.778  25.856  1.00  0.00    -0.051 A 
ATOM     10  C   UNL A   1      31.033  24.270  24.652  1.00  0.00     0.005 A 
ATOM     11  C   UNL A   1      31.583  26.164  26.017  1.00  0.00     0.009 A 
ATOM     12  C   UNL A   1      30.660  25.134  23.619  1.00  0.00     0.026 A 
ATOM     13  C   UNL A   1      30.788  26.528  23.734  1.00  0.00     0.042 A 
BRANCH  13  14
ATOM     14  N   UNL A   1      30.434  27.377  22.662  1.00  0.00    -0.352 N 
ATOM     15  H   UNL A   1      30.913  27.212  21.818  1.00  0.00     0.167 HD
BRANCH  14  16
ATOM     16  C   UNL A   1      29.489  28.432  22.624  1.00  0.00     0.094 A 
ATOM     17  C   UNL A   1      29.816  29.710  22.145  1.00  0.00     0.148 A 
ATOM     18  C   UNL A   1      28.202  28.261  23.169  1.00  0.00     0.067 A 
ATOM     19  F   UNL A   1      31.020  29.944  21.599  1.00  0.00    -0.205 F 
ATOM     20  C   UNL A   1      28.914  30.774  22.200  1.00  0.00     0.041 A 
ATOM     21  C   UNL A   1      27.292  29.324  23.231  1.00  0.00     0.023 A 
ATOM     22  Cl  UNL A   1      27.710  26.742  23.838  1.00  0.00    -0.082 Cl
ATOM     23  C   UNL A   1      27.649  30.583  22.750  1.00  0.00     0.005 A 
ENDBRANCH  14  16
ENDBRANCH  13  14
ENDBRANCH   6   7
ENDBRANCH   3   6
ENDBRANCH   1   2
BRANCH   1  24
ATOM     24  C   UNL A   1      33.335  30.798  27.556  1.00  0.00     0.042 C 
BRANCH  24  25
ATOM     25  C   UNL A   1      34.439  31.832  27.704  1.00  0.00     0.118 C 
BRANCH  25  26
ATOM     26  N   UNL A   1      34.717  32.209  29.086  1.00  0.00    -0.352 N 
ATOM     27  C   UNL A   1      35.602  31.628  29.983  1.00  0.00     0.251 C 
ATOM     28  H   UNL A   1      34.208  32.980  29.429  1.00  0.00     0.163 HD
ATOM     29  O   UNL A   1      35.746  32.084  31.101  1.00  0.00    -0.269 OA
BRANCH  27  30
ATOM     30  C   UNL A   1      36.466  30.523  29.502  1.00  0.00     0.039 A 
ATOM     31  C   UNL A   1      36.642  29.425  30.350  1.00  0.00     0.014 A 
ATOM     32  C   UNL A   1      37.271  30.688  28.378  1.00  0.00     0.014 A 
ATOM     33  C   UNL A   1      37.792  28.653  30.224  1.00  0.00     0.010 A 
ATOM     34  C   UNL A   1      38.460  29.990  28.313  1.00  0.00     0.010 A 
ATOM     35  C   UNL A   1      38.752  29.027  29.284  1.00  0.00    -0.014 A 
BRANCH  35  36
ATOM     36  C   UNL A   1      40.134  28.572  29.351  1.00  0.00     0.031 A 
ATOM     37  C   UNL A   1      40.532  27.276  28.782  1.00  0.00     0.074 A 
ATOM     38  C   UNL A   1      41.075  29.379  29.889  1.00  0.00     0.049 A 
ATOM     39  N   UNL A   1      41.573  26.614  29.160  1.00  0.00    -0.248 NA
ATOM     40  C   UNL A   1      39.743  26.589  27.769  1.00  0.00     0.031 C 
ATOM     41  C   UNL A   1      42.526  29.239  29.809  1.00  0.00     0.029 A 
ATOM     42  N   UNL A   1      40.873  30.388  30.831  1.00  0.00    -0.354 N 
ATOM     43  C   UNL A   1      41.771  25.611  28.244  1.00  0.00     0.074 A 
ATOM     44  C   UNL A   1      40.550  25.567  27.470  1.00  0.00     0.031 C 
ATOM     45  C   UNL A   1      43.080  29.917  30.827  1.00  0.00     0.029 A 
ATOM     46  C   UNL A   1      41.998  30.378  31.681  1.00  0.00     0.049 A 
ATOM     47  H   UNL A   1      40.097  30.989  30.892  1.00  0.00     0.167 HD
ATOM     48  C   UNL A   1      43.000  25.033  28.140  1.00  0.00     0.031 A 
ATOM     49  C   UNL A   1      41.862  30.083  33.008  1.00  0.00     0.031 A 
ATOM     50  C   UNL A   1      43.934  25.514  29.162  1.00  0.00     0.049 A 
ATOM     51  C   UNL A   1      42.610  28.843  33.461  1.00  0.00     0.074 A 
ATOM     52  C   UNL A   1      45.039  26.352  29.154  1.00  0.00     0.029 A 
ATOM     53  N   UNL A   1      43.612  25.330  30.497  1.00  0.00    -0.354 N 
ATOM     54  N   UNL A   1      43.284  28.052  32.673  1.00  0.00    -0.248 NA
ATOM     55  C   UNL A   1      42.555  28.335  34.834  1.00  0.00     0.031 C 
ATOM     56  C   UNL A   1      45.386  26.650  30.503  1.00  0.00     0.029 A 
ATOM     57  C   UNL A   1      44.498  25.988  31.328  1.00  0.00     0.049 A 
ATOM     58  H   UNL A   1      42.848  24.795  30.815  1.00  0.00     0.167 HD
ATOM     59  C   UNL A   1      43.678  26.938  33.367  1.00  0.00     0.074 A 
ATOM     60  C   UNL A   1      43.207  27.165  34.721  1.00  0.00     0.031 C 
ATOM     61  C   UNL A   1      44.310  25.888  32.766  1.00  0.00     0.031 A 
BRANCH  48  62
ATOM     62  C   UNL A   1      43.429  24.215  26.942  1.00  0.00    -0.014 A 
ATOM     63  C   UNL A   1      44.256  24.795  25.963  1.00  0.00     0.009 A 
ATOM     64  C   UNL A   1      43.016  22.897  26.686  1.00  0.00     0.009 A 
ATOM     65  C   UNL A   1      44.557  24.144  24.759  1.00  0.00     0.001 A 
ATOM     66  C   UNL A   1      43.277  22.252  25.470  1.00  0.00     0.001 A 
ATOM     67  C   UNL A   1      44.039  22.883  24.498  1.00  0.00     0.000 A 
ENDBRANCH  48  62
BRANCH  49  68
ATOM     68  C   UNL A   1      40.561  30.538  33.578  1.00  0.00    -0.014 A 
ATOM     69  C   UNL A   1      40.399  31.908  33.872  1.00  0.00     0.009 A 
ATOM     70  C   UNL A   1      39.418  29.732  33.495  1.00  0.00     0.009 A 
ATOM     71  C   UNL A   1      39.125  32.476  33.956  1.00  0.00     0.001 A 
ATOM     72  C   UNL A   1      38.144  30.303  33.601  1.00  0.00     0.001 A 
ATOM     73  C   UNL A   1      37.998  31.676  33.793  1.00  0.00     0.000 A 
ENDBRANCH  49  68
BRANCH  61  74
ATOM     74  C   UNL A   1      44.764  24.637  33.474  1.00  0.00    -0.014 A 
ATOM     75  C   UNL A   1      46.100  24.380  33.809  1.00  0.00     0.009 A 
ATOM     76  C   UNL A   1      43.838  23.600  33.725  1.00  0.00     0.009 A 
ATOM     77  C   UNL A   1      46.477  23.181  34.429  1.00  0.00     0.001 A 
ATOM     78  C   UNL A   1      44.212  22.394  34.321  1.00  0.00     0.001 A 
ATOM     79  C   UNL A   1      45.533  22.190  34.687  1.00  0.00     0.000 A 
ENDBRANCH  61  74
ENDBRANCH  35  36
ENDBRANCH  27  30
ENDBRANCH  25  26
ENDBRANCH  24  25
ENDBRANCH   1  24
TORSDOF 13
ENDMDL
MODEL 2
REMARK VINA RESULT:     -12.2      2.603      4.461
REMARK SMILES Cc1ccc(Nc2c(F)cccc2Cl)c(CC(=O)NCCCNC(=O)c2ccc(-c3c4nc(c(-c5ccccc5)c5ccc([nH]5)c(-c5ccccc5)c5nc(c(-c6ccccc6)c6ccc3[nH]6)C=C5)C=C4)cc2)c1
REMARK SMILES IDX 20 1 19 2 17 3 18 4 16 6 15 7 1 8 2 9 3 10 74 11 4 12 5 13
REMARK SMILES IDX 6 14 7 16 8 17 13 18 9 19 10 20 12 21 14 22 11 23 21 24
REMARK SMILES IDX 22 25 23 26 24 27 25 29 26 30 27 31 73 32 28 33 72 34 29 35
REMARK SMILES IDX 30 36 31 37 66 38 32 39 71 40 65 41 67 42 33 43 70 44 64 45
REMARK SMILES IDX 63 46 34 48 56 49 41 50 55 51 42 52 45 53 54 54 68 55 43 56
REMARK SMILES IDX 44 57 53 59 69 60 46 61 35 62 36 63 40 64 37 65 39 66 38 67
REMARK SMILES IDX 57 68 58 69 62 70 59 71 61 72 60 73 47 74 48 75 52 76 49 77
REMARK SMILES IDX 51 78 50 79
REMARK H PARENT 19 5 6 15 23 28 67 47 45 58
REMARK Flexibility Score: inf
ROOT
ATOM      1  C   UNL A   1      33.586  30.167  26.900  1.00  0.00     0.117 C 
ENDROOT
BRANCH   1   2
ATOM      2  N   UNL A   1      32.528  29.462  27.607  1.00  0.00    -0.356 N 
ATOM      3  C   UNL A   1      32.031  28.209  27.382  1.00  0.00     0.224 C 
ATOM      4  O   UNL A   1      31.060  27.834  28.046  1.00  0.00    -0.275 OA
ATOM      5  H   UNL A   1      32.114  29.955  28.350  1.00  0.00     0.163 HD
BRANCH   3   6
ATOM      6  C   UNL A   1      32.629  27.302  26.318  1.00  0.00     0.137 C 
BRANCH   6   7
ATOM      7  C   UNL A   1      31.618  26.829  25.295  1.00  0.00    -0.015 A 
ATOM      8  C   UNL A   1      29.067  28.538  23.009  1.00  0.00     0.044 C 
ATOM      9  C   UNL A   1      29.882  27.482  23.693  1.00  0.00    -0.051 A 
ATOM     10  C   UNL A   1      29.570  26.137  23.511  1.00  0.00     0.005 A 
ATOM     11  C   UNL A   1      30.934  27.815  24.549  1.00  0.00     0.009 A 
ATOM     12  C   UNL A   1      30.279  25.148  24.198  1.00  0.00     0.026 A 
ATOM     13  C   UNL A   1      31.293  25.465  25.117  1.00  0.00     0.042 A 
BRANCH  13  14
ATOM     14  N   UNL A   1      31.972  24.447  25.823  1.00  0.00    -0.352 N 
ATOM     15  H   UNL A   1      32.113  24.622  26.782  1.00  0.00     0.167 HD
BRANCH  14  16
ATOM     16  C   UNL A   1      32.479  23.211  25.353  1.00  0.00     0.094 A 
ATOM     17  C   UNL A   1      31.755  22.014  25.471  1.00  0.00     0.148 A 
ATOM     18  C   UNL A   1      33.786  23.121  24.839  1.00  0.00     0.067 A 
ATOM     19  F   UNL A   1      30.498  22.024  25.941  1.00  0.00    -0.205 F 
ATOM     20  C   UNL A   1      32.297  20.782  25.098  1.00  0.00     0.041 A 
ATOM     21  C   UNL A   1      34.338  21.889  24.465  1.00  0.00     0.023 A 
ATOM     22  Cl  UNL A   1      34.789  24.526  24.699  1.00  0.00    -0.082 Cl
ATOM     23  C   UNL A   1      33.594  20.718  24.599  1.00  0.00     0.005 A 
ENDBRANCH  14  16
ENDBRANCH  13  14
ENDBRANCH   6   7
ENDBRANCH   3   6
ENDBRANCH   1   2
BRANCH   1  24
ATOM     24  C   UNL A   1      34.664  30.697  27.841  1.00  0.00     0.042 C 
BRANCH  24  25
ATOM     25  C   UNL A   1      34.969  32.177  27.686  1.00  0.00     0.118 C 
BRANCH  25  26
ATOM     26  N   UNL A   1      34.028  33.052  28.379  1.00  0.00    -0.352 N 
ATOM     27  C   UNL A   1      34.203  33.747  29.566  1.00  0.00     0.251 C 
ATOM     28  H   UNL A   1      33.151  33.164  27.945  1.00  0.00     0.163 HD
ATOM     29  O   UNL A   1      33.327  34.470  30.002  1.00  0.00    -0.269 OA
BRANCH  27  30
ATOM     30  C   UNL A   1      35.532  33.696  30.222  1.00  0.00     0.039 A 
ATOM     31  C   UNL A   1      36.599  34.321  29.571  1.00  0.00     0.014 A 
ATOM     32  C   UNL A   1      35.759  32.844  31.300  1.00  0.00     0.014 A 
ATOM     33  C   UNL A   1      37.894  33.880  29.821  1.00  0.00     0.010 A 
ATOM     34  C   UNL A   1      37.029  32.333  31.478  1.00  0.00     0.010 A 
ATOM     35  C   UNL A   1      38.080  32.798  30.681  1.00  0.00    -0.014 A 
BRANCH  35  36
ATOM     36  C   UNL A   1      39.300  32.002  30.687  1.00  0.00     0.031 A 
ATOM     37  C   UNL A   1      39.369  30.717  29.974  1.00  0.00     0.074 A 
ATOM     38  C   UNL A   1      40.402  32.477  31.306  1.00  0.00     0.049 A 
ATOM     39  N   UNL A   1      40.198  29.774  30.269  1.00  0.00    -0.248 NA
ATOM     40  C   UNL A   1      38.454  30.369  28.897  1.00  0.00     0.031 C 
ATOM     41  C   UNL A   1      41.771  31.982  31.202  1.00  0.00     0.029 A 
ATOM     42  N   UNL A   1      40.442  33.395  32.357  1.00  0.00    -0.354 N 
ATOM     43  C   UNL A   1      40.155  28.860  29.246  1.00  0.00     0.074 A 
ATOM     44  C   UNL A   1      38.981  29.214  28.479  1.00  0.00     0.031 C 
ATOM     45  C   UNL A   1      42.456  32.381  32.286  1.00  0.00     0.029 A 
ATOM     46  C   UNL A   1      41.509  33.005  33.193  1.00  0.00     0.049 A 
ATOM     47  H   UNL A   1      39.843  34.164  32.489  1.00  0.00     0.167 HD
ATOM     48  C   UNL A   1      41.199  28.003  29.071  1.00  0.00     0.031 A 
ATOM     49  C   UNL A   1      41.272  32.612  34.479  1.00  0.00     0.031 A 
ATOM     50  C   UNL A   1      42.202  28.115  30.135  1.00  0.00     0.049 A 
ATOM     51  C   UNL A   1      41.670  31.180  34.786  1.00  0.00     0.074 A 
ATOM     52  C   UNL A   1      43.483  28.640  30.213  1.00  0.00     0.029 A 
ATOM     53  N   UNL A   1      41.813  27.874  31.443  1.00  0.00    -0.354 N 
ATOM     54  N   UNL A   1      42.139  30.334  33.910  1.00  0.00    -0.248 NA
ATOM     55  C   UNL A   1      41.457  30.556  36.094  1.00  0.00     0.031 C 
ATOM     56  C   UNL A   1      43.864  28.690  31.585  1.00  0.00     0.029 A 
ATOM     57  C   UNL A   1      42.819  28.189  32.336  1.00  0.00     0.049 A 
ATOM     58  H   UNL A   1      40.932  27.521  31.703  1.00  0.00     0.167 HD
ATOM     59  C   UNL A   1      42.221  29.087  34.474  1.00  0.00     0.074 A 
ATOM     60  C   UNL A   1      41.793  29.278  35.847  1.00  0.00     0.031 C 
ATOM     61  C   UNL A   1      42.579  27.984  33.755  1.00  0.00     0.031 A 
BRANCH  48  62
ATOM     62  C   UNL A   1      41.433  27.239  27.786  1.00  0.00    -0.014 A 
ATOM     63  C   UNL A   1      41.496  25.834  27.813  1.00  0.00     0.009 A 
ATOM     64  C   UNL A   1      41.653  27.835  26.533  1.00  0.00     0.009 A 
ATOM     65  C   UNL A   1      41.864  25.082  26.689  1.00  0.00     0.001 A 
ATOM     66  C   UNL A   1      42.061  27.097  25.414  1.00  0.00     0.001 A 
ATOM     67  C   UNL A   1      42.180  25.717  25.496  1.00  0.00     0.000 A 
ENDBRANCH  48  62
BRANCH  49  68
ATOM     68  C   UNL A   1      40.117  33.318  35.105  1.00  0.00    -0.014 A 
ATOM     69  C   UNL A   1      38.816  32.843  34.838  1.00  0.00     0.009 A 
ATOM     70  C   UNL A   1      40.304  34.181  36.193  1.00  0.00     0.009 A 
ATOM     71  C   UNL A   1      37.759  33.125  35.708  1.00  0.00     0.001 A 
ATOM     72  C   UNL A   1      39.237  34.477  37.050  1.00  0.00     0.001 A 
ATOM     73  C   UNL A   1      37.978  33.921  36.829  1.00  0.00     0.000 A 
ENDBRANCH  49  68
BRANCH  61  74
ATOM     74  C   UNL A   1      42.685  26.588  34.316  1.00  0.00    -0.014 A 
ATOM     75  C   UNL A   1      43.733  25.711  34.012  1.00  0.00     0.009 A 
ATOM     76  C   UNL A   1      41.632  26.069  35.101  1.00  0.00     0.009 A 
ATOM     77  C   UNL A   1      43.763  24.407  34.526  1.00  0.00     0.001 A 
ATOM     78  C   UNL A   1      41.644  24.763  35.597  1.00  0.00     0.001 A 
ATOM     79  C   UNL A   1      42.720  23.935  35.320  1.00  0.00     0.000 A 
ENDBRANCH  61  74
ENDBRANCH  35  36
ENDBRANCH  27  30
ENDBRANCH  25  26
ENDBRANCH  24  25
ENDBRANCH   1  24
TORSDOF 13
ENDMDL
MODEL 3
REMARK VINA RESULT:     -12.2      1.836      3.323
REMARK SMILES Cc1ccc(Nc2c(F)cccc2Cl)c(CC(=O)NCCCNC(=O)c2ccc(-c3c4nc(c(-c5ccccc5)c5ccc([nH]5)c(-c5ccccc5)c5nc(c(-c6ccccc6)c6ccc3[nH]6)C=C5)C=C4)cc2)c1
REMARK SMILES IDX 20 1 19 2 17 3 18 4 16 6 15 7 1 8 2 9 3 10 74 11 4 12 5 13
REMARK SMILES IDX 6 14 7 16 8 17 13 18 9 19 10 20 12 21 14 22 11 23 21 24
REMARK SMILES IDX 22 25 23 26 24 27 25 29 26 30 27 31 73 32 28 33 72 34 29 35
REMARK SMILES IDX 30 36 31 37 66 38 32 39 71 40 65 41 67 42 33 43 70 44 64 45
REMARK SMILES IDX 63 46 34 48 56 49 41 50 55 51 42 52 45 53 54 54 68 55 43 56
REMARK SMILES IDX 44 57 53 59 69 60 46 61 35 62 36 63 40 64 37 65 39 66 38 67
REMARK SMILES IDX 57 68 58 69 62 70 59 71 61 72 60 73 47 74 48 75 52 76 49 77
REMARK SMILES IDX 51 78 50 79
REMARK H PARENT 19 5 6 15 23 28 67 47 45 58
REMARK Flexibility Score: inf
ROOT
ATOM      1  C   UNL A   1      33.788  30.244  27.072  1.00  0.00     0.117 C 
ENDROOT
BRANCH   1   2
ATOM      2  N   UNL A   1      32.826  29.364  27.717  1.00  0.00    -0.356 N 
ATOM      3  C   UNL A   1      32.301  28.185  27.267  1.00  0.00     0.224 C 
ATOM      4  O   UNL A   1      31.421  27.639  27.939  1.00  0.00    -0.275 OA
ATOM      5  H   UNL A   1      32.510  29.658  28.602  1.00  0.00     0.163 HD
BRANCH   3   6
ATOM      6  C   UNL A   1      32.758  27.569  25.955  1.00  0.00     0.137 C 
BRANCH   6   7
ATOM      7  C   UNL A   1      31.612  27.168  25.049  1.00  0.00    -0.015 A 
ATOM      8  C   UNL A   1      29.042  29.052  22.928  1.00  0.00     0.044 C 
ATOM      9  C   UNL A   1      29.807  27.941  23.582  1.00  0.00    -0.051 A 
ATOM     10  C   UNL A   1      29.345  26.632  23.490  1.00  0.00     0.005 A 
ATOM     11  C   UNL A   1      30.963  28.193  24.324  1.00  0.00     0.009 A 
ATOM     12  C   UNL A   1      30.012  25.599  24.154  1.00  0.00     0.026 A 
ATOM     13  C   UNL A   1      31.136  25.840  24.963  1.00  0.00     0.042 A 
BRANCH  13  14
ATOM     14  N   UNL A   1      31.772  24.782  25.649  1.00  0.00    -0.352 N 
ATOM     15  H   UNL A   1      31.908  24.929  26.614  1.00  0.00     0.167 HD
BRANCH  14  16
ATOM     16  C   UNL A   1      32.243  23.542  25.153  1.00  0.00     0.094 A 
ATOM     17  C   UNL A   1      31.574  22.334  25.406  1.00  0.00     0.148 A 
ATOM     18  C   UNL A   1      33.470  23.464  24.469  1.00  0.00     0.067 A 
ATOM     19  F   UNL A   1      30.391  22.333  26.042  1.00  0.00    -0.205 F 
ATOM     20  C   UNL A   1      32.092  21.103  25.001  1.00  0.00     0.041 A 
ATOM     21  C   UNL A   1      33.999  22.232  24.062  1.00  0.00     0.023 A 
ATOM     22  Cl  UNL A   1      34.408  24.884  24.151  1.00  0.00    -0.082 Cl
ATOM     23  C   UNL A   1      33.311  21.050  24.332  1.00  0.00     0.005 A 
ENDBRANCH  14  16
ENDBRANCH  13  14
ENDBRANCH   6   7
ENDBRANCH   3   6
ENDBRANCH   1   2
BRANCH   1  24
ATOM     24  C   UNL A   1      33.614  31.702  27.485  1.00  0.00     0.042 C 
BRANCH  24  25
ATOM     25  C   UNL A   1      34.890  32.385  27.949  1.00  0.00     0.118 C 
BRANCH  25  26
ATOM     26  N   UNL A   1      35.018  32.480  29.400  1.00  0.00    -0.352 N 
ATOM     27  C   UNL A   1      35.731  31.660  30.262  1.00  0.00     0.251 C 
ATOM     28  H   UNL A   1      34.534  33.225  29.824  1.00  0.00     0.163 HD
ATOM     29  O   UNL A   1      35.767  31.892  31.456  1.00  0.00    -0.269 OA
BRANCH  27  30
ATOM     30  C   UNL A   1      36.556  30.574  29.680  1.00  0.00     0.039 A 
ATOM     31  C   UNL A   1      36.668  29.387  30.408  1.00  0.00     0.014 A 
ATOM     32  C   UNL A   1      37.390  30.822  28.592  1.00  0.00     0.014 A 
ATOM     33  C   UNL A   1      37.786  28.582  30.218  1.00  0.00     0.010 A 
ATOM     34  C   UNL A   1      38.549  30.082  28.471  1.00  0.00     0.010 A 
ATOM     35  C   UNL A   1      38.781  29.010  29.339  1.00  0.00    -0.014 A 
BRANCH  35  36
ATOM     36  C   UNL A   1      40.140  28.490  29.378  1.00  0.00     0.031 A 
ATOM     37  C   UNL A   1      40.466  27.179  28.797  1.00  0.00     0.074 A 
ATOM     38  C   UNL A   1      41.129  29.248  29.901  1.00  0.00     0.049 A 
ATOM     39  N   UNL A   1      41.481  26.466  29.153  1.00  0.00    -0.248 NA
ATOM     40  C   UNL A   1      39.626  26.535  27.797  1.00  0.00     0.031 C 
ATOM     41  C   UNL A   1      42.569  29.040  29.794  1.00  0.00     0.029 A 
ATOM     42  N   UNL A   1      40.993  30.261  30.851  1.00  0.00    -0.354 N 
ATOM     43  C   UNL A   1      41.613  25.459  28.230  1.00  0.00     0.074 A 
ATOM     44  C   UNL A   1      40.378  25.477  27.478  1.00  0.00     0.031 C 
ATOM     45  C   UNL A   1      43.174  29.686  30.804  1.00  0.00     0.029 A 
ATOM     46  C   UNL A   1      42.131  30.194  31.680  1.00  0.00     0.049 A 
ATOM     47  H   UNL A   1      40.247  30.899  30.929  1.00  0.00     0.167 HD
ATOM     48  C   UNL A   1      42.812  24.823  28.101  1.00  0.00     0.031 A 
ATOM     49  C   UNL A   1      42.006  29.901  33.007  1.00  0.00     0.031 A 
ATOM     50  C   UNL A   1      43.786  25.255  29.108  1.00  0.00     0.049 A 
ATOM     51  C   UNL A   1      42.702  28.624  33.442  1.00  0.00     0.074 A 
ATOM     52  C   UNL A   1      44.929  26.040  29.081  1.00  0.00     0.029 A 
ATOM     53  N   UNL A   1      43.481  25.080  30.448  1.00  0.00    -0.354 N 
ATOM     54  N   UNL A   1      43.323  27.805  32.639  1.00  0.00    -0.248 NA
ATOM     55  C   UNL A   1      42.648  28.114  34.814  1.00  0.00     0.031 C 
ATOM     56  C   UNL A   1      45.316  26.315  30.425  1.00  0.00     0.029 A 
ATOM     57  C   UNL A   1      44.412  25.692  31.264  1.00  0.00     0.049 A 
ATOM     58  H   UNL A   1      42.698  24.581  30.778  1.00  0.00     0.167 HD
ATOM     59  C   UNL A   1      43.676  26.671  33.322  1.00  0.00     0.074 A 
ATOM     60  C   UNL A   1      43.241  26.914  34.685  1.00  0.00     0.031 C 
ATOM     61  C   UNL A   1      44.246  25.595  32.705  1.00  0.00     0.031 A 
BRANCH  48  62
ATOM     62  C   UNL A   1      43.179  23.992  26.893  1.00  0.00    -0.014 A 
ATOM     63  C   UNL A   1      43.180  22.588  26.987  1.00  0.00     0.009 A 
ATOM     64  C   UNL A   1      43.584  24.518  25.655  1.00  0.00     0.009 A 
ATOM     65  C   UNL A   1      43.659  21.771  25.954  1.00  0.00     0.001 A 
ATOM     66  C   UNL A   1      44.103  23.714  24.631  1.00  0.00     0.001 A 
ATOM     67  C   UNL A   1      44.153  22.337  24.787  1.00  0.00     0.000 A 
ENDBRANCH  48  62
BRANCH  49  68
ATOM     68  C   UNL A   1      40.739  30.414  33.604  1.00  0.00    -0.014 A 
ATOM     69  C   UNL A   1      40.680  31.769  33.990  1.00  0.00     0.009 A 
ATOM     70  C   UNL A   1      39.538  29.706  33.461  1.00  0.00     0.009 A 
ATOM     71  C   UNL A   1      39.453  32.427  34.109  1.00  0.00     0.001 A 
ATOM     72  C   UNL A   1      38.310  30.365  33.602  1.00  0.00     0.001 A 
ATOM     73  C   UNL A   1      38.269  31.729  33.888  1.00  0.00     0.000 A 
ENDBRANCH  49  68
BRANCH  61  74
ATOM     74  C   UNL A   1      44.653  24.320  33.400  1.00  0.00    -0.014 A 
ATOM     75  C   UNL A   1      43.740  23.349  33.829  1.00  0.00     0.009 A 
ATOM     76  C   UNL A   1      46.006  24.118  33.753  1.00  0.00     0.009 A 
ATOM     77  C   UNL A   1      44.167  22.200  34.510  1.00  0.00     0.001 A 
ATOM     78  C   UNL A   1      46.434  22.986  34.451  1.00  0.00     0.001 A 
ATOM     79  C   UNL A   1      45.513  22.018  34.818  1.00  0.00     0.000 A 
ENDBRANCH  61  74
ENDBRANCH  35  36
ENDBRANCH  27  30
ENDBRANCH  25  26
ENDBRANCH  24  25
ENDBRANCH   1  24
TORSDOF 13
ENDMDL
