MODEL 1
REMARK VINA RESULT:      -9.7      0.000      0.000
REMARK SMILES C[N@@H+](C[C@H]1CCC[N@@H+]1CC(=O)NCCCNC(=O)c1ccc(-c2c3nc(c(-c4ccccc4)c4ccc([nH]4)c(-c4ccccc4)c4nc(c(-c5ccccc5)c5ccc2[nH]5)C=C4)C=C3)cc1)C1CC1
REMARK SMILES IDX 13 1 12 2 10 3 11 4 9 6 8 7 4 8 5 9 6 10 7 11 3 13 2 14 1 15
REMARK SMILES IDX 67 17 68 18 69 19 14 20 15 21 16 22 17 23 18 25 19 26 20 27
REMARK SMILES IDX 66 28 21 29 65 30 22 31 23 32 24 33 59 34 25 35 64 36 58 37
REMARK SMILES IDX 60 38 26 39 63 40 57 41 56 42 27 44 49 45 34 46 48 47 35 48
REMARK SMILES IDX 38 49 47 50 61 51 36 52 37 53 46 55 62 56 39 57 28 58 29 59
REMARK SMILES IDX 33 60 30 61 32 62 31 63 50 64 51 65 55 66 52 67 54 68 53 69
REMARK SMILES IDX 40 70 41 71 45 72 42 73 44 74 43 75
REMARK H PARENT 12 5 8 12 2 16 16 24 60 43 38 54
REMARK Flexibility Score: inf
ROOT
ATOM      1  C   UNL A   1      31.500  27.174  26.249  1.00  0.00     0.118 C 
ENDROOT
BRANCH   1   2
ATOM      2  N   UNL A   1      31.085  25.846  26.679  1.00  0.00    -0.351 N 
ATOM      3  C   UNL A   1      31.739  24.650  26.743  1.00  0.00     0.275 C 
ATOM      4  O   UNL A   1      31.132  23.717  27.278  1.00  0.00    -0.269 OA
ATOM      5  H   UNL A   1      30.150  25.803  26.982  1.00  0.00     0.163 HD
BRANCH   3   6
ATOM      6  C   UNL A   1      33.148  24.457  26.162  1.00  0.00     0.363 C 
BRANCH   6   7
ATOM      7  N   UNL A   1      33.196  23.738  24.862  1.00  0.00    -0.320 N 
ATOM      8  C   UNL A   1      34.379  24.088  24.065  1.00  0.00     0.240 C 
ATOM      9  C   UNL A   1      33.920  25.026  22.953  1.00  0.00     0.077 C 
ATOM     10  C   UNL A   1      32.404  24.984  22.957  1.00  0.00     0.068 C 
ATOM     11  C   UNL A   1      32.017  23.973  24.022  1.00  0.00     0.263 C 
ATOM     12  H   UNL A   1      33.229  22.755  25.131  1.00  0.00     0.348 HD
BRANCH   8  13
ATOM     13  C   UNL A   1      35.310  22.922  23.629  1.00  0.00     0.327 C 
BRANCH  13  14
ATOM     14  N   UNL A   1      35.908  21.970  24.568  1.00  0.00    -0.330 N 
ATOM     15  C   UNL A   1      35.033  20.877  24.959  1.00  0.00     0.333 C 
ATOM     16  H   UNL A   1      36.644  21.534  24.013  1.00  0.00     0.348 HD
BRANCH  14  17
ATOM     17  C   UNL A   1      36.615  22.579  25.700  1.00  0.00     0.184 C 
ATOM     18  C   UNL A   1      38.093  22.320  25.829  1.00  0.00     0.071 C 
ATOM     19  C   UNL A   1      37.603  23.694  25.484  1.00  0.00     0.071 C 
ENDBRANCH  14  17
ENDBRANCH  13  14
ENDBRANCH   8  13
ENDBRANCH   6   7
ENDBRANCH   3   6
ENDBRANCH   1   2
BRANCH   1  20
ATOM     20  C   UNL A   1      31.893  28.130  27.383  1.00  0.00     0.042 C 
BRANCH  20  21
ATOM     21  C   UNL A   1      33.332  28.640  27.363  1.00  0.00     0.118 C 
BRANCH  21  22
ATOM     22  N   UNL A   1      33.404  30.048  27.702  1.00  0.00    -0.352 N 
ATOM     23  C   UNL A   1      34.425  30.744  28.303  1.00  0.00     0.251 C 
ATOM     24  H   UNL A   1      32.610  30.581  27.469  1.00  0.00     0.163 HD
ATOM     25  O   UNL A   1      34.205  31.867  28.748  1.00  0.00    -0.269 OA
BRANCH  23  26
ATOM     26  C   UNL A   1      35.789  30.168  28.423  1.00  0.00     0.039 A 
ATOM     27  C   UNL A   1      36.180  29.643  29.660  1.00  0.00     0.014 A 
ATOM     28  C   UNL A   1      36.716  30.235  27.377  1.00  0.00     0.014 A 
ATOM     29  C   UNL A   1      37.487  29.181  29.847  1.00  0.00     0.010 A 
ATOM     30  C   UNL A   1      38.012  29.736  27.552  1.00  0.00     0.010 A 
ATOM     31  C   UNL A   1      38.416  29.225  28.796  1.00  0.00    -0.014 A 
BRANCH  31  32
ATOM     32  C   UNL A   1      39.817  28.778  29.014  1.00  0.00     0.031 A 
ATOM     33  C   UNL A   1      40.818  29.691  29.672  1.00  0.00     0.074 A 
ATOM     34  C   UNL A   1      40.201  27.548  28.623  1.00  0.00     0.049 A 
ATOM     35  N   UNL A   1      42.071  29.459  29.976  1.00  0.00    -0.248 NA
ATOM     36  C   UNL A   1      40.355  31.041  30.022  1.00  0.00     0.031 C 
ATOM     37  C   UNL A   1      39.345  26.566  27.955  1.00  0.00     0.029 A 
ATOM     38  N   UNL A   1      41.413  26.912  28.738  1.00  0.00    -0.354 N 
ATOM     39  C   UNL A   1      42.547  30.632  30.548  1.00  0.00     0.074 A 
ATOM     40  C   UNL A   1      41.459  31.587  30.513  1.00  0.00     0.031 C 
ATOM     41  C   UNL A   1      40.053  25.445  27.739  1.00  0.00     0.029 A 
ATOM     42  C   UNL A   1      41.415  25.635  28.233  1.00  0.00     0.049 A 
ATOM     43  H   UNL A   1      42.205  27.333  29.143  1.00  0.00     0.167 HD
ATOM     44  C   UNL A   1      43.771  30.891  31.068  1.00  0.00     0.031 A 
ATOM     45  C   UNL A   1      42.397  24.717  28.178  1.00  0.00     0.031 A 
ATOM     46  C   UNL A   1      44.857  29.950  31.118  1.00  0.00     0.049 A 
ATOM     47  C   UNL A   1      43.749  25.032  28.752  1.00  0.00     0.074 A 
ATOM     48  C   UNL A   1      46.113  30.111  31.680  1.00  0.00     0.029 A 
ATOM     49  N   UNL A   1      44.820  28.673  30.584  1.00  0.00    -0.354 N 
ATOM     50  N   UNL A   1      44.160  26.125  29.346  1.00  0.00    -0.248 NA
ATOM     51  C   UNL A   1      44.769  23.977  28.657  1.00  0.00     0.031 C 
ATOM     52  C   UNL A   1      46.850  28.944  31.450  1.00  0.00     0.029 A 
ATOM     53  C   UNL A   1      46.038  28.043  30.781  1.00  0.00     0.049 A 
ATOM     54  H   UNL A   1      44.043  28.272  30.131  1.00  0.00     0.167 HD
ATOM     55  C   UNL A   1      45.478  25.884  29.712  1.00  0.00     0.074 A 
ATOM     56  C   UNL A   1      45.794  24.537  29.286  1.00  0.00     0.031 C 
ATOM     57  C   UNL A   1      46.347  26.707  30.346  1.00  0.00     0.031 A 
BRANCH  44  58
ATOM     58  C   UNL A   1      44.003  32.266  31.628  1.00  0.00    -0.014 A 
ATOM     59  C   UNL A   1      43.676  32.569  32.958  1.00  0.00     0.009 A 
ATOM     60  C   UNL A   1      44.596  33.255  30.828  1.00  0.00     0.009 A 
ATOM     61  C   UNL A   1      43.911  33.848  33.468  1.00  0.00     0.001 A 
ATOM     62  C   UNL A   1      44.848  34.526  31.348  1.00  0.00     0.001 A 
ATOM     63  C   UNL A   1      44.499  34.823  32.664  1.00  0.00     0.000 A 
ENDBRANCH  44  58
BRANCH  45  64
ATOM     64  C   UNL A   1      42.133  23.390  27.570  1.00  0.00    -0.014 A 
ATOM     65  C   UNL A   1      41.566  22.358  28.334  1.00  0.00     0.009 A 
ATOM     66  C   UNL A   1      42.448  23.148  26.225  1.00  0.00     0.009 A 
ATOM     67  C   UNL A   1      41.339  21.104  27.767  1.00  0.00     0.001 A 
ATOM     68  C   UNL A   1      42.200  21.898  25.654  1.00  0.00     0.001 A 
ATOM     69  C   UNL A   1      41.652  20.876  26.428  1.00  0.00     0.000 A 
ENDBRANCH  45  64
BRANCH  57  70
ATOM     70  C   UNL A   1      47.718  26.167  30.631  1.00  0.00    -0.014 A 
ATOM     71  C   UNL A   1      48.700  26.124  29.631  1.00  0.00     0.009 A 
ATOM     72  C   UNL A   1      48.037  25.721  31.923  1.00  0.00     0.009 A 
ATOM     73  C   UNL A   1      49.971  25.617  29.912  1.00  0.00     0.001 A 
ATOM     74  C   UNL A   1      49.315  25.234  32.206  1.00  0.00     0.001 A 
ATOM     75  C   UNL A   1      50.277  25.176  31.200  1.00  0.00     0.000 A 
ENDBRANCH  57  70
ENDBRANCH  31  32
ENDBRANCH  23  26
ENDBRANCH  21  22
ENDBRANCH  20  21
ENDBRANCH   1  20
TORSDOF 14
ENDMDL
MODEL 2
REMARK VINA RESULT:      -9.6      1.901      7.565
REMARK SMILES C[N@@H+](C[C@H]1CCC[N@@H+]1CC(=O)NCCCNC(=O)c1ccc(-c2c3nc(c(-c4ccccc4)c4ccc([nH]4)c(-c4ccccc4)c4nc(c(-c5ccccc5)c5ccc2[nH]5)C=C4)C=C3)cc1)C1CC1
REMARK SMILES IDX 13 1 12 2 10 3 11 4 9 6 8 7 4 8 5 9 6 10 7 11 3 13 2 14 1 15
REMARK SMILES IDX 67 17 68 18 69 19 14 20 15 21 16 22 17 23 18 25 19 26 20 27
REMARK SMILES IDX 66 28 21 29 65 30 22 31 23 32 24 33 59 34 25 35 64 36 58 37
REMARK SMILES IDX 60 38 26 39 63 40 57 41 56 42 27 44 49 45 34 46 48 47 35 48
REMARK SMILES IDX 38 49 47 50 61 51 36 52 37 53 46 55 62 56 39 57 28 58 29 59
REMARK SMILES IDX 33 60 30 61 32 62 31 63 50 64 51 65 55 66 52 67 54 68 53 69
REMARK SMILES IDX 40 70 41 71 45 72 42 73 44 74 43 75
REMARK H PARENT 12 5 8 12 2 16 16 24 60 43 38 54
REMARK Flexibility Score: inf
ROOT
ATOM      1  C   UNL A   1      36.146  20.451  25.012  1.00  0.00     0.118 C 
ENDROOT
BRANCH   1   2
ATOM      2  N   UNL A   1      36.294  21.895  25.121  1.00  0.00    -0.351 N 
ATOM      3  C   UNL A   1      35.505  22.867  25.665  1.00  0.00     0.275 C 
ATOM      4  O   UNL A   1      35.980  24.006  25.704  1.00  0.00    -0.269 OA
ATOM      5  H   UNL A   1      37.127  22.239  24.724  1.00  0.00     0.163 HD
BRANCH   3   6
ATOM      6  C   UNL A   1      34.089  22.573  26.184  1.00  0.00     0.363 C 
BRANCH   6   7
ATOM      7  N   UNL A   1      32.993  23.196  25.398  1.00  0.00    -0.320 N 
ATOM      8  C   UNL A   1      32.374  24.333  26.093  1.00  0.00     0.240 C 
ATOM      9  C   UNL A   1      31.030  23.859  26.637  1.00  0.00     0.077 C 
ATOM     10  C   UNL A   1      30.763  22.509  25.999  1.00  0.00     0.068 C 
ATOM     11  C   UNL A   1      31.920  22.261  25.048  1.00  0.00     0.263 C 
ATOM     12  H   UNL A   1      33.457  23.513  24.547  1.00  0.00     0.348 HD
BRANCH   8  13
ATOM     13  C   UNL A   1      32.363  25.698  25.350  1.00  0.00     0.327 C 
BRANCH  13  14
ATOM     14  N   UNL A   1      31.343  26.727  25.564  1.00  0.00    -0.330 N 
ATOM     15  C   UNL A   1      30.428  26.912  24.450  1.00  0.00     0.333 C 
ATOM     16  H   UNL A   1      30.773  26.329  26.311  1.00  0.00     0.348 HD
BRANCH  14  17
ATOM     17  C   UNL A   1      31.844  27.989  26.117  1.00  0.00     0.184 C 
ATOM     18  C   UNL A   1      31.735  28.199  27.605  1.00  0.00     0.071 C 
ATOM     19  C   UNL A   1      33.082  28.021  26.972  1.00  0.00     0.071 C 
ENDBRANCH  14  17
ENDBRANCH  13  14
ENDBRANCH   8  13
ENDBRANCH   6   7
ENDBRANCH   3   6
ENDBRANCH   1   2
BRANCH   1  20
ATOM     20  C   UNL A   1      37.461  19.670  24.888  1.00  0.00     0.042 C 
BRANCH  20  21
ATOM     21  C   UNL A   1      38.684  20.308  25.543  1.00  0.00     0.118 C 
BRANCH  21  22
ATOM     22  N   UNL A   1      39.763  19.353  25.702  1.00  0.00    -0.352 N 
ATOM     23  C   UNL A   1      41.080  19.578  26.021  1.00  0.00     0.251 C 
ATOM     24  H   UNL A   1      39.518  18.410  25.562  1.00  0.00     0.163 HD
ATOM     25  O   UNL A   1      41.900  18.680  25.852  1.00  0.00    -0.269 OA
BRANCH  23  26
ATOM     26  C   UNL A   1      41.532  20.883  26.567  1.00  0.00     0.039 A 
ATOM     27  C   UNL A   1      41.341  21.132  27.932  1.00  0.00     0.014 A 
ATOM     28  C   UNL A   1      42.036  21.896  25.744  1.00  0.00     0.014 A 
ATOM     29  C   UNL A   1      41.660  22.383  28.470  1.00  0.00     0.010 A 
ATOM     30  C   UNL A   1      42.393  23.134  26.291  1.00  0.00     0.010 A 
ATOM     31  C   UNL A   1      42.187  23.396  27.655  1.00  0.00    -0.014 A 
BRANCH  31  32
ATOM     32  C   UNL A   1      42.479  24.739  28.222  1.00  0.00     0.031 A 
ATOM     33  C   UNL A   1      43.876  25.099  28.656  1.00  0.00     0.074 A 
ATOM     34  C   UNL A   1      41.493  25.647  28.351  1.00  0.00     0.049 A 
ATOM     35  N   UNL A   1      44.325  26.232  29.137  1.00  0.00    -0.248 NA
ATOM     36  C   UNL A   1      44.898  24.047  28.545  1.00  0.00     0.031 C 
ATOM     37  C   UNL A   1      40.091  25.429  27.993  1.00  0.00     0.029 A 
ATOM     38  N   UNL A   1      41.523  26.939  28.816  1.00  0.00    -0.354 N 
ATOM     39  C   UNL A   1      45.675  26.029  29.391  1.00  0.00     0.074 A 
ATOM     40  C   UNL A   1      45.965  24.653  29.046  1.00  0.00     0.031 C 
ATOM     41  C   UNL A   1      39.400  26.557  28.231  1.00  0.00     0.029 A 
ATOM     42  C   UNL A   1      40.303  27.567  28.776  1.00  0.00     0.049 A 
ATOM     43  H   UNL A   1      42.342  27.372  29.147  1.00  0.00     0.167 HD
ATOM     44  C   UNL A   1      46.597  26.908  29.854  1.00  0.00     0.031 A 
ATOM     45  C   UNL A   1      39.949  28.815  29.131  1.00  0.00     0.031 A 
ATOM     46  C   UNL A   1      46.326  28.279  30.191  1.00  0.00     0.049 A 
ATOM     47  C   UNL A   1      40.987  29.768  29.653  1.00  0.00     0.074 A 
ATOM     48  C   UNL A   1      47.214  29.255  30.614  1.00  0.00     0.029 A 
ATOM     49  N   UNL A   1      45.074  28.870  30.149  1.00  0.00    -0.354 N 
ATOM     50  N   UNL A   1      42.272  29.576  29.826  1.00  0.00    -0.248 NA
ATOM     51  C   UNL A   1      40.524  31.116  30.018  1.00  0.00     0.031 C 
ATOM     52  C   UNL A   1      46.491  30.427  30.865  1.00  0.00     0.029 A 
ATOM     53  C   UNL A   1      45.161  30.190  30.560  1.00  0.00     0.049 A 
ATOM     54  H   UNL A   1      44.246  28.418  29.868  1.00  0.00     0.167 HD
ATOM     55  C   UNL A   1      42.773  30.781  30.300  1.00  0.00     0.074 A 
ATOM     56  C   UNL A   1      41.658  31.702  30.376  1.00  0.00     0.031 C 
ATOM     57  C   UNL A   1      44.046  31.095  30.641  1.00  0.00     0.031 A 
BRANCH  44  58
ATOM     58  C   UNL A   1      48.001  26.403  30.030  1.00  0.00    -0.014 A 
ATOM     59  C   UNL A   1      48.416  25.830  31.242  1.00  0.00     0.009 A 
ATOM     60  C   UNL A   1      48.904  26.460  28.958  1.00  0.00     0.009 A 
ATOM     61  C   UNL A   1      49.721  25.352  31.385  1.00  0.00     0.001 A 
ATOM     62  C   UNL A   1      50.201  25.962  29.098  1.00  0.00     0.001 A 
ATOM     63  C   UNL A   1      50.610  25.416  30.313  1.00  0.00     0.000 A 
ENDBRANCH  44  58
BRANCH  45  64
ATOM     64  C   UNL A   1      38.538  29.252  28.986  1.00  0.00    -0.014 A 
ATOM     65  C   UNL A   1      37.659  29.188  30.077  1.00  0.00     0.009 A 
ATOM     66  C   UNL A   1      38.066  29.734  27.756  1.00  0.00     0.009 A 
ATOM     67  C   UNL A   1      36.327  29.578  29.932  1.00  0.00     0.001 A 
ATOM     68  C   UNL A   1      36.739  30.143  27.620  1.00  0.00     0.001 A 
ATOM     69  C   UNL A   1      35.869  30.059  28.706  1.00  0.00     0.000 A 
ENDBRANCH  45  64
BRANCH  57  70
ATOM     70  C   UNL A   1      44.303  32.497  31.111  1.00  0.00    -0.014 A 
ATOM     71  C   UNL A   1      44.576  33.527  30.199  1.00  0.00     0.009 A 
ATOM     72  C   UNL A   1      44.244  32.795  32.481  1.00  0.00     0.009 A 
ATOM     73  C   UNL A   1      44.815  34.826  30.653  1.00  0.00     0.001 A 
ATOM     74  C   UNL A   1      44.462  34.100  32.930  1.00  0.00     0.001 A 
ATOM     75  C   UNL A   1      44.754  35.111  32.017  1.00  0.00     0.000 A 
ENDBRANCH  57  70
ENDBRANCH  31  32
ENDBRANCH  23  26
ENDBRANCH  21  22
ENDBRANCH  20  21
ENDBRANCH   1  20
TORSDOF 14
ENDMDL
MODEL 3
REMARK VINA RESULT:      -9.5      3.255      6.350
REMARK SMILES C[N@@H+](C[C@H]1CCC[N@@H+]1CC(=O)NCCCNC(=O)c1ccc(-c2c3nc(c(-c4ccccc4)c4ccc([nH]4)c(-c4ccccc4)c4nc(c(-c5ccccc5)c5ccc2[nH]5)C=C4)C=C3)cc1)C1CC1
REMARK SMILES IDX 13 1 12 2 10 3 11 4 9 6 8 7 4 8 5 9 6 10 7 11 3 13 2 14 1 15
REMARK SMILES IDX 67 17 68 18 69 19 14 20 15 21 16 22 17 23 18 25 19 26 20 27
REMARK SMILES IDX 66 28 21 29 65 30 22 31 23 32 24 33 59 34 25 35 64 36 58 37
REMARK SMILES IDX 60 38 26 39 63 40 57 41 56 42 27 44 49 45 34 46 48 47 35 48
REMARK SMILES IDX 38 49 47 50 61 51 36 52 37 53 46 55 62 56 39 57 28 58 29 59
REMARK SMILES IDX 33 60 30 61 32 62 31 63 50 64 51 65 55 66 52 67 54 68 53 69
REMARK SMILES IDX 40 70 41 71 45 72 42 73 44 74 43 75
REMARK H PARENT 12 5 8 12 2 16 16 24 60 43 38 54
REMARK Flexibility Score: inf
ROOT
ATOM      1  C   UNL A   1      34.409  35.423  28.370  1.00  0.00     0.118 C 
ENDROOT
BRANCH   1   2
ATOM      2  N   UNL A   1      33.600  36.282  29.222  1.00  0.00    -0.351 N 
ATOM      3  C   UNL A   1      33.176  36.167  30.514  1.00  0.00     0.275 C 
ATOM      4  O   UNL A   1      32.592  37.145  30.993  1.00  0.00    -0.269 OA
ATOM      5  H   UNL A   1      33.299  37.109  28.779  1.00  0.00     0.163 HD
BRANCH   3   6
ATOM      6  C   UNL A   1      33.388  34.884  31.332  1.00  0.00     0.363 C 
BRANCH   6   7
ATOM      7  N   UNL A   1      34.774  34.680  31.827  1.00  0.00    -0.320 N 
ATOM      8  C   UNL A   1      35.005  33.315  32.317  1.00  0.00     0.240 C 
ATOM      9  C   UNL A   1      35.009  33.369  33.841  1.00  0.00     0.077 C 
ATOM     10  C   UNL A   1      35.057  34.839  34.215  1.00  0.00     0.068 C 
ATOM     11  C   UNL A   1      35.150  35.601  32.905  1.00  0.00     0.263 C 
ATOM     12  H   UNL A   1      35.352  34.864  31.008  1.00  0.00     0.348 HD
BRANCH   8  13
ATOM     13  C   UNL A   1      36.166  32.514  31.662  1.00  0.00     0.327 C 
BRANCH  13  14
ATOM     14  N   UNL A   1      37.488  33.082  31.392  1.00  0.00    -0.330 N 
ATOM     15  C   UNL A   1      38.195  33.556  32.571  1.00  0.00     0.333 C 
ATOM     16  H   UNL A   1      38.022  32.274  31.071  1.00  0.00     0.348 HD
BRANCH  14  17
ATOM     17  C   UNL A   1      37.539  34.024  30.269  1.00  0.00     0.184 C 
ATOM     18  C   UNL A   1      38.894  34.460  29.775  1.00  0.00     0.071 C 
ATOM     19  C   UNL A   1      38.030  33.587  28.916  1.00  0.00     0.071 C 
ENDBRANCH  14  17
ENDBRANCH  13  14
ENDBRANCH   8  13
ENDBRANCH   6   7
ENDBRANCH   3   6
ENDBRANCH   1   2
BRANCH   1  20
ATOM     20  C   UNL A   1      33.773  34.071  28.021  1.00  0.00     0.042 C 
BRANCH  20  21
ATOM     21  C   UNL A   1      34.704  32.860  28.063  1.00  0.00     0.118 C 
BRANCH  21  22
ATOM     22  N   UNL A   1      33.968  31.617  27.942  1.00  0.00    -0.352 N 
ATOM     23  C   UNL A   1      34.444  30.330  27.886  1.00  0.00     0.251 C 
ATOM     24  H   UNL A   1      32.989  31.708  27.894  1.00  0.00     0.163 HD
ATOM     25  O   UNL A   1      33.695  29.429  27.519  1.00  0.00    -0.269 OA
BRANCH  23  26
ATOM     26  C   UNL A   1      35.843  30.005  28.262  1.00  0.00     0.039 A 
ATOM     27  C   UNL A   1      36.836  30.115  27.280  1.00  0.00     0.014 A 
ATOM     28  C   UNL A   1      36.172  29.494  29.522  1.00  0.00     0.014 A 
ATOM     29  C   UNL A   1      38.149  29.725  27.561  1.00  0.00     0.010 A 
ATOM     30  C   UNL A   1      37.495  29.142  29.815  1.00  0.00     0.010 A 
ATOM     31  C   UNL A   1      38.491  29.233  28.830  1.00  0.00    -0.014 A 
BRANCH  31  32
ATOM     32  C   UNL A   1      39.878  28.775  29.108  1.00  0.00     0.031 A 
ATOM     33  C   UNL A   1      40.843  29.663  29.849  1.00  0.00     0.074 A 
ATOM     34  C   UNL A   1      40.281  27.557  28.698  1.00  0.00     0.049 A 
ATOM     35  N   UNL A   1      42.078  29.417  30.213  1.00  0.00    -0.248 NA
ATOM     36  C   UNL A   1      40.363  31.003  30.218  1.00  0.00     0.031 C 
ATOM     37  C   UNL A   1      39.462  26.600  27.953  1.00  0.00     0.029 A 
ATOM     38  N   UNL A   1      41.484  26.915  28.858  1.00  0.00    -0.354 N 
ATOM     39  C   UNL A   1      42.522  30.570  30.848  1.00  0.00     0.074 A 
ATOM     40  C   UNL A   1      41.439  31.529  30.786  1.00  0.00     0.031 C 
ATOM     41  C   UNL A   1      40.180  25.485  27.739  1.00  0.00     0.029 A 
ATOM     42  C   UNL A   1      41.513  25.655  28.313  1.00  0.00     0.049 A 
ATOM     43  H   UNL A   1      42.254  27.320  29.319  1.00  0.00     0.167 HD
ATOM     44  C   UNL A   1      43.717  30.809  31.442  1.00  0.00     0.031 A 
ATOM     45  C   UNL A   1      42.495  24.736  28.281  1.00  0.00     0.031 A 
ATOM     46  C   UNL A   1      44.797  29.864  31.520  1.00  0.00     0.049 A 
ATOM     47  C   UNL A   1      43.815  25.029  28.937  1.00  0.00     0.074 A 
ATOM     48  C   UNL A   1      46.022  30.003  32.154  1.00  0.00     0.029 A 
ATOM     49  N   UNL A   1      44.788  28.605  30.943  1.00  0.00    -0.354 N 
ATOM     50  N   UNL A   1      44.194  26.100  29.588  1.00  0.00    -0.248 NA
ATOM     51  C   UNL A   1      44.838  23.974  28.863  1.00  0.00     0.031 C 
ATOM     52  C   UNL A   1      46.769  28.841  31.926  1.00  0.00     0.029 A 
ATOM     53  C   UNL A   1      45.993  27.965  31.185  1.00  0.00     0.049 A 
ATOM     54  H   UNL A   1      44.036  28.221  30.436  1.00  0.00     0.167 HD
ATOM     55  C   UNL A   1      45.489  25.844  30.016  1.00  0.00     0.074 A 
ATOM     56  C   UNL A   1      45.827  24.510  29.564  1.00  0.00     0.031 C 
ATOM     57  C   UNL A   1      46.324  26.643  30.724  1.00  0.00     0.031 A 
BRANCH  44  58
ATOM     58  C   UNL A   1      43.919  32.164  32.058  1.00  0.00    -0.014 A 
ATOM     59  C   UNL A   1      43.590  32.403  33.401  1.00  0.00     0.009 A 
ATOM     60  C   UNL A   1      44.487  33.199  31.300  1.00  0.00     0.009 A 
ATOM     61  C   UNL A   1      43.798  33.665  33.963  1.00  0.00     0.001 A 
ATOM     62  C   UNL A   1      44.713  34.453  31.871  1.00  0.00     0.001 A 
ATOM     63  C   UNL A   1      44.361  34.686  33.199  1.00  0.00     0.000 A 
ENDBRANCH  44  58
BRANCH  45  64
ATOM     64  C   UNL A   1      42.263  23.430  27.616  1.00  0.00    -0.014 A 
ATOM     65  C   UNL A   1      42.689  23.219  26.296  1.00  0.00     0.009 A 
ATOM     66  C   UNL A   1      41.614  22.390  28.299  1.00  0.00     0.009 A 
ATOM     67  C   UNL A   1      42.450  21.998  25.665  1.00  0.00     0.001 A 
ATOM     68  C   UNL A   1      41.396  21.162  27.671  1.00  0.00     0.001 A 
ATOM     69  C   UNL A   1      41.808  20.970  26.353  1.00  0.00     0.000 A 
ENDBRANCH  45  64
BRANCH  57  70
ATOM     70  C   UNL A   1      47.677  26.090  31.065  1.00  0.00    -0.014 A 
ATOM     71  C   UNL A   1      47.948  25.582  32.344  1.00  0.00     0.009 A 
ATOM     72  C   UNL A   1      48.682  26.053  30.087  1.00  0.00     0.009 A 
ATOM     73  C   UNL A   1      49.213  25.073  32.646  1.00  0.00     0.001 A 
ATOM     74  C   UNL A   1      49.939  25.523  30.387  1.00  0.00     0.001 A 
ATOM     75  C   UNL A   1      50.205  25.041  31.666  1.00  0.00     0.000 A 
ENDBRANCH  57  70
ENDBRANCH  31  32
ENDBRANCH  23  26
ENDBRANCH  21  22
ENDBRANCH  20  21
ENDBRANCH   1  20
TORSDOF 14
ENDMDL
