MODEL 1
REMARK VINA RESULT:     -11.2      0.000      0.000
REMARK SMILES CCc1nc(N2CC[N@H+](CC=C(C)C)[C@H](C(=O)NCCCNC(=O)c3ccc(-c4c5nc(c(-c6ccccc6)c6ccc([nH]6)c(-c6ccccc6)c6nc(c(-c7ccccc7)c7ccc4[nH]7)C=C6)C=C5)cc3)C2)no1
REMARK SMILES IDX 20 1 19 2 18 3 16 4 17 5 15 7 6 8 7 9 73 10 8 11 9 12 5 14
REMARK SMILES IDX 3 15 4 16 75 17 74 18 2 19 1 20 10 21 11 22 12 23 13 24
REMARK SMILES IDX 14 25 21 26 22 27 23 28 24 30 25 31 26 32 72 33 27 34 71 35
REMARK SMILES IDX 28 36 29 37 30 38 65 39 31 40 70 41 64 42 66 43 32 44 69 45
REMARK SMILES IDX 63 46 62 47 33 49 55 50 40 51 54 52 41 53 44 54 53 55 67 56
REMARK SMILES IDX 42 57 43 58 52 60 68 61 45 62 34 63 35 64 39 65 36 66 38 67
REMARK SMILES IDX 37 68 56 69 57 70 61 71 58 72 60 73 59 74 46 75 47 76 51 77
REMARK SMILES IDX 48 78 50 79 49 80
REMARK H PARENT 18 6 9 13 22 29 66 48 44 59
REMARK Flexibility Score: inf
ROOT
ATOM      1  C   UNL A   1      37.582  19.713  24.799  1.00  0.00     0.042 C 
ENDROOT
BRANCH   1   2
ATOM      2  C   UNL A   1      36.378  20.640  24.610  1.00  0.00     0.118 C 
BRANCH   2   3
ATOM      3  N   UNL A   1      35.595  20.714  25.825  1.00  0.00    -0.351 N 
ATOM      4  C   UNL A   1      34.733  21.633  26.328  1.00  0.00     0.280 C 
ATOM      5  O   UNL A   1      34.439  21.434  27.518  1.00  0.00    -0.268 OA
ATOM      6  H   UNL A   1      35.712  19.930  26.409  1.00  0.00     0.163 HD
BRANCH   4   7
ATOM      7  C   UNL A   1      34.029  22.774  25.562  1.00  0.00     0.294 C 
ATOM      8  N   UNL A   1      32.728  24.912  25.716  1.00  0.00    -0.326 N 
ATOM      9  C   UNL A   1      32.392  24.793  24.291  1.00  0.00     0.181 C 
ATOM     10  C   UNL A   1      33.258  23.756  26.463  1.00  0.00     0.195 C 
ATOM     11  C   UNL A   1      33.278  23.786  23.532  1.00  0.00     0.284 C 
ATOM     12  N   UNL A   1      33.473  22.482  24.204  1.00  0.00    -0.318 N 
ATOM     13  H   UNL A   1      34.174  21.868  23.787  1.00  0.00     0.349 HD
BRANCH   8  14
ATOM     14  C   UNL A   1      32.305  26.017  26.373  1.00  0.00     0.266 A 
ATOM     15  C   UNL A   1      32.332  28.018  26.969  1.00  0.00     0.227 A 
ATOM     16  N   UNL A   1      33.123  27.111  26.443  1.00  0.00    -0.176 NA
ATOM     17  O   UNL A   1      31.110  27.534  27.319  1.00  0.00    -0.337 OA
ATOM     18  N   UNL A   1      31.093  26.206  26.918  1.00  0.00    -0.038 NA
BRANCH  15  19
ATOM     19  C   UNL A   1      32.528  29.476  27.104  1.00  0.00     0.097 C 
ATOM     20  C   UNL A   1      32.084  30.183  25.831  1.00  0.00     0.014 C 
ENDBRANCH  15  19
ENDBRANCH   8  14
BRANCH  12  21
ATOM     21  C   UNL A   1      32.295  21.637  24.036  1.00  0.00     0.291 C 
BRANCH  21  22
ATOM     22  C   UNL A   1      32.427  20.331  23.303  1.00  0.00     0.032 C 
ATOM     23  C   UNL A   1      32.590  19.097  23.818  1.00  0.00    -0.075 C 
ATOM     24  C   UNL A   1      32.727  17.905  22.905  1.00  0.00     0.039 C 
ATOM     25  C   UNL A   1      32.639  18.806  25.288  1.00  0.00     0.039 C 
ENDBRANCH  21  22
ENDBRANCH  12  21
ENDBRANCH   4   7
ENDBRANCH   2   3
ENDBRANCH   1   2
BRANCH   1  26
ATOM     26  C   UNL A   1      38.652  20.258  25.732  1.00  0.00     0.118 C 
BRANCH  26  27
ATOM     27  N   UNL A   1      39.821  19.390  25.782  1.00  0.00    -0.352 N 
ATOM     28  C   UNL A   1      41.132  19.694  26.042  1.00  0.00     0.251 C 
ATOM     29  H   UNL A   1      39.641  18.439  25.601  1.00  0.00     0.163 HD
ATOM     30  O   UNL A   1      41.998  18.846  25.813  1.00  0.00    -0.269 OA
BRANCH  28  31
ATOM     31  C   UNL A   1      41.531  21.014  26.580  1.00  0.00     0.039 A 
ATOM     32  C   UNL A   1      41.452  21.230  27.963  1.00  0.00     0.014 A 
ATOM     33  C   UNL A   1      41.925  22.062  25.742  1.00  0.00     0.014 A 
ATOM     34  C   UNL A   1      41.804  22.472  28.500  1.00  0.00     0.010 A 
ATOM     35  C   UNL A   1      42.352  23.272  26.286  1.00  0.00     0.010 A 
ATOM     36  C   UNL A   1      42.280  23.497  27.668  1.00  0.00    -0.014 A 
BRANCH  36  37
ATOM     37  C   UNL A   1      42.676  24.819  28.219  1.00  0.00     0.031 A 
ATOM     38  C   UNL A   1      41.640  25.891  28.429  1.00  0.00     0.074 A 
ATOM     39  C   UNL A   1      43.972  25.078  28.476  1.00  0.00     0.049 A 
ATOM     40  N   UNL A   1      41.798  27.126  28.834  1.00  0.00    -0.248 NA
ATOM     41  C   UNL A   1      40.246  25.535  28.117  1.00  0.00     0.031 C 
ATOM     42  C   UNL A   1      45.080  24.140  28.283  1.00  0.00     0.029 A 
ATOM     43  N   UNL A   1      44.579  26.214  28.951  1.00  0.00    -0.354 N 
ATOM     44  C   UNL A   1      40.531  27.699  28.800  1.00  0.00     0.074 A 
ATOM     45  C   UNL A   1      39.625  26.692  28.293  1.00  0.00     0.031 C 
ATOM     46  C   UNL A   1      46.226  24.731  28.659  1.00  0.00     0.029 A 
ATOM     47  C   UNL A   1      45.941  26.098  29.084  1.00  0.00     0.049 A 
ATOM     48  H   UNL A   1      44.083  27.036  29.175  1.00  0.00     0.167 HD
ATOM     49  C   UNL A   1      40.152  28.944  29.174  1.00  0.00     0.031 A 
ATOM     50  C   UNL A   1      46.858  26.992  29.496  1.00  0.00     0.031 A 
ATOM     51  C   UNL A   1      41.047  29.940  29.698  1.00  0.00     0.049 A 
ATOM     52  C   UNL A   1      46.414  28.367  29.907  1.00  0.00     0.074 A 
ATOM     53  C   UNL A   1      40.750  31.209  30.163  1.00  0.00     0.029 A 
ATOM     54  N   UNL A   1      42.418  29.775  29.828  1.00  0.00    -0.354 N 
ATOM     55  N   UNL A   1      45.203  28.872  29.927  1.00  0.00    -0.248 NA
ATOM     56  C   UNL A   1      47.461  29.292  30.361  1.00  0.00     0.031 C 
ATOM     57  C   UNL A   1      41.949  31.829  30.535  1.00  0.00     0.029 A 
ATOM     58  C   UNL A   1      42.984  30.928  30.346  1.00  0.00     0.049 A 
ATOM     59  H   UNL A   1      42.915  28.960  29.587  1.00  0.00     0.167 HD
ATOM     60  C   UNL A   1      45.342  30.164  30.415  1.00  0.00     0.074 A 
ATOM     61  C   UNL A   1      46.749  30.360  30.696  1.00  0.00     0.031 C 
ATOM     62  C   UNL A   1      44.388  31.106  30.614  1.00  0.00     0.031 A 
BRANCH  49  63
ATOM     63  C   UNL A   1      38.699  29.299  29.020  1.00  0.00    -0.014 A 
ATOM     64  C   UNL A   1      38.193  29.783  27.803  1.00  0.00     0.009 A 
ATOM     65  C   UNL A   1      37.819  29.125  30.099  1.00  0.00     0.009 A 
ATOM     66  C   UNL A   1      36.844  30.124  27.682  1.00  0.00     0.001 A 
ATOM     67  C   UNL A   1      36.465  29.439  29.967  1.00  0.00     0.001 A 
ATOM     68  C   UNL A   1      35.981  29.949  28.763  1.00  0.00     0.000 A 
ENDBRANCH  49  63
BRANCH  50  69
ATOM     69  C   UNL A   1      48.293  26.608  29.560  1.00  0.00    -0.014 A 
ATOM     70  C   UNL A   1      49.146  26.871  28.477  1.00  0.00     0.009 A 
ATOM     71  C   UNL A   1      48.816  25.983  30.702  1.00  0.00     0.009 A 
ATOM     72  C   UNL A   1      50.490  26.494  28.529  1.00  0.00     0.001 A 
ATOM     73  C   UNL A   1      50.167  25.631  30.761  1.00  0.00     0.001 A 
ATOM     74  C   UNL A   1      51.000  25.880  29.672  1.00  0.00     0.000 A 
ENDBRANCH  50  69
BRANCH  62  75
ATOM     75  C   UNL A   1      44.833  32.422  31.182  1.00  0.00    -0.014 A 
ATOM     76  C   UNL A   1      44.942  32.616  32.568  1.00  0.00     0.009 A 
ATOM     77  C   UNL A   1      45.185  33.470  30.317  1.00  0.00     0.009 A 
ATOM     78  C   UNL A   1      45.367  33.845  33.076  1.00  0.00     0.001 A 
ATOM     79  C   UNL A   1      45.634  34.688  30.828  1.00  0.00     0.001 A 
ATOM     80  C   UNL A   1      45.717  34.877  32.207  1.00  0.00     0.000 A 
ENDBRANCH  62  75
ENDBRANCH  36  37
ENDBRANCH  28  31
ENDBRANCH  26  27
ENDBRANCH   1  26
TORSDOF 14
ENDMDL
MODEL 2
REMARK VINA RESULT:     -11.2      1.919      7.664
REMARK SMILES CCc1nc(N2CC[N@H+](CC=C(C)C)[C@H](C(=O)NCCCNC(=O)c3ccc(-c4c5nc(c(-c6ccccc6)c6ccc([nH]6)c(-c6ccccc6)c6nc(c(-c7ccccc7)c7ccc4[nH]7)C=C6)C=C5)cc3)C2)no1
REMARK SMILES IDX 20 1 19 2 18 3 16 4 17 5 15 7 6 8 7 9 73 10 8 11 9 12 5 14
REMARK SMILES IDX 3 15 4 16 75 17 74 18 2 19 1 20 10 21 11 22 12 23 13 24
REMARK SMILES IDX 14 25 21 26 22 27 23 28 24 30 25 31 26 32 72 33 27 34 71 35
REMARK SMILES IDX 28 36 29 37 30 38 65 39 31 40 70 41 64 42 66 43 32 44 69 45
REMARK SMILES IDX 63 46 62 47 33 49 55 50 40 51 54 52 41 53 44 54 53 55 67 56
REMARK SMILES IDX 42 57 43 58 52 60 68 61 45 62 34 63 35 64 39 65 36 66 38 67
REMARK SMILES IDX 37 68 56 69 57 70 61 71 58 72 60 73 59 74 46 75 47 76 51 77
REMARK SMILES IDX 48 78 50 79 49 80
REMARK H PARENT 18 6 9 13 22 29 66 48 44 59
REMARK Flexibility Score: inf
ROOT
ATOM      1  C   UNL A   1      33.320  28.413  25.577  1.00  0.00     0.042 C 
ENDROOT
BRANCH   1   2
ATOM      2  C   UNL A   1      32.116  27.529  25.237  1.00  0.00     0.118 C 
BRANCH   2   3
ATOM      3  N   UNL A   1      31.963  26.476  26.217  1.00  0.00    -0.351 N 
ATOM      4  C   UNL A   1      31.800  25.133  26.129  1.00  0.00     0.280 C 
ATOM      5  O   UNL A   1      31.473  24.603  27.204  1.00  0.00    -0.268 OA
ATOM      6  H   UNL A   1      31.983  26.805  27.145  1.00  0.00     0.163 HD
BRANCH   4   7
ATOM      7  C   UNL A   1      32.085  24.233  24.906  1.00  0.00     0.294 C 
ATOM      8  N   UNL A   1      32.439  21.901  24.056  1.00  0.00    -0.326 N 
ATOM      9  C   UNL A   1      32.938  22.454  22.791  1.00  0.00     0.181 C 
ATOM     10  C   UNL A   1      32.322  22.751  25.255  1.00  0.00     0.195 C 
ATOM     11  C   UNL A   1      32.590  23.942  22.589  1.00  0.00     0.284 C 
ATOM     12  N   UNL A   1      32.845  24.815  23.757  1.00  0.00    -0.318 N 
ATOM     13  H   UNL A   1      32.481  25.766  23.687  1.00  0.00     0.349 HD
BRANCH   8  14
ATOM     14  C   UNL A   1      32.335  20.555  24.158  1.00  0.00     0.266 A 
ATOM     15  C   UNL A   1      32.516  18.569  23.542  1.00  0.00     0.227 A 
ATOM     16  N   UNL A   1      32.496  19.782  23.041  1.00  0.00    -0.176 NA
ATOM     17  O   UNL A   1      32.282  18.531  24.881  1.00  0.00    -0.337 OA
ATOM     18  N   UNL A   1      32.166  19.852  25.288  1.00  0.00    -0.038 NA
BRANCH  15  19
ATOM     19  C   UNL A   1      32.883  17.290  22.899  1.00  0.00     0.097 C 
ATOM     20  C   UNL A   1      34.051  16.650  23.636  1.00  0.00     0.014 C 
ENDBRANCH  15  19
ENDBRANCH   8  14
BRANCH  12  21
ATOM     21  C   UNL A   1      34.268  25.119  23.869  1.00  0.00     0.291 C 
BRANCH  21  22
ATOM     22  C   UNL A   1      35.093  24.401  24.900  1.00  0.00     0.032 C 
ATOM     23  C   UNL A   1      36.059  23.483  24.706  1.00  0.00    -0.075 C 
ATOM     24  C   UNL A   1      36.759  22.856  25.884  1.00  0.00     0.039 C 
ATOM     25  C   UNL A   1      36.513  23.023  23.353  1.00  0.00     0.039 C 
ENDBRANCH  21  22
ENDBRANCH  12  21
ENDBRANCH   4   7
ENDBRANCH   2   3
ENDBRANCH   1   2
BRANCH   1  26
ATOM     26  C   UNL A   1      33.615  28.525  27.065  1.00  0.00     0.118 C 
BRANCH  26  27
ATOM     27  N   UNL A   1      33.555  29.905  27.527  1.00  0.00    -0.352 N 
ATOM     28  C   UNL A   1      34.479  30.639  28.224  1.00  0.00     0.251 C 
ATOM     29  H   UNL A   1      32.724  30.383  27.305  1.00  0.00     0.163 HD
ATOM     30  O   UNL A   1      34.139  31.720  28.712  1.00  0.00    -0.269 OA
BRANCH  28  31
ATOM     31  C   UNL A   1      35.869  30.163  28.413  1.00  0.00     0.039 A 
ATOM     32  C   UNL A   1      36.250  29.678  29.671  1.00  0.00     0.014 A 
ATOM     33  C   UNL A   1      36.819  30.242  27.390  1.00  0.00     0.014 A 
ATOM     34  C   UNL A   1      37.559  29.238  29.887  1.00  0.00     0.010 A 
ATOM     35  C   UNL A   1      38.100  29.729  27.583  1.00  0.00     0.010 A 
ATOM     36  C   UNL A   1      38.491  29.238  28.837  1.00  0.00    -0.014 A 
BRANCH  36  37
ATOM     37  C   UNL A   1      39.883  28.760  29.039  1.00  0.00     0.031 A 
ATOM     38  C   UNL A   1      40.925  29.687  29.606  1.00  0.00     0.074 A 
ATOM     39  C   UNL A   1      40.226  27.515  28.660  1.00  0.00     0.049 A 
ATOM     40  N   UNL A   1      42.204  29.478  29.793  1.00  0.00    -0.248 NA
ATOM     41  C   UNL A   1      40.475  31.035  29.989  1.00  0.00     0.031 C 
ATOM     42  C   UNL A   1      39.322  26.529  28.063  1.00  0.00     0.029 A 
ATOM     43  N   UNL A   1      41.435  26.866  28.713  1.00  0.00    -0.354 N 
ATOM     44  C   UNL A   1      42.713  30.673  30.289  1.00  0.00     0.074 A 
ATOM     45  C   UNL A   1      41.616  31.615  30.331  1.00  0.00     0.031 C 
ATOM     46  C   UNL A   1      40.002  25.394  27.831  1.00  0.00     0.029 A 
ATOM     47  C   UNL A   1      41.395  25.583  28.225  1.00  0.00     0.049 A 
ATOM     48  H   UNL A   1      42.254  27.282  29.069  1.00  0.00     0.167 HD
ATOM     49  C   UNL A   1      43.975  30.957  30.690  1.00  0.00     0.031 A 
ATOM     50  C   UNL A   1      42.370  24.664  28.102  1.00  0.00     0.031 A 
ATOM     51  C   UNL A   1      45.062  30.017  30.669  1.00  0.00     0.049 A 
ATOM     52  C   UNL A   1      43.762  25.001  28.555  1.00  0.00     0.074 A 
ATOM     53  C   UNL A   1      46.362  30.189  31.112  1.00  0.00     0.029 A 
ATOM     54  N   UNL A   1      44.974  28.723  30.177  1.00  0.00    -0.354 N 
ATOM     55  N   UNL A   1      44.212  26.116  29.079  1.00  0.00    -0.248 NA
ATOM     56  C   UNL A   1      44.778  23.950  28.408  1.00  0.00     0.031 C 
ATOM     57  C   UNL A   1      47.072  29.012  30.849  1.00  0.00     0.029 A 
ATOM     58  C   UNL A   1      46.202  28.093  30.286  1.00  0.00     0.049 A 
ATOM     59  H   UNL A   1      44.160  28.314  29.805  1.00  0.00     0.167 HD
ATOM     60  C   UNL A   1      45.556  25.893  29.344  1.00  0.00     0.074 A 
ATOM     61  C   UNL A   1      45.844  24.532  28.940  1.00  0.00     0.031 C 
ATOM     62  C   UNL A   1      46.472  26.740  29.875  1.00  0.00     0.031 A 
BRANCH  49  63
ATOM     63  C   UNL A   1      44.245  32.352  31.182  1.00  0.00    -0.014 A 
ATOM     64  C   UNL A   1      44.114  32.684  32.540  1.00  0.00     0.009 A 
ATOM     65  C   UNL A   1      44.659  33.344  30.279  1.00  0.00     0.009 A 
ATOM     66  C   UNL A   1      44.352  33.989  32.977  1.00  0.00     0.001 A 
ATOM     67  C   UNL A   1      44.924  34.641  30.723  1.00  0.00     0.001 A 
ATOM     68  C   UNL A   1      44.760  34.965  32.068  1.00  0.00     0.000 A 
ENDBRANCH  49  63
BRANCH  50  69
ATOM     69  C   UNL A   1      42.059  23.323  27.541  1.00  0.00    -0.014 A 
ATOM     70  C   UNL A   1      41.463  22.339  28.344  1.00  0.00     0.009 A 
ATOM     71  C   UNL A   1      42.353  23.022  26.202  1.00  0.00     0.009 A 
ATOM     72  C   UNL A   1      41.188  21.072  27.823  1.00  0.00     0.001 A 
ATOM     73  C   UNL A   1      42.053  21.763  25.677  1.00  0.00     0.001 A 
ATOM     74  C   UNL A   1      41.478  20.787  26.489  1.00  0.00     0.000 A 
ENDBRANCH  50  69
BRANCH  62  75
ATOM     75  C   UNL A   1      47.862  26.209  30.070  1.00  0.00    -0.014 A 
ATOM     76  C   UNL A   1      48.790  26.198  29.018  1.00  0.00     0.009 A 
ATOM     77  C   UNL A   1      48.260  25.750  31.337  1.00  0.00     0.009 A 
ATOM     78  C   UNL A   1      50.082  25.708  29.223  1.00  0.00     0.001 A 
ATOM     79  C   UNL A   1      49.559  25.286  31.544  1.00  0.00     0.001 A 
ATOM     80  C   UNL A   1      50.466  25.258  30.486  1.00  0.00     0.000 A 
ENDBRANCH  62  75
ENDBRANCH  36  37
ENDBRANCH  28  31
ENDBRANCH  26  27
ENDBRANCH   1  26
TORSDOF 14
ENDMDL
MODEL 3
REMARK VINA RESULT:     -11.2      1.582      7.599
REMARK SMILES CCc1nc(N2CC[N@H+](CC=C(C)C)[C@H](C(=O)NCCCNC(=O)c3ccc(-c4c5nc(c(-c6ccccc6)c6ccc([nH]6)c(-c6ccccc6)c6nc(c(-c7ccccc7)c7ccc4[nH]7)C=C6)C=C5)cc3)C2)no1
REMARK SMILES IDX 20 1 19 2 18 3 16 4 17 5 15 7 6 8 7 9 73 10 8 11 9 12 5 14
REMARK SMILES IDX 3 15 4 16 75 17 74 18 2 19 1 20 10 21 11 22 12 23 13 24
REMARK SMILES IDX 14 25 21 26 22 27 23 28 24 30 25 31 26 32 72 33 27 34 71 35
REMARK SMILES IDX 28 36 29 37 30 38 65 39 31 40 70 41 64 42 66 43 32 44 69 45
REMARK SMILES IDX 63 46 62 47 33 49 55 50 40 51 54 52 41 53 44 54 53 55 67 56
REMARK SMILES IDX 42 57 43 58 52 60 68 61 45 62 34 63 35 64 39 65 36 66 38 67
REMARK SMILES IDX 37 68 56 69 57 70 61 71 58 72 60 73 59 74 46 75 47 76 51 77
REMARK SMILES IDX 48 78 50 79 49 80
REMARK H PARENT 18 6 9 13 22 29 66 48 44 59
REMARK Flexibility Score: inf
ROOT
ATOM      1  C   UNL A   1      32.283  27.966  27.084  1.00  0.00     0.042 C 
ENDROOT
BRANCH   1   2
ATOM      2  C   UNL A   1      32.255  26.711  26.207  1.00  0.00     0.118 C 
BRANCH   2   3
ATOM      3  N   UNL A   1      31.424  25.688  26.804  1.00  0.00    -0.351 N 
ATOM      4  C   UNL A   1      31.014  24.461  26.399  1.00  0.00     0.280 C 
ATOM      5  O   UNL A   1      30.112  23.983  27.105  1.00  0.00    -0.268 OA
ATOM      6  H   UNL A   1      31.085  25.937  27.695  1.00  0.00     0.163 HD
BRANCH   4   7
ATOM      7  C   UNL A   1      31.618  23.598  25.269  1.00  0.00     0.294 C 
ATOM      8  N   UNL A   1      33.611  22.316  24.447  1.00  0.00    -0.326 N 
ATOM      9  C   UNL A   1      33.003  22.257  23.112  1.00  0.00     0.181 C 
ATOM     10  C   UNL A   1      33.110  23.263  25.461  1.00  0.00     0.195 C 
ATOM     11  C   UNL A   1      31.499  22.594  23.104  1.00  0.00     0.284 C 
ATOM     12  N   UNL A   1      31.117  23.799  23.875  1.00  0.00    -0.318 N 
ATOM     13  H   UNL A   1      30.115  23.945  24.001  1.00  0.00     0.349 HD
BRANCH   8  14
ATOM     14  C   UNL A   1      34.786  21.671  24.634  1.00  0.00     0.266 A 
ATOM     15  C   UNL A   1      36.808  21.478  25.115  1.00  0.00     0.227 A 
ATOM     16  N   UNL A   1      35.936  22.398  24.773  1.00  0.00    -0.176 NA
ATOM     17  O   UNL A   1      36.299  20.217  25.102  1.00  0.00    -0.337 OA
ATOM     18  N   UNL A   1      34.955  20.348  24.786  1.00  0.00    -0.038 NA
BRANCH  15  19
ATOM     19  C   UNL A   1      38.185  21.629  25.629  1.00  0.00     0.097 C 
ATOM     20  C   UNL A   1      38.437  23.075  26.033  1.00  0.00     0.014 C 
ENDBRANCH  15  19
ENDBRANCH   8  14
BRANCH  12  21
ATOM     21  C   UNL A   1      31.435  25.010  23.125  1.00  0.00     0.291 C 
BRANCH  21  22
ATOM     22  C   UNL A   1      30.446  26.142  23.104  1.00  0.00     0.032 C 
ATOM     23  C   UNL A   1      30.685  27.457  22.941  1.00  0.00    -0.075 C 
ATOM     24  C   UNL A   1      29.547  28.446  22.974  1.00  0.00     0.039 C 
ATOM     25  C   UNL A   1      32.049  28.036  22.713  1.00  0.00     0.039 C 
ENDBRANCH  21  22
ENDBRANCH  12  21
ENDBRANCH   4   7
ENDBRANCH   2   3
ENDBRANCH   1   2
BRANCH   1  26
ATOM     26  C   UNL A   1      33.673  28.538  27.315  1.00  0.00     0.118 C 
BRANCH  26  27
ATOM     27  N   UNL A   1      33.626  29.951  27.666  1.00  0.00    -0.352 N 
ATOM     28  C   UNL A   1      34.553  30.728  28.311  1.00  0.00     0.251 C 
ATOM     29  H   UNL A   1      32.803  30.419  27.399  1.00  0.00     0.163 HD
ATOM     30  O   UNL A   1      34.222  31.847  28.708  1.00  0.00    -0.269 OA
BRANCH  28  31
ATOM     31  C   UNL A   1      35.936  30.252  28.549  1.00  0.00     0.039 A 
ATOM     32  C   UNL A   1      36.861  30.318  27.498  1.00  0.00     0.014 A 
ATOM     33  C   UNL A   1      36.319  29.688  29.769  1.00  0.00     0.014 A 
ATOM     34  C   UNL A   1      38.168  29.860  27.686  1.00  0.00     0.010 A 
ATOM     35  C   UNL A   1      37.644  29.307  29.979  1.00  0.00     0.010 A 
ATOM     36  C   UNL A   1      38.579  29.371  28.936  1.00  0.00    -0.014 A 
BRANCH  36  37
ATOM     37  C   UNL A   1      39.967  28.895  29.162  1.00  0.00     0.031 A 
ATOM     38  C   UNL A   1      40.988  29.811  29.782  1.00  0.00     0.074 A 
ATOM     39  C   UNL A   1      40.327  27.661  28.760  1.00  0.00     0.049 A 
ATOM     40  N   UNL A   1      42.263  29.602  29.998  1.00  0.00    -0.248 NA
ATOM     41  C   UNL A   1      40.522  31.146  30.187  1.00  0.00     0.031 C 
ATOM     42  C   UNL A   1      39.444  26.687  28.114  1.00  0.00     0.029 A 
ATOM     43  N   UNL A   1      41.537  27.016  28.830  1.00  0.00    -0.354 N 
ATOM     44  C   UNL A   1      42.752  30.786  30.539  1.00  0.00     0.074 A 
ATOM     45  C   UNL A   1      41.650  31.722  30.576  1.00  0.00     0.031 C 
ATOM     46  C   UNL A   1      40.135  25.562  27.870  1.00  0.00     0.029 A 
ATOM     47  C   UNL A   1      41.516  25.746  28.307  1.00  0.00     0.049 A 
ATOM     48  H   UNL A   1      42.344  27.426  29.218  1.00  0.00     0.167 HD
ATOM     49  C   UNL A   1      44.002  31.065  30.982  1.00  0.00     0.031 A 
ATOM     50  C   UNL A   1      42.499  24.835  28.187  1.00  0.00     0.031 A 
ATOM     51  C   UNL A   1      45.094  30.130  30.966  1.00  0.00     0.049 A 
ATOM     52  C   UNL A   1      43.876  25.166  28.686  1.00  0.00     0.074 A 
ATOM     53  C   UNL A   1      46.380  30.296  31.449  1.00  0.00     0.029 A 
ATOM     54  N   UNL A   1      45.026  28.849  30.438  1.00  0.00    -0.354 N 
ATOM     55  N   UNL A   1      44.306  26.269  29.252  1.00  0.00    -0.248 NA
ATOM     56  C   UNL A   1      44.901  24.124  28.540  1.00  0.00     0.031 C 
ATOM     57  C   UNL A   1      47.103  29.130  31.174  1.00  0.00     0.029 A 
ATOM     58  C   UNL A   1      46.253  28.222  30.564  1.00  0.00     0.049 A 
ATOM     59  H   UNL A   1      44.224  28.446  30.033  1.00  0.00     0.167 HD
ATOM     60  C   UNL A   1      45.644  26.045  29.547  1.00  0.00     0.074 A 
ATOM     61  C   UNL A   1      45.950  24.696  29.116  1.00  0.00     0.031 C 
ATOM     62  C   UNL A   1      46.540  26.881  30.125  1.00  0.00     0.031 A 
BRANCH  49  63
ATOM     63  C   UNL A   1      44.252  32.448  31.517  1.00  0.00    -0.014 A 
ATOM     64  C   UNL A   1      44.117  32.734  32.885  1.00  0.00     0.009 A 
ATOM     65  C   UNL A   1      44.649  33.473  30.646  1.00  0.00     0.009 A 
ATOM     66  C   UNL A   1      44.336  34.028  33.363  1.00  0.00     0.001 A 
ATOM     67  C   UNL A   1      44.895  34.760  31.130  1.00  0.00     0.001 A 
ATOM     68  C   UNL A   1      44.728  35.039  32.485  1.00  0.00     0.000 A 
ENDBRANCH  49  63
BRANCH  50  69
ATOM     69  C   UNL A   1      42.210  23.508  27.583  1.00  0.00    -0.014 A 
ATOM     70  C   UNL A   1      41.680  22.472  28.366  1.00  0.00     0.009 A 
ATOM     71  C   UNL A   1      42.460  23.272  26.222  1.00  0.00     0.009 A 
ATOM     72  C   UNL A   1      41.426  21.219  27.804  1.00  0.00     0.001 A 
ATOM     73  C   UNL A   1      42.180  22.025  25.656  1.00  0.00     0.001 A 
ATOM     74  C   UNL A   1      41.671  20.998  26.449  1.00  0.00     0.000 A 
ENDBRANCH  50  69
BRANCH  62  75
ATOM     75  C   UNL A   1      47.928  26.351  30.344  1.00  0.00    -0.014 A 
ATOM     76  C   UNL A   1      48.307  25.795  31.575  1.00  0.00     0.009 A 
ATOM     77  C   UNL A   1      48.856  26.375  29.290  1.00  0.00     0.009 A 
ATOM     78  C   UNL A   1      49.600  25.300  31.756  1.00  0.00     0.001 A 
ATOM     79  C   UNL A   1      50.139  25.855  29.467  1.00  0.00     0.001 A 
ATOM     80  C   UNL A   1      50.512  25.326  30.701  1.00  0.00     0.000 A 
ENDBRANCH  62  75
ENDBRANCH  36  37
ENDBRANCH  28  31
ENDBRANCH  26  27
ENDBRANCH   1  26
TORSDOF 14
ENDMDL
