MODEL 1
REMARK VINA RESULT:     -11.5      0.000      0.000
REMARK SMILES Cc1ccc(-c2cccc(F)c2C(=O)NCCCNC(=O)c2ccc(-c3c4nc(c(-c5ccccc5)c5ccc([nH]5)c(-c5ccccc5)c5nc(c(-c6ccccc6)c6ccc3[nH]6)C=C5)C=C4)cc2)c(C)c1
REMARK SMILES IDX 17 1 16 2 15 3 13 4 14 5 12 7 6 8 7 9 8 10 10 11 9 12 11 13
REMARK SMILES IDX 5 14 1 15 2 16 3 17 72 18 4 19 70 20 71 21 18 22 19 23 20 24
REMARK SMILES IDX 21 26 22 27 23 28 69 29 24 30 68 31 25 32 26 33 27 34 62 35
REMARK SMILES IDX 28 36 67 37 61 38 63 39 29 40 66 41 60 42 59 43 30 45 52 46
REMARK SMILES IDX 37 47 51 48 38 49 41 50 50 51 64 52 39 53 40 54 49 56 65 57
REMARK SMILES IDX 42 58 31 59 32 60 36 61 33 62 35 63 34 64 53 65 54 66 58 67
REMARK SMILES IDX 55 68 57 69 56 70 43 71 44 72 48 73 45 74 47 75 46 76
REMARK H PARENT 15 6 19 25 63 44 41 55
REMARK Flexibility Score: inf
ROOT
ATOM      1  C   UNL A   1      34.083  28.225  26.126  1.00  0.00     0.042 C 
ENDROOT
BRANCH   1   2
ATOM      2  C   UNL A   1      33.809  28.968  24.826  1.00  0.00     0.118 C 
BRANCH   2   3
ATOM      3  N   UNL A   1      34.086  28.210  23.615  1.00  0.00    -0.352 N 
ATOM      4  C   UNL A   1      33.360  27.295  22.882  1.00  0.00     0.254 C 
ATOM      5  O   UNL A   1      33.792  27.056  21.754  1.00  0.00    -0.269 OA
ATOM      6  H   UNL A   1      34.979  28.390  23.240  1.00  0.00     0.163 HD
BRANCH   4   7
ATOM      7  C   UNL A   1      32.166  26.560  23.397  1.00  0.00     0.083 A 
ATOM      8  C   UNL A   1      32.315  25.335  24.103  1.00  0.00    -0.002 A 
ATOM      9  C   UNL A   1      31.165  24.716  24.652  1.00  0.00     0.010 A 
ATOM     10  C   UNL A   1      29.894  25.259  24.485  1.00  0.00     0.004 A 
ATOM     11  C   UNL A   1      30.866  27.007  23.141  1.00  0.00     0.136 A 
ATOM     12  C   UNL A   1      29.745  26.397  23.709  1.00  0.00     0.040 A 
ATOM     13  F   UNL A   1      30.629  27.991  22.261  1.00  0.00    -0.206 F 
BRANCH   8  14
ATOM     14  C   UNL A   1      33.580  24.576  24.217  1.00  0.00    -0.015 A 
ATOM     15  C   UNL A   1      37.363  22.537  24.789  1.00  0.00     0.044 C 
ATOM     16  C   UNL A   1      36.066  23.264  24.591  1.00  0.00    -0.051 A 
ATOM     17  C   UNL A   1      35.590  24.148  25.556  1.00  0.00     0.004 A 
ATOM     18  C   UNL A   1      35.298  23.041  23.440  1.00  0.00     0.007 A 
ATOM     19  C   UNL A   1      34.366  24.793  25.369  1.00  0.00     0.009 A 
ATOM     20  C   UNL A   1      34.064  23.694  23.233  1.00  0.00    -0.043 A 
ATOM     21  C   UNL A   1      33.304  23.369  21.979  1.00  0.00     0.045 C 
ENDBRANCH   8  14
ENDBRANCH   4   7
ENDBRANCH   2   3
ENDBRANCH   1   2
BRANCH   1  22
ATOM     22  C   UNL A   1      33.304  28.697  27.345  1.00  0.00     0.118 C 
BRANCH  22  23
ATOM     23  N   UNL A   1      33.436  30.125  27.606  1.00  0.00    -0.352 N 
ATOM     24  C   UNL A   1      34.466  30.864  28.137  1.00  0.00     0.251 C 
ATOM     25  H   UNL A   1      32.644  30.655  27.358  1.00  0.00     0.163 HD
ATOM     26  O   UNL A   1      34.276  32.045  28.418  1.00  0.00    -0.269 OA
BRANCH  24  27
ATOM     27  C   UNL A   1      35.794  30.263  28.401  1.00  0.00     0.039 A 
ATOM     28  C   UNL A   1      36.756  30.274  27.385  1.00  0.00     0.014 A 
ATOM     29  C   UNL A   1      36.091  29.650  29.619  1.00  0.00     0.014 A 
ATOM     30  C   UNL A   1      38.030  29.748  27.619  1.00  0.00     0.010 A 
ATOM     31  C   UNL A   1      37.388  29.219  29.887  1.00  0.00     0.010 A 
ATOM     32  C   UNL A   1      38.373  29.259  28.890  1.00  0.00    -0.014 A 
BRANCH  32  33
ATOM     33  C   UNL A   1      39.749  28.785  29.196  1.00  0.00     0.031 A 
ATOM     34  C   UNL A   1      40.744  29.708  29.850  1.00  0.00     0.074 A 
ATOM     35  C   UNL A   1      40.128  27.548  28.813  1.00  0.00     0.049 A 
ATOM     36  N   UNL A   1      42.008  29.501  30.121  1.00  0.00    -0.248 NA
ATOM     37  C   UNL A   1      40.268  31.053  30.221  1.00  0.00     0.031 C 
ATOM     38  C   UNL A   1      39.279  26.574  28.122  1.00  0.00     0.029 A 
ATOM     39  N   UNL A   1      41.333  26.901  28.938  1.00  0.00    -0.354 N 
ATOM     40  C   UNL A   1      42.480  30.690  30.663  1.00  0.00     0.074 A 
ATOM     41  C   UNL A   1      41.382  31.630  30.646  1.00  0.00     0.031 C 
ATOM     42  C   UNL A   1      39.980  25.449  27.906  1.00  0.00     0.029 A 
ATOM     43  C   UNL A   1      41.340  25.636  28.400  1.00  0.00     0.049 A 
ATOM     44  H   UNL A   1      42.119  27.306  29.372  1.00  0.00     0.167 HD
ATOM     45  C   UNL A   1      43.713  30.970  31.148  1.00  0.00     0.031 A 
ATOM     46  C   UNL A   1      42.333  24.731  28.300  1.00  0.00     0.031 A 
ATOM     47  C   UNL A   1      44.796  30.025  31.195  1.00  0.00     0.049 A 
ATOM     48  C   UNL A   1      43.688  25.069  28.859  1.00  0.00     0.074 A 
ATOM     49  C   UNL A   1      46.055  30.188  31.748  1.00  0.00     0.029 A 
ATOM     50  N   UNL A   1      44.750  28.745  30.670  1.00  0.00    -0.354 N 
ATOM     51  N   UNL A   1      44.087  26.166  29.455  1.00  0.00    -0.248 NA
ATOM     52  C   UNL A   1      44.728  24.036  28.744  1.00  0.00     0.031 C 
ATOM     53  C   UNL A   1      46.792  29.027  31.502  1.00  0.00     0.029 A 
ATOM     54  C   UNL A   1      45.971  28.118  30.856  1.00  0.00     0.049 A 
ATOM     55  H   UNL A   1      43.967  28.340  30.231  1.00  0.00     0.167 HD
ATOM     56  C   UNL A   1      45.411  25.944  29.812  1.00  0.00     0.074 A 
ATOM     57  C   UNL A   1      45.741  24.600  29.386  1.00  0.00     0.031 C 
ATOM     58  C   UNL A   1      46.278  26.778  30.433  1.00  0.00     0.031 A 
BRANCH  45  59
ATOM     59  C   UNL A   1      43.970  32.358  31.669  1.00  0.00    -0.014 A 
ATOM     60  C   UNL A   1      43.774  32.680  33.020  1.00  0.00     0.009 A 
ATOM     61  C   UNL A   1      44.496  33.334  30.807  1.00  0.00     0.009 A 
ATOM     62  C   UNL A   1      44.078  33.958  33.493  1.00  0.00     0.001 A 
ATOM     63  C   UNL A   1      44.827  34.602  31.289  1.00  0.00     0.001 A 
ATOM     64  C   UNL A   1      44.612  34.915  32.631  1.00  0.00     0.000 A 
ENDBRANCH  45  59
BRANCH  46  65
ATOM     65  C   UNL A   1      42.097  23.419  27.637  1.00  0.00    -0.014 A 
ATOM     66  C   UNL A   1      42.377  23.243  26.273  1.00  0.00     0.009 A 
ATOM     67  C   UNL A   1      41.548  22.347  28.358  1.00  0.00     0.009 A 
ATOM     68  C   UNL A   1      42.071  22.038  25.636  1.00  0.00     0.001 A 
ATOM     69  C   UNL A   1      41.277  21.131  27.726  1.00  0.00     0.001 A 
ATOM     70  C   UNL A   1      41.524  20.983  26.363  1.00  0.00     0.000 A 
ENDBRANCH  46  65
BRANCH  58  71
ATOM     71  C   UNL A   1      47.653  26.247  30.729  1.00  0.00    -0.014 A 
ATOM     72  C   UNL A   1      48.673  26.282  29.766  1.00  0.00     0.009 A 
ATOM     73  C   UNL A   1      47.940  25.741  32.007  1.00  0.00     0.009 A 
ATOM     74  C   UNL A   1      49.944  25.787  30.067  1.00  0.00     0.001 A 
ATOM     75  C   UNL A   1      49.218  25.279  32.315  1.00  0.00     0.001 A 
ATOM     76  C   UNL A   1      50.217  25.291  31.342  1.00  0.00     0.000 A 
ENDBRANCH  58  71
ENDBRANCH  32  33
ENDBRANCH  24  27
ENDBRANCH  22  23
ENDBRANCH   1  22
TORSDOF 11
ENDMDL
MODEL 2
REMARK VINA RESULT:     -11.4      2.921      7.489
REMARK SMILES Cc1ccc(-c2cccc(F)c2C(=O)NCCCNC(=O)c2ccc(-c3c4nc(c(-c5ccccc5)c5ccc([nH]5)c(-c5ccccc5)c5nc(c(-c6ccccc6)c6ccc3[nH]6)C=C5)C=C4)cc2)c(C)c1
REMARK SMILES IDX 17 1 16 2 15 3 13 4 14 5 12 7 6 8 7 9 8 10 10 11 9 12 11 13
REMARK SMILES IDX 5 14 1 15 2 16 3 17 72 18 4 19 70 20 71 21 18 22 19 23 20 24
REMARK SMILES IDX 21 26 22 27 23 28 69 29 24 30 68 31 25 32 26 33 27 34 62 35
REMARK SMILES IDX 28 36 67 37 61 38 63 39 29 40 66 41 60 42 59 43 30 45 52 46
REMARK SMILES IDX 37 47 51 48 38 49 41 50 50 51 64 52 39 53 40 54 49 56 65 57
REMARK SMILES IDX 42 58 31 59 32 60 36 61 33 62 35 63 34 64 53 65 54 66 58 67
REMARK SMILES IDX 55 68 57 69 56 70 43 71 44 72 48 73 45 74 47 75 46 76
REMARK H PARENT 15 6 19 25 63 44 41 55
REMARK Flexibility Score: inf
ROOT
ATOM      1  C   UNL A   1      37.694  19.782  24.998  1.00  0.00     0.042 C 
ENDROOT
BRANCH   1   2
ATOM      2  C   UNL A   1      36.636  20.822  24.656  1.00  0.00     0.118 C 
BRANCH   2   3
ATOM      3  N   UNL A   1      35.681  21.099  25.719  1.00  0.00    -0.352 N 
ATOM      4  C   UNL A   1      34.306  21.033  25.799  1.00  0.00     0.254 C 
ATOM      5  O   UNL A   1      33.837  21.071  26.936  1.00  0.00    -0.269 OA
ATOM      6  H   UNL A   1      36.106  21.394  26.557  1.00  0.00     0.163 HD
BRANCH   4   7
ATOM      7  C   UNL A   1      33.394  20.991  24.616  1.00  0.00     0.083 A 
ATOM      8  C   UNL A   1      32.911  22.191  24.027  1.00  0.00    -0.002 A 
ATOM      9  C   UNL A   1      32.121  22.109  22.854  1.00  0.00     0.010 A 
ATOM     10  C   UNL A   1      31.779  20.884  22.289  1.00  0.00     0.004 A 
ATOM     11  C   UNL A   1      32.927  19.779  24.097  1.00  0.00     0.136 A 
ATOM     12  C   UNL A   1      32.167  19.717  22.926  1.00  0.00     0.040 A 
ATOM     13  F   UNL A   1      33.110  18.623  24.752  1.00  0.00    -0.206 F 
BRANCH   8  14
ATOM     14  C   UNL A   1      33.069  23.540  24.612  1.00  0.00    -0.015 A 
ATOM     15  C   UNL A   1      33.814  27.508  26.194  1.00  0.00     0.044 C 
ATOM     16  C   UNL A   1      33.578  26.128  25.655  1.00  0.00    -0.051 A 
ATOM     17  C   UNL A   1      34.403  25.598  24.666  1.00  0.00     0.004 A 
ATOM     18  C   UNL A   1      32.502  25.360  26.122  1.00  0.00     0.007 A 
ATOM     19  C   UNL A   1      34.150  24.324  24.155  1.00  0.00     0.009 A 
ATOM     20  C   UNL A   1      32.242  24.067  25.622  1.00  0.00    -0.043 A 
ATOM     21  C   UNL A   1      31.050  23.334  26.169  1.00  0.00     0.045 C 
ENDBRANCH   8  14
ENDBRANCH   4   7
ENDBRANCH   2   3
ENDBRANCH   1   2
BRANCH   1  22
ATOM     22  C   UNL A   1      38.857  20.267  25.851  1.00  0.00     0.118 C 
BRANCH  22  23
ATOM     23  N   UNL A   1      40.008  19.374  25.832  1.00  0.00    -0.352 N 
ATOM     24  C   UNL A   1      41.344  19.599  26.070  1.00  0.00     0.251 C 
ATOM     25  H   UNL A   1      39.790  18.440  25.609  1.00  0.00     0.163 HD
ATOM     26  O   UNL A   1      42.156  18.711  25.827  1.00  0.00    -0.269 OA
BRANCH  24  27
ATOM     27  C   UNL A   1      41.828  20.899  26.591  1.00  0.00     0.039 A 
ATOM     28  C   UNL A   1      42.250  21.877  25.682  1.00  0.00     0.014 A 
ATOM     29  C   UNL A   1      41.914  21.153  27.960  1.00  0.00     0.014 A 
ATOM     30  C   UNL A   1      42.675  23.127  26.144  1.00  0.00     0.010 A 
ATOM     31  C   UNL A   1      42.240  22.428  28.416  1.00  0.00     0.010 A 
ATOM     32  C   UNL A   1      42.628  23.430  27.514  1.00  0.00    -0.014 A 
BRANCH  32  33
ATOM     33  C   UNL A   1      42.980  24.782  28.025  1.00  0.00     0.031 A 
ATOM     34  C   UNL A   1      41.903  25.808  28.268  1.00  0.00     0.074 A 
ATOM     35  C   UNL A   1      44.277  25.113  28.193  1.00  0.00     0.049 A 
ATOM     36  N   UNL A   1      42.023  27.059  28.634  1.00  0.00    -0.248 NA
ATOM     37  C   UNL A   1      40.510  25.383  28.041  1.00  0.00     0.031 C 
ATOM     38  C   UNL A   1      45.419  24.231  27.941  1.00  0.00     0.029 A 
ATOM     39  N   UNL A   1      44.855  26.289  28.605  1.00  0.00    -0.354 N 
ATOM     40  C   UNL A   1      40.733  27.574  28.652  1.00  0.00     0.074 A 
ATOM     41  C   UNL A   1      39.847  26.517  28.221  1.00  0.00     0.031 C 
ATOM     42  C   UNL A   1      46.556  24.887  28.224  1.00  0.00     0.029 A 
ATOM     43  C   UNL A   1      46.229  26.249  28.634  1.00  0.00     0.049 A 
ATOM     44  H   UNL A   1      44.335  27.086  28.855  1.00  0.00     0.167 HD
ATOM     45  C   UNL A   1      40.320  28.813  29.012  1.00  0.00     0.031 A 
ATOM     46  C   UNL A   1      47.128  27.204  28.941  1.00  0.00     0.031 A 
ATOM     47  C   UNL A   1      41.198  29.855  29.472  1.00  0.00     0.049 A 
ATOM     48  C   UNL A   1      46.636  28.566  29.348  1.00  0.00     0.074 A 
ATOM     49  C   UNL A   1      40.864  31.113  29.942  1.00  0.00     0.029 A 
ATOM     50  N   UNL A   1      42.578  29.761  29.517  1.00  0.00    -0.354 N 
ATOM     51  N   UNL A   1      45.404  29.004  29.451  1.00  0.00    -0.248 NA
ATOM     52  C   UNL A   1      47.659  29.564  29.694  1.00  0.00     0.031 C 
ATOM     53  C   UNL A   1      42.048  31.805  30.214  1.00  0.00     0.029 A 
ATOM     54  C   UNL A   1      43.114  30.953  29.976  1.00  0.00     0.049 A 
ATOM     55  H   UNL A   1      43.101  28.967  29.262  1.00  0.00     0.167 HD
ATOM     56  C   UNL A   1      45.505  30.314  29.903  1.00  0.00     0.074 A 
ATOM     57  C   UNL A   1      46.916  30.592  30.075  1.00  0.00     0.031 C 
ATOM     58  C   UNL A   1      44.519  31.209  30.149  1.00  0.00     0.031 A 
BRANCH  45  59
ATOM     59  C   UNL A   1      38.850  29.122  28.923  1.00  0.00    -0.014 A 
ATOM     60  C   UNL A   1      38.004  28.975  30.032  1.00  0.00     0.009 A 
ATOM     61  C   UNL A   1      38.324  29.648  27.732  1.00  0.00     0.009 A 
ATOM     62  C   UNL A   1      36.655  29.327  29.944  1.00  0.00     0.001 A 
ATOM     63  C   UNL A   1      36.982  30.025  27.655  1.00  0.00     0.001 A 
ATOM     64  C   UNL A   1      36.147  29.859  28.760  1.00  0.00     0.000 A 
ENDBRANCH  45  59
BRANCH  46  65
ATOM     65  C   UNL A   1      48.588  26.920  28.869  1.00  0.00    -0.014 A 
ATOM     66  C   UNL A   1      49.305  27.142  27.683  1.00  0.00     0.009 A 
ATOM     67  C   UNL A   1      49.263  26.385  29.977  1.00  0.00     0.009 A 
ATOM     68  C   UNL A   1      50.654  26.791  27.594  1.00  0.00     0.001 A 
ATOM     69  C   UNL A   1      50.622  26.069  29.896  1.00  0.00     0.001 A 
ATOM     70  C   UNL A   1      51.311  26.258  28.701  1.00  0.00     0.000 A 
ENDBRANCH  46  65
BRANCH  58  71
ATOM     71  C   UNL A   1      44.927  32.557  30.673  1.00  0.00    -0.014 A 
ATOM     72  C   UNL A   1      45.162  33.637  29.809  1.00  0.00     0.009 A 
ATOM     73  C   UNL A   1      45.037  32.758  32.059  1.00  0.00     0.009 A 
ATOM     74  C   UNL A   1      45.536  34.881  30.321  1.00  0.00     0.001 A 
ATOM     75  C   UNL A   1      45.377  34.010  32.568  1.00  0.00     0.001 A 
ATOM     76  C   UNL A   1      45.638  35.068  31.699  1.00  0.00     0.000 A 
ENDBRANCH  58  71
ENDBRANCH  32  33
ENDBRANCH  24  27
ENDBRANCH  22  23
ENDBRANCH   1  22
TORSDOF 11
ENDMDL
MODEL 3
REMARK VINA RESULT:     -11.4      2.813      7.556
REMARK SMILES Cc1ccc(-c2cccc(F)c2C(=O)NCCCNC(=O)c2ccc(-c3c4nc(c(-c5ccccc5)c5ccc([nH]5)c(-c5ccccc5)c5nc(c(-c6ccccc6)c6ccc3[nH]6)C=C5)C=C4)cc2)c(C)c1
REMARK SMILES IDX 17 1 16 2 15 3 13 4 14 5 12 7 6 8 7 9 8 10 10 11 9 12 11 13
REMARK SMILES IDX 5 14 1 15 2 16 3 17 72 18 4 19 70 20 71 21 18 22 19 23 20 24
REMARK SMILES IDX 21 26 22 27 23 28 69 29 24 30 68 31 25 32 26 33 27 34 62 35
REMARK SMILES IDX 28 36 67 37 61 38 63 39 29 40 66 41 60 42 59 43 30 45 52 46
REMARK SMILES IDX 37 47 51 48 38 49 41 50 50 51 64 52 39 53 40 54 49 56 65 57
REMARK SMILES IDX 42 58 31 59 32 60 36 61 33 62 35 63 34 64 53 65 54 66 58 67
REMARK SMILES IDX 55 68 57 69 56 70 43 71 44 72 48 73 45 74 47 75 46 76
REMARK H PARENT 15 6 19 25 63 44 41 55
REMARK Flexibility Score: inf
ROOT
ATOM      1  C   UNL A   1      37.844  19.790  24.939  1.00  0.00     0.042 C 
ENDROOT
BRANCH   1   2
ATOM      2  C   UNL A   1      36.831  20.888  24.646  1.00  0.00     0.118 C 
BRANCH   2   3
ATOM      3  N   UNL A   1      35.896  21.165  25.726  1.00  0.00    -0.352 N 
ATOM      4  C   UNL A   1      34.525  21.069  25.841  1.00  0.00     0.254 C 
ATOM      5  O   UNL A   1      34.083  21.119  26.989  1.00  0.00    -0.269 OA
ATOM      6  H   UNL A   1      36.334  21.487  26.548  1.00  0.00     0.163 HD
BRANCH   4   7
ATOM      7  C   UNL A   1      33.586  20.980  24.682  1.00  0.00     0.083 A 
ATOM      8  C   UNL A   1      33.020  22.154  24.113  1.00  0.00    -0.002 A 
ATOM      9  C   UNL A   1      32.206  22.032  22.960  1.00  0.00     0.010 A 
ATOM     10  C   UNL A   1      31.920  20.793  22.396  1.00  0.00     0.004 A 
ATOM     11  C   UNL A   1      33.175  19.747  24.167  1.00  0.00     0.136 A 
ATOM     12  C   UNL A   1      32.390  19.647  23.016  1.00  0.00     0.040 A 
ATOM     13  F   UNL A   1      33.441  18.600  24.810  1.00  0.00    -0.206 F 
BRANCH   8  14
ATOM     14  C   UNL A   1      33.117  23.507  24.703  1.00  0.00    -0.015 A 
ATOM     15  C   UNL A   1      33.679  27.501  26.296  1.00  0.00     0.044 C 
ATOM     16  C   UNL A   1      33.506  26.112  25.753  1.00  0.00    -0.051 A 
ATOM     17  C   UNL A   1      34.350  25.627  24.756  1.00  0.00     0.004 A 
ATOM     18  C   UNL A   1      32.472  25.292  26.223  1.00  0.00     0.007 A 
ATOM     19  C   UNL A   1      34.155  24.344  24.242  1.00  0.00     0.009 A 
ATOM     20  C   UNL A   1      32.272  23.989  25.720  1.00  0.00    -0.043 A 
ATOM     21  C   UNL A   1      31.120  23.197  26.272  1.00  0.00     0.045 C 
ENDBRANCH   8  14
ENDBRANCH   4   7
ENDBRANCH   2   3
ENDBRANCH   1   2
BRANCH   1  22
ATOM     22  C   UNL A   1      38.897  20.113  25.990  1.00  0.00     0.118 C 
BRANCH  22  23
ATOM     23  N   UNL A   1      40.114  19.323  25.860  1.00  0.00    -0.352 N 
ATOM     24  C   UNL A   1      41.439  19.654  26.017  1.00  0.00     0.251 C 
ATOM     25  H   UNL A   1      39.959  18.382  25.614  1.00  0.00     0.163 HD
ATOM     26  O   UNL A   1      42.304  18.848  25.686  1.00  0.00    -0.269 OA
BRANCH  24  27
ATOM     27  C   UNL A   1      41.848  20.973  26.556  1.00  0.00     0.039 A 
ATOM     28  C   UNL A   1      42.265  21.968  25.665  1.00  0.00     0.014 A 
ATOM     29  C   UNL A   1      41.869  21.228  27.928  1.00  0.00     0.014 A 
ATOM     30  C   UNL A   1      42.620  23.233  26.143  1.00  0.00     0.010 A 
ATOM     31  C   UNL A   1      42.123  22.515  28.395  1.00  0.00     0.010 A 
ATOM     32  C   UNL A   1      42.505  23.533  27.510  1.00  0.00    -0.014 A 
BRANCH  32  33
ATOM     33  C   UNL A   1      42.781  24.898  28.033  1.00  0.00     0.031 A 
ATOM     34  C   UNL A   1      44.164  25.268  28.502  1.00  0.00     0.074 A 
ATOM     35  C   UNL A   1      41.767  25.779  28.160  1.00  0.00     0.049 A 
ATOM     36  N   UNL A   1      44.576  26.378  29.060  1.00  0.00    -0.248 NA
ATOM     37  C   UNL A   1      45.217  24.248  28.354  1.00  0.00     0.031 C 
ATOM     38  C   UNL A   1      40.371  25.528  27.795  1.00  0.00     0.029 A 
ATOM     39  N   UNL A   1      41.753  27.064  28.646  1.00  0.00    -0.354 N 
ATOM     40  C   UNL A   1      45.920  26.179  29.354  1.00  0.00     0.074 A 
ATOM     41  C   UNL A   1      46.247  24.829  28.953  1.00  0.00     0.031 C 
ATOM     42  C   UNL A   1      39.642  26.628  28.048  1.00  0.00     0.029 A 
ATOM     43  C   UNL A   1      40.507  27.645  28.634  1.00  0.00     0.049 A 
ATOM     44  H   UNL A   1      42.559  27.525  28.974  1.00  0.00     0.167 HD
ATOM     45  C   UNL A   1      46.807  27.048  29.894  1.00  0.00     0.031 A 
ATOM     46  C   UNL A   1      40.101  28.857  29.061  1.00  0.00     0.031 A 
ATOM     47  C   UNL A   1      46.490  28.401  30.263  1.00  0.00     0.049 A 
ATOM     48  C   UNL A   1      41.114  29.803  29.646  1.00  0.00     0.074 A 
ATOM     49  C   UNL A   1      47.342  29.384  30.736  1.00  0.00     0.029 A 
ATOM     50  N   UNL A   1      45.225  28.959  30.203  1.00  0.00    -0.354 N 
ATOM     51  N   UNL A   1      42.401  29.629  29.826  1.00  0.00    -0.248 NA
ATOM     52  C   UNL A   1      40.621  31.120  30.074  1.00  0.00     0.031 C 
ATOM     53  C   UNL A   1      46.581  30.520  31.022  1.00  0.00     0.029 A 
ATOM     54  C   UNL A   1      45.267  30.265  30.663  1.00  0.00     0.049 A 
ATOM     55  H   UNL A   1      44.416  28.498  29.882  1.00  0.00     0.167 HD
ATOM     56  C   UNL A   1      42.874  30.821  30.358  1.00  0.00     0.074 A 
ATOM     57  C   UNL A   1      41.741  31.719  30.451  1.00  0.00     0.031 C 
ATOM     58  C   UNL A   1      44.132  31.146  30.741  1.00  0.00     0.031 A 
BRANCH  45  59
ATOM     59  C   UNL A   1      48.215  26.568  30.126  1.00  0.00    -0.014 A 
ATOM     60  C   UNL A   1      48.574  25.899  31.306  1.00  0.00     0.009 A 
ATOM     61  C   UNL A   1      49.172  26.715  29.109  1.00  0.00     0.009 A 
ATOM     62  C   UNL A   1      49.871  25.408  31.472  1.00  0.00     0.001 A 
ATOM     63  C   UNL A   1      50.459  26.197  29.266  1.00  0.00     0.001 A 
ATOM     64  C   UNL A   1      50.809  25.549  30.450  1.00  0.00     0.000 A 
ENDBRANCH  45  59
BRANCH  46  65
ATOM     65  C   UNL A   1      38.669  29.252  28.965  1.00  0.00    -0.014 A 
ATOM     66  C   UNL A   1      37.808  29.102  30.064  1.00  0.00     0.009 A 
ATOM     67  C   UNL A   1      38.145  29.740  27.758  1.00  0.00     0.009 A 
ATOM     68  C   UNL A   1      36.446  29.391  29.943  1.00  0.00     0.001 A 
ATOM     69  C   UNL A   1      36.790  30.062  27.650  1.00  0.00     0.001 A 
ATOM     70  C   UNL A   1      35.939  29.872  28.738  1.00  0.00     0.000 A 
ENDBRANCH  46  65
BRANCH  58  71
ATOM     71  C   UNL A   1      44.360  32.540  31.252  1.00  0.00    -0.014 A 
ATOM     72  C   UNL A   1      44.667  33.597  30.383  1.00  0.00     0.009 A 
ATOM     73  C   UNL A   1      44.225  32.805  32.625  1.00  0.00     0.009 A 
ATOM     74  C   UNL A   1      44.871  34.885  30.883  1.00  0.00     0.001 A 
ATOM     75  C   UNL A   1      44.395  34.098  33.117  1.00  0.00     0.001 A 
ATOM     76  C   UNL A   1      44.730  35.135  32.247  1.00  0.00     0.000 A 
ENDBRANCH  58  71
ENDBRANCH  32  33
ENDBRANCH  24  27
ENDBRANCH  22  23
ENDBRANCH   1  22
TORSDOF 11
ENDMDL
