MODEL 1
REMARK VINA RESULT:     -10.0      0.000      0.000
REMARK SMILES CC[C@H](CCO)CNc1cc(C(=O)NCCCNC(=O)c2ccc(-c3c4nc(c(-c5ccccc5)c5ccc([nH]5)c(-c5ccccc5)c5nc(c(-c6ccccc6)c6ccc3[nH]6)C=C5)C=C4)cc2)ccn1
REMARK SMILES IDX 12 1 13 2 14 3 11 5 9 6 10 7 71 8 70 9 69 10 8 11 7 13 3 14
REMARK SMILES IDX 2 15 1 16 4 17 5 18 6 19 15 21 16 22 17 23 18 24 19 25 20 27
REMARK SMILES IDX 21 28 22 29 68 30 23 31 67 32 24 33 25 34 26 35 61 36 27 37
REMARK SMILES IDX 66 38 60 39 62 40 28 41 65 42 59 43 58 44 29 46 51 47 36 48
REMARK SMILES IDX 50 49 37 50 40 51 49 52 63 53 38 54 39 55 48 57 64 58 41 59
REMARK SMILES IDX 30 60 31 61 35 62 32 63 34 64 33 65 52 66 53 67 57 68 54 69
REMARK SMILES IDX 56 70 55 71 42 72 43 73 47 74 44 75 46 76 45 77
REMARK H PARENT 14 4 8 12 6 20 18 26 62 45 40 56
REMARK Flexibility Score: inf
ROOT
ATOM      1  C   UNL A   1      32.453  25.579  26.196  1.00  0.00     0.251 C 
ATOM      2  O   UNL A   1      31.470  25.217  26.845  1.00  0.00    -0.269 OA
ATOM      3  N   UNL A   1      33.313  24.596  25.781  1.00  0.00    -0.352 N 
ATOM      4  H   UNL A   1      33.041  23.695  26.069  1.00  0.00     0.163 HD
ENDROOT
BRANCH   1   5
ATOM      5  C   UNL A   1      32.601  27.023  25.869  1.00  0.00     0.044 A 
ATOM      6  C   UNL A   1      31.869  29.163  25.063  1.00  0.00     0.126 A 
ATOM      7  C   UNL A   1      31.652  27.799  25.211  1.00  0.00     0.060 A 
ATOM      8  N   UNL A   1      33.027  29.746  25.416  1.00  0.00    -0.240 NA
ATOM      9  C   UNL A   1      33.970  28.974  25.988  1.00  0.00     0.114 A 
ATOM     10  C   UNL A   1      33.799  27.630  26.252  1.00  0.00     0.034 A 
BRANCH   6  11
ATOM     11  N   UNL A   1      30.894  30.024  24.602  1.00  0.00    -0.370 N 
ATOM     12  H   UNL A   1      30.778  30.910  25.015  1.00  0.00     0.162 HD
BRANCH  11  13
ATOM     13  C   UNL A   1      30.039  29.612  23.498  1.00  0.00     0.118 C 
BRANCH  13  14
ATOM     14  C   UNL A   1      28.986  30.701  23.174  1.00  0.00     0.010 C 
BRANCH  14  15
ATOM     15  C   UNL A   1      27.578  30.186  23.561  1.00  0.00     0.002 C 
ATOM     16  C   UNL A   1      27.253  28.820  22.967  1.00  0.00     0.004 C 
ENDBRANCH  14  15
BRANCH  14  17
ATOM     17  C   UNL A   1      29.079  31.081  21.676  1.00  0.00     0.033 C 
BRANCH  17  18
ATOM     18  C   UNL A   1      27.975  31.995  21.155  1.00  0.00     0.156 C 
BRANCH  18  19
ATOM     19  O   UNL A   1      28.069  33.289  21.730  1.00  0.00    -0.396 OA
ATOM     20  H   UNL A   1      28.540  33.233  22.576  1.00  0.00     0.210 HD
ENDBRANCH  18  19
ENDBRANCH  17  18
ENDBRANCH  14  17
ENDBRANCH  13  14
ENDBRANCH  11  13
ENDBRANCH   6  11
ENDBRANCH   1   5
BRANCH   3  21
ATOM     21  C   UNL A   1      34.539  24.603  25.005  1.00  0.00     0.118 C 
BRANCH  21  22
ATOM     22  C   UNL A   1      35.654  23.854  25.738  1.00  0.00     0.042 C 
BRANCH  22  23
ATOM     23  C   UNL A   1      36.961  23.800  24.946  1.00  0.00     0.118 C 
BRANCH  23  24
ATOM     24  N   UNL A   1      37.862  22.777  25.460  1.00  0.00    -0.352 N 
ATOM     25  C   UNL A   1      39.016  22.899  26.191  1.00  0.00     0.251 C 
ATOM     26  H   UNL A   1      37.601  21.852  25.248  1.00  0.00     0.163 HD
ATOM     27  O   UNL A   1      39.750  21.924  26.324  1.00  0.00    -0.269 OA
BRANCH  25  28
ATOM     28  C   UNL A   1      39.388  24.186  26.816  1.00  0.00     0.039 A 
ATOM     29  C   UNL A   1      38.968  24.441  28.127  1.00  0.00     0.014 A 
ATOM     30  C   UNL A   1      40.086  25.167  26.106  1.00  0.00     0.014 A 
ATOM     31  C   UNL A   1      39.287  25.655  28.738  1.00  0.00     0.010 A 
ATOM     32  C   UNL A   1      40.456  26.353  26.737  1.00  0.00     0.010 A 
ATOM     33  C   UNL A   1      40.056  26.611  28.056  1.00  0.00    -0.014 A 
BRANCH  33  34
ATOM     34  C   UNL A   1      40.449  27.886  28.707  1.00  0.00     0.031 A 
ATOM     35  C   UNL A   1      41.822  28.046  29.299  1.00  0.00     0.074 A 
ATOM     36  C   UNL A   1      39.546  28.879  28.822  1.00  0.00     0.049 A 
ATOM     37  N   UNL A   1      42.320  29.054  29.968  1.00  0.00    -0.248 NA
ATOM     38  C   UNL A   1      42.750  26.915  29.134  1.00  0.00     0.031 C 
ATOM     39  C   UNL A   1      38.171  28.836  28.321  1.00  0.00     0.029 A 
ATOM     40  N   UNL A   1      39.649  30.115  29.410  1.00  0.00    -0.354 N 
ATOM     41  C   UNL A   1      43.609  28.673  30.321  1.00  0.00     0.074 A 
ATOM     42  C   UNL A   1      43.802  27.326  29.827  1.00  0.00     0.031 C 
ATOM     43  C   UNL A   1      37.564  29.999  28.607  1.00  0.00     0.029 A 
ATOM     44  C   UNL A   1      38.492  30.853  29.343  1.00  0.00     0.049 A 
ATOM     45  H   UNL A   1      40.473  30.441  29.838  1.00  0.00     0.167 HD
ATOM     46  C   UNL A   1      44.553  29.385  30.984  1.00  0.00     0.031 A 
ATOM     47  C   UNL A   1      38.206  32.075  29.829  1.00  0.00     0.031 A 
ATOM     48  C   UNL A   1      44.366  30.726  31.466  1.00  0.00     0.049 A 
ATOM     49  C   UNL A   1      39.266  32.841  30.567  1.00  0.00     0.074 A 
ATOM     50  C   UNL A   1      45.279  31.549  32.104  1.00  0.00     0.029 A 
ATOM     51  N   UNL A   1      43.184  31.443  31.366  1.00  0.00    -0.354 N 
ATOM     52  N   UNL A   1      40.499  32.488  30.841  1.00  0.00    -0.248 NA
ATOM     53  C   UNL A   1      38.899  34.178  31.053  1.00  0.00     0.031 C 
ATOM     54  C   UNL A   1      44.636  32.748  32.428  1.00  0.00     0.029 A 
ATOM     55  C   UNL A   1      43.337  32.690  31.947  1.00  0.00     0.049 A 
ATOM     56  H   UNL A   1      42.358  31.113  30.944  1.00  0.00     0.167 HD
ATOM     57  C   UNL A   1      41.061  33.567  31.509  1.00  0.00     0.074 A 
ATOM     58  C   UNL A   1      40.040  34.592  31.585  1.00  0.00     0.031 C 
ATOM     59  C   UNL A   1      42.311  33.698  32.015  1.00  0.00     0.031 A 
BRANCH  46  60
ATOM     60  C   UNL A   1      45.877  28.714  31.230  1.00  0.00    -0.014 A 
ATOM     61  C   UNL A   1      46.931  28.827  30.308  1.00  0.00     0.009 A 
ATOM     62  C   UNL A   1      46.085  27.989  32.412  1.00  0.00     0.009 A 
ATOM     63  C   UNL A   1      48.152  28.194  30.549  1.00  0.00     0.001 A 
ATOM     64  C   UNL A   1      47.316  27.381  32.664  1.00  0.00     0.001 A 
ATOM     65  C   UNL A   1      48.345  27.475  31.729  1.00  0.00     0.000 A 
ENDBRANCH  46  60
BRANCH  47  66
ATOM     66  C   UNL A   1      36.854  32.657  29.621  1.00  0.00    -0.014 A 
ATOM     67  C   UNL A   1      36.544  33.326  28.428  1.00  0.00     0.009 A 
ATOM     68  C   UNL A   1      35.870  32.546  30.615  1.00  0.00     0.009 A 
ATOM     69  C   UNL A   1      35.281  33.893  28.243  1.00  0.00     0.001 A 
ATOM     70  C   UNL A   1      34.599  33.091  30.415  1.00  0.00     0.001 A 
ATOM     71  C   UNL A   1      34.309  33.771  29.234  1.00  0.00     0.000 A 
ENDBRANCH  47  66
BRANCH  59  72
ATOM     72  C   UNL A   1      42.653  35.008  32.665  1.00  0.00    -0.014 A 
ATOM     73  C   UNL A   1      42.289  35.278  33.993  1.00  0.00     0.009 A 
ATOM     74  C   UNL A   1      43.384  35.968  31.948  1.00  0.00     0.009 A 
ATOM     75  C   UNL A   1      42.625  36.500  34.580  1.00  0.00     0.001 A 
ATOM     76  C   UNL A   1      43.740  37.178  32.547  1.00  0.00     0.001 A 
ATOM     77  C   UNL A   1      43.352  37.445  33.860  1.00  0.00     0.000 A 
ENDBRANCH  59  72
ENDBRANCH  33  34
ENDBRANCH  25  28
ENDBRANCH  23  24
ENDBRANCH  22  23
ENDBRANCH  21  22
ENDBRANCH   3  21
TORSDOF 17
ENDMDL
MODEL 2
REMARK VINA RESULT:      -9.9      3.078      7.554
REMARK SMILES CC[C@H](CCO)CNc1cc(C(=O)NCCCNC(=O)c2ccc(-c3c4nc(c(-c5ccccc5)c5ccc([nH]5)c(-c5ccccc5)c5nc(c(-c6ccccc6)c6ccc3[nH]6)C=C5)C=C4)cc2)ccn1
REMARK SMILES IDX 12 1 13 2 14 3 11 5 9 6 10 7 71 8 70 9 69 10 8 11 7 13 3 14
REMARK SMILES IDX 2 15 1 16 4 17 5 18 6 19 15 21 16 22 17 23 18 24 19 25 20 27
REMARK SMILES IDX 21 28 22 29 68 30 23 31 67 32 24 33 25 34 26 35 61 36 27 37
REMARK SMILES IDX 66 38 60 39 62 40 28 41 65 42 59 43 58 44 29 46 51 47 36 48
REMARK SMILES IDX 50 49 37 50 40 51 49 52 63 53 38 54 39 55 48 57 64 58 41 59
REMARK SMILES IDX 30 60 31 61 35 62 32 63 34 64 33 65 52 66 53 67 57 68 54 69
REMARK SMILES IDX 56 70 55 71 42 72 43 73 47 74 44 75 46 76 45 77
REMARK H PARENT 14 4 8 12 6 20 18 26 62 45 40 56
REMARK Flexibility Score: inf
ROOT
ATOM      1  C   UNL A   1      33.565  19.831  25.283  1.00  0.00     0.251 C 
ATOM      2  O   UNL A   1      32.800  18.893  25.051  1.00  0.00    -0.269 OA
ATOM      3  N   UNL A   1      34.881  19.651  24.948  1.00  0.00    -0.352 N 
ATOM      4  H   UNL A   1      35.066  18.764  24.562  1.00  0.00     0.163 HD
ENDROOT
BRANCH   1   5
ATOM      5  C   UNL A   1      33.003  21.088  25.846  1.00  0.00     0.044 A 
ATOM      6  C   UNL A   1      31.577  23.020  25.873  1.00  0.00     0.126 A 
ATOM      7  C   UNL A   1      32.111  21.934  25.193  1.00  0.00     0.060 A 
ATOM      8  N   UNL A   1      31.990  23.368  27.104  1.00  0.00    -0.240 NA
ATOM      9  C   UNL A   1      32.907  22.584  27.704  1.00  0.00     0.114 A 
ATOM     10  C   UNL A   1      33.420  21.437  27.133  1.00  0.00     0.034 A 
BRANCH   6  11
ATOM     11  N   UNL A   1      30.547  23.783  25.362  1.00  0.00    -0.370 N 
ATOM     12  H   UNL A   1      29.805  23.354  24.877  1.00  0.00     0.162 HD
BRANCH  11  13
ATOM     13  C   UNL A   1      30.565  25.226  25.547  1.00  0.00     0.118 C 
BRANCH  13  14
ATOM     14  C   UNL A   1      30.395  25.962  24.194  1.00  0.00     0.010 C 
BRANCH  14  15
ATOM     15  C   UNL A   1      28.899  26.298  23.976  1.00  0.00     0.002 C 
ATOM     16  C   UNL A   1      28.669  27.718  23.470  1.00  0.00     0.004 C 
ENDBRANCH  14  15
BRANCH  14  17
ATOM     17  C   UNL A   1      30.972  25.088  23.053  1.00  0.00     0.033 C 
BRANCH  17  18
ATOM     18  C   UNL A   1      31.952  25.785  22.116  1.00  0.00     0.156 C 
BRANCH  18  19
ATOM     19  O   UNL A   1      31.291  26.747  21.307  1.00  0.00    -0.396 OA
ATOM     20  H   UNL A   1      31.946  27.352  20.925  1.00  0.00     0.210 HD
ENDBRANCH  18  19
ENDBRANCH  17  18
ENDBRANCH  14  17
ENDBRANCH  13  14
ENDBRANCH  11  13
ENDBRANCH   6  11
ENDBRANCH   1   5
BRANCH   3  21
ATOM     21  C   UNL A   1      36.060  20.491  25.040  1.00  0.00     0.118 C 
BRANCH  21  22
ATOM     22  C   UNL A   1      37.337  19.662  24.885  1.00  0.00     0.042 C 
BRANCH  22  23
ATOM     23  C   UNL A   1      38.564  20.330  25.506  1.00  0.00     0.118 C 
BRANCH  23  24
ATOM     24  N   UNL A   1      39.658  19.385  25.690  1.00  0.00    -0.352 N 
ATOM     25  C   UNL A   1      40.959  19.597  26.069  1.00  0.00     0.251 C 
ATOM     26  H   UNL A   1      39.425  18.445  25.515  1.00  0.00     0.163 HD
ATOM     27  O   UNL A   1      41.778  18.694  25.939  1.00  0.00    -0.269 OA
BRANCH  25  28
ATOM     28  C   UNL A   1      41.385  20.899  26.628  1.00  0.00     0.039 A 
ATOM     29  C   UNL A   1      41.900  21.865  25.756  1.00  0.00     0.014 A 
ATOM     30  C   UNL A   1      41.346  21.150  28.002  1.00  0.00     0.014 A 
ATOM     31  C   UNL A   1      42.329  23.097  26.256  1.00  0.00     0.010 A 
ATOM     32  C   UNL A   1      41.717  22.400  28.492  1.00  0.00     0.010 A 
ATOM     33  C   UNL A   1      42.218  23.384  27.625  1.00  0.00    -0.014 A 
BRANCH  33  34
ATOM     34  C   UNL A   1      42.620  24.706  28.167  1.00  0.00     0.031 A 
ATOM     35  C   UNL A   1      41.594  25.784  28.381  1.00  0.00     0.074 A 
ATOM     36  C   UNL A   1      43.921  24.956  28.408  1.00  0.00     0.049 A 
ATOM     37  N   UNL A   1      41.766  27.020  28.776  1.00  0.00    -0.248 NA
ATOM     38  C   UNL A   1      40.194  25.433  28.093  1.00  0.00     0.031 C 
ATOM     39  C   UNL A   1      45.018  24.007  28.210  1.00  0.00     0.029 A 
ATOM     40  N   UNL A   1      44.542  26.094  28.861  1.00  0.00    -0.354 N 
ATOM     41  C   UNL A   1      40.503  27.599  28.765  1.00  0.00     0.074 A 
ATOM     42  C   UNL A   1      39.580  26.592  28.286  1.00  0.00     0.031 C 
ATOM     43  C   UNL A   1      46.175  24.595  28.556  1.00  0.00     0.029 A 
ATOM     44  C   UNL A   1      45.907  25.971  28.963  1.00  0.00     0.049 A 
ATOM     45  H   UNL A   1      44.056  26.918  29.091  1.00  0.00     0.167 HD
ATOM     46  C   UNL A   1      40.139  28.851  29.134  1.00  0.00     0.031 A 
ATOM     47  C   UNL A   1      46.839  26.868  29.332  1.00  0.00     0.031 A 
ATOM     48  C   UNL A   1      41.054  29.850  29.619  1.00  0.00     0.049 A 
ATOM     49  C   UNL A   1      46.413  28.253  29.729  1.00  0.00     0.074 A 
ATOM     50  C   UNL A   1      40.775  31.131  30.066  1.00  0.00     0.029 A 
ATOM     51  N   UNL A   1      42.425  29.681  29.720  1.00  0.00    -0.354 N 
ATOM     52  N   UNL A   1      45.207  28.765  29.768  1.00  0.00    -0.248 NA
ATOM     53  C   UNL A   1      47.476  29.179  30.144  1.00  0.00     0.031 C 
ATOM     54  C   UNL A   1      41.984  31.751  30.397  1.00  0.00     0.029 A 
ATOM     55  C   UNL A   1      43.010  30.839  30.204  1.00  0.00     0.049 A 
ATOM     56  H   UNL A   1      42.912  28.858  29.484  1.00  0.00     0.167 HD
ATOM     57  C   UNL A   1      45.363  30.063  30.234  1.00  0.00     0.074 A 
ATOM     58  C   UNL A   1      46.778  30.254  30.478  1.00  0.00     0.031 C 
ATOM     59  C   UNL A   1      44.419  31.013  30.440  1.00  0.00     0.031 A 
BRANCH  46  60
ATOM     60  C   UNL A   1      38.684  29.211  29.018  1.00  0.00    -0.014 A 
ATOM     61  C   UNL A   1      37.813  29.077  30.112  1.00  0.00     0.009 A 
ATOM     62  C   UNL A   1      38.183  29.720  27.810  1.00  0.00     0.009 A 
ATOM     63  C   UNL A   1      36.463  29.410  29.986  1.00  0.00     0.001 A 
ATOM     64  C   UNL A   1      36.839  30.079  27.695  1.00  0.00     0.001 A 
ATOM     65  C   UNL A   1      35.978  29.915  28.780  1.00  0.00     0.000 A 
ENDBRANCH  46  60
BRANCH  47  66
ATOM     66  C   UNL A   1      48.273  26.479  29.355  1.00  0.00    -0.014 A 
ATOM     67  C   UNL A   1      48.832  25.891  30.500  1.00  0.00     0.009 A 
ATOM     68  C   UNL A   1      49.089  26.695  28.233  1.00  0.00     0.009 A 
ATOM     69  C   UNL A   1      50.186  25.547  30.528  1.00  0.00     0.001 A 
ATOM     70  C   UNL A   1      50.436  26.324  28.257  1.00  0.00     0.001 A 
ATOM     71  C   UNL A   1      50.985  25.760  29.406  1.00  0.00     0.000 A 
ENDBRANCH  47  66
BRANCH  59  72
ATOM     72  C   UNL A   1      44.883  32.332  30.988  1.00  0.00    -0.014 A 
ATOM     73  C   UNL A   1      45.103  33.433  30.145  1.00  0.00     0.009 A 
ATOM     74  C   UNL A   1      45.065  32.485  32.371  1.00  0.00     0.009 A 
ATOM     75  C   UNL A   1      45.527  34.653  30.676  1.00  0.00     0.001 A 
ATOM     76  C   UNL A   1      45.464  33.713  32.901  1.00  0.00     0.001 A 
ATOM     77  C   UNL A   1      45.702  34.793  32.052  1.00  0.00     0.000 A 
ENDBRANCH  59  72
ENDBRANCH  33  34
ENDBRANCH  25  28
ENDBRANCH  23  24
ENDBRANCH  22  23
ENDBRANCH  21  22
ENDBRANCH   3  21
TORSDOF 17
ENDMDL
MODEL 3
REMARK VINA RESULT:      -9.8      2.434      7.332
REMARK SMILES CC[C@H](CCO)CNc1cc(C(=O)NCCCNC(=O)c2ccc(-c3c4nc(c(-c5ccccc5)c5ccc([nH]5)c(-c5ccccc5)c5nc(c(-c6ccccc6)c6ccc3[nH]6)C=C5)C=C4)cc2)ccn1
REMARK SMILES IDX 12 1 13 2 14 3 11 5 9 6 10 7 71 8 70 9 69 10 8 11 7 13 3 14
REMARK SMILES IDX 2 15 1 16 4 17 5 18 6 19 15 21 16 22 17 23 18 24 19 25 20 27
REMARK SMILES IDX 21 28 22 29 68 30 23 31 67 32 24 33 25 34 26 35 61 36 27 37
REMARK SMILES IDX 66 38 60 39 62 40 28 41 65 42 59 43 58 44 29 46 51 47 36 48
REMARK SMILES IDX 50 49 37 50 40 51 49 52 63 53 38 54 39 55 48 57 64 58 41 59
REMARK SMILES IDX 30 60 31 61 35 62 32 63 34 64 33 65 52 66 53 67 57 68 54 69
REMARK SMILES IDX 56 70 55 71 42 72 43 73 47 74 44 75 46 76 45 77
REMARK H PARENT 14 4 8 12 6 20 18 26 62 45 40 56
REMARK Flexibility Score: inf
ROOT
ATOM      1  C   UNL A   1      31.680  25.687  25.578  1.00  0.00     0.251 C 
ATOM      2  O   UNL A   1      30.923  24.891  26.137  1.00  0.00    -0.269 OA
ATOM      3  N   UNL A   1      32.951  25.784  26.081  1.00  0.00    -0.352 N 
ATOM      4  H   UNL A   1      33.108  25.200  26.858  1.00  0.00     0.163 HD
ENDROOT
BRANCH   1   5
ATOM      5  C   UNL A   1      31.185  26.427  24.387  1.00  0.00     0.044 A 
ATOM      6  C   UNL A   1      30.040  28.200  23.241  1.00  0.00     0.126 A 
ATOM      7  C   UNL A   1      30.341  27.533  24.421  1.00  0.00     0.060 A 
ATOM      8  N   UNL A   1      30.428  27.740  22.040  1.00  0.00    -0.240 NA
ATOM      9  C   UNL A   1      31.188  26.628  22.008  1.00  0.00     0.114 A 
ATOM     10  C   UNL A   1      31.605  25.957  23.140  1.00  0.00     0.034 A 
BRANCH   6  11
ATOM     11  N   UNL A   1      29.375  29.409  23.221  1.00  0.00    -0.370 N 
ATOM     12  H   UNL A   1      29.724  30.176  23.730  1.00  0.00     0.162 HD
BRANCH  11  13
ATOM     13  C   UNL A   1      28.156  29.542  22.438  1.00  0.00     0.118 C 
BRANCH  13  14
ATOM     14  C   UNL A   1      27.823  31.032  22.176  1.00  0.00     0.010 C 
BRANCH  14  15
ATOM     15  C   UNL A   1      28.626  31.530  20.949  1.00  0.00     0.002 C 
ATOM     16  C   UNL A   1      27.744  32.102  19.845  1.00  0.00     0.004 C 
ENDBRANCH  14  15
BRANCH  14  17
ATOM     17  C   UNL A   1      28.123  31.862  23.448  1.00  0.00     0.033 C 
BRANCH  17  18
ATOM     18  C   UNL A   1      29.078  33.036  23.263  1.00  0.00     0.156 C 
BRANCH  18  19
ATOM     19  O   UNL A   1      28.366  34.255  23.112  1.00  0.00    -0.396 OA
ATOM     20  H   UNL A   1      27.415  34.068  23.055  1.00  0.00     0.210 HD
ENDBRANCH  18  19
ENDBRANCH  17  18
ENDBRANCH  14  17
ENDBRANCH  13  14
ENDBRANCH  11  13
ENDBRANCH   6  11
ENDBRANCH   1   5
BRANCH   3  21
ATOM     21  C   UNL A   1      34.115  26.567  25.710  1.00  0.00     0.118 C 
BRANCH  21  22
ATOM     22  C   UNL A   1      33.859  28.061  25.915  1.00  0.00     0.042 C 
BRANCH  22  23
ATOM     23  C   UNL A   1      33.595  28.428  27.376  1.00  0.00     0.118 C 
BRANCH  23  24
ATOM     24  N   UNL A   1      33.596  29.871  27.579  1.00  0.00    -0.352 N 
ATOM     25  C   UNL A   1      34.542  30.685  28.149  1.00  0.00     0.251 C 
ATOM     26  H   UNL A   1      32.791  30.334  27.255  1.00  0.00     0.163 HD
ATOM     27  O   UNL A   1      34.247  31.842  28.432  1.00  0.00    -0.269 OA
BRANCH  25  28
ATOM     28  C   UNL A   1      35.906  30.187  28.429  1.00  0.00     0.039 A 
ATOM     29  C   UNL A   1      36.861  30.242  27.408  1.00  0.00     0.014 A 
ATOM     30  C   UNL A   1      36.232  29.609  29.659  1.00  0.00     0.014 A 
ATOM     31  C   UNL A   1      38.153  29.762  27.636  1.00  0.00     0.010 A 
ATOM     32  C   UNL A   1      37.537  29.186  29.904  1.00  0.00     0.010 A 
ATOM     33  C   UNL A   1      38.508  29.253  28.895  1.00  0.00    -0.014 A 
BRANCH  33  34
ATOM     34  C   UNL A   1      39.890  28.786  29.171  1.00  0.00     0.031 A 
ATOM     35  C   UNL A   1      40.886  29.704  29.824  1.00  0.00     0.074 A 
ATOM     36  C   UNL A   1      40.266  27.554  28.777  1.00  0.00     0.049 A 
ATOM     37  N   UNL A   1      42.154  29.499  30.078  1.00  0.00    -0.248 NA
ATOM     38  C   UNL A   1      40.399  31.035  30.222  1.00  0.00     0.031 C 
ATOM     39  C   UNL A   1      39.404  26.580  28.104  1.00  0.00     0.029 A 
ATOM     40  N   UNL A   1      41.477  26.916  28.876  1.00  0.00    -0.354 N 
ATOM     41  C   UNL A   1      42.620  30.678  30.647  1.00  0.00     0.074 A 
ATOM     42  C   UNL A   1      41.510  31.607  30.664  1.00  0.00     0.031 C 
ATOM     43  C   UNL A   1      40.109  25.462  27.867  1.00  0.00     0.029 A 
ATOM     44  C   UNL A   1      41.478  25.654  28.335  1.00  0.00     0.049 A 
ATOM     45  H   UNL A   1      42.269  27.325  29.295  1.00  0.00     0.167 HD
ATOM     46  C   UNL A   1      43.856  30.958  31.127  1.00  0.00     0.031 A 
ATOM     47  C   UNL A   1      42.473  24.755  28.218  1.00  0.00     0.031 A 
ATOM     48  C   UNL A   1      44.956  30.033  31.120  1.00  0.00     0.049 A 
ATOM     49  C   UNL A   1      43.837  25.092  28.749  1.00  0.00     0.074 A 
ATOM     50  C   UNL A   1      46.233  30.206  31.629  1.00  0.00     0.029 A 
ATOM     51  N   UNL A   1      44.913  28.760  30.575  1.00  0.00    -0.354 N 
ATOM     52  N   UNL A   1      44.245  26.190  29.338  1.00  0.00    -0.248 NA
ATOM     53  C   UNL A   1      44.874  24.060  28.611  1.00  0.00     0.031 C 
ATOM     54  C   UNL A   1      46.974  29.052  31.353  1.00  0.00     0.029 A 
ATOM     55  C   UNL A   1      46.144  28.142  30.717  1.00  0.00     0.049 A 
ATOM     56  H   UNL A   1      44.123  28.354  30.150  1.00  0.00     0.167 HD
ATOM     57  C   UNL A   1      45.577  25.973  29.661  1.00  0.00     0.074 A 
ATOM     58  C   UNL A   1      45.904  24.633  29.218  1.00  0.00     0.031 C 
ATOM     59  C   UNL A   1      46.452  26.809  30.270  1.00  0.00     0.031 A 
BRANCH  46  60
ATOM     60  C   UNL A   1      44.081  32.333  31.695  1.00  0.00    -0.014 A 
ATOM     61  C   UNL A   1      43.868  32.599  33.058  1.00  0.00     0.009 A 
ATOM     62  C   UNL A   1      44.542  33.366  30.866  1.00  0.00     0.009 A 
ATOM     63  C   UNL A   1      44.076  33.882  33.568  1.00  0.00     0.001 A 
ATOM     64  C   UNL A   1      44.777  34.640  31.385  1.00  0.00     0.001 A 
ATOM     65  C   UNL A   1      44.535  34.900  32.733  1.00  0.00     0.000 A 
ENDBRANCH  46  60
BRANCH  47  66
ATOM     66  C   UNL A   1      42.212  23.440  27.577  1.00  0.00    -0.014 A 
ATOM     67  C   UNL A   1      41.695  22.373  28.328  1.00  0.00     0.009 A 
ATOM     68  C   UNL A   1      42.477  23.246  26.213  1.00  0.00     0.009 A 
ATOM     69  C   UNL A   1      41.472  21.131  27.731  1.00  0.00     0.001 A 
ATOM     70  C   UNL A   1      42.226  22.009  25.613  1.00  0.00     0.001 A 
ATOM     71  C   UNL A   1      41.733  20.951  26.373  1.00  0.00     0.000 A 
ENDBRANCH  47  66
BRANCH  59  72
ATOM     72  C   UNL A   1      47.837  26.285  30.523  1.00  0.00    -0.014 A 
ATOM     73  C   UNL A   1      48.827  26.336  29.530  1.00  0.00     0.009 A 
ATOM     74  C   UNL A   1      48.164  25.769  31.787  1.00  0.00     0.009 A 
ATOM     75  C   UNL A   1      50.111  25.850  29.789  1.00  0.00     0.001 A 
ATOM     76  C   UNL A   1      49.455  25.308  32.050  1.00  0.00     0.001 A 
ATOM     77  C   UNL A   1      50.424  25.341  31.048  1.00  0.00     0.000 A 
ENDBRANCH  59  72
ENDBRANCH  33  34
ENDBRANCH  25  28
ENDBRANCH  23  24
ENDBRANCH  22  23
ENDBRANCH  21  22
ENDBRANCH   3  21
TORSDOF 17
ENDMDL
