MODEL 1
REMARK VINA RESULT:     -11.6      0.000      0.000
REMARK SMILES COc1c(Cl)cc(C(=O)NCCCNC(=O)c2ccc(-c3c4nc(c(-c5ccccc5)c5ccc([nH]5)c(-c5ccccc5)c5nc(c(-c6ccccc6)c6ccc3[nH]6)C=C5)C=C4)cc2)cc1NC(=S)NC(=O)c1ccccc1F
REMARK SMILES IDX 11 1 10 2 8 3 9 4 7 6 3 7 4 8 66 9 5 10 6 11 65 12 2 13 1 14
REMARK SMILES IDX 67 15 68 17 69 18 70 19 71 20 72 22 73 23 74 24 78 25 75 26
REMARK SMILES IDX 77 27 79 28 76 29 12 30 13 31 14 32 15 33 16 35 17 36 18 37
REMARK SMILES IDX 64 38 19 39 63 40 20 41 21 42 22 43 57 44 23 45 62 46 56 47
REMARK SMILES IDX 58 48 24 49 61 50 55 51 54 52 25 54 47 55 32 56 46 57 33 58
REMARK SMILES IDX 36 59 45 60 59 61 34 62 35 63 44 65 60 66 37 67 26 68 27 69
REMARK SMILES IDX 31 70 28 71 30 72 29 73 48 74 49 75 53 76 50 77 52 78 51 79
REMARK SMILES IDX 38 80 39 81 43 82 40 83 42 84 41 85
REMARK H PARENT 10 5 67 16 70 21 14 34 58 53 36 64
REMARK Flexibility Score: inf
ROOT
ATOM      1  C   UNL A   1      39.271  22.976  26.744  1.00  0.00     0.118 C 
ENDROOT
BRANCH   1   2
ATOM      2  N   UNL A   1      38.585  22.278  25.639  1.00  0.00    -0.352 N 
ATOM      3  C   UNL A   1      37.421  22.208  24.899  1.00  0.00     0.251 C 
ATOM      4  O   UNL A   1      37.585  21.496  23.894  1.00  0.00    -0.269 OA
ATOM      5  H   UNL A   1      39.200  21.591  25.293  1.00  0.00     0.163 HD
BRANCH   3   6
ATOM      6  C   UNL A   1      35.948  22.744  25.086  1.00  0.00     0.043 A 
ATOM      7  C   UNL A   1      32.364  23.102  25.611  1.00  0.00     0.160 A 
ATOM      8  C   UNL A   1      33.104  21.486  25.296  1.00  0.00     0.086 A 
ATOM      9  C   UNL A   1      33.287  24.573  25.698  1.00  0.00     0.085 A 
ATOM     10  Cl  UNL A   1      32.071  20.113  25.137  1.00  0.00    -0.080 Cl
ATOM     11  C   UNL A   1      34.872  21.252  25.058  1.00  0.00     0.038 A 
ATOM     12  C   UNL A   1      34.922  24.456  25.359  1.00  0.00     0.044 A 
BRANCH   7  13
ATOM     13  O   UNL A   1      31.006  23.257  25.446  1.00  0.00    -0.493 OA
ATOM     14  C   UNL A   1      30.277  22.947  26.621  1.00  0.00     0.278 C 
ENDBRANCH   7  13
BRANCH   9  15
ATOM     15  N   UNL A   1      33.016  25.888  26.135  1.00  0.00    -0.329 N 
ATOM     16  H   UNL A   1      33.794  26.396  26.458  1.00  0.00     0.169 HD
BRANCH  15  17
ATOM     17  C   UNL A   1      31.797  26.566  26.174  1.00  0.00     0.177 C 
ATOM     18  S   UNL A   1      31.663  27.857  27.241  1.00  0.00    -0.040 S 
BRANCH  17  19
ATOM     19  N   UNL A   1      30.627  26.323  25.368  1.00  0.00    -0.299 N 
ATOM     20  C   UNL A   1      29.834  26.493  24.135  1.00  0.00     0.260 C 
ATOM     21  H   UNL A   1      30.066  25.742  25.932  1.00  0.00     0.172 HD
ATOM     22  O   UNL A   1      28.611  26.589  24.229  1.00  0.00    -0.269 OA
BRANCH  20  23
ATOM     23  C   UNL A   1      30.477  26.776  22.783  1.00  0.00     0.075 A 
ATOM     24  C   UNL A   1      30.708  28.499  22.885  1.00  0.00     0.017 A 
ATOM     25  C   UNL A   1      31.777  25.601  22.302  1.00  0.00     0.135 A 
ATOM     26  C   UNL A   1      32.371  29.081  22.845  1.00  0.00     0.001 A 
ATOM     27  C   UNL A   1      33.486  26.063  22.166  1.00  0.00     0.040 A 
ATOM     28  F   UNL A   1      31.563  24.302  22.583  1.00  0.00    -0.206 F 
ATOM     29  C   UNL A   1      33.889  27.785  22.507  1.00  0.00     0.003 A 
ENDBRANCH  20  23
ENDBRANCH  17  19
ENDBRANCH  15  17
ENDBRANCH   9  15
ENDBRANCH   3   6
ENDBRANCH   1   2
BRANCH   1  30
ATOM     30  C   UNL A   1      40.557  22.322  27.233  1.00  0.00     0.042 C 
BRANCH  30  31
ATOM     31  C   UNL A   1      41.708  23.270  27.465  1.00  0.00     0.118 C 
BRANCH  31  32
ATOM     32  N   UNL A   1      41.954  24.113  26.300  1.00  0.00    -0.352 N 
ATOM     33  C   UNL A   1      41.687  25.451  26.119  1.00  0.00     0.251 C 
ATOM     34  H   UNL A   1      42.371  23.659  25.532  1.00  0.00     0.163 HD
ATOM     35  O   UNL A   1      41.715  25.932  24.990  1.00  0.00    -0.269 OA
BRANCH  33  36
ATOM     36  C   UNL A   1      41.369  26.307  27.283  1.00  0.00     0.039 A 
ATOM     37  C   UNL A   1      40.276  25.997  28.098  1.00  0.00     0.014 A 
ATOM     38  C   UNL A   1      42.148  27.431  27.561  1.00  0.00     0.014 A 
ATOM     39  C   UNL A   1      40.001  26.788  29.217  1.00  0.00     0.010 A 
ATOM     40  C   UNL A   1      41.962  28.126  28.742  1.00  0.00     0.010 A 
ATOM     41  C   UNL A   1      40.862  27.839  29.560  1.00  0.00    -0.014 A 
BRANCH  41  42
ATOM     42  C   UNL A   1      40.628  28.725  30.723  1.00  0.00     0.031 A 
ATOM     43  C   UNL A   1      39.554  29.775  30.631  1.00  0.00     0.074 A 
ATOM     44  C   UNL A   1      41.438  28.667  31.794  1.00  0.00     0.049 A 
ATOM     45  N   UNL A   1      39.285  30.760  31.448  1.00  0.00    -0.248 NA
ATOM     46  C   UNL A   1      38.695  29.734  29.434  1.00  0.00     0.031 C 
ATOM     47  C   UNL A   1      42.517  27.701  31.992  1.00  0.00     0.029 A 
ATOM     48  N   UNL A   1      41.483  29.457  32.914  1.00  0.00    -0.354 N 
ATOM     49  C   UNL A   1      38.251  31.467  30.849  1.00  0.00     0.074 A 
ATOM     50  C   UNL A   1      37.997  30.849  29.568  1.00  0.00     0.031 C 
ATOM     51  C   UNL A   1      43.096  27.932  33.182  1.00  0.00     0.029 A 
ATOM     52  C   UNL A   1      42.473  29.101  33.794  1.00  0.00     0.049 A 
ATOM     53  H   UNL A   1      40.865  30.207  33.071  1.00  0.00     0.167 HD
ATOM     54  C   UNL A   1      37.556  32.524  31.331  1.00  0.00     0.031 A 
ATOM     55  C   UNL A   1      42.846  29.667  34.958  1.00  0.00     0.031 A 
ATOM     56  C   UNL A   1      37.832  33.142  32.598  1.00  0.00     0.049 A 
ATOM     57  C   UNL A   1      42.121  30.893  35.439  1.00  0.00     0.074 A 
ATOM     58  C   UNL A   1      37.176  34.199  33.203  1.00  0.00     0.029 A 
ATOM     59  N   UNL A   1      38.861  32.764  33.449  1.00  0.00    -0.354 N 
ATOM     60  N   UNL A   1      41.113  31.528  34.889  1.00  0.00    -0.248 NA
ATOM     61  C   UNL A   1      42.579  31.478  36.707  1.00  0.00     0.031 C 
ATOM     62  C   UNL A   1      37.861  34.515  34.379  1.00  0.00     0.029 A 
ATOM     63  C   UNL A   1      38.880  33.591  34.558  1.00  0.00     0.049 A 
ATOM     64  H   UNL A   1      39.485  32.020  33.287  1.00  0.00     0.167 HD
ATOM     65  C   UNL A   1      40.784  32.553  35.768  1.00  0.00     0.074 A 
ATOM     66  C   UNL A   1      41.705  32.459  36.883  1.00  0.00     0.031 C 
ATOM     67  C   UNL A   1      39.797  33.476  35.665  1.00  0.00     0.031 A 
BRANCH  54  68
ATOM     68  C   UNL A   1      36.467  33.085  30.456  1.00  0.00    -0.014 A 
ATOM     69  C   UNL A   1      35.113  32.772  30.671  1.00  0.00     0.009 A 
ATOM     70  C   UNL A   1      36.800  33.923  29.380  1.00  0.00     0.009 A 
ATOM     71  C   UNL A   1      34.131  33.215  29.783  1.00  0.00     0.001 A 
ATOM     72  C   UNL A   1      35.810  34.406  28.522  1.00  0.00     0.001 A 
ATOM     73  C   UNL A   1      34.481  34.033  28.711  1.00  0.00     0.000 A 
ENDBRANCH  54  68
BRANCH  55  74
ATOM     74  C   UNL A   1      43.936  29.055  35.763  1.00  0.00    -0.014 A 
ATOM     75  C   UNL A   1      43.649  28.009  36.653  1.00  0.00     0.009 A 
ATOM     76  C   UNL A   1      45.265  29.491  35.636  1.00  0.00     0.009 A 
ATOM     77  C   UNL A   1      44.662  27.431  37.419  1.00  0.00     0.001 A 
ATOM     78  C   UNL A   1      46.282  28.886  36.378  1.00  0.00     0.001 A 
ATOM     79  C   UNL A   1      45.978  27.865  37.276  1.00  0.00     0.000 A 
ENDBRANCH  55  74
BRANCH  67  80
ATOM     80  C   UNL A   1      39.595  34.422  36.817  1.00  0.00    -0.014 A 
ATOM     81  C   UNL A   1      38.884  34.051  37.968  1.00  0.00     0.009 A 
ATOM     82  C   UNL A   1      40.224  35.679  36.782  1.00  0.00     0.009 A 
ATOM     83  C   UNL A   1      38.798  34.927  39.053  1.00  0.00     0.001 A 
ATOM     84  C   UNL A   1      40.168  36.534  37.881  1.00  0.00     0.001 A 
ATOM     85  C   UNL A   1      39.450  36.160  39.014  1.00  0.00     0.000 A 
ENDBRANCH  67  80
ENDBRANCH  41  42
ENDBRANCH  33  36
ENDBRANCH  31  32
ENDBRANCH  30  31
ENDBRANCH   1  30
TORSDOF 15
ENDMDL
MODEL 2
REMARK VINA RESULT:     -11.5      2.994      8.432
REMARK SMILES COc1c(Cl)cc(C(=O)NCCCNC(=O)c2ccc(-c3c4nc(c(-c5ccccc5)c5ccc([nH]5)c(-c5ccccc5)c5nc(c(-c6ccccc6)c6ccc3[nH]6)C=C5)C=C4)cc2)cc1NC(=S)NC(=O)c1ccccc1F
REMARK SMILES IDX 11 1 10 2 8 3 9 4 7 6 3 7 4 8 66 9 5 10 6 11 65 12 2 13 1 14
REMARK SMILES IDX 67 15 68 17 69 18 70 19 71 20 72 22 73 23 74 24 78 25 75 26
REMARK SMILES IDX 77 27 79 28 76 29 12 30 13 31 14 32 15 33 16 35 17 36 18 37
REMARK SMILES IDX 64 38 19 39 63 40 20 41 21 42 22 43 57 44 23 45 62 46 56 47
REMARK SMILES IDX 58 48 24 49 61 50 55 51 54 52 25 54 47 55 32 56 46 57 33 58
REMARK SMILES IDX 36 59 45 60 59 61 34 62 35 63 44 65 60 66 37 67 26 68 27 69
REMARK SMILES IDX 31 70 28 71 30 72 29 73 48 74 49 75 53 76 50 77 52 78 51 79
REMARK SMILES IDX 38 80 39 81 43 82 40 83 42 84 41 85
REMARK H PARENT 10 5 67 16 70 21 14 34 58 53 36 64
REMARK Flexibility Score: inf
ROOT
ATOM      1  C   UNL A   1      33.300  32.186  26.958  1.00  0.00     0.118 C 
ENDROOT
BRANCH   1   2
ATOM      2  N   UNL A   1      33.963  30.966  27.460  1.00  0.00    -0.352 N 
ATOM      3  C   UNL A   1      34.089  29.600  27.292  1.00  0.00     0.251 C 
ATOM      4  O   UNL A   1      35.050  29.167  27.950  1.00  0.00    -0.269 OA
ATOM      5  H   UNL A   1      34.543  31.229  28.211  1.00  0.00     0.163 HD
BRANCH   3   6
ATOM      6  C   UNL A   1      33.256  28.488  26.543  1.00  0.00     0.043 A 
ATOM      7  C   UNL A   1      31.943  26.066  24.166  1.00  0.00     0.160 A 
ATOM      8  C   UNL A   1      33.189  27.274  23.673  1.00  0.00     0.086 A 
ATOM      9  C   UNL A   1      31.299  25.961  25.778  1.00  0.00     0.085 A 
ATOM     10  Cl  UNL A   1      33.679  27.341  22.020  1.00  0.00    -0.080 Cl
ATOM     11  C   UNL A   1      33.891  28.473  24.817  1.00  0.00     0.038 A 
ATOM     12  C   UNL A   1      31.807  27.126  26.867  1.00  0.00     0.044 A 
BRANCH   7  13
ATOM     13  O   UNL A   1      31.216  25.421  23.190  1.00  0.00    -0.493 OA
ATOM     14  C   UNL A   1      31.599  24.065  23.034  1.00  0.00     0.278 C 
ENDBRANCH   7  13
BRANCH   9  15
ATOM     15  N   UNL A   1      30.518  25.012  26.473  1.00  0.00    -0.329 N 
ATOM     16  H   UNL A   1      29.609  25.303  26.710  1.00  0.00     0.169 HD
BRANCH  15  17
ATOM     17  C   UNL A   1      30.858  23.718  26.871  1.00  0.00     0.177 C 
ATOM     18  S   UNL A   1      29.640  22.562  26.866  1.00  0.00    -0.040 S 
BRANCH  17  19
ATOM     19  N   UNL A   1      32.158  23.227  27.254  1.00  0.00    -0.299 N 
ATOM     20  C   UNL A   1      33.433  22.546  26.961  1.00  0.00     0.260 C 
ATOM     21  H   UNL A   1      32.235  23.475  28.204  1.00  0.00     0.172 HD
ATOM     22  O   UNL A   1      33.931  21.826  27.827  1.00  0.00    -0.269 OA
BRANCH  20  23
ATOM     23  C   UNL A   1      34.041  22.516  25.564  1.00  0.00     0.075 A 
ATOM     24  C   UNL A   1      34.962  23.994  25.576  1.00  0.00     0.017 A 
ATOM     25  C   UNL A   1      34.711  20.903  25.064  1.00  0.00     0.135 A 
ATOM     26  C   UNL A   1      36.711  23.841  25.418  1.00  0.00     0.001 A 
ATOM     27  C   UNL A   1      36.445  20.620  24.812  1.00  0.00     0.040 A 
ATOM     28  F   UNL A   1      34.004  19.812  25.413  1.00  0.00    -0.206 F 
ATOM     29  C   UNL A   1      37.540  22.030  25.053  1.00  0.00     0.003 A 
ENDBRANCH  20  23
ENDBRANCH  17  19
ENDBRANCH  15  17
ENDBRANCH   9  15
ENDBRANCH   3   6
ENDBRANCH   1   2
BRANCH   1  30
ATOM     30  C   UNL A   1      32.839  33.167  28.029  1.00  0.00     0.042 C 
BRANCH  30  31
ATOM     31  C   UNL A   1      33.885  34.155  28.483  1.00  0.00     0.118 C 
BRANCH  31  32
ATOM     32  N   UNL A   1      33.475  34.852  29.697  1.00  0.00    -0.352 N 
ATOM     33  C   UNL A   1      33.841  34.618  31.003  1.00  0.00     0.251 C 
ATOM     34  H   UNL A   1      32.847  35.598  29.563  1.00  0.00     0.163 HD
ATOM     35  O   UNL A   1      33.199  35.127  31.918  1.00  0.00    -0.269 OA
BRANCH  33  36
ATOM     36  C   UNL A   1      35.006  33.757  31.303  1.00  0.00     0.039 A 
ATOM     37  C   UNL A   1      34.816  32.517  31.921  1.00  0.00     0.014 A 
ATOM     38  C   UNL A   1      36.296  34.184  30.984  1.00  0.00     0.014 A 
ATOM     39  C   UNL A   1      35.916  31.691  32.169  1.00  0.00     0.010 A 
ATOM     40  C   UNL A   1      37.362  33.312  31.101  1.00  0.00     0.010 A 
ATOM     41  C   UNL A   1      37.192  32.074  31.733  1.00  0.00    -0.014 A 
BRANCH  41  42
ATOM     42  C   UNL A   1      38.403  31.258  31.972  1.00  0.00     0.031 A 
ATOM     43  C   UNL A   1      39.308  31.618  33.118  1.00  0.00     0.074 A 
ATOM     44  C   UNL A   1      38.747  30.286  31.109  1.00  0.00     0.049 A 
ATOM     45  N   UNL A   1      40.495  31.157  33.415  1.00  0.00    -0.248 NA
ATOM     46  C   UNL A   1      38.827  32.673  34.028  1.00  0.00     0.031 C 
ATOM     47  C   UNL A   1      37.956  29.852  29.957  1.00  0.00     0.029 A 
ATOM     48  N   UNL A   1      39.867  29.497  31.064  1.00  0.00    -0.354 N 
ATOM     49  C   UNL A   1      40.910  31.885  34.523  1.00  0.00     0.074 A 
ATOM     50  C   UNL A   1      39.887  32.868  34.794  1.00  0.00     0.031 C 
ATOM     51  C   UNL A   1      38.600  28.849  29.340  1.00  0.00     0.029 A 
ATOM     52  C   UNL A   1      39.875  28.617  30.011  1.00  0.00     0.049 A 
ATOM     53  H   UNL A   1      40.595  29.555  31.724  1.00  0.00     0.167 HD
ATOM     54  C   UNL A   1      42.032  31.734  35.264  1.00  0.00     0.031 A 
ATOM     55  C   UNL A   1      40.815  27.735  29.622  1.00  0.00     0.031 A 
ATOM     56  C   UNL A   1      43.051  30.765  34.971  1.00  0.00     0.049 A 
ATOM     57  C   UNL A   1      42.095  27.639  30.407  1.00  0.00     0.074 A 
ATOM     58  C   UNL A   1      44.216  30.501  35.668  1.00  0.00     0.029 A 
ATOM     59  N   UNL A   1      43.031  29.909  33.879  1.00  0.00    -0.354 N 
ATOM     60  N   UNL A   1      42.459  28.298  31.481  1.00  0.00    -0.248 NA
ATOM     61  C   UNL A   1      43.092  26.670  29.929  1.00  0.00     0.031 C 
ATOM     62  C   UNL A   1      44.941  29.545  34.951  1.00  0.00     0.029 A 
ATOM     63  C   UNL A   1      44.181  29.140  33.864  1.00  0.00     0.049 A 
ATOM     64  H   UNL A   1      42.306  29.857  33.214  1.00  0.00     0.167 HD
ATOM     65  C   UNL A   1      43.701  27.788  31.837  1.00  0.00     0.074 A 
ATOM     66  C   UNL A   1      44.031  26.771  30.860  1.00  0.00     0.031 C 
ATOM     67  C   UNL A   1      44.487  28.123  32.889  1.00  0.00     0.031 A 
BRANCH  54  68
ATOM     68  C   UNL A   1      42.214  32.669  36.431  1.00  0.00    -0.014 A 
ATOM     69  C   UNL A   1      41.730  32.352  37.712  1.00  0.00     0.009 A 
ATOM     70  C   UNL A   1      42.857  33.901  36.241  1.00  0.00     0.009 A 
ATOM     71  C   UNL A   1      41.814  33.279  38.753  1.00  0.00     0.001 A 
ATOM     72  C   UNL A   1      42.984  34.807  37.295  1.00  0.00     0.001 A 
ATOM     73  C   UNL A   1      42.443  34.505  38.544  1.00  0.00     0.000 A 
ENDBRANCH  54  68
BRANCH  55  74
ATOM     74  C   UNL A   1      40.562  26.849  28.456  1.00  0.00    -0.014 A 
ATOM     75  C   UNL A   1      39.769  25.701  28.605  1.00  0.00     0.009 A 
ATOM     76  C   UNL A   1      41.087  27.149  27.189  1.00  0.00     0.009 A 
ATOM     77  C   UNL A   1      39.529  24.858  27.519  1.00  0.00     0.001 A 
ATOM     78  C   UNL A   1      40.816  26.323  26.096  1.00  0.00     0.001 A 
ATOM     79  C   UNL A   1      40.047  25.173  26.264  1.00  0.00     0.000 A 
ENDBRANCH  55  74
BRANCH  67  80
ATOM     80  C   UNL A   1      45.754  27.338  33.100  1.00  0.00    -0.014 A 
ATOM     81  C   UNL A   1      45.771  26.134  33.818  1.00  0.00     0.009 A 
ATOM     82  C   UNL A   1      46.934  27.773  32.473  1.00  0.00     0.009 A 
ATOM     83  C   UNL A   1      46.949  25.389  33.912  1.00  0.00     0.001 A 
ATOM     84  C   UNL A   1      48.098  27.009  32.538  1.00  0.00     0.001 A 
ATOM     85  C   UNL A   1      48.106  25.819  33.262  1.00  0.00     0.000 A 
ENDBRANCH  67  80
ENDBRANCH  41  42
ENDBRANCH  33  36
ENDBRANCH  31  32
ENDBRANCH  30  31
ENDBRANCH   1  30
TORSDOF 15
ENDMDL
MODEL 3
REMARK VINA RESULT:     -11.4      7.040     10.730
REMARK SMILES COc1c(Cl)cc(C(=O)NCCCNC(=O)c2ccc(-c3c4nc(c(-c5ccccc5)c5ccc([nH]5)c(-c5ccccc5)c5nc(c(-c6ccccc6)c6ccc3[nH]6)C=C5)C=C4)cc2)cc1NC(=S)NC(=O)c1ccccc1F
REMARK SMILES IDX 11 1 10 2 8 3 9 4 7 6 3 7 4 8 66 9 5 10 6 11 65 12 2 13 1 14
REMARK SMILES IDX 67 15 68 17 69 18 70 19 71 20 72 22 73 23 74 24 78 25 75 26
REMARK SMILES IDX 77 27 79 28 76 29 12 30 13 31 14 32 15 33 16 35 17 36 18 37
REMARK SMILES IDX 64 38 19 39 63 40 20 41 21 42 22 43 57 44 23 45 62 46 56 47
REMARK SMILES IDX 58 48 24 49 61 50 55 51 54 52 25 54 47 55 32 56 46 57 33 58
REMARK SMILES IDX 36 59 45 60 59 61 34 62 35 63 44 65 60 66 37 67 26 68 27 69
REMARK SMILES IDX 31 70 28 71 30 72 29 73 48 74 49 75 53 76 50 77 52 78 51 79
REMARK SMILES IDX 38 80 39 81 43 82 40 83 42 84 41 85
REMARK H PARENT 10 5 67 16 70 21 14 34 58 53 36 64
REMARK Flexibility Score: inf
ROOT
ATOM      1  C   UNL A   1      38.353  24.112  26.827  1.00  0.00     0.118 C 
ENDROOT
BRANCH   1   2
ATOM      2  N   UNL A   1      38.267  22.781  26.196  1.00  0.00    -0.352 N 
ATOM      3  C   UNL A   1      37.596  22.018  25.259  1.00  0.00     0.251 C 
ATOM      4  O   UNL A   1      38.208  20.958  25.040  1.00  0.00    -0.269 OA
ATOM      5  H   UNL A   1      38.960  22.211  26.602  1.00  0.00     0.163 HD
BRANCH   3   6
ATOM      6  C   UNL A   1      36.222  22.148  24.493  1.00  0.00     0.043 A 
ATOM      7  C   UNL A   1      32.778  21.861  23.352  1.00  0.00     0.160 A 
ATOM      8  C   UNL A   1      33.455  20.717  24.572  1.00  0.00     0.086 A 
ATOM      9  C   UNL A   1      33.695  23.164  22.654  1.00  0.00     0.085 A 
ATOM     10  Cl  UNL A   1      32.475  19.407  25.119  1.00  0.00    -0.080 Cl
ATOM     11  C   UNL A   1      35.141  20.834  25.190  1.00  0.00     0.038 A 
ATOM     12  C   UNL A   1      35.311  23.259  23.080  1.00  0.00     0.044 A 
BRANCH   7  13
ATOM     13  O   UNL A   1      31.624  21.519  22.684  1.00  0.00    -0.493 OA
ATOM     14  C   UNL A   1      31.853  20.579  21.648  1.00  0.00     0.278 C 
ENDBRANCH   7  13
BRANCH   9  15
ATOM     15  N   UNL A   1      33.371  24.301  21.881  1.00  0.00    -0.329 N 
ATOM     16  H   UNL A   1      33.495  24.203  20.910  1.00  0.00     0.169 HD
BRANCH  15  17
ATOM     17  C   UNL A   1      32.899  25.544  22.305  1.00  0.00     0.177 C 
ATOM     18  S   UNL A   1      31.324  25.955  21.892  1.00  0.00    -0.040 S 
BRANCH  17  19
ATOM     19  N   UNL A   1      33.591  26.523  23.105  1.00  0.00    -0.299 N 
ATOM     20  C   UNL A   1      33.754  27.325  24.333  1.00  0.00     0.260 C 
ATOM     21  H   UNL A   1      34.347  26.801  22.539  1.00  0.00     0.172 HD
ATOM     22  O   UNL A   1      34.155  28.484  24.232  1.00  0.00    -0.269 OA
BRANCH  20  23
ATOM     23  C   UNL A   1      33.239  26.856  25.688  1.00  0.00     0.075 A 
ATOM     24  C   UNL A   1      31.575  27.363  25.598  1.00  0.00     0.017 A 
ATOM     25  C   UNL A   1      33.769  25.185  26.164  1.00  0.00     0.135 A 
ATOM     26  C   UNL A   1      30.355  26.093  25.645  1.00  0.00     0.001 A 
ATOM     27  C   UNL A   1      32.640  23.823  26.307  1.00  0.00     0.040 A 
ATOM     28  F   UNL A   1      35.038  24.840  25.874  1.00  0.00    -0.206 F 
ATOM     29  C   UNL A   1      30.904  24.172  25.978  1.00  0.00     0.003 A 
ENDBRANCH  20  23
ENDBRANCH  17  19
ENDBRANCH  15  17
ENDBRANCH   9  15
ENDBRANCH   3   6
ENDBRANCH   1   2
BRANCH   1  30
ATOM     30  C   UNL A   1      39.711  24.796  26.729  1.00  0.00     0.042 C 
BRANCH  30  31
ATOM     31  C   UNL A   1      40.651  24.517  27.876  1.00  0.00     0.118 C 
BRANCH  31  32
ATOM     32  N   UNL A   1      41.423  23.299  27.656  1.00  0.00    -0.352 N 
ATOM     33  C   UNL A   1      42.687  23.151  27.132  1.00  0.00     0.251 C 
ATOM     34  H   UNL A   1      40.975  22.463  27.920  1.00  0.00     0.163 HD
ATOM     35  O   UNL A   1      43.074  22.042  26.775  1.00  0.00    -0.269 OA
BRANCH  33  36
ATOM     36  C   UNL A   1      43.578  24.325  27.002  1.00  0.00     0.039 A 
ATOM     37  C   UNL A   1      44.232  24.832  28.129  1.00  0.00     0.014 A 
ATOM     38  C   UNL A   1      43.755  24.937  25.761  1.00  0.00     0.014 A 
ATOM     39  C   UNL A   1      45.100  25.918  27.996  1.00  0.00     0.010 A 
ATOM     40  C   UNL A   1      44.718  25.918  25.605  1.00  0.00     0.010 A 
ATOM     41  C   UNL A   1      45.370  26.448  26.726  1.00  0.00    -0.014 A 
BRANCH  41  42
ATOM     42  C   UNL A   1      46.267  27.604  26.510  1.00  0.00     0.031 A 
ATOM     43  C   UNL A   1      47.740  27.358  26.328  1.00  0.00     0.074 A 
ATOM     44  C   UNL A   1      45.789  28.858  26.593  1.00  0.00     0.049 A 
ATOM     45  N   UNL A   1      48.727  28.215  26.292  1.00  0.00    -0.248 NA
ATOM     46  C   UNL A   1      48.161  25.950  26.214  1.00  0.00     0.031 C 
ATOM     47  C   UNL A   1      44.385  29.222  26.776  1.00  0.00     0.029 A 
ATOM     48  N   UNL A   1      46.446  30.061  26.548  1.00  0.00    -0.354 N 
ATOM     49  C   UNL A   1      49.880  27.448  26.182  1.00  0.00     0.074 A 
ATOM     50  C   UNL A   1      49.478  26.062  26.238  1.00  0.00     0.031 C 
ATOM     51  C   UNL A   1      44.280  30.561  26.791  1.00  0.00     0.029 A 
ATOM     52  C   UNL A   1      45.614  31.144  26.687  1.00  0.00     0.049 A 
ATOM     53  H   UNL A   1      47.420  30.141  26.427  1.00  0.00     0.167 HD
ATOM     54  C   UNL A   1      51.160  27.861  26.024  1.00  0.00     0.031 A 
ATOM     55  C   UNL A   1      45.901  32.458  26.742  1.00  0.00     0.031 A 
ATOM     56  C   UNL A   1      51.548  29.244  25.990  1.00  0.00     0.049 A 
ATOM     57  C   UNL A   1      47.336  32.897  26.652  1.00  0.00     0.074 A 
ATOM     58  C   UNL A   1      52.809  29.781  25.806  1.00  0.00     0.029 A 
ATOM     59  N   UNL A   1      50.675  30.309  26.160  1.00  0.00    -0.354 N 
ATOM     60  N   UNL A   1      48.417  32.168  26.501  1.00  0.00    -0.248 NA
ATOM     61  C   UNL A   1      47.593  34.342  26.732  1.00  0.00     0.031 C 
ATOM     62  C   UNL A   1      52.712  31.167  25.949  1.00  0.00     0.029 A 
ATOM     63  C   UNL A   1      51.377  31.501  26.120  1.00  0.00     0.049 A 
ATOM     64  H   UNL A   1      49.703  30.229  26.289  1.00  0.00     0.167 HD
ATOM     65  C   UNL A   1      49.473  33.067  26.415  1.00  0.00     0.074 A 
ATOM     66  C   UNL A   1      48.903  34.394  26.540  1.00  0.00     0.031 C 
ATOM     67  C   UNL A   1      50.792  32.814  26.233  1.00  0.00     0.031 A 
BRANCH  54  68
ATOM     68  C   UNL A   1      52.216  26.793  25.918  1.00  0.00    -0.014 A 
ATOM     69  C   UNL A   1      52.499  26.155  24.698  1.00  0.00     0.009 A 
ATOM     70  C   UNL A   1      52.924  26.398  27.064  1.00  0.00     0.009 A 
ATOM     71  C   UNL A   1      53.405  25.093  24.645  1.00  0.00     0.001 A 
ATOM     72  C   UNL A   1      53.865  25.370  26.999  1.00  0.00     0.001 A 
ATOM     73  C   UNL A   1      54.089  24.703  25.795  1.00  0.00     0.000 A 
ENDBRANCH  54  68
BRANCH  55  74
ATOM     74  C   UNL A   1      44.801  33.451  26.852  1.00  0.00    -0.014 A 
ATOM     75  C   UNL A   1      44.372  33.887  28.115  1.00  0.00     0.009 A 
ATOM     76  C   UNL A   1      44.187  33.985  25.707  1.00  0.00     0.009 A 
ATOM     77  C   UNL A   1      43.335  34.815  28.231  1.00  0.00     0.001 A 
ATOM     78  C   UNL A   1      43.174  34.940  25.826  1.00  0.00     0.001 A 
ATOM     79  C   UNL A   1      42.742  35.345  27.087  1.00  0.00     0.000 A 
ENDBRANCH  55  74
BRANCH  67  80
ATOM     80  C   UNL A   1      51.720  33.988  26.078  1.00  0.00    -0.014 A 
ATOM     81  C   UNL A   1      52.390  34.555  27.171  1.00  0.00     0.009 A 
ATOM     82  C   UNL A   1      52.002  34.464  24.786  1.00  0.00     0.009 A 
ATOM     83  C   UNL A   1      53.314  35.584  26.972  1.00  0.00     0.001 A 
ATOM     84  C   UNL A   1      52.952  35.465  24.587  1.00  0.00     0.001 A 
ATOM     85  C   UNL A   1      53.604  36.028  25.681  1.00  0.00     0.000 A 
ENDBRANCH  67  80
ENDBRANCH  41  42
ENDBRANCH  33  36
ENDBRANCH  31  32
ENDBRANCH  30  31
ENDBRANCH   1  30
TORSDOF 15
ENDMDL
