MODEL 1
REMARK VINA RESULT:     -12.3      0.000      0.000
REMARK SMILES CC1CCN(S(=O)(=O)c2ccc3c(ccn3CC(=O)NCCCNC(=O)c3ccc(-c4c5nc(c(-c6ccccc6)c6ccc([nH]6)c(-c6ccccc6)c6nc(c(-c7ccccc7)c7ccc4[nH]7)C=C6)C=C5)cc3)c2)CC1
REMARK SMILES IDX 21 1 20 2 18 3 19 4 17 6 16 7 9 8 10 9 75 10 11 11 13 12
REMARK SMILES IDX 12 13 14 14 15 15 6 16 7 17 8 18 5 19 1 20 2 21 3 22 77 23
REMARK SMILES IDX 4 24 76 25 22 26 23 27 24 28 25 29 26 31 27 32 28 33 74 34
REMARK SMILES IDX 29 35 73 36 30 37 31 38 32 39 67 40 33 41 72 42 66 43 68 44
REMARK SMILES IDX 34 45 71 46 65 47 64 48 35 50 57 51 42 52 56 53 43 54 46 55
REMARK SMILES IDX 55 56 69 57 44 58 45 59 54 61 70 62 47 63 36 64 37 65 41 66
REMARK SMILES IDX 38 67 40 68 39 69 58 70 59 71 63 72 60 73 62 74 61 75 48 76
REMARK SMILES IDX 49 77 53 78 50 79 52 80 51 81
REMARK H PARENT 20 5 24 30 68 49 46 60
REMARK Flexibility Score: inf
ROOT
ATOM      1  C   UNL A   1      31.875  29.824  25.021  1.00  0.00     0.117 C 
ENDROOT
BRANCH   1   2
ATOM      2  N   UNL A   1      30.636  30.467  24.621  1.00  0.00    -0.354 N 
ATOM      3  C   UNL A   1      29.861  30.272  23.515  1.00  0.00     0.239 C 
ATOM      4  O   UNL A   1      28.841  30.958  23.400  1.00  0.00    -0.273 OA
ATOM      5  H   UNL A   1      30.303  31.150  25.247  1.00  0.00     0.163 HD
BRANCH   3   6
ATOM      6  C   UNL A   1      30.203  29.210  22.494  1.00  0.00     0.222 C 
BRANCH   6   7
ATOM      7  N   UNL A   1      29.982  27.855  22.976  1.00  0.00    -0.338 N 
ATOM      8  C   UNL A   1      32.302  24.448  23.038  1.00  0.00     0.083 A 
ATOM      9  C   UNL A   1      32.870  25.567  22.430  1.00  0.00     0.024 A 
ATOM     10  C   UNL A   1      31.004  24.488  23.560  1.00  0.00     0.032 A 
ATOM     11  C   UNL A   1      32.212  26.792  22.434  1.00  0.00     0.028 A 
ATOM     12  C   UNL A   1      30.287  25.700  23.486  1.00  0.00     0.001 A 
ATOM     13  C   UNL A   1      30.906  26.829  22.938  1.00  0.00     0.049 A 
ATOM     14  C   UNL A   1      28.971  26.085  23.860  1.00  0.00     0.028 A 
ATOM     15  C   UNL A   1      28.815  27.415  23.548  1.00  0.00     0.087 A 
BRANCH   8  16
ATOM     16  S   UNL A   1      33.217  22.927  23.022  1.00  0.00     0.243 S 
ATOM     17  O   UNL A   1      34.510  23.236  22.457  1.00  0.00    -0.207 OA
ATOM     18  O   UNL A   1      32.374  21.911  22.418  1.00  0.00    -0.207 OA
BRANCH  16  19
ATOM     19  N   UNL A   1      33.402  22.509  24.676  1.00  0.00    -0.198 NA
ATOM     20  C   UNL A   1      37.457  23.705  25.426  1.00  0.00     0.008 C 
ATOM     21  C   UNL A   1      36.091  23.090  25.726  1.00  0.00    -0.012 C 
ATOM     22  C   UNL A   1      35.803  21.876  24.826  1.00  0.00     0.020 C 
ATOM     23  C   UNL A   1      35.013  24.169  25.586  1.00  0.00     0.020 C 
ATOM     24  C   UNL A   1      34.358  21.389  24.908  1.00  0.00     0.103 C 
ATOM     25  C   UNL A   1      33.622  23.567  25.693  1.00  0.00     0.103 C 
ENDBRANCH  16  19
ENDBRANCH   8  16
ENDBRANCH   6   7
ENDBRANCH   3   6
ENDBRANCH   1   2
BRANCH   1  26
ATOM     26  C   UNL A   1      31.715  28.945  26.261  1.00  0.00     0.042 C 
BRANCH  26  27
ATOM     27  C   UNL A   1      32.849  29.101  27.276  1.00  0.00     0.118 C 
BRANCH  27  28
ATOM     28  N   UNL A   1      33.121  30.474  27.660  1.00  0.00    -0.352 N 
ATOM     29  C   UNL A   1      34.244  31.218  27.888  1.00  0.00     0.251 C 
ATOM     30  H   UNL A   1      32.296  30.997  27.785  1.00  0.00     0.163 HD
ATOM     31  O   UNL A   1      34.058  32.424  28.078  1.00  0.00    -0.269 OA
BRANCH  29  32
ATOM     32  C   UNL A   1      35.631  30.691  27.994  1.00  0.00     0.039 A 
ATOM     33  C   UNL A   1      36.045  29.407  27.644  1.00  0.00     0.014 A 
ATOM     34  C   UNL A   1      36.579  31.566  28.564  1.00  0.00     0.014 A 
ATOM     35  C   UNL A   1      37.333  28.976  27.952  1.00  0.00     0.010 A 
ATOM     36  C   UNL A   1      37.872  31.146  28.860  1.00  0.00     0.010 A 
ATOM     37  C   UNL A   1      38.233  29.832  28.597  1.00  0.00    -0.014 A 
BRANCH  37  38
ATOM     38  C   UNL A   1      39.574  29.327  28.876  1.00  0.00     0.031 A 
ATOM     39  C   UNL A   1      39.836  29.006  30.307  1.00  0.00     0.074 A 
ATOM     40  C   UNL A   1      40.513  29.078  27.940  1.00  0.00     0.049 A 
ATOM     41  N   UNL A   1      40.674  29.583  31.103  1.00  0.00    -0.248 NA
ATOM     42  C   UNL A   1      38.996  27.988  30.954  1.00  0.00     0.031 C 
ATOM     43  C   UNL A   1      40.367  29.058  26.483  1.00  0.00     0.029 A 
ATOM     44  N   UNL A   1      41.807  28.684  28.124  1.00  0.00    -0.354 N 
ATOM     45  C   UNL A   1      40.582  28.914  32.321  1.00  0.00     0.074 A 
ATOM     46  C   UNL A   1      39.458  28.020  32.206  1.00  0.00     0.031 C 
ATOM     47  C   UNL A   1      41.446  28.447  25.938  1.00  0.00     0.029 A 
ATOM     48  C   UNL A   1      42.411  28.164  26.989  1.00  0.00     0.049 A 
ATOM     49  H   UNL A   1      42.273  28.764  28.988  1.00  0.00     0.167 HD
ATOM     50  C   UNL A   1      41.555  29.018  33.270  1.00  0.00     0.031 A 
ATOM     51  C   UNL A   1      43.587  27.489  26.935  1.00  0.00     0.031 A 
ATOM     52  C   UNL A   1      42.435  30.128  33.016  1.00  0.00     0.049 A 
ATOM     53  C   UNL A   1      44.351  27.756  28.174  1.00  0.00     0.074 A 
ATOM     54  C   UNL A   1      42.279  31.496  32.904  1.00  0.00     0.029 A 
ATOM     55  N   UNL A   1      43.658  29.843  32.463  1.00  0.00    -0.354 N 
ATOM     56  N   UNL A   1      44.945  28.884  28.418  1.00  0.00    -0.248 NA
ATOM     57  C   UNL A   1      44.116  26.917  29.337  1.00  0.00     0.031 C 
ATOM     58  C   UNL A   1      43.164  31.877  31.852  1.00  0.00     0.029 A 
ATOM     59  C   UNL A   1      43.852  30.735  31.443  1.00  0.00     0.049 A 
ATOM     60  H   UNL A   1      44.278  29.132  32.746  1.00  0.00     0.167 HD
ATOM     61  C   UNL A   1      44.693  29.120  29.760  1.00  0.00     0.074 A 
ATOM     62  C   UNL A   1      44.301  27.822  30.302  1.00  0.00     0.031 C 
ATOM     63  C   UNL A   1      44.547  30.396  30.230  1.00  0.00     0.031 A 
BRANCH  50  64
ATOM     64  C   UNL A   1      41.957  27.896  34.198  1.00  0.00    -0.014 A 
ATOM     65  C   UNL A   1      42.799  26.840  33.811  1.00  0.00     0.009 A 
ATOM     66  C   UNL A   1      41.739  28.056  35.581  1.00  0.00     0.009 A 
ATOM     67  C   UNL A   1      43.434  26.020  34.750  1.00  0.00     0.001 A 
ATOM     68  C   UNL A   1      42.407  27.267  36.523  1.00  0.00     0.001 A 
ATOM     69  C   UNL A   1      43.263  26.255  36.107  1.00  0.00     0.000 A 
ENDBRANCH  50  64
BRANCH  51  70
ATOM     70  C   UNL A   1      43.995  26.398  26.030  1.00  0.00    -0.014 A 
ATOM     71  C   UNL A   1      43.119  25.322  25.815  1.00  0.00     0.009 A 
ATOM     72  C   UNL A   1      45.340  26.245  25.657  1.00  0.00     0.009 A 
ATOM     73  C   UNL A   1      43.585  24.105  25.311  1.00  0.00     0.001 A 
ATOM     74  C   UNL A   1      45.805  25.026  25.148  1.00  0.00     0.001 A 
ATOM     75  C   UNL A   1      44.932  23.951  24.999  1.00  0.00     0.000 A 
ENDBRANCH  51  70
BRANCH  63  76
ATOM     76  C   UNL A   1      44.943  31.519  29.309  1.00  0.00    -0.014 A 
ATOM     77  C   UNL A   1      44.020  31.954  28.349  1.00  0.00     0.009 A 
ATOM     78  C   UNL A   1      46.200  32.144  29.356  1.00  0.00     0.009 A 
ATOM     79  C   UNL A   1      44.298  33.055  27.543  1.00  0.00     0.001 A 
ATOM     80  C   UNL A   1      46.455  33.281  28.597  1.00  0.00     0.001 A 
ATOM     81  C   UNL A   1      45.491  33.750  27.710  1.00  0.00     0.000 A 
ENDBRANCH  63  76
ENDBRANCH  37  38
ENDBRANCH  29  32
ENDBRANCH  27  28
ENDBRANCH  26  27
ENDBRANCH   1  26
TORSDOF 13
ENDMDL
MODEL 2
REMARK VINA RESULT:     -11.9      2.827      5.677
REMARK SMILES CC1CCN(S(=O)(=O)c2ccc3c(ccn3CC(=O)NCCCNC(=O)c3ccc(-c4c5nc(c(-c6ccccc6)c6ccc([nH]6)c(-c6ccccc6)c6nc(c(-c7ccccc7)c7ccc4[nH]7)C=C6)C=C5)cc3)c2)CC1
REMARK SMILES IDX 21 1 20 2 18 3 19 4 17 6 16 7 9 8 10 9 75 10 11 11 13 12
REMARK SMILES IDX 12 13 14 14 15 15 6 16 7 17 8 18 5 19 1 20 2 21 3 22 77 23
REMARK SMILES IDX 4 24 76 25 22 26 23 27 24 28 25 29 26 31 27 32 28 33 74 34
REMARK SMILES IDX 29 35 73 36 30 37 31 38 32 39 67 40 33 41 72 42 66 43 68 44
REMARK SMILES IDX 34 45 71 46 65 47 64 48 35 50 57 51 42 52 56 53 43 54 46 55
REMARK SMILES IDX 55 56 69 57 44 58 45 59 54 61 70 62 47 63 36 64 37 65 41 66
REMARK SMILES IDX 38 67 40 68 39 69 58 70 59 71 63 72 60 73 62 74 61 75 48 76
REMARK SMILES IDX 49 77 53 78 50 79 52 80 51 81
REMARK H PARENT 20 5 24 30 68 49 46 60
REMARK Flexibility Score: inf
ROOT
ATOM      1  C   UNL A   1      34.994  34.089  30.852  1.00  0.00     0.117 C 
ENDROOT
BRANCH   1   2
ATOM      2  N   UNL A   1      35.100  34.555  29.481  1.00  0.00    -0.354 N 
ATOM      3  C   UNL A   1      34.554  34.052  28.336  1.00  0.00     0.239 C 
ATOM      4  O   UNL A   1      34.801  34.636  27.277  1.00  0.00    -0.273 OA
ATOM      5  H   UNL A   1      35.652  35.361  29.359  1.00  0.00     0.163 HD
BRANCH   3   6
ATOM      6  C   UNL A   1      33.627  32.857  28.367  1.00  0.00     0.222 C 
BRANCH   6   7
ATOM      7  N   UNL A   1      34.273  31.616  27.969  1.00  0.00    -0.338 N 
ATOM      8  C   UNL A   1      32.946  28.205  26.072  1.00  0.00     0.083 A 
ATOM      9  C   UNL A   1      31.983  29.182  26.323  1.00  0.00     0.024 A 
ATOM     10  C   UNL A   1      34.274  28.375  26.478  1.00  0.00     0.032 A 
ATOM     11  C   UNL A   1      32.338  30.407  26.876  1.00  0.00     0.028 A 
ATOM     12  C   UNL A   1      34.630  29.576  27.126  1.00  0.00     0.001 A 
ATOM     13  C   UNL A   1      33.663  30.572  27.301  1.00  0.00     0.049 A 
ATOM     14  C   UNL A   1      35.836  30.060  27.701  1.00  0.00     0.028 A 
ATOM     15  C   UNL A   1      35.592  31.319  28.198  1.00  0.00     0.087 A 
BRANCH   8  16
ATOM     16  S   UNL A   1      32.422  26.678  25.333  1.00  0.00     0.243 S 
ATOM     17  O   UNL A   1      31.343  27.012  24.431  1.00  0.00    -0.207 OA
ATOM     18  O   UNL A   1      32.217  25.718  26.402  1.00  0.00    -0.207 OA
BRANCH  16  19
ATOM     19  N   UNL A   1      33.777  26.141  24.427  1.00  0.00    -0.198 NA
ATOM     20  C   UNL A   1      32.507  22.228  23.198  1.00  0.00     0.008 C 
ATOM     21  C   UNL A   1      33.454  23.417  23.358  1.00  0.00    -0.012 C 
ATOM     22  C   UNL A   1      33.785  23.687  24.836  1.00  0.00     0.020 C 
ATOM     23  C   UNL A   1      32.836  24.644  22.681  1.00  0.00     0.020 C 
ATOM     24  C   UNL A   1      34.513  25.011  25.062  1.00  0.00     0.103 C 
ATOM     25  C   UNL A   1      33.650  25.895  22.970  1.00  0.00     0.103 C 
ENDBRANCH  16  19
ENDBRANCH   8  16
ENDBRANCH   6   7
ENDBRANCH   3   6
ENDBRANCH   1   2
BRANCH   1  26
ATOM     26  C   UNL A   1      36.344  33.694  31.451  1.00  0.00     0.042 C 
BRANCH  26  27
ATOM     27  C   UNL A   1      37.540  34.074  30.574  1.00  0.00     0.118 C 
BRANCH  27  28
ATOM     28  N   UNL A   1      38.757  34.350  31.314  1.00  0.00    -0.352 N 
ATOM     29  C   UNL A   1      39.948  33.708  31.506  1.00  0.00     0.251 C 
ATOM     30  H   UNL A   1      38.715  35.209  31.795  1.00  0.00     0.163 HD
ATOM     31  O   UNL A   1      40.807  34.346  32.121  1.00  0.00    -0.269 OA
BRANCH  29  32
ATOM     32  C   UNL A   1      40.258  32.309  31.104  1.00  0.00     0.039 A 
ATOM     33  C   UNL A   1      39.420  31.208  31.270  1.00  0.00     0.014 A 
ATOM     34  C   UNL A   1      41.545  32.096  30.570  1.00  0.00     0.014 A 
ATOM     35  C   UNL A   1      39.892  29.923  31.013  1.00  0.00     0.010 A 
ATOM     36  C   UNL A   1      42.017  30.815  30.297  1.00  0.00     0.010 A 
ATOM     37  C   UNL A   1      41.202  29.723  30.566  1.00  0.00    -0.014 A 
BRANCH  37  38
ATOM     38  C   UNL A   1      41.630  28.353  30.298  1.00  0.00     0.031 A 
ATOM     39  C   UNL A   1      42.436  27.726  31.383  1.00  0.00     0.074 A 
ATOM     40  C   UNL A   1      41.286  27.640  29.207  1.00  0.00     0.049 A 
ATOM     41  N   UNL A   1      43.672  27.353  31.331  1.00  0.00    -0.248 NA
ATOM     42  C   UNL A   1      41.823  27.589  32.712  1.00  0.00     0.031 C 
ATOM     43  C   UNL A   1      40.294  27.963  28.180  1.00  0.00     0.029 A 
ATOM     44  N   UNL A   1      41.706  26.391  28.845  1.00  0.00    -0.354 N 
ATOM     45  C   UNL A   1      43.967  26.796  32.574  1.00  0.00     0.074 A 
ATOM     46  C   UNL A   1      42.830  27.071  33.417  1.00  0.00     0.031 C 
ATOM     47  C   UNL A   1      40.022  26.848  27.460  1.00  0.00     0.029 A 
ATOM     48  C   UNL A   1      40.917  25.782  27.882  1.00  0.00     0.049 A 
ATOM     49  H   UNL A   1      42.502  25.962  29.234  1.00  0.00     0.167 HD
ATOM     50  C   UNL A   1      45.050  25.991  32.759  1.00  0.00     0.031 A 
ATOM     51  C   UNL A   1      40.954  24.477  27.512  1.00  0.00     0.031 A 
ATOM     52  C   UNL A   1      45.988  26.097  31.672  1.00  0.00     0.049 A 
ATOM     53  C   UNL A   1      42.236  23.887  27.959  1.00  0.00     0.074 A 
ATOM     54  C   UNL A   1      46.734  27.118  31.118  1.00  0.00     0.029 A 
ATOM     55  N   UNL A   1      45.984  25.087  30.742  1.00  0.00    -0.354 N 
ATOM     56  N   UNL A   1      43.374  24.139  27.390  1.00  0.00    -0.248 NA
ATOM     57  C   UNL A   1      42.324  23.336  29.301  1.00  0.00     0.031 C 
ATOM     58  C   UNL A   1      46.701  26.871  29.713  1.00  0.00     0.029 A 
ATOM     59  C   UNL A   1      46.003  25.682  29.509  1.00  0.00     0.049 A 
ATOM     60  H   UNL A   1      45.970  24.120  30.926  1.00  0.00     0.167 HD
ATOM     61  C   UNL A   1      44.263  24.271  28.447  1.00  0.00     0.074 A 
ATOM     62  C   UNL A   1      43.595  23.635  29.579  1.00  0.00     0.031 C 
ATOM     63  C   UNL A   1      45.320  25.134  28.367  1.00  0.00     0.031 A 
BRANCH  50  64
ATOM     64  C   UNL A   1      45.082  24.819  33.710  1.00  0.00    -0.014 A 
ATOM     65  C   UNL A   1      43.998  23.944  33.892  1.00  0.00     0.009 A 
ATOM     66  C   UNL A   1      46.328  24.393  34.211  1.00  0.00     0.009 A 
ATOM     67  C   UNL A   1      44.154  22.690  34.491  1.00  0.00     0.001 A 
ATOM     68  C   UNL A   1      46.496  23.122  34.771  1.00  0.00     0.001 A 
ATOM     69  C   UNL A   1      45.410  22.266  34.901  1.00  0.00     0.000 A 
ENDBRANCH  50  64
BRANCH  51  70
ATOM     70  C   UNL A   1      39.856  23.606  27.053  1.00  0.00    -0.014 A 
ATOM     71  C   UNL A   1      40.127  22.262  26.748  1.00  0.00     0.009 A 
ATOM     72  C   UNL A   1      38.648  24.160  26.598  1.00  0.00     0.009 A 
ATOM     73  C   UNL A   1      39.255  21.515  25.952  1.00  0.00     0.001 A 
ATOM     74  C   UNL A   1      37.773  23.408  25.804  1.00  0.00     0.001 A 
ATOM     75  C   UNL A   1      38.090  22.095  25.462  1.00  0.00     0.000 A 
ENDBRANCH  51  70
BRANCH  63  76
ATOM     76  C   UNL A   1      45.638  25.713  27.014  1.00  0.00    -0.014 A 
ATOM     77  C   UNL A   1      44.922  26.837  26.583  1.00  0.00     0.009 A 
ATOM     78  C   UNL A   1      46.608  25.171  26.156  1.00  0.00     0.009 A 
ATOM     79  C   UNL A   1      45.247  27.471  25.386  1.00  0.00     0.001 A 
ATOM     80  C   UNL A   1      46.977  25.837  24.992  1.00  0.00     0.001 A 
ATOM     81  C   UNL A   1      46.312  27.003  24.623  1.00  0.00     0.000 A 
ENDBRANCH  63  76
ENDBRANCH  37  38
ENDBRANCH  29  32
ENDBRANCH  27  28
ENDBRANCH  26  27
ENDBRANCH   1  26
TORSDOF 13
ENDMDL
MODEL 3
REMARK VINA RESULT:     -11.9      2.059      2.933
REMARK SMILES CC1CCN(S(=O)(=O)c2ccc3c(ccn3CC(=O)NCCCNC(=O)c3ccc(-c4c5nc(c(-c6ccccc6)c6ccc([nH]6)c(-c6ccccc6)c6nc(c(-c7ccccc7)c7ccc4[nH]7)C=C6)C=C5)cc3)c2)CC1
REMARK SMILES IDX 21 1 20 2 18 3 19 4 17 6 16 7 9 8 10 9 75 10 11 11 13 12
REMARK SMILES IDX 12 13 14 14 15 15 6 16 7 17 8 18 5 19 1 20 2 21 3 22 77 23
REMARK SMILES IDX 4 24 76 25 22 26 23 27 24 28 25 29 26 31 27 32 28 33 74 34
REMARK SMILES IDX 29 35 73 36 30 37 31 38 32 39 67 40 33 41 72 42 66 43 68 44
REMARK SMILES IDX 34 45 71 46 65 47 64 48 35 50 57 51 42 52 56 53 43 54 46 55
REMARK SMILES IDX 55 56 69 57 44 58 45 59 54 61 70 62 47 63 36 64 37 65 41 66
REMARK SMILES IDX 38 67 40 68 39 69 58 70 59 71 63 72 60 73 62 74 61 75 48 76
REMARK SMILES IDX 49 77 53 78 50 79 52 80 51 81
REMARK H PARENT 20 5 24 30 68 49 46 60
REMARK Flexibility Score: inf
ROOT
ATOM      1  C   UNL A   1      33.540  30.785  27.036  1.00  0.00     0.117 C 
ENDROOT
BRANCH   1   2
ATOM      2  N   UNL A   1      32.895  29.650  27.672  1.00  0.00    -0.354 N 
ATOM      3  C   UNL A   1      31.953  28.789  27.190  1.00  0.00     0.239 C 
ATOM      4  O   UNL A   1      31.556  27.894  27.941  1.00  0.00    -0.273 OA
ATOM      5  H   UNL A   1      33.184  29.475  28.597  1.00  0.00     0.163 HD
BRANCH   3   6
ATOM      6  C   UNL A   1      31.458  28.886  25.763  1.00  0.00     0.222 C 
BRANCH   6   7
ATOM      7  N   UNL A   1      32.341  28.242  24.803  1.00  0.00    -0.338 N 
ATOM      8  C   UNL A   1      33.203  24.307  23.928  1.00  0.00     0.083 A 
ATOM      9  C   UNL A   1      32.312  24.522  24.979  1.00  0.00     0.024 A 
ATOM     10  C   UNL A   1      33.789  25.379  23.245  1.00  0.00     0.032 A 
ATOM     11  C   UNL A   1      31.883  25.805  25.299  1.00  0.00     0.028 A 
ATOM     12  C   UNL A   1      33.434  26.691  23.621  1.00  0.00     0.001 A 
ATOM     13  C   UNL A   1      32.482  26.880  24.629  1.00  0.00     0.049 A 
ATOM     14  C   UNL A   1      33.851  27.980  23.193  1.00  0.00     0.028 A 
ATOM     15  C   UNL A   1      33.155  28.914  23.925  1.00  0.00     0.087 A 
BRANCH   8  16
ATOM     16  S   UNL A   1      33.680  22.638  23.558  1.00  0.00     0.243 S 
ATOM     17  O   UNL A   1      35.107  22.664  23.332  1.00  0.00    -0.207 OA
ATOM     18  O   UNL A   1      32.782  22.139  22.533  1.00  0.00    -0.207 OA
BRANCH  16  19
ATOM     19  N   UNL A   1      33.346  21.757  24.993  1.00  0.00    -0.198 NA
ATOM     20  C   UNL A   1      34.157  17.728  23.750  1.00  0.00     0.008 C 
ATOM     21  C   UNL A   1      33.706  18.851  24.682  1.00  0.00    -0.012 C 
ATOM     22  C   UNL A   1      32.477  19.592  24.129  1.00  0.00     0.020 C 
ATOM     23  C   UNL A   1      34.881  19.804  24.925  1.00  0.00     0.020 C 
ATOM     24  C   UNL A   1      32.149  20.876  24.890  1.00  0.00     0.103 C 
ATOM     25  C   UNL A   1      34.435  21.036  25.696  1.00  0.00     0.103 C 
ENDBRANCH  16  19
ENDBRANCH   8  16
ENDBRANCH   6   7
ENDBRANCH   3   6
ENDBRANCH   1   2
BRANCH   1  26
ATOM     26  C   UNL A   1      34.837  31.198  27.731  1.00  0.00     0.042 C 
BRANCH  26  27
ATOM     27  C   UNL A   1      34.786  32.600  28.344  1.00  0.00     0.118 C 
BRANCH  27  28
ATOM     28  N   UNL A   1      34.548  32.616  29.776  1.00  0.00    -0.352 N 
ATOM     29  C   UNL A   1      35.255  32.249  30.886  1.00  0.00     0.251 C 
ATOM     30  H   UNL A   1      33.661  32.979  30.002  1.00  0.00     0.163 HD
ATOM     31  O   UNL A   1      34.744  32.546  31.969  1.00  0.00    -0.269 OA
BRANCH  29  32
ATOM     32  C   UNL A   1      36.527  31.476  30.891  1.00  0.00     0.039 A 
ATOM     33  C   UNL A   1      37.811  32.019  30.860  1.00  0.00     0.014 A 
ATOM     34  C   UNL A   1      36.393  30.073  30.860  1.00  0.00     0.014 A 
ATOM     35  C   UNL A   1      38.918  31.190  30.693  1.00  0.00     0.010 A 
ATOM     36  C   UNL A   1      37.497  29.239  30.709  1.00  0.00     0.010 A 
ATOM     37  C   UNL A   1      38.758  29.805  30.576  1.00  0.00    -0.014 A 
BRANCH  37  38
ATOM     38  C   UNL A   1      39.959  28.990  30.421  1.00  0.00     0.031 A 
ATOM     39  C   UNL A   1      40.701  28.722  31.686  1.00  0.00     0.074 A 
ATOM     40  C   UNL A   1      40.367  28.433  29.263  1.00  0.00     0.049 A 
ATOM     41  N   UNL A   1      41.889  29.119  32.002  1.00  0.00    -0.248 NA
ATOM     42  C   UNL A   1      39.999  28.012  32.764  1.00  0.00     0.031 C 
ATOM     43  C   UNL A   1      39.647  28.340  27.991  1.00  0.00     0.029 A 
ATOM     44  N   UNL A   1      41.512  27.730  29.019  1.00  0.00    -0.354 N 
ATOM     45  C   UNL A   1      42.157  28.594  33.263  1.00  0.00     0.074 A 
ATOM     46  C   UNL A   1      40.920  28.019  33.730  1.00  0.00     0.031 C 
ATOM     47  C   UNL A   1      40.261  27.428  27.200  1.00  0.00     0.029 A 
ATOM     48  C   UNL A   1      41.485  26.984  27.850  1.00  0.00     0.049 A 
ATOM     49  H   UNL A   1      42.291  27.751  29.621  1.00  0.00     0.167 HD
ATOM     50  C   UNL A   1      43.427  28.512  33.750  1.00  0.00     0.031 A 
ATOM     51  C   UNL A   1      42.369  26.023  27.482  1.00  0.00     0.031 A 
ATOM     52  C   UNL A   1      44.342  29.330  32.999  1.00  0.00     0.049 A 
ATOM     53  C   UNL A   1      43.604  26.175  28.283  1.00  0.00     0.074 A 
ATOM     54  C   UNL A   1      44.446  30.678  32.717  1.00  0.00     0.029 A 
ATOM     55  N   UNL A   1      45.150  28.693  32.091  1.00  0.00    -0.354 N 
ATOM     56  N   UNL A   1      44.469  27.123  28.089  1.00  0.00    -0.248 NA
ATOM     57  C   UNL A   1      43.686  25.519  29.577  1.00  0.00     0.031 C 
ATOM     58  C   UNL A   1      44.891  30.733  31.363  1.00  0.00     0.029 A 
ATOM     59  C   UNL A   1      45.100  29.423  30.934  1.00  0.00     0.049 A 
ATOM     60  H   UNL A   1      45.666  27.869  32.242  1.00  0.00     0.167 HD
ATOM     61  C   UNL A   1      44.833  27.520  29.367  1.00  0.00     0.074 A 
ATOM     62  C   UNL A   1      44.429  26.415  30.232  1.00  0.00     0.031 C 
ATOM     63  C   UNL A   1      45.160  28.822  29.628  1.00  0.00     0.031 A 
BRANCH  50  64
ATOM     64  C   UNL A   1      43.922  27.399  34.642  1.00  0.00    -0.014 A 
ATOM     65  C   UNL A   1      44.112  27.546  36.027  1.00  0.00     0.009 A 
ATOM     66  C   UNL A   1      43.908  26.081  34.144  1.00  0.00     0.009 A 
ATOM     67  C   UNL A   1      44.228  26.443  36.878  1.00  0.00     0.001 A 
ATOM     68  C   UNL A   1      43.979  24.975  34.998  1.00  0.00     0.001 A 
ATOM     69  C   UNL A   1      44.128  25.157  36.367  1.00  0.00     0.000 A 
ENDBRANCH  50  64
BRANCH  51  70
ATOM     70  C   UNL A   1      42.139  24.797  26.695  1.00  0.00    -0.014 A 
ATOM     71  C   UNL A   1      41.351  23.770  27.240  1.00  0.00     0.009 A 
ATOM     72  C   UNL A   1      42.948  24.498  25.587  1.00  0.00     0.009 A 
ATOM     73  C   UNL A   1      41.424  22.467  26.740  1.00  0.00     0.001 A 
ATOM     74  C   UNL A   1      43.016  23.193  25.085  1.00  0.00     0.001 A 
ATOM     75  C   UNL A   1      42.273  22.175  25.678  1.00  0.00     0.000 A 
ENDBRANCH  51  70
BRANCH  63  76
ATOM     76  C   UNL A   1      45.379  29.728  28.446  1.00  0.00    -0.014 A 
ATOM     77  C   UNL A   1      44.266  30.352  27.866  1.00  0.00     0.009 A 
ATOM     78  C   UNL A   1      46.644  29.968  27.886  1.00  0.00     0.009 A 
ATOM     79  C   UNL A   1      44.425  31.278  26.838  1.00  0.00     0.001 A 
ATOM     80  C   UNL A   1      46.812  30.938  26.903  1.00  0.00     0.001 A 
ATOM     81  C   UNL A   1      45.702  31.610  26.400  1.00  0.00     0.000 A 
ENDBRANCH  63  76
ENDBRANCH  37  38
ENDBRANCH  29  32
ENDBRANCH  27  28
ENDBRANCH  26  27
ENDBRANCH   1  26
TORSDOF 13
ENDMDL
