MODEL 1
REMARK VINA RESULT:     -10.3      0.000      0.000
REMARK SMILES COc1ccc(C(C)(C)C)cc1CC(=O)NCCCNC(=O)c1ccc(-c2c3nc(c(-c4ccccc4)c4ccc([nH]4)c(-c4ccccc4)c4nc(c(-c5ccccc5)c5ccc2[nH]5)C=C4)C=C3)cc1
REMARK SMILES IDX 18 1 17 2 16 3 14 4 15 5 13 7 12 8 3 9 4 10 5 11 11 12 6 13
REMARK SMILES IDX 2 14 1 15 7 16 8 17 9 18 10 19 19 20 20 21 21 22 22 24 23 25
REMARK SMILES IDX 24 26 70 27 25 28 69 29 26 30 27 31 28 32 63 33 29 34 68 35
REMARK SMILES IDX 62 36 64 37 30 38 67 39 61 40 60 41 31 43 53 44 38 45 52 46
REMARK SMILES IDX 39 47 42 48 51 49 65 50 40 51 41 52 50 54 66 55 43 56 32 57
REMARK SMILES IDX 33 58 37 59 34 60 36 61 35 62 54 63 55 64 59 65 56 66 58 67
REMARK SMILES IDX 57 68 44 69 45 70 49 71 46 72 48 73 47 74
REMARK H PARENT 16 6 20 23 64 42 42 53
REMARK Flexibility Score: inf
ROOT
ATOM      1  C   UNL A   1      38.198  19.694  24.957  1.00  0.00     0.042 C 
ENDROOT
BRANCH   1   2
ATOM      2  C   UNL A   1      37.153  20.806  24.930  1.00  0.00     0.117 C 
BRANCH   2   3
ATOM      3  N   UNL A   1      37.524  21.926  25.772  1.00  0.00    -0.356 N 
ATOM      4  C   UNL A   1      37.134  23.230  25.671  1.00  0.00     0.224 C 
ATOM      5  O   UNL A   1      37.624  24.055  26.445  1.00  0.00    -0.275 OA
ATOM      6  H   UNL A   1      38.137  21.719  26.515  1.00  0.00     0.163 HD
BRANCH   4   7
ATOM      7  C   UNL A   1      36.086  23.629  24.646  1.00  0.00     0.139 C 
BRANCH   7   8
ATOM      8  C   UNL A   1      34.767  24.053  25.249  1.00  0.00     0.004 A 
ATOM      9  C   UNL A   1      33.778  23.167  25.695  1.00  0.00     0.122 A 
ATOM     10  C   UNL A   1      32.553  23.667  26.141  1.00  0.00     0.047 A 
ATOM     11  C   UNL A   1      32.307  25.042  26.174  1.00  0.00     0.008 A 
ATOM     12  C   UNL A   1      34.504  25.443  25.311  1.00  0.00     0.012 A 
ATOM     13  C   UNL A   1      33.276  25.966  25.754  1.00  0.00    -0.042 A 
BRANCH   9  14
ATOM     14  O   UNL A   1      33.825  21.803  25.585  1.00  0.00    -0.496 OA
ATOM     15  C   UNL A   1      33.263  21.257  24.397  1.00  0.00     0.278 C 
ENDBRANCH   9  14
BRANCH  13  16
ATOM     16  C   UNL A   1      32.970  27.474  25.761  1.00  0.00    -0.013 C 
ATOM     17  C   UNL A   1      33.713  28.162  24.593  1.00  0.00     0.016 C 
ATOM     18  C   UNL A   1      31.452  27.695  25.597  1.00  0.00     0.016 C 
ATOM     19  C   UNL A   1      33.402  28.196  27.058  1.00  0.00     0.016 C 
ENDBRANCH  13  16
ENDBRANCH   7   8
ENDBRANCH   4   7
ENDBRANCH   2   3
ENDBRANCH   1   2
BRANCH   1  20
ATOM     20  C   UNL A   1      39.175  19.796  26.125  1.00  0.00     0.118 C 
BRANCH  20  21
ATOM     21  N   UNL A   1      40.453  19.163  25.836  1.00  0.00    -0.352 N 
ATOM     22  C   UNL A   1      41.730  19.655  25.902  1.00  0.00     0.251 C 
ATOM     23  H   UNL A   1      40.390  18.225  25.546  1.00  0.00     0.163 HD
ATOM     24  O   UNL A   1      42.652  18.984  25.447  1.00  0.00    -0.269 OA
BRANCH  22  25
ATOM     25  C   UNL A   1      42.015  20.979  26.498  1.00  0.00     0.039 A 
ATOM     26  C   UNL A   1      42.355  22.028  25.637  1.00  0.00     0.014 A 
ATOM     27  C   UNL A   1      42.020  21.186  27.880  1.00  0.00     0.014 A 
ATOM     28  C   UNL A   1      42.661  23.288  26.157  1.00  0.00     0.010 A 
ATOM     29  C   UNL A   1      42.262  22.459  28.395  1.00  0.00     0.010 A 
ATOM     30  C   UNL A   1      42.595  23.519  27.539  1.00  0.00    -0.014 A 
BRANCH  30  31
ATOM     31  C   UNL A   1      42.875  24.867  28.093  1.00  0.00     0.031 A 
ATOM     32  C   UNL A   1      44.273  25.262  28.476  1.00  0.00     0.074 A 
ATOM     33  C   UNL A   1      41.856  25.728  28.283  1.00  0.00     0.049 A 
ATOM     34  N   UNL A   1      44.703  26.396  28.973  1.00  0.00    -0.248 NA
ATOM     35  C   UNL A   1      45.325  24.249  28.297  1.00  0.00     0.031 C 
ATOM     36  C   UNL A   1      40.447  25.451  27.994  1.00  0.00     0.029 A 
ATOM     37  N   UNL A   1      41.852  27.012  28.765  1.00  0.00    -0.354 N 
ATOM     38  C   UNL A   1      46.066  26.226  29.180  1.00  0.00     0.074 A 
ATOM     39  C   UNL A   1      46.385  24.867  28.795  1.00  0.00     0.031 C 
ATOM     40  C   UNL A   1      39.720  26.544  28.273  1.00  0.00     0.029 A 
ATOM     41  C   UNL A   1      40.603  27.585  28.788  1.00  0.00     0.049 A 
ATOM     42  H   UNL A   1      42.665  27.479  29.064  1.00  0.00     0.167 HD
ATOM     43  C   UNL A   1      46.974  27.122  29.634  1.00  0.00     0.031 A 
ATOM     44  C   UNL A   1      40.214  28.813  29.176  1.00  0.00     0.031 A 
ATOM     45  C   UNL A   1      46.663  28.477  30.004  1.00  0.00     0.049 A 
ATOM     46  C   UNL A   1      41.243  29.794  29.662  1.00  0.00     0.074 A 
ATOM     47  C   UNL A   1      47.525  29.477  30.421  1.00  0.00     0.029 A 
ATOM     48  N   UNL A   1      45.389  29.022  30.003  1.00  0.00    -0.354 N 
ATOM     49  N   UNL A   1      42.537  29.638  29.787  1.00  0.00    -0.248 NA
ATOM     50  C   UNL A   1      40.754  31.126  30.046  1.00  0.00     0.031 C 
ATOM     51  C   UNL A   1      46.765  30.617  30.709  1.00  0.00     0.029 A 
ATOM     52  C   UNL A   1      45.438  30.338  30.428  1.00  0.00     0.049 A 
ATOM     53  H   UNL A   1      44.570  28.543  29.738  1.00  0.00     0.167 HD
ATOM     54  C   UNL A   1      43.022  30.857  30.241  1.00  0.00     0.074 A 
ATOM     55  C   UNL A   1      41.884  31.746  30.352  1.00  0.00     0.031 C 
ATOM     56  C   UNL A   1      44.296  31.209  30.538  1.00  0.00     0.031 A 
BRANCH  43  57
ATOM     57  C   UNL A   1      48.398  26.658  29.759  1.00  0.00    -0.014 A 
ATOM     58  C   UNL A   1      49.321  26.858  28.721  1.00  0.00     0.009 A 
ATOM     59  C   UNL A   1      48.831  26.043  30.945  1.00  0.00     0.009 A 
ATOM     60  C   UNL A   1      50.640  26.421  28.853  1.00  0.00     0.001 A 
ATOM     61  C   UNL A   1      50.158  25.629  31.083  1.00  0.00     0.001 A 
ATOM     62  C   UNL A   1      51.059  25.810  30.034  1.00  0.00     0.000 A 
ENDBRANCH  43  57
BRANCH  44  63
ATOM     63  C   UNL A   1      38.782  29.196  29.092  1.00  0.00    -0.014 A 
ATOM     64  C   UNL A   1      37.951  29.082  30.218  1.00  0.00     0.009 A 
ATOM     65  C   UNL A   1      38.239  29.675  27.891  1.00  0.00     0.009 A 
ATOM     66  C   UNL A   1      36.598  29.419  30.135  1.00  0.00     0.001 A 
ATOM     67  C   UNL A   1      36.892  30.036  27.818  1.00  0.00     0.001 A 
ATOM     68  C   UNL A   1      36.072  29.900  28.937  1.00  0.00     0.000 A 
ENDBRANCH  44  63
BRANCH  56  69
ATOM     69  C   UNL A   1      44.526  32.624  30.986  1.00  0.00    -0.014 A 
ATOM     70  C   UNL A   1      44.784  33.646  30.060  1.00  0.00     0.009 A 
ATOM     71  C   UNL A   1      44.460  32.939  32.351  1.00  0.00     0.009 A 
ATOM     72  C   UNL A   1      45.006  34.953  30.498  1.00  0.00     0.001 A 
ATOM     73  C   UNL A   1      44.657  34.251  32.784  1.00  0.00     0.001 A 
ATOM     74  C   UNL A   1      44.939  35.255  31.858  1.00  0.00     0.000 A 
ENDBRANCH  56  69
ENDBRANCH  30  31
ENDBRANCH  22  25
ENDBRANCH  20  21
ENDBRANCH   1  20
TORSDOF 13
ENDMDL
MODEL 2
REMARK VINA RESULT:     -10.2      3.958      9.930
REMARK SMILES COc1ccc(C(C)(C)C)cc1CC(=O)NCCCNC(=O)c1ccc(-c2c3nc(c(-c4ccccc4)c4ccc([nH]4)c(-c4ccccc4)c4nc(c(-c5ccccc5)c5ccc2[nH]5)C=C4)C=C3)cc1
REMARK SMILES IDX 18 1 17 2 16 3 14 4 15 5 13 7 12 8 3 9 4 10 5 11 11 12 6 13
REMARK SMILES IDX 2 14 1 15 7 16 8 17 9 18 10 19 19 20 20 21 21 22 22 24 23 25
REMARK SMILES IDX 24 26 70 27 25 28 69 29 26 30 27 31 28 32 63 33 29 34 68 35
REMARK SMILES IDX 62 36 64 37 30 38 67 39 61 40 60 41 31 43 53 44 38 45 52 46
REMARK SMILES IDX 39 47 42 48 51 49 65 50 40 51 41 52 50 54 66 55 43 56 32 57
REMARK SMILES IDX 33 58 37 59 34 60 36 61 35 62 54 63 55 64 59 65 56 66 58 67
REMARK SMILES IDX 57 68 44 69 45 70 49 71 46 72 48 73 47 74
REMARK H PARENT 16 6 20 23 64 42 42 53
REMARK Flexibility Score: inf
ROOT
ATOM      1  C   UNL A   1      33.688  34.154  28.916  1.00  0.00     0.042 C 
ENDROOT
BRANCH   1   2
ATOM      2  C   UNL A   1      34.362  34.844  30.098  1.00  0.00     0.117 C 
BRANCH   2   3
ATOM      3  N   UNL A   1      33.845  34.378  31.370  1.00  0.00    -0.356 N 
ATOM      4  C   UNL A   1      34.327  33.380  32.168  1.00  0.00     0.224 C 
ATOM      5  O   UNL A   1      33.698  33.080  33.184  1.00  0.00    -0.275 OA
ATOM      6  H   UNL A   1      33.043  34.841  31.704  1.00  0.00     0.163 HD
BRANCH   4   7
ATOM      7  C   UNL A   1      35.636  32.694  31.814  1.00  0.00     0.139 C 
BRANCH   7   8
ATOM      8  C   UNL A   1      36.858  33.366  32.396  1.00  0.00     0.004 A 
ATOM      9  C   UNL A   1      37.811  34.067  31.645  1.00  0.00     0.122 A 
ATOM     10  C   UNL A   1      38.956  34.560  32.272  1.00  0.00     0.047 A 
ATOM     11  C   UNL A   1      39.156  34.389  33.644  1.00  0.00     0.008 A 
ATOM     12  C   UNL A   1      37.070  33.222  33.788  1.00  0.00     0.012 A 
ATOM     13  C   UNL A   1      38.219  33.709  34.437  1.00  0.00    -0.042 A 
BRANCH   9  14
ATOM     14  O   UNL A   1      37.818  34.184  30.281  1.00  0.00    -0.496 OA
ATOM     15  C   UNL A   1      39.051  34.592  29.700  1.00  0.00     0.278 C 
ENDBRANCH   9  14
BRANCH  13  16
ATOM     16  C   UNL A   1      38.478  33.497  35.939  1.00  0.00    -0.013 C 
ATOM     17  C   UNL A   1      39.369  34.637  36.480  1.00  0.00     0.016 C 
ATOM     18  C   UNL A   1      37.137  33.494  36.701  1.00  0.00     0.016 C 
ATOM     19  C   UNL A   1      39.197  32.168  36.270  1.00  0.00     0.016 C 
ENDBRANCH  13  16
ENDBRANCH   7   8
ENDBRANCH   4   7
ENDBRANCH   2   3
ENDBRANCH   1   2
BRANCH   1  20
ATOM     20  C   UNL A   1      34.565  33.110  28.230  1.00  0.00     0.118 C 
BRANCH  20  21
ATOM     21  N   UNL A   1      33.813  31.934  27.822  1.00  0.00    -0.352 N 
ATOM     22  C   UNL A   1      34.197  30.625  27.695  1.00  0.00     0.251 C 
ATOM     23  H   UNL A   1      32.869  32.107  27.599  1.00  0.00     0.163 HD
ATOM     24  O   UNL A   1      33.428  29.825  27.169  1.00  0.00    -0.269 OA
BRANCH  22  25
ATOM     25  C   UNL A   1      35.521  30.163  28.169  1.00  0.00     0.039 A 
ATOM     26  C   UNL A   1      36.575  30.135  27.248  1.00  0.00     0.014 A 
ATOM     27  C   UNL A   1      35.723  29.697  29.470  1.00  0.00     0.014 A 
ATOM     28  C   UNL A   1      37.834  29.678  27.643  1.00  0.00     0.010 A 
ATOM     29  C   UNL A   1      36.996  29.302  29.881  1.00  0.00     0.010 A 
ATOM     30  C   UNL A   1      38.061  29.279  28.969  1.00  0.00    -0.014 A 
BRANCH  30  31
ATOM     31  C   UNL A   1      39.408  28.836  29.404  1.00  0.00     0.031 A 
ATOM     32  C   UNL A   1      40.228  29.681  30.337  1.00  0.00     0.074 A 
ATOM     33  C   UNL A   1      39.909  27.679  28.928  1.00  0.00     0.049 A 
ATOM     34  N   UNL A   1      41.423  29.452  30.823  1.00  0.00    -0.248 NA
ATOM     35  C   UNL A   1      39.641  30.960  30.767  1.00  0.00     0.031 C 
ATOM     36  C   UNL A   1      39.233  26.788  27.983  1.00  0.00     0.029 A 
ATOM     37  N   UNL A   1      41.105  27.056  29.177  1.00  0.00    -0.354 N 
ATOM     38  C   UNL A   1      41.735  30.561  31.599  1.00  0.00     0.074 A 
ATOM     39  C   UNL A   1      40.623  31.481  31.487  1.00  0.00     0.031 C 
ATOM     40  C   UNL A   1      40.011  25.717  27.757  1.00  0.00     0.029 A 
ATOM     41  C   UNL A   1      41.249  25.860  28.515  1.00  0.00     0.049 A 
ATOM     42  H   UNL A   1      41.794  27.428  29.774  1.00  0.00     0.167 HD
ATOM     43  C   UNL A   1      42.839  30.788  32.351  1.00  0.00     0.031 A 
ATOM     44  C   UNL A   1      42.262  24.976  28.523  1.00  0.00     0.031 A 
ATOM     45  C   UNL A   1      43.939  29.869  32.475  1.00  0.00     0.049 A 
ATOM     46  C   UNL A   1      43.469  25.243  29.375  1.00  0.00     0.074 A 
ATOM     47  C   UNL A   1      45.075  29.985  33.258  1.00  0.00     0.029 A 
ATOM     48  N   UNL A   1      44.041  28.665  31.799  1.00  0.00    -0.354 N 
ATOM     49  N   UNL A   1      43.718  26.265  30.156  1.00  0.00    -0.248 NA
ATOM     50  C   UNL A   1      44.529  24.224  29.357  1.00  0.00     0.031 C 
ATOM     51  C   UNL A   1      45.883  28.867  33.025  1.00  0.00     0.029 A 
ATOM     52  C   UNL A   1      45.229  28.035  32.131  1.00  0.00     0.049 A 
ATOM     53  H   UNL A   1      43.369  28.309  31.174  1.00  0.00     0.167 HD
ATOM     54  C   UNL A   1      44.949  26.003  30.741  1.00  0.00     0.074 A 
ATOM     55  C   UNL A   1      45.388  24.717  30.238  1.00  0.00     0.031 C 
ATOM     56  C   UNL A   1      45.653  26.759  31.618  1.00  0.00     0.031 A 
BRANCH  43  57
ATOM     57  C   UNL A   1      42.910  32.090  33.097  1.00  0.00    -0.014 A 
ATOM     58  C   UNL A   1      43.379  33.259  32.476  1.00  0.00     0.009 A 
ATOM     59  C   UNL A   1      42.470  32.158  34.428  1.00  0.00     0.009 A 
ATOM     60  C   UNL A   1      43.440  34.460  33.184  1.00  0.00     0.001 A 
ATOM     61  C   UNL A   1      42.507  33.368  35.125  1.00  0.00     0.001 A 
ATOM     62  C   UNL A   1      43.001  34.516  34.506  1.00  0.00     0.000 A 
ENDBRANCH  43  57
BRANCH  44  63
ATOM     63  C   UNL A   1      42.166  23.734  27.714  1.00  0.00    -0.014 A 
ATOM     64  C   UNL A   1      41.611  22.569  28.267  1.00  0.00     0.009 A 
ATOM     65  C   UNL A   1      42.625  23.706  26.389  1.00  0.00     0.009 A 
ATOM     66  C   UNL A   1      41.542  21.394  27.516  1.00  0.00     0.001 A 
ATOM     67  C   UNL A   1      42.529  22.538  25.631  1.00  0.00     0.001 A 
ATOM     68  C   UNL A   1      41.996  21.381  26.198  1.00  0.00     0.000 A 
ENDBRANCH  44  63
BRANCH  56  69
ATOM     69  C   UNL A   1      46.958  26.199  32.106  1.00  0.00    -0.014 A 
ATOM     70  C   UNL A   1      47.025  25.422  33.273  1.00  0.00     0.009 A 
ATOM     71  C   UNL A   1      48.132  26.433  31.373  1.00  0.00     0.009 A 
ATOM     72  C   UNL A   1      48.250  24.921  33.715  1.00  0.00     0.001 A 
ATOM     73  C   UNL A   1      49.351  25.909  31.805  1.00  0.00     0.001 A 
ATOM     74  C   UNL A   1      49.411  25.161  32.980  1.00  0.00     0.000 A 
ENDBRANCH  56  69
ENDBRANCH  30  31
ENDBRANCH  22  25
ENDBRANCH  20  21
ENDBRANCH   1  20
TORSDOF 13
ENDMDL
MODEL 3
REMARK VINA RESULT:     -10.2      2.355      7.593
REMARK SMILES COc1ccc(C(C)(C)C)cc1CC(=O)NCCCNC(=O)c1ccc(-c2c3nc(c(-c4ccccc4)c4ccc([nH]4)c(-c4ccccc4)c4nc(c(-c5ccccc5)c5ccc2[nH]5)C=C4)C=C3)cc1
REMARK SMILES IDX 18 1 17 2 16 3 14 4 15 5 13 7 12 8 3 9 4 10 5 11 11 12 6 13
REMARK SMILES IDX 2 14 1 15 7 16 8 17 9 18 10 19 19 20 20 21 21 22 22 24 23 25
REMARK SMILES IDX 24 26 70 27 25 28 69 29 26 30 27 31 28 32 63 33 29 34 68 35
REMARK SMILES IDX 62 36 64 37 30 38 67 39 61 40 60 41 31 43 53 44 38 45 52 46
REMARK SMILES IDX 39 47 42 48 51 49 65 50 40 51 41 52 50 54 66 55 43 56 32 57
REMARK SMILES IDX 33 58 37 59 34 60 36 61 35 62 54 63 55 64 59 65 56 66 58 67
REMARK SMILES IDX 57 68 44 69 45 70 49 71 46 72 48 73 47 74
REMARK H PARENT 16 6 20 23 64 42 42 53
REMARK Flexibility Score: inf
ROOT
ATOM      1  C   UNL A   1      32.180  27.796  27.423  1.00  0.00     0.042 C 
ENDROOT
BRANCH   1   2
ATOM      2  C   UNL A   1      31.471  27.538  26.096  1.00  0.00     0.117 C 
BRANCH   2   3
ATOM      3  N   UNL A   1      32.387  27.563  24.973  1.00  0.00    -0.356 N 
ATOM      4  C   UNL A   1      32.796  26.523  24.187  1.00  0.00     0.224 C 
ATOM      5  O   UNL A   1      33.646  26.736  23.321  1.00  0.00    -0.275 OA
ATOM      6  H   UNL A   1      32.764  28.444  24.745  1.00  0.00     0.163 HD
BRANCH   4   7
ATOM      7  C   UNL A   1      32.172  25.149  24.366  1.00  0.00     0.139 C 
BRANCH   7   8
ATOM      8  C   UNL A   1      32.996  24.207  25.213  1.00  0.00     0.004 A 
ATOM      9  C   UNL A   1      32.597  23.705  26.458  1.00  0.00     0.122 A 
ATOM     10  C   UNL A   1      33.482  22.923  27.203  1.00  0.00     0.047 A 
ATOM     11  C   UNL A   1      34.752  22.610  26.712  1.00  0.00     0.008 A 
ATOM     12  C   UNL A   1      34.280  23.860  24.726  1.00  0.00     0.012 A 
ATOM     13  C   UNL A   1      35.186  23.076  25.462  1.00  0.00    -0.042 A 
BRANCH   9  14
ATOM     14  O   UNL A   1      31.449  24.046  27.121  1.00  0.00    -0.496 OA
ATOM     15  C   UNL A   1      30.323  23.209  26.882  1.00  0.00     0.278 C 
ENDBRANCH   9  14
BRANCH  13  16
ATOM     16  C   UNL A   1      36.604  22.753  24.959  1.00  0.00    -0.013 C 
ATOM     17  C   UNL A   1      36.685  23.000  23.436  1.00  0.00     0.016 C 
ATOM     18  C   UNL A   1      37.627  23.659  25.675  1.00  0.00     0.016 C 
ATOM     19  C   UNL A   1      37.038  21.289  25.202  1.00  0.00     0.016 C 
ENDBRANCH  13  16
ENDBRANCH   7   8
ENDBRANCH   4   7
ENDBRANCH   2   3
ENDBRANCH   1   2
BRANCH   1  20
ATOM     20  C   UNL A   1      33.532  28.488  27.273  1.00  0.00     0.118 C 
BRANCH  20  21
ATOM     21  N   UNL A   1      33.476  29.899  27.622  1.00  0.00    -0.352 N 
ATOM     22  C   UNL A   1      34.413  30.717  28.197  1.00  0.00     0.251 C 
ATOM     23  H   UNL A   1      32.622  30.341  27.410  1.00  0.00     0.163 HD
ATOM     24  O   UNL A   1      34.082  31.844  28.555  1.00  0.00    -0.269 OA
BRANCH  22  25
ATOM     25  C   UNL A   1      35.806  30.264  28.405  1.00  0.00     0.039 A 
ATOM     26  C   UNL A   1      36.158  29.776  29.669  1.00  0.00     0.014 A 
ATOM     27  C   UNL A   1      36.779  30.374  27.408  1.00  0.00     0.014 A 
ATOM     28  C   UNL A   1      37.469  29.365  29.918  1.00  0.00     0.010 A 
ATOM     29  C   UNL A   1      38.072  29.903  27.638  1.00  0.00     0.010 A 
ATOM     30  C   UNL A   1      38.431  29.404  28.898  1.00  0.00    -0.014 A 
BRANCH  30  31
ATOM     31  C   UNL A   1      39.813  28.927  29.146  1.00  0.00     0.031 A 
ATOM     32  C   UNL A   1      40.824  29.817  29.814  1.00  0.00     0.074 A 
ATOM     33  C   UNL A   1      40.170  27.694  28.736  1.00  0.00     0.049 A 
ATOM     34  N   UNL A   1      42.074  29.566  30.112  1.00  0.00    -0.248 NA
ATOM     35  C   UNL A   1      40.379  31.171  30.180  1.00  0.00     0.031 C 
ATOM     36  C   UNL A   1      39.298  26.748  28.037  1.00  0.00     0.029 A 
ATOM     37  N   UNL A   1      41.363  27.026  28.850  1.00  0.00    -0.354 N 
ATOM     38  C   UNL A   1      42.569  30.733  30.682  1.00  0.00     0.074 A 
ATOM     39  C   UNL A   1      41.496  31.705  30.651  1.00  0.00     0.031 C 
ATOM     40  C   UNL A   1      39.975  25.610  27.813  1.00  0.00     0.029 A 
ATOM     41  C   UNL A   1      41.334  25.757  28.325  1.00  0.00     0.049 A 
ATOM     42  H   UNL A   1      42.163  27.418  29.270  1.00  0.00     0.167 HD
ATOM     43  C   UNL A   1      43.798  30.971  31.199  1.00  0.00     0.031 A 
ATOM     44  C   UNL A   1      42.292  24.815  28.266  1.00  0.00     0.031 A 
ATOM     45  C   UNL A   1      44.861  30.003  31.244  1.00  0.00     0.049 A 
ATOM     46  C   UNL A   1      43.642  25.098  28.859  1.00  0.00     0.074 A 
ATOM     47  C   UNL A   1      46.122  30.132  31.800  1.00  0.00     0.029 A 
ATOM     48  N   UNL A   1      44.787  28.726  30.712  1.00  0.00    -0.354 N 
ATOM     49  N   UNL A   1      44.071  26.183  29.455  1.00  0.00    -0.248 NA
ATOM     50  C   UNL A   1      44.636  24.017  28.784  1.00  0.00     0.031 C 
ATOM     51  C   UNL A   1      46.826  28.945  31.569  1.00  0.00     0.029 A 
ATOM     52  C   UNL A   1      45.986  28.062  30.909  1.00  0.00     0.049 A 
ATOM     53  H   UNL A   1      44.000  28.347  30.260  1.00  0.00     0.167 HD
ATOM     54  C   UNL A   1      45.374  25.909  29.847  1.00  0.00     0.074 A 
ATOM     55  C   UNL A   1      45.659  24.549  29.437  1.00  0.00     0.031 C 
ATOM     56  C   UNL A   1      46.256  26.711  30.491  1.00  0.00     0.031 A 
BRANCH  43  57
ATOM     57  C   UNL A   1      44.058  32.342  31.757  1.00  0.00    -0.014 A 
ATOM     58  C   UNL A   1      44.560  33.373  30.948  1.00  0.00     0.009 A 
ATOM     59  C   UNL A   1      43.765  32.616  33.102  1.00  0.00     0.009 A 
ATOM     60  C   UNL A   1      44.797  34.640  31.482  1.00  0.00     0.001 A 
ATOM     61  C   UNL A   1      43.979  33.892  33.627  1.00  0.00     0.001 A 
ATOM     62  C   UNL A   1      44.503  34.901  32.820  1.00  0.00     0.000 A 
ENDBRANCH  43  57
BRANCH  44  63
ATOM     63  C   UNL A   1      41.998  23.499  27.643  1.00  0.00    -0.014 A 
ATOM     64  C   UNL A   1      42.324  23.263  26.298  1.00  0.00     0.009 A 
ATOM     65  C   UNL A   1      41.395  22.475  28.387  1.00  0.00     0.009 A 
ATOM     66  C   UNL A   1      42.026  22.035  25.704  1.00  0.00     0.001 A 
ATOM     67  C   UNL A   1      41.123  21.239  27.798  1.00  0.00     0.001 A 
ATOM     68  C   UNL A   1      41.431  21.023  26.456  1.00  0.00     0.000 A 
ENDBRANCH  44  63
BRANCH  56  69
ATOM     69  C   UNL A   1      47.601  26.126  30.812  1.00  0.00    -0.014 A 
ATOM     70  C   UNL A   1      47.898  25.650  32.099  1.00  0.00     0.009 A 
ATOM     71  C   UNL A   1      48.575  26.030  29.806  1.00  0.00     0.009 A 
ATOM     72  C   UNL A   1      49.159  25.121  32.379  1.00  0.00     0.001 A 
ATOM     73  C   UNL A   1      49.825  25.477  30.084  1.00  0.00     0.001 A 
ATOM     74  C   UNL A   1      50.120  25.031  31.372  1.00  0.00     0.000 A 
ENDBRANCH  56  69
ENDBRANCH  30  31
ENDBRANCH  22  25
ENDBRANCH  20  21
ENDBRANCH   1  20
TORSDOF 13
ENDMDL
