MODEL 1
REMARK VINA RESULT:      -9.5      0.000      0.000
REMARK SMILES [NH3+][C@H](CC1=c2cccc(O)c2=NC1)C(=O)NCCCNC(=O)c1ccc(-c2c3nc(c(-c4ccccc4)c4ccc([nH]4)c(-c4ccccc4)c4nc(c(-c5ccccc5)c5ccc2[nH]5)C=C4)C=C3)cc1
REMARK SMILES IDX 17 1 16 2 14 3 15 4 2 6 1 7 3 11 4 12 5 13 13 14 6 15 11 16
REMARK SMILES IDX 12 17 7 18 9 19 8 20 10 21 18 23 19 24 20 25 21 26 22 28
REMARK SMILES IDX 23 29 24 30 70 31 25 32 69 33 26 34 27 35 28 36 63 37 29 38
REMARK SMILES IDX 68 39 62 40 64 41 30 42 67 43 61 44 60 45 31 47 53 48 38 49
REMARK SMILES IDX 52 50 39 51 42 52 51 53 65 54 40 55 41 56 50 58 66 59 43 60
REMARK SMILES IDX 32 61 33 62 37 63 34 64 36 65 35 66 54 67 55 68 59 69 56 70
REMARK SMILES IDX 58 71 57 72 44 73 45 74 49 75 46 76 48 77 47 78
REMARK H PARENT 16 5 1 8 1 9 1 10 10 22 20 27 64 46 42 57
REMARK Flexibility Score: inf
ROOT
ATOM      1  C   UNL A   1      33.260  36.781  31.990  1.00  0.00     0.118 C 
ENDROOT
BRANCH   1   2
ATOM      2  N   UNL A   1      33.089  35.366  32.273  1.00  0.00    -0.351 N 
ATOM      3  C   UNL A   1      33.906  34.457  32.882  1.00  0.00     0.278 C 
ATOM      4  O   UNL A   1      33.539  33.279  32.883  1.00  0.00    -0.268 OA
ATOM      5  H   UNL A   1      32.229  34.996  31.972  1.00  0.00     0.163 HD
BRANCH   3   6
ATOM      6  C   UNL A   1      35.240  34.884  33.534  1.00  0.00     0.275 C 
BRANCH   6   7
ATOM      7  N   UNL A   1      36.270  34.990  32.482  1.00  0.00    -0.347 N 
ATOM      8  H   UNL A   1      36.905  34.194  32.545  1.00  0.00     0.345 HD
ATOM      9  H   UNL A   1      36.798  35.855  32.609  1.00  0.00     0.345 HD
ATOM     10  H   UNL A   1      35.822  34.997  31.566  1.00  0.00     0.345 HD
ENDBRANCH   6   7
BRANCH   6  11
ATOM     11  C   UNL A   1      35.556  33.993  34.757  1.00  0.00     0.109 C 
BRANCH  11  12
ATOM     12  C   UNL A   1      36.865  33.255  34.723  1.00  0.00    -0.033 C 
ATOM     13  C   UNL A   1      37.181  32.162  34.030  1.00  0.00     0.005 A 
ATOM     14  C   UNL A   1      38.073  33.769  35.448  1.00  0.00     0.175 C 
ATOM     15  C   UNL A   1      36.482  31.290  33.141  1.00  0.00     0.010 A 
ATOM     16  C   UNL A   1      38.618  31.981  34.321  1.00  0.00     0.107 A 
ATOM     17  N   UNL A   1      39.183  32.868  35.085  1.00  0.00    -0.276 NA
ATOM     18  C   UNL A   1      37.145  30.259  32.592  1.00  0.00     0.005 A 
ATOM     19  C   UNL A   1      39.279  30.794  33.697  1.00  0.00     0.141 A 
ATOM     20  C   UNL A   1      38.545  30.006  32.889  1.00  0.00     0.048 A 
BRANCH  19  21
ATOM     21  O   UNL A   1      40.605  30.554  33.988  1.00  0.00    -0.506 OA
ATOM     22  H   UNL A   1      41.090  29.930  33.484  1.00  0.00     0.293 HD
ENDBRANCH  19  21
ENDBRANCH  11  12
ENDBRANCH   6  11
ENDBRANCH   3   6
ENDBRANCH   1   2
BRANCH   1  23
ATOM     23  C   UNL A   1      32.881  37.112  30.552  1.00  0.00     0.042 C 
BRANCH  23  24
ATOM     24  C   UNL A   1      33.653  36.293  29.523  1.00  0.00     0.118 C 
BRANCH  24  25
ATOM     25  N   UNL A   1      32.797  35.348  28.820  1.00  0.00    -0.352 N 
ATOM     26  C   UNL A   1      33.124  34.132  28.266  1.00  0.00     0.251 C 
ATOM     27  H   UNL A   1      31.854  35.615  28.728  1.00  0.00     0.163 HD
ATOM     28  O   UNL A   1      32.339  33.547  27.536  1.00  0.00    -0.269 OA
BRANCH  26  29
ATOM     29  C   UNL A   1      34.447  33.550  28.557  1.00  0.00     0.039 A 
ATOM     30  C   UNL A   1      35.530  33.869  27.734  1.00  0.00     0.014 A 
ATOM     31  C   UNL A   1      34.611  32.702  29.657  1.00  0.00     0.014 A 
ATOM     32  C   UNL A   1      36.799  33.387  28.054  1.00  0.00     0.010 A 
ATOM     33  C   UNL A   1      35.883  32.268  30.005  1.00  0.00     0.010 A 
ATOM     34  C   UNL A   1      36.986  32.609  29.207  1.00  0.00    -0.014 A 
BRANCH  34  35
ATOM     35  C   UNL A   1      38.322  32.114  29.604  1.00  0.00     0.031 A 
ATOM     36  C   UNL A   1      38.761  30.746  29.174  1.00  0.00     0.074 A 
ATOM     37  C   UNL A   1      39.098  32.857  30.414  1.00  0.00     0.049 A 
ATOM     38  N   UNL A   1      39.825  30.074  29.529  1.00  0.00    -0.248 NA
ATOM     39  C   UNL A   1      37.877  30.031  28.237  1.00  0.00     0.031 C 
ATOM     40  C   UNL A   1      38.776  34.199  30.902  1.00  0.00     0.029 A 
ATOM     41  N   UNL A   1      40.316  32.578  30.981  1.00  0.00    -0.354 N 
ATOM     42  C   UNL A   1      39.734  28.856  28.871  1.00  0.00     0.074 A 
ATOM     43  C   UNL A   1      38.496  28.863  28.123  1.00  0.00     0.031 C 
ATOM     44  C   UNL A   1      39.778  34.633  31.683  1.00  0.00     0.029 A 
ATOM     45  C   UNL A   1      40.792  33.585  31.783  1.00  0.00     0.049 A 
ATOM     46  H   UNL A   1      40.802  31.736  30.827  1.00  0.00     0.167 HD
ATOM     47  C   UNL A   1      40.612  27.828  28.879  1.00  0.00     0.031 A 
ATOM     48  C   UNL A   1      41.912  33.653  32.525  1.00  0.00     0.031 A 
ATOM     49  C   UNL A   1      41.845  27.825  29.615  1.00  0.00     0.049 A 
ATOM     50  C   UNL A   1      42.860  32.488  32.540  1.00  0.00     0.074 A 
ATOM     51  C   UNL A   1      42.810  26.833  29.670  1.00  0.00     0.029 A 
ATOM     52  N   UNL A   1      42.290  28.865  30.414  1.00  0.00    -0.354 N 
ATOM     53  N   UNL A   1      42.759  31.340  31.916  1.00  0.00    -0.248 NA
ATOM     54  C   UNL A   1      44.076  32.628  33.354  1.00  0.00     0.031 C 
ATOM     55  C   UNL A   1      43.824  27.262  30.530  1.00  0.00     0.029 A 
ATOM     56  C   UNL A   1      43.514  28.539  30.970  1.00  0.00     0.049 A 
ATOM     57  H   UNL A   1      41.807  29.711  30.563  1.00  0.00     0.167 HD
ATOM     58  C   UNL A   1      43.910  30.633  32.236  1.00  0.00     0.074 A 
ATOM     59  C   UNL A   1      44.695  31.479  33.112  1.00  0.00     0.031 C 
ATOM     60  C   UNL A   1      44.284  29.396  31.832  1.00  0.00     0.031 A 
BRANCH  47  61
ATOM     61  C   UNL A   1      40.277  26.617  28.060  1.00  0.00    -0.014 A 
ATOM     62  C   UNL A   1      40.790  26.465  26.763  1.00  0.00     0.009 A 
ATOM     63  C   UNL A   1      39.506  25.586  28.616  1.00  0.00     0.009 A 
ATOM     64  C   UNL A   1      40.527  25.305  26.033  1.00  0.00     0.001 A 
ATOM     65  C   UNL A   1      39.263  24.419  27.892  1.00  0.00     0.001 A 
ATOM     66  C   UNL A   1      39.771  24.280  26.601  1.00  0.00     0.000 A 
ENDBRANCH  47  61
BRANCH  48  67
ATOM     67  C   UNL A   1      42.207  34.891  33.288  1.00  0.00    -0.014 A 
ATOM     68  C   UNL A   1      43.027  35.882  32.731  1.00  0.00     0.009 A 
ATOM     69  C   UNL A   1      41.631  35.112  34.549  1.00  0.00     0.009 A 
ATOM     70  C   UNL A   1      43.269  37.071  33.423  1.00  0.00     0.001 A 
ATOM     71  C   UNL A   1      41.859  36.310  35.230  1.00  0.00     0.001 A 
ATOM     72  C   UNL A   1      42.680  37.286  34.668  1.00  0.00     0.000 A 
ENDBRANCH  48  67
BRANCH  60  73
ATOM     73  C   UNL A   1      45.617  28.883  32.289  1.00  0.00    -0.014 A 
ATOM     74  C   UNL A   1      46.785  29.145  31.558  1.00  0.00     0.009 A 
ATOM     75  C   UNL A   1      45.715  28.220  33.523  1.00  0.00     0.009 A 
ATOM     76  C   UNL A   1      48.027  28.743  32.054  1.00  0.00     0.001 A 
ATOM     77  C   UNL A   1      46.959  27.839  34.025  1.00  0.00     0.001 A 
ATOM     78  C   UNL A   1      48.113  28.098  33.288  1.00  0.00     0.000 A 
ENDBRANCH  60  73
ENDBRANCH  34  35
ENDBRANCH  26  29
ENDBRANCH  24  25
ENDBRANCH  23  24
ENDBRANCH   1  23
TORSDOF 14
ENDMDL
MODEL 2
REMARK VINA RESULT:      -9.2      4.422     10.857
REMARK SMILES [NH3+][C@H](CC1=c2cccc(O)c2=NC1)C(=O)NCCCNC(=O)c1ccc(-c2c3nc(c(-c4ccccc4)c4ccc([nH]4)c(-c4ccccc4)c4nc(c(-c5ccccc5)c5ccc2[nH]5)C=C4)C=C3)cc1
REMARK SMILES IDX 17 1 16 2 14 3 15 4 2 6 1 7 3 11 4 12 5 13 13 14 6 15 11 16
REMARK SMILES IDX 12 17 7 18 9 19 8 20 10 21 18 23 19 24 20 25 21 26 22 28
REMARK SMILES IDX 23 29 24 30 70 31 25 32 69 33 26 34 27 35 28 36 63 37 29 38
REMARK SMILES IDX 68 39 62 40 64 41 30 42 67 43 61 44 60 45 31 47 53 48 38 49
REMARK SMILES IDX 52 50 39 51 42 52 51 53 65 54 40 55 41 56 50 58 66 59 43 60
REMARK SMILES IDX 32 61 33 62 37 63 34 64 36 65 35 66 54 67 55 68 59 69 56 70
REMARK SMILES IDX 58 71 57 72 44 73 45 74 49 75 46 76 48 77 47 78
REMARK H PARENT 16 5 1 8 1 9 1 10 10 22 20 27 64 46 42 57
REMARK Flexibility Score: inf
ROOT
ATOM      1  C   UNL A   1      41.912  19.566  26.281  1.00  0.00     0.118 C 
ENDROOT
BRANCH   1   2
ATOM      2  N   UNL A   1      43.141  18.807  26.125  1.00  0.00    -0.351 N 
ATOM      3  C   UNL A   1      44.263  19.040  25.383  1.00  0.00     0.278 C 
ATOM      4  O   UNL A   1      45.118  18.150  25.358  1.00  0.00    -0.268 OA
ATOM      5  H   UNL A   1      43.169  17.975  26.650  1.00  0.00     0.163 HD
BRANCH   3   6
ATOM      6  C   UNL A   1      44.451  20.358  24.600  1.00  0.00     0.275 C 
BRANCH   6   7
ATOM      7  N   UNL A   1      44.998  20.043  23.265  1.00  0.00    -0.347 N 
ATOM      8  H   UNL A   1      46.017  20.035  23.308  1.00  0.00     0.345 HD
ATOM      9  H   UNL A   1      44.692  20.752  22.597  1.00  0.00     0.345 HD
ATOM     10  H   UNL A   1      44.663  19.128  22.967  1.00  0.00     0.345 HD
ENDBRANCH   6   7
BRANCH   6  11
ATOM     11  C   UNL A   1      45.211  21.395  25.458  1.00  0.00     0.109 C 
BRANCH  11  12
ATOM     12  C   UNL A   1      44.763  22.824  25.329  1.00  0.00    -0.033 C 
ATOM     13  C   UNL A   1      45.485  23.934  25.472  1.00  0.00     0.005 A 
ATOM     14  C   UNL A   1      43.370  23.172  24.897  1.00  0.00     0.175 C 
ATOM     15  C   UNL A   1      46.843  24.222  25.808  1.00  0.00     0.010 A 
ATOM     16  C   UNL A   1      44.531  25.006  25.123  1.00  0.00     0.107 A 
ATOM     17  N   UNL A   1      43.338  24.640  24.761  1.00  0.00    -0.276 NA
ATOM     18  C   UNL A   1      47.244  25.504  25.842  1.00  0.00     0.005 A 
ATOM     19  C   UNL A   1      45.042  26.408  25.214  1.00  0.00     0.141 A 
ATOM     20  C   UNL A   1      46.329  26.598  25.560  1.00  0.00     0.048 A 
BRANCH  19  21
ATOM     21  O   UNL A   1      44.169  27.443  24.952  1.00  0.00    -0.506 OA
ATOM     22  H   UNL A   1      43.302  27.260  24.646  1.00  0.00     0.293 HD
ENDBRANCH  19  21
ENDBRANCH  11  12
ENDBRANCH   6  11
ENDBRANCH   3   6
ENDBRANCH   1   2
BRANCH   1  23
ATOM     23  C   UNL A   1      41.865  20.283  27.625  1.00  0.00     0.042 C 
BRANCH  23  24
ATOM     24  C   UNL A   1      41.161  21.633  27.561  1.00  0.00     0.118 C 
BRANCH  24  25
ATOM     25  N   UNL A   1      40.036  21.624  26.636  1.00  0.00    -0.352 N 
ATOM     26  C   UNL A   1      39.158  22.638  26.333  1.00  0.00     0.251 C 
ATOM     27  H   UNL A   1      39.883  20.774  26.162  1.00  0.00     0.163 HD
ATOM     28  O   UNL A   1      38.146  22.415  25.685  1.00  0.00    -0.269 OA
BRANCH  26  29
ATOM     29  C   UNL A   1      39.450  24.000  26.814  1.00  0.00     0.039 A 
ATOM     30  C   UNL A   1      39.128  24.344  28.129  1.00  0.00     0.014 A 
ATOM     31  C   UNL A   1      40.057  24.928  25.961  1.00  0.00     0.014 A 
ATOM     32  C   UNL A   1      39.477  25.605  28.614  1.00  0.00     0.010 A 
ATOM     33  C   UNL A   1      40.452  26.161  26.460  1.00  0.00     0.010 A 
ATOM     34  C   UNL A   1      40.167  26.508  27.790  1.00  0.00    -0.014 A 
BRANCH  34  35
ATOM     35  C   UNL A   1      40.592  27.838  28.278  1.00  0.00     0.031 A 
ATOM     36  C   UNL A   1      42.036  28.078  28.603  1.00  0.00     0.074 A 
ATOM     37  C   UNL A   1      39.672  28.793  28.506  1.00  0.00     0.049 A 
ATOM     38  N   UNL A   1      42.589  29.117  29.172  1.00  0.00    -0.248 NA
ATOM     39  C   UNL A   1      42.980  27.000  28.262  1.00  0.00     0.031 C 
ATOM     40  C   UNL A   1      38.239  28.674  28.235  1.00  0.00     0.029 A 
ATOM     41  N   UNL A   1      39.809  30.052  29.034  1.00  0.00    -0.354 N 
ATOM     42  C   UNL A   1      43.940  28.815  29.268  1.00  0.00     0.074 A 
ATOM     43  C   UNL A   1      44.122  27.484  28.732  1.00  0.00     0.031 C 
ATOM     44  C   UNL A   1      37.631  29.819  28.584  1.00  0.00     0.029 A 
ATOM     45  C   UNL A   1      38.623  30.735  29.141  1.00  0.00     0.049 A 
ATOM     46  H   UNL A   1      40.676  30.429  29.310  1.00  0.00     0.167 HD
ATOM     47  C   UNL A   1      44.942  29.586  29.748  1.00  0.00     0.031 A 
ATOM     48  C   UNL A   1      38.363  31.956  29.641  1.00  0.00     0.031 A 
ATOM     49  C   UNL A   1      44.762  30.912  30.271  1.00  0.00     0.049 A 
ATOM     50  C   UNL A   1      39.488  32.784  30.193  1.00  0.00     0.074 A 
ATOM     51  C   UNL A   1      45.723  31.777  30.764  1.00  0.00     0.029 A 
ATOM     52  N   UNL A   1      43.545  31.566  30.360  1.00  0.00    -0.354 N 
ATOM     53  N   UNL A   1      40.760  32.484  30.281  1.00  0.00    -0.248 NA
ATOM     54  C   UNL A   1      39.144  34.117  30.708  1.00  0.00     0.031 C 
ATOM     55  C   UNL A   1      45.081  32.946  31.181  1.00  0.00     0.029 A 
ATOM     56  C   UNL A   1      43.729  32.825  30.902  1.00  0.00     0.049 A 
ATOM     57  H   UNL A   1      42.679  31.191  30.077  1.00  0.00     0.167 HD
ATOM     58  C   UNL A   1      41.375  33.601  30.833  1.00  0.00     0.074 A 
ATOM     59  C   UNL A   1      40.336  34.584  31.061  1.00  0.00     0.031 C 
ATOM     60  C   UNL A   1      42.685  33.793  31.115  1.00  0.00     0.031 A 
BRANCH  47  61
ATOM     61  C   UNL A   1      46.331  29.020  29.723  1.00  0.00    -0.014 A 
ATOM     62  C   UNL A   1      46.830  28.297  30.816  1.00  0.00     0.009 A 
ATOM     63  C   UNL A   1      47.118  29.146  28.569  1.00  0.00     0.009 A 
ATOM     64  C   UNL A   1      48.099  27.718  30.758  1.00  0.00     0.001 A 
ATOM     65  C   UNL A   1      48.376  28.548  28.505  1.00  0.00     0.001 A 
ATOM     66  C   UNL A   1      48.867  27.837  29.600  1.00  0.00     0.000 A 
ENDBRANCH  47  61
BRANCH  48  67
ATOM     67  C   UNL A   1      36.973  32.476  29.607  1.00  0.00    -0.014 A 
ATOM     68  C   UNL A   1      36.506  33.160  28.475  1.00  0.00     0.009 A 
ATOM     69  C   UNL A   1      36.095  32.248  30.677  1.00  0.00     0.009 A 
ATOM     70  C   UNL A   1      35.185  33.609  28.417  1.00  0.00     0.001 A 
ATOM     71  C   UNL A   1      34.769  32.682  30.608  1.00  0.00     0.001 A 
ATOM     72  C   UNL A   1      34.316  33.364  29.479  1.00  0.00     0.000 A 
ENDBRANCH  48  67
BRANCH  60  73
ATOM     73  C   UNL A   1      43.094  35.127  31.664  1.00  0.00    -0.014 A 
ATOM     74  C   UNL A   1      43.065  35.384  33.042  1.00  0.00     0.009 A 
ATOM     75  C   UNL A   1      43.616  36.100  30.796  1.00  0.00     0.009 A 
ATOM     76  C   UNL A   1      43.544  36.598  33.540  1.00  0.00     0.001 A 
ATOM     77  C   UNL A   1      44.113  37.302  31.298  1.00  0.00     0.001 A 
ATOM     78  C   UNL A   1      44.075  37.551  32.669  1.00  0.00     0.000 A 
ENDBRANCH  60  73
ENDBRANCH  34  35
ENDBRANCH  26  29
ENDBRANCH  24  25
ENDBRANCH  23  24
ENDBRANCH   1  23
TORSDOF 14
ENDMDL
MODEL 3
REMARK VINA RESULT:      -9.1      4.824      9.678
REMARK SMILES [NH3+][C@H](CC1=c2cccc(O)c2=NC1)C(=O)NCCCNC(=O)c1ccc(-c2c3nc(c(-c4ccccc4)c4ccc([nH]4)c(-c4ccccc4)c4nc(c(-c5ccccc5)c5ccc2[nH]5)C=C4)C=C3)cc1
REMARK SMILES IDX 17 1 16 2 14 3 15 4 2 6 1 7 3 11 4 12 5 13 13 14 6 15 11 16
REMARK SMILES IDX 12 17 7 18 9 19 8 20 10 21 18 23 19 24 20 25 21 26 22 28
REMARK SMILES IDX 23 29 24 30 70 31 25 32 69 33 26 34 27 35 28 36 63 37 29 38
REMARK SMILES IDX 68 39 62 40 64 41 30 42 67 43 61 44 60 45 31 47 53 48 38 49
REMARK SMILES IDX 52 50 39 51 42 52 51 53 65 54 40 55 41 56 50 58 66 59 43 60
REMARK SMILES IDX 32 61 33 62 37 63 34 64 36 65 35 66 54 67 55 68 59 69 56 70
REMARK SMILES IDX 58 71 57 72 44 73 45 74 49 75 46 76 48 77 47 78
REMARK H PARENT 16 5 1 8 1 9 1 10 10 22 20 27 64 46 42 57
REMARK Flexibility Score: inf
ROOT
ATOM      1  C   UNL A   1      32.744  29.578  25.117  1.00  0.00     0.118 C 
ENDROOT
BRANCH   1   2
ATOM      2  N   UNL A   1      31.372  30.019  24.935  1.00  0.00    -0.351 N 
ATOM      3  C   UNL A   1      30.540  29.975  23.852  1.00  0.00     0.278 C 
ATOM      4  O   UNL A   1      29.447  30.535  23.957  1.00  0.00    -0.268 OA
ATOM      5  H   UNL A   1      30.968  30.422  25.737  1.00  0.00     0.163 HD
BRANCH   3   6
ATOM      6  C   UNL A   1      30.957  29.262  22.547  1.00  0.00     0.275 C 
BRANCH   6   7
ATOM      7  N   UNL A   1      30.468  30.050  21.398  1.00  0.00    -0.347 N 
ATOM      8  H   UNL A   1      29.619  30.550  21.664  1.00  0.00     0.345 HD
ATOM      9  H   UNL A   1      30.263  29.424  20.619  1.00  0.00     0.345 HD
ATOM     10  H   UNL A   1      31.183  30.720  21.116  1.00  0.00     0.345 HD
ENDBRANCH   6   7
BRANCH   6  11
ATOM     11  C   UNL A   1      30.576  27.765  22.601  1.00  0.00     0.109 C 
BRANCH  11  12
ATOM     12  C   UNL A   1      31.713  26.785  22.535  1.00  0.00    -0.033 C 
ATOM     13  C   UNL A   1      31.695  25.477  22.792  1.00  0.00     0.005 A 
ATOM     14  C   UNL A   1      33.070  27.190  22.042  1.00  0.00     0.175 C 
ATOM     15  C   UNL A   1      30.705  24.545  23.227  1.00  0.00     0.010 A 
ATOM     16  C   UNL A   1      33.067  25.047  22.453  1.00  0.00     0.107 A 
ATOM     17  N   UNL A   1      33.876  25.956  21.998  1.00  0.00    -0.276 NA
ATOM     18  C   UNL A   1      31.048  23.254  23.366  1.00  0.00     0.005 A 
ATOM     19  C   UNL A   1      33.382  23.601  22.664  1.00  0.00     0.141 A 
ATOM     20  C   UNL A   1      32.399  22.790  23.098  1.00  0.00     0.048 A 
BRANCH  19  21
ATOM     21  O   UNL A   1      34.667  23.166  22.415  1.00  0.00    -0.506 OA
ATOM     22  H   UNL A   1      34.992  23.141  21.537  1.00  0.00     0.293 HD
ENDBRANCH  19  21
ENDBRANCH  11  12
ENDBRANCH   6  11
ENDBRANCH   3   6
ENDBRANCH   1   2
BRANCH   1  23
ATOM     23  C   UNL A   1      32.829  28.400  26.080  1.00  0.00     0.042 C 
BRANCH  23  24
ATOM     24  C   UNL A   1      33.723  28.671  27.284  1.00  0.00     0.118 C 
BRANCH  24  25
ATOM     25  N   UNL A   1      33.722  30.077  27.664  1.00  0.00    -0.352 N 
ATOM     26  C   UNL A   1      34.698  30.798  28.311  1.00  0.00     0.251 C 
ATOM     27  H   UNL A   1      32.911  30.582  27.423  1.00  0.00     0.163 HD
ATOM     28  O   UNL A   1      34.468  31.920  28.736  1.00  0.00    -0.269 OA
BRANCH  26  29
ATOM     29  C   UNL A   1      36.028  30.188  28.499  1.00  0.00     0.039 A 
ATOM     30  C   UNL A   1      36.955  30.238  27.455  1.00  0.00     0.014 A 
ATOM     31  C   UNL A   1      36.354  29.584  29.717  1.00  0.00     0.014 A 
ATOM     32  C   UNL A   1      38.241  29.737  27.656  1.00  0.00     0.010 A 
ATOM     33  C   UNL A   1      37.650  29.135  29.934  1.00  0.00     0.010 A 
ATOM     34  C   UNL A   1      38.602  29.210  28.906  1.00  0.00    -0.014 A 
BRANCH  34  35
ATOM     35  C   UNL A   1      39.968  28.707  29.173  1.00  0.00     0.031 A 
ATOM     36  C   UNL A   1      40.979  29.616  29.805  1.00  0.00     0.074 A 
ATOM     37  C   UNL A   1      40.316  27.470  28.773  1.00  0.00     0.049 A 
ATOM     38  N   UNL A   1      42.258  29.419  29.994  1.00  0.00    -0.248 NA
ATOM     39  C   UNL A   1      40.493  30.927  30.269  1.00  0.00     0.031 C 
ATOM     40  C   UNL A   1      39.422  26.498  28.143  1.00  0.00     0.029 A 
ATOM     41  N   UNL A   1      41.526  26.826  28.827  1.00  0.00    -0.354 N 
ATOM     42  C   UNL A   1      42.731  30.582  30.584  1.00  0.00     0.074 A 
ATOM     43  C   UNL A   1      41.614  31.494  30.693  1.00  0.00     0.031 C 
ATOM     44  C   UNL A   1      40.110  25.375  27.882  1.00  0.00     0.029 A 
ATOM     45  C   UNL A   1      41.501  25.564  28.288  1.00  0.00     0.049 A 
ATOM     46  H   UNL A   1      42.335  27.232  29.215  1.00  0.00     0.167 HD
ATOM     47  C   UNL A   1      43.984  30.858  31.011  1.00  0.00     0.031 A 
ATOM     48  C   UNL A   1      42.488  24.664  28.130  1.00  0.00     0.031 A 
ATOM     49  C   UNL A   1      45.091  29.949  30.911  1.00  0.00     0.049 A 
ATOM     50  C   UNL A   1      43.878  25.003  28.587  1.00  0.00     0.074 A 
ATOM     51  C   UNL A   1      46.396  30.135  31.333  1.00  0.00     0.029 A 
ATOM     52  N   UNL A   1      45.021  28.680  30.360  1.00  0.00    -0.354 N 
ATOM     53  N   UNL A   1      44.312  26.109  29.141  1.00  0.00    -0.248 NA
ATOM     54  C   UNL A   1      44.910  23.973  28.403  1.00  0.00     0.031 C 
ATOM     55  C   UNL A   1      47.125  28.988  31.008  1.00  0.00     0.029 A 
ATOM     56  C   UNL A   1      46.262  28.072  30.429  1.00  0.00     0.049 A 
ATOM     57  H   UNL A   1      44.210  28.272  29.978  1.00  0.00     0.167 HD
ATOM     58  C   UNL A   1      45.660  25.897  29.400  1.00  0.00     0.074 A 
ATOM     59  C   UNL A   1      45.973  24.559  28.941  1.00  0.00     0.031 C 
ATOM     60  C   UNL A   1      46.553  26.736  29.975  1.00  0.00     0.031 A 
BRANCH  47  61
ATOM     61  C   UNL A   1      44.228  32.200  31.636  1.00  0.00    -0.014 A 
ATOM     62  C   UNL A   1      44.580  33.305  30.847  1.00  0.00     0.009 A 
ATOM     63  C   UNL A   1      44.031  32.378  33.013  1.00  0.00     0.009 A 
ATOM     64  C   UNL A   1      44.741  34.564  31.429  1.00  0.00     0.001 A 
ATOM     65  C   UNL A   1      44.171  33.641  33.588  1.00  0.00     0.001 A 
ATOM     66  C   UNL A   1      44.528  34.731  32.797  1.00  0.00     0.000 A 
ENDBRANCH  47  61
BRANCH  48  67
ATOM     67  C   UNL A   1      42.178  23.340  27.535  1.00  0.00    -0.014 A 
ATOM     68  C   UNL A   1      42.429  23.103  26.176  1.00  0.00     0.009 A 
ATOM     69  C   UNL A   1      41.682  22.294  28.329  1.00  0.00     0.009 A 
ATOM     70  C   UNL A   1      42.185  21.846  25.621  1.00  0.00     0.001 A 
ATOM     71  C   UNL A   1      41.458  21.032  27.775  1.00  0.00     0.001 A 
ATOM     72  C   UNL A   1      41.707  20.810  26.422  1.00  0.00     0.000 A 
ENDBRANCH  48  67
BRANCH  60  73
ATOM     73  C   UNL A   1      47.950  26.234  30.188  1.00  0.00    -0.014 A 
ATOM     74  C   UNL A   1      48.923  26.349  29.185  1.00  0.00     0.009 A 
ATOM     75  C   UNL A   1      48.320  25.737  31.448  1.00  0.00     0.009 A 
ATOM     76  C   UNL A   1      50.242  25.966  29.439  1.00  0.00     0.001 A 
ATOM     77  C   UNL A   1      49.642  25.375  31.705  1.00  0.00     0.001 A 
ATOM     78  C   UNL A   1      50.601  25.487  30.700  1.00  0.00     0.000 A 
ENDBRANCH  60  73
ENDBRANCH  34  35
ENDBRANCH  26  29
ENDBRANCH  24  25
ENDBRANCH  23  24
ENDBRANCH   1  23
TORSDOF 14
ENDMDL
