MODEL 1
REMARK VINA RESULT:     -11.5      0.000      0.000
REMARK SMILES CN1C(=O)CC[C@H]([NH2+]Cc2ccc(C(=O)NCCCNC(=O)c3ccc(-c4c5nc(c(-c6ccccc6)c6ccc([nH]6)c(-c6ccccc6)c6nc(c(-c7ccccc7)c7ccc4[nH]7)C=C6)C=C5)cc3)cn2)C1=O
REMARK SMILES IDX 17 1 16 2 14 3 15 4 13 6 10 7 11 8 72 9 12 10 71 11 9 12
REMARK SMILES IDX 8 13 7 16 1 17 2 18 3 19 73 20 4 21 5 22 74 23 6 24 18 25
REMARK SMILES IDX 19 26 20 27 21 28 22 30 23 31 24 32 70 33 25 34 69 35 26 36
REMARK SMILES IDX 27 37 28 38 63 39 29 40 68 41 62 42 64 43 30 44 67 45 61 46
REMARK SMILES IDX 60 47 31 49 53 50 38 51 52 52 39 53 42 54 51 55 65 56 40 57
REMARK SMILES IDX 41 58 50 60 66 61 43 62 32 63 33 64 37 65 34 66 36 67 35 68
REMARK SMILES IDX 54 69 55 70 59 71 56 72 58 73 57 74 44 75 45 76 49 77 46 78
REMARK SMILES IDX 48 79 47 80
REMARK H PARENT 16 5 8 14 8 15 20 29 64 48 42 59
REMARK Flexibility Score: inf
ROOT
ATOM      1  C   UNL A   1      36.058  20.406  25.039  1.00  0.00     0.118 C 
ENDROOT
BRANCH   1   2
ATOM      2  N   UNL A   1      35.060  19.356  25.103  1.00  0.00    -0.352 N 
ATOM      3  C   UNL A   1      33.712  19.377  24.866  1.00  0.00     0.252 C 
ATOM      4  O   UNL A   1      33.096  18.314  24.929  1.00  0.00    -0.269 OA
ATOM      5  H   UNL A   1      35.414  18.475  25.361  1.00  0.00     0.163 HD
BRANCH   3   6
ATOM      6  C   UNL A   1      32.980  20.610  24.507  1.00  0.00     0.058 A 
ATOM      7  C   UNL A   1      31.641  22.995  24.107  1.00  0.00     0.094 A 
ATOM      8  C   UNL A   1      32.075  22.269  23.005  1.00  0.00     0.030 A 
ATOM      9  N   UNL A   1      31.867  22.579  25.379  1.00  0.00    -0.255 NA
ATOM     10  C   UNL A   1      32.763  21.074  23.212  1.00  0.00     0.017 A 
ATOM     11  C   UNL A   1      32.527  21.407  25.549  1.00  0.00     0.125 A 
BRANCH   7  12
ATOM     12  C   UNL A   1      31.016  24.363  23.946  1.00  0.00     0.318 C 
BRANCH  12  13
ATOM     13  N   UNL A   1      30.015  24.707  24.980  1.00  0.00    -0.331 N 
ATOM     14  H   UNL A   1      29.084  24.503  24.617  1.00  0.00     0.347 HD
ATOM     15  H   UNL A   1      30.218  24.151  25.811  1.00  0.00     0.347 HD
BRANCH  13  16
ATOM     16  C   UNL A   1      30.077  26.142  25.361  1.00  0.00     0.274 C 
ATOM     17  C   UNL A   1      30.327  28.626  22.465  1.00  0.00     0.156 C 
ATOM     18  N   UNL A   1      30.563  27.987  23.747  1.00  0.00    -0.281 N 
ATOM     19  C   UNL A   1      31.652  28.430  24.488  1.00  0.00     0.229 C 
ATOM     20  C   UNL A   1      29.652  27.033  24.177  1.00  0.00     0.287 C 
ATOM     21  O   UNL A   1      32.496  29.214  24.056  1.00  0.00    -0.274 OA
ATOM     22  C   UNL A   1      31.689  27.967  25.923  1.00  0.00     0.107 C 
ATOM     23  O   UNL A   1      28.564  26.841  23.626  1.00  0.00    -0.267 OA
ATOM     24  C   UNL A   1      31.422  26.482  25.996  1.00  0.00     0.085 C 
ENDBRANCH  13  16
ENDBRANCH  12  13
ENDBRANCH   7  12
ENDBRANCH   3   6
ENDBRANCH   1   2
BRANCH   1  25
ATOM     25  C   UNL A   1      37.433  19.836  24.701  1.00  0.00     0.042 C 
BRANCH  25  26
ATOM     26  C   UNL A   1      38.544  20.384  25.586  1.00  0.00     0.118 C 
BRANCH  26  27
ATOM     27  N   UNL A   1      39.628  19.427  25.746  1.00  0.00    -0.352 N 
ATOM     28  C   UNL A   1      40.940  19.645  26.071  1.00  0.00     0.251 C 
ATOM     29  H   UNL A   1      39.383  18.485  25.598  1.00  0.00     0.163 HD
ATOM     30  O   UNL A   1      41.765  18.744  25.914  1.00  0.00    -0.269 OA
BRANCH  28  31
ATOM     31  C   UNL A   1      41.372  20.951  26.605  1.00  0.00     0.039 A 
ATOM     32  C   UNL A   1      41.878  21.909  25.721  1.00  0.00     0.014 A 
ATOM     33  C   UNL A   1      41.325  21.218  27.977  1.00  0.00     0.014 A 
ATOM     34  C   UNL A   1      42.300  23.147  26.209  1.00  0.00     0.010 A 
ATOM     35  C   UNL A   1      41.672  22.478  28.451  1.00  0.00     0.010 A 
ATOM     36  C   UNL A   1      42.179  23.448  27.575  1.00  0.00    -0.014 A 
BRANCH  36  37
ATOM     37  C   UNL A   1      42.599  24.764  28.110  1.00  0.00     0.031 A 
ATOM     38  C   UNL A   1      41.579  25.847  28.333  1.00  0.00     0.074 A 
ATOM     39  C   UNL A   1      43.905  25.004  28.337  1.00  0.00     0.049 A 
ATOM     40  N   UNL A   1      41.756  27.078  28.737  1.00  0.00    -0.248 NA
ATOM     41  C   UNL A   1      40.176  25.506  28.041  1.00  0.00     0.031 C 
ATOM     42  C   UNL A   1      44.993  24.047  28.123  1.00  0.00     0.029 A 
ATOM     43  N   UNL A   1      44.538  26.132  28.794  1.00  0.00    -0.354 N 
ATOM     44  C   UNL A   1      40.496  27.664  28.725  1.00  0.00     0.074 A 
ATOM     45  C   UNL A   1      39.571  26.669  28.230  1.00  0.00     0.031 C 
ATOM     46  C   UNL A   1      46.156  24.619  28.474  1.00  0.00     0.029 A 
ATOM     47  C   UNL A   1      45.900  25.991  28.898  1.00  0.00     0.049 A 
ATOM     48  H   UNL A   1      44.062  26.962  29.025  1.00  0.00     0.167 HD
ATOM     49  C   UNL A   1      40.138  28.911  29.110  1.00  0.00     0.031 A 
ATOM     50  C   UNL A   1      46.839  26.873  29.288  1.00  0.00     0.031 A 
ATOM     51  C   UNL A   1      41.059  29.893  29.615  1.00  0.00     0.049 A 
ATOM     52  C   UNL A   1      46.417  28.254  29.704  1.00  0.00     0.074 A 
ATOM     53  C   UNL A   1      40.791  31.167  30.086  1.00  0.00     0.029 A 
ATOM     54  N   UNL A   1      42.430  29.710  29.714  1.00  0.00    -0.354 N 
ATOM     55  N   UNL A   1      45.213  28.770  29.750  1.00  0.00    -0.248 NA
ATOM     56  C   UNL A   1      47.484  29.169  30.134  1.00  0.00     0.031 C 
ATOM     57  C   UNL A   1      42.005  31.771  30.426  1.00  0.00     0.029 A 
ATOM     58  C   UNL A   1      43.024  30.854  30.218  1.00  0.00     0.049 A 
ATOM     59  H   UNL A   1      42.909  28.887  29.464  1.00  0.00     0.167 HD
ATOM     60  C   UNL A   1      45.375  30.061  30.237  1.00  0.00     0.074 A 
ATOM     61  C   UNL A   1      46.790  30.240  30.488  1.00  0.00     0.031 C 
ATOM     62  C   UNL A   1      44.435  31.012  30.459  1.00  0.00     0.031 A 
BRANCH  49  63
ATOM     63  C   UNL A   1      38.686  29.284  28.991  1.00  0.00    -0.014 A 
ATOM     64  C   UNL A   1      38.151  29.753  27.780  1.00  0.00     0.009 A 
ATOM     65  C   UNL A   1      37.835  29.139  30.097  1.00  0.00     0.009 A 
ATOM     66  C   UNL A   1      36.802  30.105  27.691  1.00  0.00     0.001 A 
ATOM     67  C   UNL A   1      36.481  29.464  29.998  1.00  0.00     0.001 A 
ATOM     68  C   UNL A   1      35.968  29.956  28.798  1.00  0.00     0.000 A 
ENDBRANCH  49  63
BRANCH  50  69
ATOM     69  C   UNL A   1      48.270  26.471  29.323  1.00  0.00    -0.014 A 
ATOM     70  C   UNL A   1      48.814  25.877  30.471  1.00  0.00     0.009 A 
ATOM     71  C   UNL A   1      49.098  26.677  28.208  1.00  0.00     0.009 A 
ATOM     72  C   UNL A   1      50.164  25.523  30.513  1.00  0.00     0.001 A 
ATOM     73  C   UNL A   1      50.440  26.295  28.242  1.00  0.00     0.001 A 
ATOM     74  C   UNL A   1      50.974  25.727  29.398  1.00  0.00     0.000 A 
ENDBRANCH  50  69
BRANCH  62  75
ATOM     75  C   UNL A   1      44.905  32.318  31.030  1.00  0.00    -0.014 A 
ATOM     76  C   UNL A   1      45.268  33.389  30.198  1.00  0.00     0.009 A 
ATOM     77  C   UNL A   1      44.948  32.491  32.423  1.00  0.00     0.009 A 
ATOM     78  C   UNL A   1      45.698  34.597  30.752  1.00  0.00     0.001 A 
ATOM     79  C   UNL A   1      45.349  33.710  32.972  1.00  0.00     0.001 A 
ATOM     80  C   UNL A   1      45.733  34.757  32.137  1.00  0.00     0.000 A 
ENDBRANCH  62  75
ENDBRANCH  36  37
ENDBRANCH  28  31
ENDBRANCH  26  27
ENDBRANCH  25  26
ENDBRANCH   1  25
TORSDOF 13
ENDMDL
MODEL 2
REMARK VINA RESULT:     -11.4      1.762      2.384
REMARK SMILES CN1C(=O)CC[C@H]([NH2+]Cc2ccc(C(=O)NCCCNC(=O)c3ccc(-c4c5nc(c(-c6ccccc6)c6ccc([nH]6)c(-c6ccccc6)c6nc(c(-c7ccccc7)c7ccc4[nH]7)C=C6)C=C5)cc3)cn2)C1=O
REMARK SMILES IDX 17 1 16 2 14 3 15 4 13 6 10 7 11 8 72 9 12 10 71 11 9 12
REMARK SMILES IDX 8 13 7 16 1 17 2 18 3 19 73 20 4 21 5 22 74 23 6 24 18 25
REMARK SMILES IDX 19 26 20 27 21 28 22 30 23 31 24 32 70 33 25 34 69 35 26 36
REMARK SMILES IDX 27 37 28 38 63 39 29 40 68 41 62 42 64 43 30 44 67 45 61 46
REMARK SMILES IDX 60 47 31 49 53 50 38 51 52 52 39 53 42 54 51 55 65 56 40 57
REMARK SMILES IDX 41 58 50 60 66 61 43 62 32 63 33 64 37 65 34 66 36 67 35 68
REMARK SMILES IDX 54 69 55 70 59 71 56 72 58 73 57 74 44 75 45 76 49 77 46 78
REMARK SMILES IDX 48 79 47 80
REMARK H PARENT 16 5 8 14 8 15 20 29 64 48 42 59
REMARK Flexibility Score: inf
ROOT
ATOM      1  C   UNL A   1      37.466  20.874  24.650  1.00  0.00     0.118 C 
ENDROOT
BRANCH   1   2
ATOM      2  N   UNL A   1      38.011  22.095  25.209  1.00  0.00    -0.352 N 
ATOM      3  C   UNL A   1      37.412  23.280  25.544  1.00  0.00     0.252 C 
ATOM      4  O   UNL A   1      38.103  24.150  26.071  1.00  0.00    -0.269 OA
ATOM      5  H   UNL A   1      38.980  22.067  25.379  1.00  0.00     0.163 HD
BRANCH   3   6
ATOM      6  C   UNL A   1      35.973  23.539  25.330  1.00  0.00     0.058 A 
ATOM      7  C   UNL A   1      33.338  24.026  24.651  1.00  0.00     0.094 A 
ATOM      8  C   UNL A   1      33.639  23.614  25.943  1.00  0.00     0.030 A 
ATOM      9  N   UNL A   1      34.296  24.183  23.702  1.00  0.00    -0.255 NA
ATOM     10  C   UNL A   1      34.968  23.355  26.277  1.00  0.00     0.017 A 
ATOM     11  C   UNL A   1      35.580  23.937  24.060  1.00  0.00     0.125 A 
BRANCH   7  12
ATOM     12  C   UNL A   1      31.905  24.185  24.195  1.00  0.00     0.318 C 
BRANCH  12  13
ATOM     13  N   UNL A   1      31.739  24.347  22.734  1.00  0.00    -0.331 N 
ATOM     14  H   UNL A   1      32.630  24.151  22.278  1.00  0.00     0.347 HD
ATOM     15  H   UNL A   1      31.016  23.696  22.426  1.00  0.00     0.347 HD
BRANCH  13  16
ATOM     16  C   UNL A   1      31.306  25.721  22.369  1.00  0.00     0.274 C 
ATOM     17  C   UNL A   1      33.996  28.429  22.592  1.00  0.00     0.156 C 
ATOM     18  N   UNL A   1      32.715  27.756  22.712  1.00  0.00    -0.281 N 
ATOM     19  C   UNL A   1      31.742  28.373  23.490  1.00  0.00     0.229 C 
ATOM     20  C   UNL A   1      32.523  26.587  21.990  1.00  0.00     0.287 C 
ATOM     21  O   UNL A   1      31.956  29.362  24.189  1.00  0.00    -0.274 OA
ATOM     22  C   UNL A   1      30.350  27.812  23.346  1.00  0.00     0.107 C 
ATOM     23  O   UNL A   1      33.303  26.198  21.115  1.00  0.00    -0.267 OA
ATOM     24  C   UNL A   1      30.385  26.305  23.436  1.00  0.00     0.085 C 
ENDBRANCH  13  16
ENDBRANCH  12  13
ENDBRANCH   7  12
ENDBRANCH   3   6
ENDBRANCH   1   2
BRANCH   1  25
ATOM     25  C   UNL A   1      38.383  19.686  24.931  1.00  0.00     0.042 C 
BRANCH  25  26
ATOM     26  C   UNL A   1      39.343  19.929  26.087  1.00  0.00     0.118 C 
BRANCH  26  27
ATOM     27  N   UNL A   1      40.552  19.129  25.963  1.00  0.00    -0.352 N 
ATOM     28  C   UNL A   1      41.863  19.522  25.998  1.00  0.00     0.251 C 
ATOM     29  H   UNL A   1      40.406  18.164  25.834  1.00  0.00     0.163 HD
ATOM     30  O   UNL A   1      42.742  18.745  25.624  1.00  0.00    -0.269 OA
BRANCH  28  31
ATOM     31  C   UNL A   1      42.228  20.870  26.477  1.00  0.00     0.039 A 
ATOM     32  C   UNL A   1      42.204  21.128  27.850  1.00  0.00     0.014 A 
ATOM     33  C   UNL A   1      42.547  21.891  25.576  1.00  0.00     0.014 A 
ATOM     34  C   UNL A   1      42.538  22.399  28.321  1.00  0.00     0.010 A 
ATOM     35  C   UNL A   1      42.954  23.132  26.050  1.00  0.00     0.010 A 
ATOM     36  C   UNL A   1      42.936  23.403  27.426  1.00  0.00    -0.014 A 
BRANCH  36  37
ATOM     37  C   UNL A   1      43.317  24.753  27.906  1.00  0.00     0.031 A 
ATOM     38  C   UNL A   1      42.254  25.776  28.196  1.00  0.00     0.074 A 
ATOM     39  C   UNL A   1      44.619  25.074  28.024  1.00  0.00     0.049 A 
ATOM     40  N   UNL A   1      42.387  27.024  28.566  1.00  0.00    -0.248 NA
ATOM     41  C   UNL A   1      40.855  25.347  28.023  1.00  0.00     0.031 C 
ATOM     42  C   UNL A   1      45.743  24.179  27.736  1.00  0.00     0.029 A 
ATOM     43  N   UNL A   1      45.218  26.246  28.412  1.00  0.00    -0.354 N 
ATOM     44  C   UNL A   1      41.098  27.533  28.648  1.00  0.00     0.074 A 
ATOM     45  C   UNL A   1      40.198  26.475  28.244  1.00  0.00     0.031 C 
ATOM     46  C   UNL A   1      46.894  24.826  27.984  1.00  0.00     0.029 A 
ATOM     47  C   UNL A   1      46.590  26.188  28.408  1.00  0.00     0.049 A 
ATOM     48  H   UNL A   1      44.712  27.050  28.669  1.00  0.00     0.167 HD
ATOM     49  C   UNL A   1      40.696  28.764  29.043  1.00  0.00     0.031 A 
ATOM     50  C   UNL A   1      47.501  27.132  28.708  1.00  0.00     0.031 A 
ATOM     51  C   UNL A   1      41.593  29.809  29.459  1.00  0.00     0.049 A 
ATOM     52  C   UNL A   1      47.031  28.493  29.138  1.00  0.00     0.074 A 
ATOM     53  C   UNL A   1      41.286  31.073  29.932  1.00  0.00     0.029 A 
ATOM     54  N   UNL A   1      42.976  29.709  29.449  1.00  0.00    -0.354 N 
ATOM     55  N   UNL A   1      45.805  28.938  29.273  1.00  0.00    -0.248 NA
ATOM     56  C   UNL A   1      48.071  29.477  29.467  1.00  0.00     0.031 C 
ATOM     57  C   UNL A   1      42.485  31.754  30.164  1.00  0.00     0.029 A 
ATOM     58  C   UNL A   1      43.537  30.895  29.887  1.00  0.00     0.049 A 
ATOM     59  H   UNL A   1      43.483  28.911  29.172  1.00  0.00     0.167 HD
ATOM     60  C   UNL A   1      45.926  30.244  29.727  1.00  0.00     0.074 A 
ATOM     61  C   UNL A   1      47.343  30.513  29.860  1.00  0.00     0.031 C 
ATOM     62  C   UNL A   1      44.951  31.142  30.011  1.00  0.00     0.031 A 
BRANCH  49  63
ATOM     63  C   UNL A   1      39.219  29.047  29.037  1.00  0.00    -0.014 A 
ATOM     64  C   UNL A   1      38.429  28.822  30.176  1.00  0.00     0.009 A 
ATOM     65  C   UNL A   1      38.613  29.569  27.884  1.00  0.00     0.009 A 
ATOM     66  C   UNL A   1      37.056  29.079  30.148  1.00  0.00     0.001 A 
ATOM     67  C   UNL A   1      37.246  29.854  27.868  1.00  0.00     0.001 A 
ATOM     68  C   UNL A   1      36.467  29.599  28.997  1.00  0.00     0.000 A 
ENDBRANCH  49  63
BRANCH  50  69
ATOM     69  C   UNL A   1      48.952  26.816  28.633  1.00  0.00    -0.014 A 
ATOM     70  C   UNL A   1      49.652  26.975  27.428  1.00  0.00     0.009 A 
ATOM     71  C   UNL A   1      49.643  26.357  29.765  1.00  0.00     0.009 A 
ATOM     72  C   UNL A   1      51.010  26.655  27.350  1.00  0.00     0.001 A 
ATOM     73  C   UNL A   1      51.007  26.065  29.692  1.00  0.00     0.001 A 
ATOM     74  C   UNL A   1      51.686  26.205  28.483  1.00  0.00     0.000 A 
ENDBRANCH  50  69
BRANCH  62  75
ATOM     75  C   UNL A   1      45.385  32.485  30.524  1.00  0.00    -0.014 A 
ATOM     76  C   UNL A   1      45.585  32.712  31.895  1.00  0.00     0.009 A 
ATOM     77  C   UNL A   1      45.635  33.526  29.616  1.00  0.00     0.009 A 
ATOM     78  C   UNL A   1      45.995  33.967  32.348  1.00  0.00     0.001 A 
ATOM     79  C   UNL A   1      46.073  34.771  30.071  1.00  0.00     0.001 A 
ATOM     80  C   UNL A   1      46.243  34.993  31.436  1.00  0.00     0.000 A 
ENDBRANCH  62  75
ENDBRANCH  36  37
ENDBRANCH  28  31
ENDBRANCH  26  27
ENDBRANCH  25  26
ENDBRANCH   1  25
TORSDOF 13
ENDMDL
MODEL 3
REMARK VINA RESULT:     -11.4      0.469      5.980
REMARK SMILES CN1C(=O)CC[C@H]([NH2+]Cc2ccc(C(=O)NCCCNC(=O)c3ccc(-c4c5nc(c(-c6ccccc6)c6ccc([nH]6)c(-c6ccccc6)c6nc(c(-c7ccccc7)c7ccc4[nH]7)C=C6)C=C5)cc3)cn2)C1=O
REMARK SMILES IDX 17 1 16 2 14 3 15 4 13 6 10 7 11 8 72 9 12 10 71 11 9 12
REMARK SMILES IDX 8 13 7 16 1 17 2 18 3 19 73 20 4 21 5 22 74 23 6 24 18 25
REMARK SMILES IDX 19 26 20 27 21 28 22 30 23 31 24 32 70 33 25 34 69 35 26 36
REMARK SMILES IDX 27 37 28 38 63 39 29 40 68 41 62 42 64 43 30 44 67 45 61 46
REMARK SMILES IDX 60 47 31 49 53 50 38 51 52 52 39 53 42 54 51 55 65 56 40 57
REMARK SMILES IDX 41 58 50 60 66 61 43 62 32 63 33 64 37 65 34 66 36 67 35 68
REMARK SMILES IDX 54 69 55 70 59 71 56 72 58 73 57 74 44 75 45 76 49 77 46 78
REMARK SMILES IDX 48 79 47 80
REMARK H PARENT 16 5 8 14 8 15 20 29 64 48 42 59
REMARK Flexibility Score: inf
ROOT
ATOM      1  C   UNL A   1      36.295  20.201  24.970  1.00  0.00     0.118 C 
ENDROOT
BRANCH   1   2
ATOM      2  N   UNL A   1      35.263  19.184  24.925  1.00  0.00    -0.352 N 
ATOM      3  C   UNL A   1      33.902  19.283  24.813  1.00  0.00     0.252 C 
ATOM      4  O   UNL A   1      33.251  18.243  24.731  1.00  0.00    -0.269 OA
ATOM      5  H   UNL A   1      35.600  18.261  24.985  1.00  0.00     0.163 HD
BRANCH   3   6
ATOM      6  C   UNL A   1      33.195  20.579  24.751  1.00  0.00     0.058 A 
ATOM      7  C   UNL A   1      31.795  22.932  24.371  1.00  0.00     0.094 A 
ATOM      8  C   UNL A   1      32.181  22.574  25.657  1.00  0.00     0.030 A 
ATOM      9  N   UNL A   1      32.071  22.156  23.293  1.00  0.00    -0.255 NA
ATOM     10  C   UNL A   1      32.874  21.378  25.846  1.00  0.00     0.017 A 
ATOM     11  C   UNL A   1      32.757  21.006  23.505  1.00  0.00     0.125 A 
BRANCH   7  12
ATOM     12  C   UNL A   1      30.922  24.143  24.125  1.00  0.00     0.318 C 
BRANCH  12  13
ATOM     13  N   UNL A   1      30.002  24.473  25.235  1.00  0.00    -0.331 N 
ATOM     14  H   UNL A   1      29.054  24.208  24.967  1.00  0.00     0.347 HD
ATOM     15  H   UNL A   1      30.309  23.959  26.061  1.00  0.00     0.347 HD
BRANCH  13  16
ATOM     16  C   UNL A   1      30.019  25.922  25.563  1.00  0.00     0.274 C 
ATOM     17  C   UNL A   1      30.098  28.306  22.574  1.00  0.00     0.156 C 
ATOM     18  N   UNL A   1      30.392  27.723  23.871  1.00  0.00    -0.281 N 
ATOM     19  C   UNL A   1      31.483  28.233  24.565  1.00  0.00     0.229 C 
ATOM     20  C   UNL A   1      29.530  26.753  24.360  1.00  0.00     0.287 C 
ATOM     21  O   UNL A   1      32.285  29.031  24.082  1.00  0.00    -0.274 OA
ATOM     22  C   UNL A   1      31.575  27.825  26.014  1.00  0.00     0.107 C 
ATOM     23  O   UNL A   1      28.435  26.501  23.846  1.00  0.00    -0.267 OA
ATOM     24  C   UNL A   1      31.366  26.335  26.148  1.00  0.00     0.085 C 
ENDBRANCH  13  16
ENDBRANCH  12  13
ENDBRANCH   7  12
ENDBRANCH   3   6
ENDBRANCH   1   2
BRANCH   1  25
ATOM     25  C   UNL A   1      37.678  19.589  24.766  1.00  0.00     0.042 C 
BRANCH  25  26
ATOM     26  C   UNL A   1      38.743  20.195  25.670  1.00  0.00     0.118 C 
BRANCH  26  27
ATOM     27  N   UNL A   1      39.894  19.318  25.812  1.00  0.00    -0.352 N 
ATOM     28  C   UNL A   1      41.193  19.628  26.112  1.00  0.00     0.251 C 
ATOM     29  H   UNL A   1      39.712  18.360  25.673  1.00  0.00     0.163 HD
ATOM     30  O   UNL A   1      42.076  18.786  25.942  1.00  0.00    -0.269 OA
BRANCH  28  31
ATOM     31  C   UNL A   1      41.543  20.964  26.633  1.00  0.00     0.039 A 
ATOM     32  C   UNL A   1      41.935  21.959  25.733  1.00  0.00     0.014 A 
ATOM     33  C   UNL A   1      41.532  21.225  28.007  1.00  0.00     0.014 A 
ATOM     34  C   UNL A   1      42.277  23.226  26.208  1.00  0.00     0.010 A 
ATOM     35  C   UNL A   1      41.798  22.508  28.471  1.00  0.00     0.010 A 
ATOM     36  C   UNL A   1      42.191  23.515  27.579  1.00  0.00    -0.014 A 
BRANCH  36  37
ATOM     37  C   UNL A   1      42.528  24.860  28.101  1.00  0.00     0.031 A 
ATOM     38  C   UNL A   1      43.944  25.182  28.494  1.00  0.00     0.074 A 
ATOM     39  C   UNL A   1      41.551  25.769  28.279  1.00  0.00     0.049 A 
ATOM     40  N   UNL A   1      44.425  26.277  29.024  1.00  0.00    -0.248 NA
ATOM     41  C   UNL A   1      44.947  24.124  28.286  1.00  0.00     0.031 C 
ATOM     42  C   UNL A   1      40.133  25.562  27.970  1.00  0.00     0.029 A 
ATOM     43  N   UNL A   1      41.601  27.050  28.767  1.00  0.00    -0.354 N 
ATOM     44  C   UNL A   1      45.776  26.032  29.233  1.00  0.00     0.074 A 
ATOM     45  C   UNL A   1      46.030  24.670  28.817  1.00  0.00     0.031 C 
ATOM     46  C   UNL A   1      39.454  26.686  28.251  1.00  0.00     0.029 A 
ATOM     47  C   UNL A   1      40.378  27.675  28.795  1.00  0.00     0.049 A 
ATOM     48  H   UNL A   1      42.434  27.480  29.068  1.00  0.00     0.167 HD
ATOM     49  C   UNL A   1      46.726  26.871  29.709  1.00  0.00     0.031 A 
ATOM     50  C   UNL A   1      40.040  28.907  29.217  1.00  0.00     0.031 A 
ATOM     51  C   UNL A   1      46.473  28.229  30.108  1.00  0.00     0.049 A 
ATOM     52  C   UNL A   1      41.111  29.818  29.748  1.00  0.00     0.074 A 
ATOM     53  C   UNL A   1      47.375  29.181  30.551  1.00  0.00     0.029 A 
ATOM     54  N   UNL A   1      45.223  28.829  30.114  1.00  0.00    -0.354 N 
ATOM     55  N   UNL A   1      42.396  29.593  29.878  1.00  0.00    -0.248 NA
ATOM     56  C   UNL A   1      40.685  31.156  30.181  1.00  0.00     0.031 C 
ATOM     57  C   UNL A   1      46.663  30.342  30.869  1.00  0.00     0.029 A 
ATOM     58  C   UNL A   1      45.326  30.130  30.572  1.00  0.00     0.049 A 
ATOM     59  H   UNL A   1      44.386  28.392  29.832  1.00  0.00     0.167 HD
ATOM     60  C   UNL A   1      42.936  30.769  30.381  1.00  0.00     0.074 A 
ATOM     61  C   UNL A   1      41.842  31.708  30.517  1.00  0.00     0.031 C 
ATOM     62  C   UNL A   1      44.224  31.048  30.701  1.00  0.00     0.031 A 
BRANCH  49  63
ATOM     63  C   UNL A   1      48.127  26.336  29.830  1.00  0.00    -0.014 A 
ATOM     64  C   UNL A   1      49.029  26.409  28.757  1.00  0.00     0.009 A 
ATOM     65  C   UNL A   1      48.558  25.774  31.042  1.00  0.00     0.009 A 
ATOM     66  C   UNL A   1      50.323  25.896  28.883  1.00  0.00     0.001 A 
ATOM     67  C   UNL A   1      49.860  25.289  31.175  1.00  0.00     0.001 A 
ATOM     68  C   UNL A   1      50.738  25.342  30.093  1.00  0.00     0.000 A 
ENDBRANCH  49  63
BRANCH  50  69
ATOM     69  C   UNL A   1      38.627  29.360  29.136  1.00  0.00    -0.014 A 
ATOM     70  C   UNL A   1      37.771  29.219  30.239  1.00  0.00     0.009 A 
ATOM     71  C   UNL A   1      38.127  29.937  27.958  1.00  0.00     0.009 A 
ATOM     72  C   UNL A   1      36.436  29.621  30.154  1.00  0.00     0.001 A 
ATOM     73  C   UNL A   1      36.800  30.366  27.887  1.00  0.00     0.001 A 
ATOM     74  C   UNL A   1      35.954  30.198  28.981  1.00  0.00     0.000 A 
ENDBRANCH  50  69
BRANCH  62  75
ATOM     75  C   UNL A   1      44.520  32.433  31.198  1.00  0.00    -0.014 A 
ATOM     76  C   UNL A   1      44.504  32.736  32.569  1.00  0.00     0.009 A 
ATOM     77  C   UNL A   1      44.860  33.441  30.281  1.00  0.00     0.009 A 
ATOM     78  C   UNL A   1      44.789  34.030  33.008  1.00  0.00     0.001 A 
ATOM     79  C   UNL A   1      45.173  34.726  30.726  1.00  0.00     0.001 A 
ATOM     80  C   UNL A   1      45.128  35.021  32.087  1.00  0.00     0.000 A 
ENDBRANCH  62  75
ENDBRANCH  36  37
ENDBRANCH  28  31
ENDBRANCH  26  27
ENDBRANCH  25  26
ENDBRANCH   1  25
TORSDOF 13
ENDMDL
