MODEL 1
REMARK VINA RESULT:     -12.4      0.000      0.000
REMARK SMILES Cc1nn(CC(=O)NCCCNC(=O)c2ccc(-c3c4nc(c(-c5ccccc5)c5ccc([nH]5)c(-c5ccccc5)c5nc(c(-c6ccccc6)c6ccc3[nH]6)C=C5)C=C4)cc2)c(C)c1NC(=O)C(=O)Nc1ccc(F)cc1
REMARK SMILES IDX 9 1 8 2 6 3 7 4 5 6 4 7 1 8 2 9 3 10 65 11 63 12 64 13 66 14
REMARK SMILES IDX 67 15 68 17 69 18 70 19 71 20 72 22 73 23 78 24 74 25 77 26
REMARK SMILES IDX 75 27 76 28 10 29 11 30 12 31 13 32 14 34 15 35 16 36 62 37
REMARK SMILES IDX 17 38 61 39 18 40 19 41 20 42 55 43 21 44 60 45 54 46 56 47
REMARK SMILES IDX 22 48 59 49 53 50 52 51 23 53 45 54 30 55 44 56 31 57 34 58
REMARK SMILES IDX 43 59 57 60 32 61 33 62 42 64 58 65 35 66 24 67 25 68 29 69
REMARK SMILES IDX 26 70 28 71 27 72 46 73 47 74 51 75 48 76 50 77 49 78 36 79
REMARK SMILES IDX 37 80 41 81 38 82 40 83 39 84
REMARK H PARENT 8 5 66 16 71 21 12 33 56 52 34 63
REMARK Flexibility Score: inf
ROOT
ATOM      1  C   UNL A   1      32.018  29.720  25.313  1.00  0.00     0.117 C 
ENDROOT
BRANCH   1   2
ATOM      2  N   UNL A   1      33.162  29.469  24.456  1.00  0.00    -0.354 N 
ATOM      3  C   UNL A   1      33.289  28.766  23.292  1.00  0.00     0.241 C 
ATOM      4  O   UNL A   1      34.398  28.818  22.745  1.00  0.00    -0.273 OA
ATOM      5  H   UNL A   1      34.000  29.879  24.771  1.00  0.00     0.163 HD
BRANCH   3   6
ATOM      6  C   UNL A   1      32.131  28.081  22.597  1.00  0.00     0.244 C 
BRANCH   6   7
ATOM      7  N   UNL A   1      32.011  26.658  22.866  1.00  0.00    -0.258 N 
ATOM      8  C   UNL A   1      33.231  23.436  22.097  1.00  0.00     0.071 C 
ATOM      9  C   UNL A   1      32.509  24.616  22.642  1.00  0.00     0.083 A 
ATOM     10  N   UNL A   1      32.846  25.832  22.218  1.00  0.00    -0.175 NA
ATOM     11  C   UNL A   1      31.438  24.653  23.590  1.00  0.00     0.086 A 
ATOM     12  C   UNL A   1      31.102  25.999  23.678  1.00  0.00     0.060 A 
ATOM     13  C   UNL A   1      30.084  26.756  24.453  1.00  0.00     0.069 C 
BRANCH  11  14
ATOM     14  N   UNL A   1      30.977  23.504  24.214  1.00  0.00    -0.315 N 
ATOM     15  C   UNL A   1      31.197  22.894  25.423  1.00  0.00     0.314 C 
ATOM     16  H   UNL A   1      30.339  23.006  23.655  1.00  0.00     0.170 HD
ATOM     17  O   UNL A   1      30.654  21.818  25.663  1.00  0.00    -0.263 OA
BRANCH  15  18
ATOM     18  C   UNL A   1      31.992  23.588  26.506  1.00  0.00     0.314 C 
ATOM     19  O   UNL A   1      31.499  23.700  27.625  1.00  0.00    -0.263 OA
ATOM     20  N   UNL A   1      33.253  24.104  26.243  1.00  0.00    -0.318 N 
ATOM     21  H   UNL A   1      33.426  25.055  26.427  1.00  0.00     0.170 HD
BRANCH  20  22
ATOM     22  C   UNL A   1      34.293  23.312  25.722  1.00  0.00     0.041 A 
ATOM     23  C   UNL A   1      35.320  24.005  25.066  1.00  0.00     0.029 A 
ATOM     24  C   UNL A   1      34.382  21.932  25.897  1.00  0.00     0.029 A 
ATOM     25  C   UNL A   1      36.486  23.343  24.700  1.00  0.00     0.041 A 
ATOM     26  C   UNL A   1      35.548  21.265  25.508  1.00  0.00     0.041 A 
ATOM     27  C   UNL A   1      36.599  21.980  24.941  1.00  0.00     0.123 A 
ATOM     28  F   UNL A   1      37.740  21.352  24.636  1.00  0.00    -0.207 F 
ENDBRANCH  20  22
ENDBRANCH  15  18
ENDBRANCH  11  14
ENDBRANCH   6   7
ENDBRANCH   3   6
ENDBRANCH   1   2
BRANCH   1  29
ATOM     29  C   UNL A   1      32.380  29.924  26.788  1.00  0.00     0.042 C 
BRANCH  29  30
ATOM     30  C   UNL A   1      33.795  30.437  26.985  1.00  0.00     0.118 C 
BRANCH  30  31
ATOM     31  N   UNL A   1      33.865  31.570  27.914  1.00  0.00    -0.352 N 
ATOM     32  C   UNL A   1      34.807  31.812  28.894  1.00  0.00     0.251 C 
ATOM     33  H   UNL A   1      33.151  32.242  27.828  1.00  0.00     0.163 HD
ATOM     34  O   UNL A   1      34.570  32.581  29.821  1.00  0.00    -0.269 OA
BRANCH  32  35
ATOM     35  C   UNL A   1      36.101  31.117  28.812  1.00  0.00     0.039 A 
ATOM     36  C   UNL A   1      37.307  31.803  28.963  1.00  0.00     0.014 A 
ATOM     37  C   UNL A   1      36.079  29.734  28.665  1.00  0.00     0.014 A 
ATOM     38  C   UNL A   1      38.483  31.064  29.072  1.00  0.00     0.010 A 
ATOM     39  C   UNL A   1      37.204  29.008  28.958  1.00  0.00     0.010 A 
ATOM     40  C   UNL A   1      38.421  29.661  29.108  1.00  0.00    -0.014 A 
BRANCH  40  41
ATOM     41  C   UNL A   1      39.614  28.868  29.377  1.00  0.00     0.031 A 
ATOM     42  C   UNL A   1      39.936  28.663  30.814  1.00  0.00     0.074 A 
ATOM     43  C   UNL A   1      40.316  28.211  28.429  1.00  0.00     0.049 A 
ATOM     44  N   UNL A   1      40.883  29.227  31.484  1.00  0.00    -0.248 NA
ATOM     45  C   UNL A   1      39.041  27.826  31.627  1.00  0.00     0.031 C 
ATOM     46  C   UNL A   1      39.997  28.015  27.010  1.00  0.00     0.029 A 
ATOM     47  N   UNL A   1      41.454  27.484  28.580  1.00  0.00    -0.354 N 
ATOM     48  C   UNL A   1      40.833  28.683  32.763  1.00  0.00     0.074 A 
ATOM     49  C   UNL A   1      39.593  27.949  32.838  1.00  0.00     0.031 C 
ATOM     50  C   UNL A   1      40.780  27.040  26.498  1.00  0.00     0.029 A 
ATOM     51  C   UNL A   1      41.781  26.695  27.489  1.00  0.00     0.049 A 
ATOM     52  H   UNL A   1      42.001  27.514  29.398  1.00  0.00     0.167 HD
ATOM     53  C   UNL A   1      41.923  28.693  33.579  1.00  0.00     0.031 A 
ATOM     54  C   UNL A   1      42.805  25.815  27.405  1.00  0.00     0.031 A 
ATOM     55  C   UNL A   1      42.961  29.554  33.070  1.00  0.00     0.049 A 
ATOM     56  C   UNL A   1      43.798  26.200  28.431  1.00  0.00     0.074 A 
ATOM     57  C   UNL A   1      43.065  30.901  32.785  1.00  0.00     0.029 A 
ATOM     58  N   UNL A   1      43.993  28.944  32.395  1.00  0.00    -0.354 N 
ATOM     59  N   UNL A   1      44.489  27.303  28.381  1.00  0.00    -0.248 NA
ATOM     60  C   UNL A   1      43.724  25.570  29.738  1.00  0.00     0.031 C 
ATOM     61  C   UNL A   1      43.840  30.962  31.588  1.00  0.00     0.029 A 
ATOM     62  C   UNL A   1      44.221  29.661  31.251  1.00  0.00     0.049 A 
ATOM     63  H   UNL A   1      44.478  28.138  32.683  1.00  0.00     0.167 HD
ATOM     64  C   UNL A   1      44.550  27.740  29.696  1.00  0.00     0.074 A 
ATOM     65  C   UNL A   1      44.169  26.576  30.495  1.00  0.00     0.031 C 
ATOM     66  C   UNL A   1      44.630  29.071  29.993  1.00  0.00     0.031 A 
BRANCH  53  67
ATOM     67  C   UNL A   1      42.226  27.632  34.606  1.00  0.00    -0.014 A 
ATOM     68  C   UNL A   1      42.736  26.394  34.169  1.00  0.00     0.009 A 
ATOM     69  C   UNL A   1      41.766  27.694  35.935  1.00  0.00     0.009 A 
ATOM     70  C   UNL A   1      42.714  25.264  34.994  1.00  0.00     0.001 A 
ATOM     71  C   UNL A   1      41.782  26.577  36.774  1.00  0.00     0.001 A 
ATOM     72  C   UNL A   1      42.228  25.354  36.294  1.00  0.00     0.000 A 
ENDBRANCH  53  67
BRANCH  54  73
ATOM     73  C   UNL A   1      42.866  24.531  26.683  1.00  0.00    -0.014 A 
ATOM     74  C   UNL A   1      43.422  24.459  25.397  1.00  0.00     0.009 A 
ATOM     75  C   UNL A   1      42.644  23.324  27.373  1.00  0.00     0.009 A 
ATOM     76  C   UNL A   1      43.796  23.227  24.844  1.00  0.00     0.001 A 
ATOM     77  C   UNL A   1      43.017  22.095  26.820  1.00  0.00     0.001 A 
ATOM     78  C   UNL A   1      43.609  22.049  25.563  1.00  0.00     0.000 A 
ENDBRANCH  54  73
BRANCH  66  79
ATOM     79  C   UNL A   1      44.923  30.031  28.865  1.00  0.00    -0.014 A 
ATOM     80  C   UNL A   1      46.221  30.458  28.529  1.00  0.00     0.009 A 
ATOM     81  C   UNL A   1      43.865  30.407  28.024  1.00  0.00     0.009 A 
ATOM     82  C   UNL A   1      46.443  31.263  27.405  1.00  0.00     0.001 A 
ATOM     83  C   UNL A   1      44.089  31.191  26.890  1.00  0.00     0.001 A 
ATOM     84  C   UNL A   1      45.377  31.625  26.584  1.00  0.00     0.000 A 
ENDBRANCH  66  79
ENDBRANCH  40  41
ENDBRANCH  32  35
ENDBRANCH  30  31
ENDBRANCH  29  30
ENDBRANCH   1  29
TORSDOF 14
ENDMDL
MODEL 2
REMARK VINA RESULT:     -12.2      2.895      7.419
REMARK SMILES Cc1nn(CC(=O)NCCCNC(=O)c2ccc(-c3c4nc(c(-c5ccccc5)c5ccc([nH]5)c(-c5ccccc5)c5nc(c(-c6ccccc6)c6ccc3[nH]6)C=C5)C=C4)cc2)c(C)c1NC(=O)C(=O)Nc1ccc(F)cc1
REMARK SMILES IDX 9 1 8 2 6 3 7 4 5 6 4 7 1 8 2 9 3 10 65 11 63 12 64 13 66 14
REMARK SMILES IDX 67 15 68 17 69 18 70 19 71 20 72 22 73 23 78 24 74 25 77 26
REMARK SMILES IDX 75 27 76 28 10 29 11 30 12 31 13 32 14 34 15 35 16 36 62 37
REMARK SMILES IDX 17 38 61 39 18 40 19 41 20 42 55 43 21 44 60 45 54 46 56 47
REMARK SMILES IDX 22 48 59 49 53 50 52 51 23 53 45 54 30 55 44 56 31 57 34 58
REMARK SMILES IDX 43 59 57 60 32 61 33 62 42 64 58 65 35 66 24 67 25 68 29 69
REMARK SMILES IDX 26 70 28 71 27 72 46 73 47 74 51 75 48 76 50 77 49 78 36 79
REMARK SMILES IDX 37 80 41 81 38 82 40 83 39 84
REMARK H PARENT 8 5 66 16 71 21 12 33 56 52 34 63
REMARK Flexibility Score: inf
ROOT
ATOM      1  C   UNL A   1      36.239  20.847  25.128  1.00  0.00     0.117 C 
ENDROOT
BRANCH   1   2
ATOM      2  N   UNL A   1      35.067  19.989  25.153  1.00  0.00    -0.354 N 
ATOM      3  C   UNL A   1      33.770  20.235  25.501  1.00  0.00     0.241 C 
ATOM      4  O   UNL A   1      32.975  19.303  25.322  1.00  0.00    -0.273 OA
ATOM      5  H   UNL A   1      35.240  19.063  24.868  1.00  0.00     0.163 HD
BRANCH   3   6
ATOM      6  C   UNL A   1      33.261  21.594  25.935  1.00  0.00     0.244 C 
BRANCH   6   7
ATOM      7  N   UNL A   1      32.894  22.484  24.848  1.00  0.00    -0.258 N 
ATOM      8  C   UNL A   1      33.285  23.207  21.414  1.00  0.00     0.071 C 
ATOM      9  C   UNL A   1      32.907  23.182  22.853  1.00  0.00     0.083 A 
ATOM     10  N   UNL A   1      33.391  22.217  23.631  1.00  0.00    -0.175 NA
ATOM     11  C   UNL A   1      32.073  24.092  23.576  1.00  0.00     0.086 A 
ATOM     12  C   UNL A   1      32.124  23.636  24.888  1.00  0.00     0.060 A 
ATOM     13  C   UNL A   1      31.513  24.099  26.163  1.00  0.00     0.069 C 
BRANCH  11  14
ATOM     14  N   UNL A   1      31.408  25.131  22.944  1.00  0.00    -0.315 N 
ATOM     15  C   UNL A   1      31.751  26.378  22.489  1.00  0.00     0.314 C 
ATOM     16  H   UNL A   1      30.459  24.923  22.782  1.00  0.00     0.170 HD
ATOM     17  O   UNL A   1      30.886  27.102  22.001  1.00  0.00    -0.263 OA
BRANCH  15  18
ATOM     18  C   UNL A   1      33.198  26.820  22.464  1.00  0.00     0.314 C 
ATOM     19  O   UNL A   1      33.726  27.064  21.382  1.00  0.00    -0.263 OA
ATOM     20  N   UNL A   1      33.926  26.938  23.639  1.00  0.00    -0.318 N 
ATOM     21  H   UNL A   1      34.770  26.438  23.729  1.00  0.00     0.170 HD
BRANCH  20  22
ATOM     22  C   UNL A   1      33.499  27.747  24.708  1.00  0.00     0.041 A 
ATOM     23  C   UNL A   1      33.015  29.015  24.360  1.00  0.00     0.029 A 
ATOM     24  C   UNL A   1      33.462  27.325  26.037  1.00  0.00     0.029 A 
ATOM     25  C   UNL A   1      32.381  29.807  25.312  1.00  0.00     0.041 A 
ATOM     26  C   UNL A   1      32.843  28.133  26.996  1.00  0.00     0.041 A 
ATOM     27  C   UNL A   1      32.284  29.350  26.619  1.00  0.00     0.123 A 
ATOM     28  F   UNL A   1      31.630  30.088  27.525  1.00  0.00    -0.207 F 
ENDBRANCH  20  22
ENDBRANCH  15  18
ENDBRANCH  11  14
ENDBRANCH   6   7
ENDBRANCH   3   6
ENDBRANCH   1   2
BRANCH   1  29
ATOM     29  C   UNL A   1      37.526  20.125  24.715  1.00  0.00     0.042 C 
BRANCH  29  30
ATOM     30  C   UNL A   1      38.705  20.454  25.614  1.00  0.00     0.118 C 
BRANCH  30  31
ATOM     31  N   UNL A   1      39.681  19.362  25.694  1.00  0.00    -0.352 N 
ATOM     32  C   UNL A   1      41.037  19.448  25.937  1.00  0.00     0.251 C 
ATOM     33  H   UNL A   1      39.325  18.455  25.557  1.00  0.00     0.163 HD
ATOM     34  O   UNL A   1      41.792  18.529  25.632  1.00  0.00    -0.269 OA
BRANCH  32  35
ATOM     35  C   UNL A   1      41.564  20.673  26.558  1.00  0.00     0.039 A 
ATOM     36  C   UNL A   1      42.023  21.742  25.787  1.00  0.00     0.014 A 
ATOM     37  C   UNL A   1      41.510  20.764  27.945  1.00  0.00     0.014 A 
ATOM     38  C   UNL A   1      42.324  22.942  26.426  1.00  0.00     0.010 A 
ATOM     39  C   UNL A   1      41.626  21.991  28.545  1.00  0.00     0.010 A 
ATOM     40  C   UNL A   1      42.085  23.073  27.805  1.00  0.00    -0.014 A 
BRANCH  40  41
ATOM     41  C   UNL A   1      42.243  24.361  28.470  1.00  0.00     0.031 A 
ATOM     42  C   UNL A   1      41.201  25.374  28.158  1.00  0.00     0.074 A 
ATOM     43  C   UNL A   1      43.158  24.609  29.431  1.00  0.00     0.049 A 
ATOM     44  N   UNL A   1      41.332  26.416  27.408  1.00  0.00    -0.248 NA
ATOM     45  C   UNL A   1      39.829  25.151  28.638  1.00  0.00     0.031 C 
ATOM     46  C   UNL A   1      44.063  23.676  30.112  1.00  0.00     0.029 A 
ATOM     47  N   UNL A   1      43.401  25.781  30.075  1.00  0.00    -0.354 N 
ATOM     48  C   UNL A   1      40.119  27.092  27.463  1.00  0.00     0.074 A 
ATOM     49  C   UNL A   1      39.188  26.194  28.103  1.00  0.00     0.031 C 
ATOM     50  C   UNL A   1      44.573  24.262  31.218  1.00  0.00     0.029 A 
ATOM     51  C   UNL A   1      44.195  25.662  31.205  1.00  0.00     0.049 A 
ATOM     52  H   UNL A   1      43.042  26.645  29.766  1.00  0.00     0.167 HD
ATOM     53  C   UNL A   1      40.036  28.421  27.182  1.00  0.00     0.031 A 
ATOM     54  C   UNL A   1      44.519  26.647  32.074  1.00  0.00     0.031 A 
ATOM     55  C   UNL A   1      41.248  28.913  26.573  1.00  0.00     0.049 A 
ATOM     56  C   UNL A   1      44.336  27.933  31.365  1.00  0.00     0.074 A 
ATOM     57  C   UNL A   1      41.947  28.632  25.417  1.00  0.00     0.029 A 
ATOM     58  N   UNL A   1      42.130  29.569  27.399  1.00  0.00    -0.354 N 
ATOM     59  N   UNL A   1      45.076  28.310  30.363  1.00  0.00    -0.248 NA
ATOM     60  C   UNL A   1      43.060  28.616  31.491  1.00  0.00     0.031 C 
ATOM     61  C   UNL A   1      43.321  28.699  25.796  1.00  0.00     0.029 A 
ATOM     62  C   UNL A   1      43.383  29.082  27.137  1.00  0.00     0.049 A 
ATOM     63  H   UNL A   1      41.901  30.263  28.058  1.00  0.00     0.167 HD
ATOM     64  C   UNL A   1      44.195  28.931  29.490  1.00  0.00     0.074 A 
ATOM     65  C   UNL A   1      43.000  29.195  30.289  1.00  0.00     0.031 C 
ATOM     66  C   UNL A   1      44.414  28.917  28.141  1.00  0.00     0.031 A 
BRANCH  53  67
ATOM     67  C   UNL A   1      39.045  29.365  27.814  1.00  0.00    -0.014 A 
ATOM     68  C   UNL A   1      39.242  29.753  29.153  1.00  0.00     0.009 A 
ATOM     69  C   UNL A   1      37.789  29.653  27.250  1.00  0.00     0.009 A 
ATOM     70  C   UNL A   1      38.211  30.328  29.906  1.00  0.00     0.001 A 
ATOM     71  C   UNL A   1      36.771  30.265  27.986  1.00  0.00     0.001 A 
ATOM     72  C   UNL A   1      36.973  30.576  29.323  1.00  0.00     0.000 A 
ENDBRANCH  53  67
BRANCH  54  73
ATOM     73  C   UNL A   1      44.727  26.565  33.531  1.00  0.00    -0.014 A 
ATOM     74  C   UNL A   1      43.752  25.993  34.362  1.00  0.00     0.009 A 
ATOM     75  C   UNL A   1      46.009  26.783  34.072  1.00  0.00     0.009 A 
ATOM     76  C   UNL A   1      44.063  25.602  35.670  1.00  0.00     0.001 A 
ATOM     77  C   UNL A   1      46.318  26.392  35.379  1.00  0.00     0.001 A 
ATOM     78  C   UNL A   1      45.350  25.785  36.171  1.00  0.00     0.000 A 
ENDBRANCH  54  73
BRANCH  66  79
ATOM     79  C   UNL A   1      45.763  28.452  27.647  1.00  0.00    -0.014 A 
ATOM     80  C   UNL A   1      46.046  27.115  27.311  1.00  0.00     0.009 A 
ATOM     81  C   UNL A   1      46.740  29.422  27.380  1.00  0.00     0.009 A 
ATOM     82  C   UNL A   1      47.282  26.761  26.756  1.00  0.00     0.001 A 
ATOM     83  C   UNL A   1      47.964  29.073  26.806  1.00  0.00     0.001 A 
ATOM     84  C   UNL A   1      48.238  27.742  26.500  1.00  0.00     0.000 A 
ENDBRANCH  66  79
ENDBRANCH  40  41
ENDBRANCH  32  35
ENDBRANCH  30  31
ENDBRANCH  29  30
ENDBRANCH   1  29
TORSDOF 14
ENDMDL
MODEL 3
REMARK VINA RESULT:     -12.2      2.639      7.664
REMARK SMILES Cc1nn(CC(=O)NCCCNC(=O)c2ccc(-c3c4nc(c(-c5ccccc5)c5ccc([nH]5)c(-c5ccccc5)c5nc(c(-c6ccccc6)c6ccc3[nH]6)C=C5)C=C4)cc2)c(C)c1NC(=O)C(=O)Nc1ccc(F)cc1
REMARK SMILES IDX 9 1 8 2 6 3 7 4 5 6 4 7 1 8 2 9 3 10 65 11 63 12 64 13 66 14
REMARK SMILES IDX 67 15 68 17 69 18 70 19 71 20 72 22 73 23 78 24 74 25 77 26
REMARK SMILES IDX 75 27 76 28 10 29 11 30 12 31 13 32 14 34 15 35 16 36 62 37
REMARK SMILES IDX 17 38 61 39 18 40 19 41 20 42 55 43 21 44 60 45 54 46 56 47
REMARK SMILES IDX 22 48 59 49 53 50 52 51 23 53 45 54 30 55 44 56 31 57 34 58
REMARK SMILES IDX 43 59 57 60 32 61 33 62 42 64 58 65 35 66 24 67 25 68 29 69
REMARK SMILES IDX 26 70 28 71 27 72 46 73 47 74 51 75 48 76 50 77 49 78 36 79
REMARK SMILES IDX 37 80 41 81 38 82 40 83 39 84
REMARK H PARENT 8 5 66 16 71 21 12 33 56 52 34 63
REMARK Flexibility Score: inf
ROOT
ATOM      1  C   UNL A   1      35.790  21.014  25.007  1.00  0.00     0.117 C 
ENDROOT
BRANCH   1   2
ATOM      2  N   UNL A   1      35.185  21.391  26.272  1.00  0.00    -0.354 N 
ATOM      3  C   UNL A   1      33.882  21.554  26.642  1.00  0.00     0.241 C 
ATOM      4  O   UNL A   1      33.684  21.794  27.840  1.00  0.00    -0.273 OA
ATOM      5  H   UNL A   1      35.833  21.559  26.993  1.00  0.00     0.163 HD
BRANCH   3   6
ATOM      6  C   UNL A   1      32.710  21.313  25.713  1.00  0.00     0.244 C 
BRANCH   6   7
ATOM      7  N   UNL A   1      32.065  22.517  25.218  1.00  0.00    -0.258 N 
ATOM      8  C   UNL A   1      29.999  25.261  26.031  1.00  0.00     0.071 C 
ATOM      9  C   UNL A   1      30.875  24.256  25.371  1.00  0.00     0.083 A 
ATOM     10  N   UNL A   1      31.347  23.241  26.089  1.00  0.00    -0.175 NA
ATOM     11  C   UNL A   1      31.298  24.195  24.005  1.00  0.00     0.086 A 
ATOM     12  C   UNL A   1      32.035  23.020  23.926  1.00  0.00     0.060 A 
ATOM     13  C   UNL A   1      32.755  22.329  22.823  1.00  0.00     0.069 C 
BRANCH  11  14
ATOM     14  N   UNL A   1      30.979  25.194  23.098  1.00  0.00    -0.315 N 
ATOM     15  C   UNL A   1      31.662  26.214  22.488  1.00  0.00     0.314 C 
ATOM     16  H   UNL A   1      30.033  25.162  22.827  1.00  0.00     0.170 HD
ATOM     17  O   UNL A   1      31.058  26.985  21.745  1.00  0.00    -0.263 OA
BRANCH  15  18
ATOM     18  C   UNL A   1      33.166  26.323  22.616  1.00  0.00     0.314 C 
ATOM     19  O   UNL A   1      33.848  26.355  21.595  1.00  0.00    -0.263 OA
ATOM     20  N   UNL A   1      33.771  26.372  23.864  1.00  0.00    -0.318 N 
ATOM     21  H   UNL A   1      34.464  25.708  24.083  1.00  0.00     0.170 HD
BRANCH  20  22
ATOM     22  C   UNL A   1      33.428  27.340  24.826  1.00  0.00     0.041 A 
ATOM     23  C   UNL A   1      33.239  28.642  24.344  1.00  0.00     0.029 A 
ATOM     24  C   UNL A   1      33.196  27.052  26.170  1.00  0.00     0.029 A 
ATOM     25  C   UNL A   1      32.701  29.622  25.171  1.00  0.00     0.041 A 
ATOM     26  C   UNL A   1      32.674  28.045  27.005  1.00  0.00     0.041 A 
ATOM     27  C   UNL A   1      32.405  29.310  26.491  1.00  0.00     0.123 A 
ATOM     28  F   UNL A   1      31.840  30.237  27.273  1.00  0.00    -0.207 F 
ENDBRANCH  20  22
ENDBRANCH  15  18
ENDBRANCH  11  14
ENDBRANCH   6   7
ENDBRANCH   3   6
ENDBRANCH   1   2
BRANCH   1  29
ATOM     29  C   UNL A   1      36.919  21.946  24.556  1.00  0.00     0.042 C 
BRANCH  29  30
ATOM     30  C   UNL A   1      37.800  22.408  25.703  1.00  0.00     0.118 C 
BRANCH  30  31
ATOM     31  N   UNL A   1      39.011  21.594  25.853  1.00  0.00    -0.352 N 
ATOM     32  C   UNL A   1      40.249  21.986  26.322  1.00  0.00     0.251 C 
ATOM     33  H   UNL A   1      38.931  20.650  25.586  1.00  0.00     0.163 HD
ATOM     34  O   UNL A   1      41.256  21.329  26.072  1.00  0.00    -0.269 OA
BRANCH  32  35
ATOM     35  C   UNL A   1      40.341  23.219  27.119  1.00  0.00     0.039 A 
ATOM     36  C   UNL A   1      41.417  23.454  27.976  1.00  0.00     0.014 A 
ATOM     37  C   UNL A   1      39.359  24.185  26.924  1.00  0.00     0.014 A 
ATOM     38  C   UNL A   1      41.547  24.716  28.550  1.00  0.00     0.010 A 
ATOM     39  C   UNL A   1      39.589  25.471  27.337  1.00  0.00     0.010 A 
ATOM     40  C   UNL A   1      40.648  25.736  28.195  1.00  0.00    -0.014 A 
BRANCH  40  41
ATOM     41  C   UNL A   1      40.852  27.104  28.657  1.00  0.00     0.031 A 
ATOM     42  C   UNL A   1      41.907  27.870  27.944  1.00  0.00     0.074 A 
ATOM     43  C   UNL A   1      40.056  27.726  29.553  1.00  0.00     0.049 A 
ATOM     44  N   UNL A   1      43.078  28.177  28.390  1.00  0.00    -0.248 NA
ATOM     45  C   UNL A   1      41.684  28.243  26.539  1.00  0.00     0.031 C 
ATOM     46  C   UNL A   1      38.787  27.273  30.136  1.00  0.00     0.029 A 
ATOM     47  N   UNL A   1      40.190  28.977  30.067  1.00  0.00    -0.354 N 
ATOM     48  C   UNL A   1      43.683  28.944  27.402  1.00  0.00     0.074 A 
ATOM     49  C   UNL A   1      42.849  28.822  26.231  1.00  0.00     0.031 C 
ATOM     50  C   UNL A   1      38.161  28.316  30.726  1.00  0.00     0.029 A 
ATOM     51  C   UNL A   1      39.071  29.444  30.739  1.00  0.00     0.049 A 
ATOM     52  H   UNL A   1      41.013  29.508  29.971  1.00  0.00     0.167 HD
ATOM     53  C   UNL A   1      44.702  29.799  27.694  1.00  0.00     0.031 A 
ATOM     54  C   UNL A   1      38.903  30.677  31.269  1.00  0.00     0.031 A 
ATOM     55  C   UNL A   1      45.216  29.580  29.024  1.00  0.00     0.049 A 
ATOM     56  C   UNL A   1      40.250  31.252  31.476  1.00  0.00     0.074 A 
ATOM     57  C   UNL A   1      45.810  28.523  29.682  1.00  0.00     0.029 A 
ATOM     58  N   UNL A   1      44.772  30.436  30.005  1.00  0.00    -0.354 N 
ATOM     59  N   UNL A   1      41.103  30.786  32.343  1.00  0.00    -0.248 NA
ATOM     60  C   UNL A   1      40.818  32.080  30.426  1.00  0.00     0.031 C 
ATOM     61  C   UNL A   1      45.268  28.563  31.002  1.00  0.00     0.029 A 
ATOM     62  C   UNL A   1      44.430  29.677  31.093  1.00  0.00     0.049 A 
ATOM     63  H   UNL A   1      44.711  31.415  29.937  1.00  0.00     0.167 HD
ATOM     64  C   UNL A   1      42.333  30.876  31.709  1.00  0.00     0.074 A 
ATOM     65  C   UNL A   1      42.111  31.787  30.588  1.00  0.00     0.031 C 
ATOM     66  C   UNL A   1      43.335  29.989  31.987  1.00  0.00     0.031 A 
BRANCH  53  67
ATOM     67  C   UNL A   1      44.966  31.090  26.962  1.00  0.00    -0.014 A 
ATOM     68  C   UNL A   1      46.292  31.556  26.870  1.00  0.00     0.009 A 
ATOM     69  C   UNL A   1      43.950  32.000  26.615  1.00  0.00     0.009 A 
ATOM     70  C   UNL A   1      46.578  32.882  26.525  1.00  0.00     0.001 A 
ATOM     71  C   UNL A   1      44.235  33.313  26.229  1.00  0.00     0.001 A 
ATOM     72  C   UNL A   1      45.547  33.762  26.213  1.00  0.00     0.000 A 
ENDBRANCH  53  67
BRANCH  54  73
ATOM     73  C   UNL A   1      37.671  31.482  31.370  1.00  0.00    -0.014 A 
ATOM     74  C   UNL A   1      36.895  31.747  30.232  1.00  0.00     0.009 A 
ATOM     75  C   UNL A   1      37.102  31.742  32.631  1.00  0.00     0.009 A 
ATOM     76  C   UNL A   1      35.576  32.204  30.353  1.00  0.00     0.001 A 
ATOM     77  C   UNL A   1      35.786  32.199  32.751  1.00  0.00     0.001 A 
ATOM     78  C   UNL A   1      35.017  32.412  31.611  1.00  0.00     0.000 A 
ENDBRANCH  54  73
BRANCH  66  79
ATOM     79  C   UNL A   1      43.168  29.086  33.186  1.00  0.00    -0.014 A 
ATOM     80  C   UNL A   1      43.670  29.394  34.463  1.00  0.00     0.009 A 
ATOM     81  C   UNL A   1      42.354  27.951  33.050  1.00  0.00     0.009 A 
ATOM     82  C   UNL A   1      43.390  28.572  35.562  1.00  0.00     0.001 A 
ATOM     83  C   UNL A   1      42.057  27.143  34.150  1.00  0.00     0.001 A 
ATOM     84  C   UNL A   1      42.580  27.449  35.404  1.00  0.00     0.000 A 
ENDBRANCH  66  79
ENDBRANCH  40  41
ENDBRANCH  32  35
ENDBRANCH  30  31
ENDBRANCH  29  30
ENDBRANCH   1  29
TORSDOF 14
ENDMDL
