MODEL 1
REMARK VINA RESULT:     -11.9      0.000      0.000
REMARK SMILES Cc1cc(F)c(-c2ccc(F)c(C(=O)NCCCNC(=O)c3ccc(-c4c5nc(c(-c6ccccc6)c6ccc([nH]6)c(-c6ccccc6)c6nc(c(-c7ccccc7)c7ccc4[nH]7)C=C6)C=C5)cc3)c2)cc1F
REMARK SMILES IDX 17 1 16 2 15 3 13 4 14 5 12 7 7 8 8 9 70 10 9 11 10 12 11 13
REMARK SMILES IDX 6 14 1 15 2 16 3 17 72 18 4 19 71 20 73 21 5 22 18 23 19 24
REMARK SMILES IDX 20 25 21 27 22 28 23 29 69 30 24 31 68 32 25 33 26 34 27 35
REMARK SMILES IDX 62 36 28 37 67 38 61 39 63 40 29 41 66 42 60 43 59 44 30 46
REMARK SMILES IDX 52 47 37 48 51 49 38 50 41 51 50 52 64 53 39 54 40 55 49 57
REMARK SMILES IDX 65 58 42 59 31 60 32 61 36 62 33 63 35 64 34 65 53 66 54 67
REMARK SMILES IDX 58 68 55 69 57 70 56 71 43 72 44 73 48 74 45 75 47 76 46 77
REMARK H PARENT 15 6 19 26 63 45 41 56
REMARK Flexibility Score: inf
ROOT
ATOM      1  C   UNL A   1      37.468  20.044  24.846  1.00  0.00     0.042 C 
ENDROOT
BRANCH   1   2
ATOM      2  C   UNL A   1      36.315  21.035  24.842  1.00  0.00     0.118 C 
BRANCH   2   3
ATOM      3  N   UNL A   1      35.585  21.102  26.102  1.00  0.00    -0.352 N 
ATOM      4  C   UNL A   1      34.431  21.720  26.530  1.00  0.00     0.254 C 
ATOM      5  O   UNL A   1      34.101  21.510  27.697  1.00  0.00    -0.269 OA
ATOM      6  H   UNL A   1      36.020  20.583  26.817  1.00  0.00     0.163 HD
BRANCH   4   7
ATOM      7  C   UNL A   1      33.615  22.629  25.686  1.00  0.00     0.076 A 
ATOM      8  C   UNL A   1      32.794  24.872  25.128  1.00  0.00    -0.014 A 
ATOM      9  C   UNL A   1      31.864  24.291  24.252  1.00  0.00     0.012 A 
ATOM     10  C   UNL A   1      33.737  24.021  25.732  1.00  0.00     0.025 A 
ATOM     11  C   UNL A   1      31.823  22.909  24.071  1.00  0.00     0.041 A 
ATOM     12  C   UNL A   1      32.666  22.086  24.817  1.00  0.00     0.135 A 
ATOM     13  F   UNL A   1      32.510  20.761  24.681  1.00  0.00    -0.206 F 
BRANCH   8  14
ATOM     14  C   UNL A   1      32.704  26.293  25.530  1.00  0.00     0.020 A 
ATOM     15  C   UNL A   1      32.582  30.376  27.014  1.00  0.00     0.047 C 
ATOM     16  C   UNL A   1      32.647  28.965  26.518  1.00  0.00    -0.012 A 
ATOM     17  C   UNL A   1      33.464  28.623  25.437  1.00  0.00     0.046 A 
ATOM     18  C   UNL A   1      31.856  27.970  27.088  1.00  0.00     0.126 A 
ATOM     19  C   UNL A   1      33.489  27.308  24.960  1.00  0.00     0.131 A 
ATOM     20  C   UNL A   1      31.886  26.659  26.616  1.00  0.00     0.051 A 
ATOM     21  F   UNL A   1      31.061  28.257  28.128  1.00  0.00    -0.207 F 
ATOM     22  F   UNL A   1      34.312  27.035  23.935  1.00  0.00    -0.206 F 
ENDBRANCH   8  14
ENDBRANCH   4   7
ENDBRANCH   2   3
ENDBRANCH   1   2
BRANCH   1  23
ATOM     23  C   UNL A   1      38.637  20.450  25.728  1.00  0.00     0.118 C 
BRANCH  23  24
ATOM     24  N   UNL A   1      39.739  19.494  25.700  1.00  0.00    -0.352 N 
ATOM     25  C   UNL A   1      41.078  19.622  25.997  1.00  0.00     0.251 C 
ATOM     26  H   UNL A   1      39.477  18.590  25.415  1.00  0.00     0.163 HD
ATOM     27  O   UNL A   1      41.842  18.702  25.734  1.00  0.00    -0.269 OA
BRANCH  25  28
ATOM     28  C   UNL A   1      41.616  20.871  26.585  1.00  0.00     0.039 A 
ATOM     29  C   UNL A   1      41.610  21.084  27.960  1.00  0.00     0.014 A 
ATOM     30  C   UNL A   1      42.155  21.849  25.741  1.00  0.00     0.014 A 
ATOM     31  C   UNL A   1      41.907  22.342  28.467  1.00  0.00     0.010 A 
ATOM     32  C   UNL A   1      42.580  23.075  26.269  1.00  0.00     0.010 A 
ATOM     33  C   UNL A   1      42.397  23.357  27.631  1.00  0.00    -0.014 A 
BRANCH  33  34
ATOM     34  C   UNL A   1      42.710  24.689  28.215  1.00  0.00     0.031 A 
ATOM     35  C   UNL A   1      44.130  25.092  28.510  1.00  0.00     0.074 A 
ATOM     36  C   UNL A   1      41.709  25.574  28.406  1.00  0.00     0.049 A 
ATOM     37  N   UNL A   1      44.581  26.231  28.975  1.00  0.00    -0.248 NA
ATOM     38  C   UNL A   1      45.183  24.095  28.259  1.00  0.00     0.031 C 
ATOM     39  C   UNL A   1      40.292  25.311  28.139  1.00  0.00     0.029 A 
ATOM     40  N   UNL A   1      41.730  26.881  28.823  1.00  0.00    -0.354 N 
ATOM     41  C   UNL A   1      45.957  26.078  29.094  1.00  0.00     0.074 A 
ATOM     42  C   UNL A   1      46.270  24.729  28.680  1.00  0.00     0.031 C 
ATOM     43  C   UNL A   1      39.595  26.441  28.320  1.00  0.00     0.029 A 
ATOM     44  C   UNL A   1      40.495  27.484  28.798  1.00  0.00     0.049 A 
ATOM     45  H   UNL A   1      42.551  27.342  29.112  1.00  0.00     0.167 HD
ATOM     46  C   UNL A   1      46.877  26.984  29.502  1.00  0.00     0.031 A 
ATOM     47  C   UNL A   1      40.117  28.732  29.132  1.00  0.00     0.031 A 
ATOM     48  C   UNL A   1      46.566  28.334  29.892  1.00  0.00     0.049 A 
ATOM     49  C   UNL A   1      41.150  29.704  29.620  1.00  0.00     0.074 A 
ATOM     50  C   UNL A   1      47.439  29.330  30.295  1.00  0.00     0.029 A 
ATOM     51  N   UNL A   1      45.293  28.879  29.922  1.00  0.00    -0.354 N 
ATOM     52  N   UNL A   1      42.447  29.539  29.724  1.00  0.00    -0.248 NA
ATOM     53  C   UNL A   1      40.673  31.027  30.043  1.00  0.00     0.031 C 
ATOM     54  C   UNL A   1      46.686  30.458  30.631  1.00  0.00     0.029 A 
ATOM     55  C   UNL A   1      45.354  30.188  30.368  1.00  0.00     0.049 A 
ATOM     56  H   UNL A   1      44.469  28.406  29.666  1.00  0.00     0.167 HD
ATOM     57  C   UNL A   1      42.941  30.739  30.217  1.00  0.00     0.074 A 
ATOM     58  C   UNL A   1      41.809  31.630  30.368  1.00  0.00     0.031 C 
ATOM     59  C   UNL A   1      44.220  31.065  30.522  1.00  0.00     0.031 A 
BRANCH  46  60
ATOM     60  C   UNL A   1      48.318  26.555  29.567  1.00  0.00    -0.014 A 
ATOM     61  C   UNL A   1      48.822  25.994  30.751  1.00  0.00     0.009 A 
ATOM     62  C   UNL A   1      49.201  26.796  28.503  1.00  0.00     0.009 A 
ATOM     63  C   UNL A   1      50.180  25.696  30.876  1.00  0.00     0.001 A 
ATOM     64  C   UNL A   1      50.554  26.471  28.619  1.00  0.00     0.001 A 
ATOM     65  C   UNL A   1      51.044  25.932  29.808  1.00  0.00     0.000 A 
ENDBRANCH  46  60
BRANCH  47  66
ATOM     66  C   UNL A   1      38.684  29.113  29.015  1.00  0.00    -0.014 A 
ATOM     67  C   UNL A   1      38.184  29.640  27.812  1.00  0.00     0.009 A 
ATOM     68  C   UNL A   1      37.826  29.020  30.121  1.00  0.00     0.009 A 
ATOM     69  C   UNL A   1      36.870  30.101  27.728  1.00  0.00     0.001 A 
ATOM     70  C   UNL A   1      36.500  29.452  30.024  1.00  0.00     0.001 A 
ATOM     71  C   UNL A   1      36.028  30.004  28.833  1.00  0.00     0.000 A 
ENDBRANCH  47  66
BRANCH  59  72
ATOM     72  C   UNL A   1      44.484  32.446  31.050  1.00  0.00    -0.014 A 
ATOM     73  C   UNL A   1      44.810  33.482  30.159  1.00  0.00     0.009 A 
ATOM     74  C   UNL A   1      44.520  32.698  32.429  1.00  0.00     0.009 A 
ATOM     75  C   UNL A   1      45.183  34.738  30.640  1.00  0.00     0.001 A 
ATOM     76  C   UNL A   1      44.864  33.964  32.906  1.00  0.00     0.001 A 
ATOM     77  C   UNL A   1      45.207  34.978  32.012  1.00  0.00     0.000 A 
ENDBRANCH  59  72
ENDBRANCH  33  34
ENDBRANCH  25  28
ENDBRANCH  23  24
ENDBRANCH   1  23
TORSDOF 11
ENDMDL
MODEL 2
REMARK VINA RESULT:     -11.8      0.226      6.012
REMARK SMILES Cc1cc(F)c(-c2ccc(F)c(C(=O)NCCCNC(=O)c3ccc(-c4c5nc(c(-c6ccccc6)c6ccc([nH]6)c(-c6ccccc6)c6nc(c(-c7ccccc7)c7ccc4[nH]7)C=C6)C=C5)cc3)c2)cc1F
REMARK SMILES IDX 17 1 16 2 15 3 13 4 14 5 12 7 7 8 8 9 70 10 9 11 10 12 11 13
REMARK SMILES IDX 6 14 1 15 2 16 3 17 72 18 4 19 71 20 73 21 5 22 18 23 19 24
REMARK SMILES IDX 20 25 21 27 22 28 23 29 69 30 24 31 68 32 25 33 26 34 27 35
REMARK SMILES IDX 62 36 28 37 67 38 61 39 63 40 29 41 66 42 60 43 59 44 30 46
REMARK SMILES IDX 52 47 37 48 51 49 38 50 41 51 50 52 64 53 39 54 40 55 49 57
REMARK SMILES IDX 65 58 42 59 31 60 32 61 36 62 33 63 35 64 34 65 53 66 54 67
REMARK SMILES IDX 58 68 55 69 57 70 56 71 43 72 44 73 48 74 45 75 47 76 46 77
REMARK H PARENT 15 6 19 26 63 45 41 56
REMARK Flexibility Score: inf
ROOT
ATOM      1  C   UNL A   1      37.461  20.022  24.902  1.00  0.00     0.042 C 
ENDROOT
BRANCH   1   2
ATOM      2  C   UNL A   1      36.302  21.005  24.854  1.00  0.00     0.118 C 
BRANCH   2   3
ATOM      3  N   UNL A   1      35.573  21.127  26.112  1.00  0.00    -0.352 N 
ATOM      4  C   UNL A   1      34.442  21.793  26.524  1.00  0.00     0.254 C 
ATOM      5  O   UNL A   1      34.104  21.622  27.695  1.00  0.00    -0.269 OA
ATOM      6  H   UNL A   1      35.990  20.609  26.840  1.00  0.00     0.163 HD
BRANCH   4   7
ATOM      7  C   UNL A   1      33.658  22.711  25.658  1.00  0.00     0.076 A 
ATOM      8  C   UNL A   1      32.852  24.958  25.096  1.00  0.00    -0.014 A 
ATOM      9  C   UNL A   1      31.963  24.386  24.173  1.00  0.00     0.012 A 
ATOM     10  C   UNL A   1      33.771  24.103  25.728  1.00  0.00     0.025 A 
ATOM     11  C   UNL A   1      31.937  23.006  23.971  1.00  0.00     0.041 A 
ATOM     12  C   UNL A   1      32.751  22.176  24.740  1.00  0.00     0.135 A 
ATOM     13  F   UNL A   1      32.607  20.853  24.580  1.00  0.00    -0.206 F 
BRANCH   8  14
ATOM     14  C   UNL A   1      32.737  26.372  25.514  1.00  0.00     0.020 A 
ATOM     15  C   UNL A   1      32.547  30.437  27.042  1.00  0.00     0.047 C 
ATOM     16  C   UNL A   1      32.635  29.032  26.531  1.00  0.00    -0.012 A 
ATOM     17  C   UNL A   1      33.449  28.718  25.439  1.00  0.00     0.046 A 
ATOM     18  C   UNL A   1      31.869  28.016  27.098  1.00  0.00     0.126 A 
ATOM     19  C   UNL A   1      33.495  27.409  24.947  1.00  0.00     0.131 A 
ATOM     20  C   UNL A   1      31.921  26.711  26.611  1.00  0.00     0.051 A 
ATOM     21  F   UNL A   1      31.078  28.276  28.147  1.00  0.00    -0.207 F 
ATOM     22  F   UNL A   1      34.315  27.163  23.913  1.00  0.00    -0.206 F 
ENDBRANCH   8  14
ENDBRANCH   4   7
ENDBRANCH   2   3
ENDBRANCH   1   2
BRANCH   1  23
ATOM     23  C   UNL A   1      38.662  20.510  25.695  1.00  0.00     0.118 C 
BRANCH  23  24
ATOM     24  N   UNL A   1      39.748  19.537  25.754  1.00  0.00    -0.352 N 
ATOM     25  C   UNL A   1      41.082  19.663  26.069  1.00  0.00     0.251 C 
ATOM     26  H   UNL A   1      39.474  18.619  25.525  1.00  0.00     0.163 HD
ATOM     27  O   UNL A   1      41.835  18.715  25.885  1.00  0.00    -0.269 OA
BRANCH  25  28
ATOM     28  C   UNL A   1      41.630  20.940  26.584  1.00  0.00     0.039 A 
ATOM     29  C   UNL A   1      41.637  21.227  27.944  1.00  0.00     0.014 A 
ATOM     30  C   UNL A   1      42.165  21.868  25.683  1.00  0.00     0.014 A 
ATOM     31  C   UNL A   1      41.944  22.510  28.379  1.00  0.00     0.010 A 
ATOM     32  C   UNL A   1      42.600  23.119  26.139  1.00  0.00     0.010 A 
ATOM     33  C   UNL A   1      42.431  23.475  27.485  1.00  0.00    -0.014 A 
BRANCH  33  34
ATOM     34  C   UNL A   1      42.754  24.836  27.992  1.00  0.00     0.031 A 
ATOM     35  C   UNL A   1      41.668  25.854  28.224  1.00  0.00     0.074 A 
ATOM     36  C   UNL A   1      44.029  25.130  28.320  1.00  0.00     0.049 A 
ATOM     37  N   UNL A   1      41.771  27.068  28.706  1.00  0.00    -0.248 NA
ATOM     38  C   UNL A   1      40.292  25.470  27.871  1.00  0.00     0.031 C 
ATOM     39  C   UNL A   1      45.169  24.222  28.161  1.00  0.00     0.029 A 
ATOM     40  N   UNL A   1      44.576  26.250  28.895  1.00  0.00    -0.354 N 
ATOM     41  C   UNL A   1      40.486  27.597  28.689  1.00  0.00     0.074 A 
ATOM     42  C   UNL A   1      39.620  26.585  28.125  1.00  0.00     0.031 C 
ATOM     43  C   UNL A   1      46.258  24.787  28.699  1.00  0.00     0.029 A 
ATOM     44  C   UNL A   1      45.919  26.127  29.163  1.00  0.00     0.049 A 
ATOM     45  H   UNL A   1      44.056  27.062  29.096  1.00  0.00     0.167 HD
ATOM     46  C   UNL A   1      40.065  28.811  29.114  1.00  0.00     0.031 A 
ATOM     47  C   UNL A   1      46.791  26.996  29.708  1.00  0.00     0.031 A 
ATOM     48  C   UNL A   1      40.924  29.808  29.696  1.00  0.00     0.049 A 
ATOM     49  C   UNL A   1      46.306  28.350  30.134  1.00  0.00     0.074 A 
ATOM     50  C   UNL A   1      40.578  31.059  30.179  1.00  0.00     0.029 A 
ATOM     51  N   UNL A   1      42.290  29.670  29.880  1.00  0.00    -0.354 N 
ATOM     52  N   UNL A   1      45.086  28.830  30.110  1.00  0.00    -0.248 NA
ATOM     53  C   UNL A   1      47.313  29.286  30.653  1.00  0.00     0.031 C 
ATOM     54  C   UNL A   1      41.746  31.702  30.596  1.00  0.00     0.029 A 
ATOM     55  C   UNL A   1      42.807  30.826  30.440  1.00  0.00     0.049 A 
ATOM     56  H   UNL A   1      42.815  28.871  29.646  1.00  0.00     0.167 HD
ATOM     57  C   UNL A   1      45.176  30.119  30.617  1.00  0.00     0.074 A 
ATOM     58  C   UNL A   1      46.566  30.338  30.962  1.00  0.00     0.031 C 
ATOM     59  C   UNL A   1      44.193  31.037  30.773  1.00  0.00     0.031 A 
BRANCH  46  60
ATOM     60  C   UNL A   1      38.607  29.152  28.960  1.00  0.00    -0.014 A 
ATOM     61  C   UNL A   1      38.139  29.656  27.736  1.00  0.00     0.009 A 
ATOM     62  C   UNL A   1      37.720  29.075  30.044  1.00  0.00     0.009 A 
ATOM     63  C   UNL A   1      36.819  30.090  27.603  1.00  0.00     0.001 A 
ATOM     64  C   UNL A   1      36.391  29.483  29.901  1.00  0.00     0.001 A 
ATOM     65  C   UNL A   1      35.945  30.000  28.686  1.00  0.00     0.000 A 
ENDBRANCH  46  60
BRANCH  47  66
ATOM     66  C   UNL A   1      48.213  26.592  29.870  1.00  0.00    -0.014 A 
ATOM     67  C   UNL A   1      49.142  26.832  28.842  1.00  0.00     0.009 A 
ATOM     68  C   UNL A   1      48.635  25.902  31.016  1.00  0.00     0.009 A 
ATOM     69  C   UNL A   1      50.451  26.357  28.941  1.00  0.00     0.001 A 
ATOM     70  C   UNL A   1      49.955  25.457  31.125  1.00  0.00     0.001 A 
ATOM     71  C   UNL A   1      50.857  25.673  30.084  1.00  0.00     0.000 A 
ENDBRANCH  47  66
BRANCH  59  72
ATOM     72  C   UNL A   1      44.568  32.374  31.347  1.00  0.00    -0.014 A 
ATOM     73  C   UNL A   1      44.484  32.585  32.734  1.00  0.00     0.009 A 
ATOM     74  C   UNL A   1      44.895  33.452  30.513  1.00  0.00     0.009 A 
ATOM     75  C   UNL A   1      44.703  33.854  33.271  1.00  0.00     0.001 A 
ATOM     76  C   UNL A   1      45.144  34.714  31.056  1.00  0.00     0.001 A 
ATOM     77  C   UNL A   1      45.036  34.916  32.432  1.00  0.00     0.000 A 
ENDBRANCH  59  72
ENDBRANCH  33  34
ENDBRANCH  25  28
ENDBRANCH  23  24
ENDBRANCH   1  23
TORSDOF 11
ENDMDL
MODEL 3
REMARK VINA RESULT:     -11.8      2.503      7.011
REMARK SMILES Cc1cc(F)c(-c2ccc(F)c(C(=O)NCCCNC(=O)c3ccc(-c4c5nc(c(-c6ccccc6)c6ccc([nH]6)c(-c6ccccc6)c6nc(c(-c7ccccc7)c7ccc4[nH]7)C=C6)C=C5)cc3)c2)cc1F
REMARK SMILES IDX 17 1 16 2 15 3 13 4 14 5 12 7 7 8 8 9 70 10 9 11 10 12 11 13
REMARK SMILES IDX 6 14 1 15 2 16 3 17 72 18 4 19 71 20 73 21 5 22 18 23 19 24
REMARK SMILES IDX 20 25 21 27 22 28 23 29 69 30 24 31 68 32 25 33 26 34 27 35
REMARK SMILES IDX 62 36 28 37 67 38 61 39 63 40 29 41 66 42 60 43 59 44 30 46
REMARK SMILES IDX 52 47 37 48 51 49 38 50 41 51 50 52 64 53 39 54 40 55 49 57
REMARK SMILES IDX 65 58 42 59 31 60 32 61 36 62 33 63 35 64 34 65 53 66 54 67
REMARK SMILES IDX 58 68 55 69 57 70 56 71 43 72 44 73 48 74 45 75 47 76 46 77
REMARK H PARENT 15 6 19 26 63 45 41 56
REMARK Flexibility Score: inf
ROOT
ATOM      1  C   UNL A   1      36.279  23.343  26.110  1.00  0.00     0.042 C 
ENDROOT
BRANCH   1   2
ATOM      2  C   UNL A   1      35.405  22.106  26.243  1.00  0.00     0.118 C 
BRANCH   2   3
ATOM      3  N   UNL A   1      34.030  22.390  26.636  1.00  0.00    -0.352 N 
ATOM      4  C   UNL A   1      33.098  23.348  26.305  1.00  0.00     0.254 C 
ATOM      5  O   UNL A   1      31.992  23.239  26.835  1.00  0.00    -0.269 OA
ATOM      6  H   UNL A   1      33.685  21.743  27.295  1.00  0.00     0.163 HD
BRANCH   4   7
ATOM      7  C   UNL A   1      33.371  24.492  25.397  1.00  0.00     0.076 A 
ATOM      8  C   UNL A   1      33.375  26.898  24.927  1.00  0.00    -0.014 A 
ATOM      9  C   UNL A   1      33.640  26.613  23.579  1.00  0.00     0.012 A 
ATOM     10  C   UNL A   1      33.372  25.820  25.830  1.00  0.00     0.025 A 
ATOM     11  C   UNL A   1      33.796  25.297  23.147  1.00  0.00     0.041 A 
ATOM     12  C   UNL A   1      33.620  24.246  24.045  1.00  0.00     0.135 A 
ATOM     13  F   UNL A   1      33.676  23.000  23.553  1.00  0.00    -0.206 F 
BRANCH   8  14
ATOM     14  C   UNL A   1      32.961  28.247  25.372  1.00  0.00     0.020 A 
ATOM     15  C   UNL A   1      31.450  32.068  26.790  1.00  0.00     0.047 C 
ATOM     16  C   UNL A   1      31.956  30.739  26.322  1.00  0.00    -0.012 A 
ATOM     17  C   UNL A   1      33.078  30.151  26.913  1.00  0.00     0.046 A 
ATOM     18  C   UNL A   1      31.354  30.081  25.252  1.00  0.00     0.126 A 
ATOM     19  C   UNL A   1      33.563  28.926  26.443  1.00  0.00     0.131 A 
ATOM     20  C   UNL A   1      31.835  28.858  24.787  1.00  0.00     0.051 A 
ATOM     21  F   UNL A   1      30.275  30.611  24.658  1.00  0.00    -0.207 F 
ATOM     22  F   UNL A   1      34.628  28.399  27.068  1.00  0.00    -0.206 F 
ENDBRANCH   8  14
ENDBRANCH   4   7
ENDBRANCH   2   3
ENDBRANCH   1   2
BRANCH   1  23
ATOM     23  C   UNL A   1      37.340  23.244  25.027  1.00  0.00     0.118 C 
BRANCH  23  24
ATOM     24  N   UNL A   1      38.520  22.492  25.443  1.00  0.00    -0.352 N 
ATOM     25  C   UNL A   1      39.641  22.855  26.157  1.00  0.00     0.251 C 
ATOM     26  H   UNL A   1      38.513  21.549  25.159  1.00  0.00     0.163 HD
ATOM     27  O   UNL A   1      40.581  22.074  26.237  1.00  0.00    -0.269 OA
BRANCH  25  28
ATOM     28  C   UNL A   1      39.745  24.191  26.789  1.00  0.00     0.039 A 
ATOM     29  C   UNL A   1      40.349  25.257  26.130  1.00  0.00     0.014 A 
ATOM     30  C   UNL A   1      39.212  24.387  28.068  1.00  0.00     0.014 A 
ATOM     31  C   UNL A   1      40.635  26.426  26.823  1.00  0.00     0.010 A 
ATOM     32  C   UNL A   1      39.385  25.615  28.720  1.00  0.00     0.010 A 
ATOM     33  C   UNL A   1      40.157  26.624  28.127  1.00  0.00    -0.014 A 
BRANCH  33  34
ATOM     34  C   UNL A   1      40.481  27.894  28.833  1.00  0.00     0.031 A 
ATOM     35  C   UNL A   1      39.465  29.000  28.941  1.00  0.00     0.074 A 
ATOM     36  C   UNL A   1      41.674  28.017  29.449  1.00  0.00     0.049 A 
ATOM     37  N   UNL A   1      39.567  30.150  29.560  1.00  0.00    -0.248 NA
ATOM     38  C   UNL A   1      38.171  28.800  28.269  1.00  0.00     0.031 C 
ATOM     39  C   UNL A   1      42.736  27.007  29.435  1.00  0.00     0.029 A 
ATOM     40  N   UNL A   1      42.179  29.017  30.242  1.00  0.00    -0.354 N 
ATOM     41  C   UNL A   1      38.369  30.816  29.332  1.00  0.00     0.074 A 
ATOM     42  C   UNL A   1      37.561  29.956  28.495  1.00  0.00     0.031 C 
ATOM     43  C   UNL A   1      43.727  27.402  30.247  1.00  0.00     0.029 A 
ATOM     44  C   UNL A   1      43.415  28.726  30.770  1.00  0.00     0.049 A 
ATOM     45  H   UNL A   1      41.702  29.861  30.416  1.00  0.00     0.167 HD
ATOM     46  C   UNL A   1      37.974  32.028  29.787  1.00  0.00     0.031 A 
ATOM     47  C   UNL A   1      44.220  29.445  31.575  1.00  0.00     0.031 A 
ATOM     48  C   UNL A   1      38.770  32.872  30.639  1.00  0.00     0.049 A 
ATOM     49  C   UNL A   1      43.776  30.802  32.032  1.00  0.00     0.074 A 
ATOM     50  C   UNL A   1      38.439  34.107  31.170  1.00  0.00     0.029 A 
ATOM     51  N   UNL A   1      40.046  32.570  31.088  1.00  0.00    -0.354 N 
ATOM     52  N   UNL A   1      42.638  31.412  31.806  1.00  0.00    -0.248 NA
ATOM     53  C   UNL A   1      44.724  31.574  32.847  1.00  0.00     0.031 C 
ATOM     54  C   UNL A   1      39.540  34.580  31.888  1.00  0.00     0.029 A 
ATOM     55  C   UNL A   1      40.527  33.610  31.864  1.00  0.00     0.049 A 
ATOM     56  H   UNL A   1      40.536  31.741  30.884  1.00  0.00     0.167 HD
ATOM     57  C   UNL A   1      42.729  32.636  32.455  1.00  0.00     0.074 A 
ATOM     58  C   UNL A   1      44.024  32.671  33.104  1.00  0.00     0.031 C 
ATOM     59  C   UNL A   1      41.821  33.639  32.499  1.00  0.00     0.031 A 
BRANCH  46  60
ATOM     60  C   UNL A   1      36.621  32.539  29.370  1.00  0.00    -0.014 A 
ATOM     61  C   UNL A   1      36.524  33.468  28.321  1.00  0.00     0.009 A 
ATOM     62  C   UNL A   1      35.458  32.186  30.071  1.00  0.00     0.009 A 
ATOM     63  C   UNL A   1      35.297  34.045  27.993  1.00  0.00     0.001 A 
ATOM     64  C   UNL A   1      34.225  32.742  29.722  1.00  0.00     0.001 A 
ATOM     65  C   UNL A   1      34.147  33.678  28.692  1.00  0.00     0.000 A 
ENDBRANCH  46  60
BRANCH  47  66
ATOM     66  C   UNL A   1      45.532  28.875  31.985  1.00  0.00    -0.014 A 
ATOM     67  C   UNL A   1      46.669  29.052  31.178  1.00  0.00     0.009 A 
ATOM     68  C   UNL A   1      45.640  28.092  33.144  1.00  0.00     0.009 A 
ATOM     69  C   UNL A   1      47.875  28.429  31.501  1.00  0.00     0.001 A 
ATOM     70  C   UNL A   1      46.858  27.496  33.481  1.00  0.00     0.001 A 
ATOM     71  C   UNL A   1      47.969  27.654  32.654  1.00  0.00     0.000 A 
ENDBRANCH  47  66
BRANCH  59  72
ATOM     72  C   UNL A   1      42.177  34.873  33.279  1.00  0.00    -0.014 A 
ATOM     73  C   UNL A   1      41.608  35.086  34.546  1.00  0.00     0.009 A 
ATOM     74  C   UNL A   1      42.985  35.873  32.718  1.00  0.00     0.009 A 
ATOM     75  C   UNL A   1      41.827  36.284  35.227  1.00  0.00     0.001 A 
ATOM     76  C   UNL A   1      43.226  37.058  33.416  1.00  0.00     0.001 A 
ATOM     77  C   UNL A   1      42.638  37.267  34.663  1.00  0.00     0.000 A 
ENDBRANCH  59  72
ENDBRANCH  33  34
ENDBRANCH  25  28
ENDBRANCH  23  24
ENDBRANCH   1  23
TORSDOF 11
ENDMDL
