MODEL 1
REMARK VINA RESULT:     -13.2      0.000      0.000
REMARK SMILES COc1ccc(-c2ccc(/C=C3\SC(=S)N([C@H](Cc4ccccc4)C(=O)NCCCNC(=O)c4ccc(-c5c6nc(c(-c7ccccc7)c7ccc([nH]7)c(-c7ccccc7)c7nc(c(-c8ccccc8)c8ccc5[nH]8)C=C7)C=C6)cc4)C3=O)o2)cc1
REMARK SMILES IDX 28 1 27 2 25 3 26 4 17 6 16 7 11 8 12 9 13 10 82 11 14 12
REMARK SMILES IDX 83 13 15 14 10 15 7 16 8 17 84 18 9 19 6 20 3 21 4 22 86 23
REMARK SMILES IDX 5 24 85 25 2 26 1 27 18 28 19 29 20 30 24 31 21 32 23 33
REMARK SMILES IDX 22 34 29 35 30 36 31 37 32 38 33 40 34 41 35 42 81 43 36 44
REMARK SMILES IDX 80 45 37 46 38 47 39 48 74 49 40 50 79 51 73 52 75 53 41 54
REMARK SMILES IDX 78 55 72 56 71 57 42 59 64 60 49 61 63 62 50 63 53 64 62 65
REMARK SMILES IDX 76 66 51 67 52 68 61 70 77 71 54 72 43 73 44 74 48 75 45 76
REMARK SMILES IDX 47 77 46 78 65 79 66 80 70 81 67 82 69 83 68 84 55 85 56 86
REMARK SMILES IDX 60 87 57 88 59 89 58 90
REMARK H PARENT 27 5 31 39 75 58 53 69
REMARK Flexibility Score: inf
ROOT
ATOM      1  C   UNL A   1      31.938  29.849  26.037  1.00  0.00     0.117 C 
ENDROOT
BRANCH   1   2
ATOM      2  N   UNL A   1      32.817  29.849  24.881  1.00  0.00    -0.354 N 
ATOM      3  C   UNL A   1      32.813  29.056  23.767  1.00  0.00     0.243 C 
ATOM      4  O   UNL A   1      33.618  29.336  22.873  1.00  0.00    -0.273 OA
ATOM      5  H   UNL A   1      33.528  30.530  24.902  1.00  0.00     0.163 HD
BRANCH   3   6
ATOM      6  C   UNL A   1      31.945  27.776  23.662  1.00  0.00     0.185 C 
BRANCH   6   7
ATOM      7  N   UNL A   1      32.655  26.453  23.657  1.00  0.00    -0.280 N 
ATOM      8  C   UNL A   1      34.225  23.788  25.559  1.00  0.00     0.068 C 
ATOM      9  C   UNL A   1      33.689  24.526  24.578  1.00  0.00     0.084 C 
ATOM     10  S   UNL A   1      33.640  24.175  22.909  1.00  0.00    -0.054 SA
ATOM     11  C   UNL A   1      32.986  25.808  24.844  1.00  0.00     0.267 C 
ATOM     12  C   UNL A   1      32.782  25.654  22.528  1.00  0.00     0.149 C 
ATOM     13  O   UNL A   1      32.743  26.175  25.984  1.00  0.00    -0.268 OA
ATOM     14  S   UNL A   1      32.254  25.879  20.966  1.00  0.00    -0.052 S 
BRANCH   8  15
ATOM     15  C   UNL A   1      34.872  22.544  25.325  1.00  0.00     0.128 A 
ATOM     16  C   UNL A   1      35.052  20.358  24.994  1.00  0.00     0.134 A 
ATOM     17  C   UNL A   1      36.324  20.861  24.873  1.00  0.00     0.051 A 
ATOM     18  O   UNL A   1      34.177  21.359  25.283  1.00  0.00    -0.457 OA
ATOM     19  C   UNL A   1      36.214  22.251  25.102  1.00  0.00     0.051 A 
BRANCH  16  20
ATOM     20  C   UNL A   1      34.488  19.028  24.909  1.00  0.00     0.017 A 
ATOM     21  C   UNL A   1      33.372  16.463  24.747  1.00  0.00     0.118 A 
ATOM     22  C   UNL A   1      34.729  16.651  24.493  1.00  0.00     0.047 A 
ATOM     23  C   UNL A   1      32.576  17.546  25.121  1.00  0.00     0.047 A 
ATOM     24  C   UNL A   1      35.284  17.932  24.556  1.00  0.00     0.016 A 
ATOM     25  C   UNL A   1      33.135  18.823  25.202  1.00  0.00     0.016 A 
BRANCH  21  26
ATOM     26  O   UNL A   1      32.912  15.178  24.660  1.00  0.00    -0.497 OA
ATOM     27  C   UNL A   1      32.211  14.744  25.823  1.00  0.00     0.278 C 
ENDBRANCH  21  26
ENDBRANCH  16  20
ENDBRANCH   8  15
ENDBRANCH   6   7
BRANCH   6  28
ATOM     28  C   UNL A   1      31.004  27.988  22.432  1.00  0.00     0.071 C 
BRANCH  28  29
ATOM     29  C   UNL A   1      29.787  28.892  22.556  1.00  0.00    -0.045 A 
ATOM     30  C   UNL A   1      29.864  30.170  21.971  1.00  0.00     0.004 A 
ATOM     31  C   UNL A   1      28.566  28.507  23.122  1.00  0.00     0.004 A 
ATOM     32  C   UNL A   1      28.753  31.018  21.935  1.00  0.00     0.000 A 
ATOM     33  C   UNL A   1      27.449  29.346  23.067  1.00  0.00     0.000 A 
ATOM     34  C   UNL A   1      27.541  30.599  22.471  1.00  0.00     0.000 A 
ENDBRANCH  28  29
ENDBRANCH   6  28
ENDBRANCH   3   6
ENDBRANCH   1   2
BRANCH   1  35
ATOM     35  C   UNL A   1      31.627  31.254  26.537  1.00  0.00     0.042 C 
BRANCH  35  36
ATOM     36  C   UNL A   1      32.835  32.028  27.057  1.00  0.00     0.118 C 
BRANCH  36  37
ATOM     37  N   UNL A   1      32.513  33.391  27.459  1.00  0.00    -0.352 N 
ATOM     38  C   UNL A   1      33.139  34.231  28.349  1.00  0.00     0.251 C 
ATOM     39  H   UNL A   1      31.719  33.773  27.022  1.00  0.00     0.163 HD
ATOM     40  O   UNL A   1      32.609  35.294  28.661  1.00  0.00    -0.269 OA
BRANCH  38  41
ATOM     41  C   UNL A   1      34.431  33.853  28.965  1.00  0.00     0.039 A 
ATOM     42  C   UNL A   1      34.420  33.078  30.128  1.00  0.00     0.014 A 
ATOM     43  C   UNL A   1      35.647  34.262  28.412  1.00  0.00     0.014 A 
ATOM     44  C   UNL A   1      35.623  32.635  30.681  1.00  0.00     0.010 A 
ATOM     45  C   UNL A   1      36.842  33.758  28.918  1.00  0.00     0.010 A 
ATOM     46  C   UNL A   1      36.843  32.928  30.049  1.00  0.00    -0.014 A 
BRANCH  46  47
ATOM     47  C   UNL A   1      38.123  32.345  30.528  1.00  0.00     0.031 A 
ATOM     48  C   UNL A   1      38.642  31.061  29.944  1.00  0.00     0.074 A 
ATOM     49  C   UNL A   1      38.774  32.929  31.552  1.00  0.00     0.049 A 
ATOM     50  N   UNL A   1      39.686  30.356  30.302  1.00  0.00    -0.248 NA
ATOM     51  C   UNL A   1      37.875  30.479  28.832  1.00  0.00     0.031 C 
ATOM     52  C   UNL A   1      38.356  34.156  32.235  1.00  0.00     0.029 A 
ATOM     53  N   UNL A   1      39.923  32.560  32.208  1.00  0.00    -0.354 N 
ATOM     54  C   UNL A   1      39.690  29.241  29.473  1.00  0.00     0.074 A 
ATOM     55  C   UNL A   1      38.523  29.341  28.624  1.00  0.00     0.031 C 
ATOM     56  C   UNL A   1      39.246  34.449  33.197  1.00  0.00     0.029 A 
ATOM     57  C   UNL A   1      40.270  33.411  33.229  1.00  0.00     0.049 A 
ATOM     58  H   UNL A   1      40.446  31.761  31.970  1.00  0.00     0.167 HD
ATOM     59  C   UNL A   1      40.591  28.231  29.413  1.00  0.00     0.031 A 
ATOM     60  C   UNL A   1      41.291  33.356  34.106  1.00  0.00     0.031 A 
ATOM     61  C   UNL A   1      41.759  28.135  30.248  1.00  0.00     0.049 A 
ATOM     62  C   UNL A   1      42.264  32.215  34.034  1.00  0.00     0.074 A 
ATOM     63  C   UNL A   1      42.766  27.186  30.215  1.00  0.00     0.029 A 
ATOM     64  N   UNL A   1      42.074  29.017  31.270  1.00  0.00    -0.354 N 
ATOM     65  N   UNL A   1      42.289  31.204  33.200  1.00  0.00    -0.248 NA
ATOM     66  C   UNL A   1      43.351  32.209  35.023  1.00  0.00     0.031 C 
ATOM     67  C   UNL A   1      43.665  27.465  31.251  1.00  0.00     0.029 A 
ATOM     68  C   UNL A   1      43.242  28.616  31.896  1.00  0.00     0.049 A 
ATOM     69  H   UNL A   1      41.545  29.810  31.515  1.00  0.00     0.167 HD
ATOM     70  C   UNL A   1      43.401  30.451  33.552  1.00  0.00     0.074 A 
ATOM     71  C   UNL A   1      44.035  31.133  34.662  1.00  0.00     0.031 C 
ATOM     72  C   UNL A   1      43.854  29.297  33.007  1.00  0.00     0.031 A 
BRANCH  59  73
ATOM     73  C   UNL A   1      40.342  27.140  28.410  1.00  0.00    -0.014 A 
ATOM     74  C   UNL A   1      40.889  27.202  27.118  1.00  0.00     0.009 A 
ATOM     75  C   UNL A   1      39.580  26.019  28.772  1.00  0.00     0.009 A 
ATOM     76  C   UNL A   1      40.646  26.180  26.198  1.00  0.00     0.001 A 
ATOM     77  C   UNL A   1      39.361  24.986  27.859  1.00  0.00     0.001 A 
ATOM     78  C   UNL A   1      39.887  25.071  26.571  1.00  0.00     0.000 A 
ENDBRANCH  59  73
BRANCH  60  79
ATOM     79  C   UNL A   1      41.446  34.419  35.132  1.00  0.00    -0.014 A 
ATOM     80  C   UNL A   1      40.818  34.296  36.381  1.00  0.00     0.009 A 
ATOM     81  C   UNL A   1      42.222  35.560  34.870  1.00  0.00     0.009 A 
ATOM     82  C   UNL A   1      40.946  35.305  37.339  1.00  0.00     0.001 A 
ATOM     83  C   UNL A   1      42.368  36.554  35.839  1.00  0.00     0.001 A 
ATOM     84  C   UNL A   1      41.723  36.430  37.069  1.00  0.00     0.000 A 
ENDBRANCH  60  79
BRANCH  72  85
ATOM     85  C   UNL A   1      45.103  28.707  33.595  1.00  0.00    -0.014 A 
ATOM     86  C   UNL A   1      45.039  27.741  34.611  1.00  0.00     0.009 A 
ATOM     87  C   UNL A   1      46.359  29.098  33.104  1.00  0.00     0.009 A 
ATOM     88  C   UNL A   1      46.209  27.198  35.144  1.00  0.00     0.001 A 
ATOM     89  C   UNL A   1      47.527  28.534  33.621  1.00  0.00     0.001 A 
ATOM     90  C   UNL A   1      47.451  27.591  34.645  1.00  0.00     0.000 A 
ENDBRANCH  72  85
ENDBRANCH  46  47
ENDBRANCH  38  41
ENDBRANCH  36  37
ENDBRANCH  35  36
ENDBRANCH   1  35
TORSDOF 16
ENDMDL
MODEL 2
REMARK VINA RESULT:     -13.1      0.892      5.625
REMARK SMILES COc1ccc(-c2ccc(/C=C3\SC(=S)N([C@H](Cc4ccccc4)C(=O)NCCCNC(=O)c4ccc(-c5c6nc(c(-c7ccccc7)c7ccc([nH]7)c(-c7ccccc7)c7nc(c(-c8ccccc8)c8ccc5[nH]8)C=C7)C=C6)cc4)C3=O)o2)cc1
REMARK SMILES IDX 28 1 27 2 25 3 26 4 17 6 16 7 11 8 12 9 13 10 82 11 14 12
REMARK SMILES IDX 83 13 15 14 10 15 7 16 8 17 84 18 9 19 6 20 3 21 4 22 86 23
REMARK SMILES IDX 5 24 85 25 2 26 1 27 18 28 19 29 20 30 24 31 21 32 23 33
REMARK SMILES IDX 22 34 29 35 30 36 31 37 32 38 33 40 34 41 35 42 81 43 36 44
REMARK SMILES IDX 80 45 37 46 38 47 39 48 74 49 40 50 79 51 73 52 75 53 41 54
REMARK SMILES IDX 78 55 72 56 71 57 42 59 64 60 49 61 63 62 50 63 53 64 62 65
REMARK SMILES IDX 76 66 51 67 52 68 61 70 77 71 54 72 43 73 44 74 48 75 45 76
REMARK SMILES IDX 47 77 46 78 65 79 66 80 70 81 67 82 69 83 68 84 55 85 56 86
REMARK SMILES IDX 60 87 57 88 59 89 58 90
REMARK H PARENT 27 5 31 39 75 58 53 69
REMARK Flexibility Score: inf
ROOT
ATOM      1  C   UNL A   1      31.772  30.300  26.151  1.00  0.00     0.117 C 
ENDROOT
BRANCH   1   2
ATOM      2  N   UNL A   1      32.668  30.123  25.022  1.00  0.00    -0.354 N 
ATOM      3  C   UNL A   1      32.656  29.191  24.021  1.00  0.00     0.243 C 
ATOM      4  O   UNL A   1      33.484  29.328  23.114  1.00  0.00    -0.273 OA
ATOM      5  H   UNL A   1      33.400  30.778  24.968  1.00  0.00     0.163 HD
BRANCH   3   6
ATOM      6  C   UNL A   1      31.748  27.935  24.066  1.00  0.00     0.185 C 
BRANCH   6   7
ATOM      7  N   UNL A   1      32.381  26.635  24.472  1.00  0.00    -0.280 N 
ATOM      8  C   UNL A   1      34.463  23.802  23.566  1.00  0.00     0.068 C 
ATOM      9  C   UNL A   1      33.728  24.695  24.241  1.00  0.00     0.084 C 
ATOM     10  S   UNL A   1      33.246  24.636  25.877  1.00  0.00    -0.054 SA
ATOM     11  C   UNL A   1      33.241  25.954  23.619  1.00  0.00     0.267 C 
ATOM     12  C   UNL A   1      32.393  26.163  25.779  1.00  0.00     0.149 C 
ATOM     13  O   UNL A   1      33.610  26.296  22.506  1.00  0.00    -0.268 OA
ATOM     14  S   UNL A   1      31.768  26.808  27.180  1.00  0.00    -0.052 S 
BRANCH   8  15
ATOM     15  C   UNL A   1      34.962  22.609  24.156  1.00  0.00     0.128 A 
ATOM     16  C   UNL A   1      35.031  20.454  24.677  1.00  0.00     0.134 A 
ATOM     17  C   UNL A   1      36.176  21.003  25.202  1.00  0.00     0.051 A 
ATOM     18  O   UNL A   1      34.289  21.415  24.064  1.00  0.00    -0.457 OA
ATOM     19  C   UNL A   1      36.124  22.379  24.886  1.00  0.00     0.051 A 
BRANCH  16  20
ATOM     20  C   UNL A   1      34.470  19.120  24.675  1.00  0.00     0.017 A 
ATOM     21  C   UNL A   1      33.359  16.548  24.671  1.00  0.00     0.118 A 
ATOM     22  C   UNL A   1      34.733  16.715  24.505  1.00  0.00     0.047 A 
ATOM     23  C   UNL A   1      32.542  17.658  24.879  1.00  0.00     0.047 A 
ATOM     24  C   UNL A   1      35.286  17.998  24.489  1.00  0.00     0.016 A 
ATOM     25  C   UNL A   1      33.098  18.939  24.882  1.00  0.00     0.016 A 
BRANCH  21  26
ATOM     26  O   UNL A   1      32.902  15.258  24.671  1.00  0.00    -0.497 OA
ATOM     27  C   UNL A   1      32.151  14.921  25.834  1.00  0.00     0.278 C 
ENDBRANCH  21  26
ENDBRANCH  16  20
ENDBRANCH   8  15
ENDBRANCH   6   7
BRANCH   6  28
ATOM     28  C   UNL A   1      31.019  27.875  22.685  1.00  0.00     0.071 C 
BRANCH  28  29
ATOM     29  C   UNL A   1      29.849  28.804  22.404  1.00  0.00    -0.045 A 
ATOM     30  C   UNL A   1      28.631  28.532  23.055  1.00  0.00     0.004 A 
ATOM     31  C   UNL A   1      29.926  29.965  21.624  1.00  0.00     0.004 A 
ATOM     32  C   UNL A   1      27.542  29.401  22.947  1.00  0.00     0.000 A 
ATOM     33  C   UNL A   1      28.844  30.845  21.534  1.00  0.00     0.000 A 
ATOM     34  C   UNL A   1      27.654  30.566  22.197  1.00  0.00     0.000 A 
ENDBRANCH  28  29
ENDBRANCH   6  28
ENDBRANCH   3   6
ENDBRANCH   1   2
BRANCH   1  35
ATOM     35  C   UNL A   1      31.589  31.764  26.531  1.00  0.00     0.042 C 
BRANCH  35  36
ATOM     36  C   UNL A   1      32.833  32.433  27.110  1.00  0.00     0.118 C 
BRANCH  36  37
ATOM     37  N   UNL A   1      32.577  33.770  27.627  1.00  0.00    -0.352 N 
ATOM     38  C   UNL A   1      33.224  34.489  28.605  1.00  0.00     0.251 C 
ATOM     39  H   UNL A   1      31.817  34.235  27.210  1.00  0.00     0.163 HD
ATOM     40  O   UNL A   1      32.745  35.548  29.000  1.00  0.00    -0.269 OA
BRANCH  38  41
ATOM     41  C   UNL A   1      34.476  33.983  29.211  1.00  0.00     0.039 A 
ATOM     42  C   UNL A   1      34.395  33.218  30.379  1.00  0.00     0.014 A 
ATOM     43  C   UNL A   1      35.722  34.262  28.646  1.00  0.00     0.014 A 
ATOM     44  C   UNL A   1      35.552  32.657  30.924  1.00  0.00     0.010 A 
ATOM     45  C   UNL A   1      36.864  33.640  29.144  1.00  0.00     0.010 A 
ATOM     46  C   UNL A   1      36.789  32.820  30.280  1.00  0.00    -0.014 A 
BRANCH  46  47
ATOM     47  C   UNL A   1      38.006  32.111  30.752  1.00  0.00     0.031 A 
ATOM     48  C   UNL A   1      38.855  32.696  31.846  1.00  0.00     0.074 A 
ATOM     49  C   UNL A   1      38.394  30.979  30.133  1.00  0.00     0.049 A 
ATOM     50  N   UNL A   1      39.999  32.268  32.319  1.00  0.00    -0.248 NA
ATOM     51  C   UNL A   1      38.371  33.936  32.472  1.00  0.00     0.031 C 
ATOM     52  C   UNL A   1      37.682  30.326  29.030  1.00  0.00     0.029 A 
ATOM     53  N   UNL A   1      39.493  30.181  30.334  1.00  0.00    -0.354 N 
ATOM     54  C   UNL A   1      40.379  33.194  33.282  1.00  0.00     0.074 A 
ATOM     55  C   UNL A   1      39.366  34.228  33.296  1.00  0.00     0.031 C 
ATOM     56  C   UNL A   1      38.349  29.219  28.670  1.00  0.00     0.029 A 
ATOM     57  C   UNL A   1      39.557  29.106  29.481  1.00  0.00     0.049 A 
ATOM     58  H   UNL A   1      40.172  30.363  31.024  1.00  0.00     0.167 HD
ATOM     59  C   UNL A   1      41.464  33.180  34.092  1.00  0.00     0.031 A 
ATOM     60  C   UNL A   1      40.489  28.143  29.353  1.00  0.00     0.031 A 
ATOM     61  C   UNL A   1      42.467  32.147  34.088  1.00  0.00     0.049 A 
ATOM     62  C   UNL A   1      41.695  28.162  30.247  1.00  0.00     0.074 A 
ATOM     63  C   UNL A   1      43.566  32.011  34.917  1.00  0.00     0.029 A 
ATOM     64  N   UNL A   1      42.494  31.077  33.207  1.00  0.00    -0.354 N 
ATOM     65  N   UNL A   1      42.004  29.010  31.198  1.00  0.00    -0.248 NA
ATOM     66  C   UNL A   1      42.679  27.088  30.052  1.00  0.00     0.031 C 
ATOM     67  C   UNL A   1      44.287  30.884  34.506  1.00  0.00     0.029 A 
ATOM     68  C   UNL A   1      43.609  30.294  33.453  1.00  0.00     0.049 A 
ATOM     69  H   UNL A   1      41.821  30.902  32.511  1.00  0.00     0.167 HD
ATOM     70  C   UNL A   1      43.209  28.564  31.725  1.00  0.00     0.074 A 
ATOM     71  C   UNL A   1      43.563  27.359  31.002  1.00  0.00     0.031 C 
ATOM     72  C   UNL A   1      43.955  29.105  32.717  1.00  0.00     0.031 A 
BRANCH  59  73
ATOM     73  C   UNL A   1      41.628  34.326  35.049  1.00  0.00    -0.014 A 
ATOM     74  C   UNL A   1      41.019  34.310  36.314  1.00  0.00     0.009 A 
ATOM     75  C   UNL A   1      42.431  35.423  34.697  1.00  0.00     0.009 A 
ATOM     76  C   UNL A   1      41.181  35.384  37.191  1.00  0.00     0.001 A 
ATOM     77  C   UNL A   1      42.612  36.483  35.586  1.00  0.00     0.001 A 
ATOM     78  C   UNL A   1      41.981  36.467  36.828  1.00  0.00     0.000 A 
ENDBRANCH  59  73
BRANCH  60  79
ATOM     79  C   UNL A   1      40.320  27.076  28.333  1.00  0.00    -0.014 A 
ATOM     80  C   UNL A   1      39.534  25.948  28.612  1.00  0.00     0.009 A 
ATOM     81  C   UNL A   1      40.942  27.179  27.079  1.00  0.00     0.009 A 
ATOM     82  C   UNL A   1      39.393  24.933  27.663  1.00  0.00     0.001 A 
ATOM     83  C   UNL A   1      40.777  26.175  26.123  1.00  0.00     0.001 A 
ATOM     84  C   UNL A   1      40.010  25.048  26.419  1.00  0.00     0.000 A 
ENDBRANCH  60  79
BRANCH  72  85
ATOM     85  C   UNL A   1      45.223  28.390  33.086  1.00  0.00    -0.014 A 
ATOM     86  C   UNL A   1      45.218  27.346  34.025  1.00  0.00     0.009 A 
ATOM     87  C   UNL A   1      46.430  28.742  32.463  1.00  0.00     0.009 A 
ATOM     88  C   UNL A   1      46.404  26.688  34.353  1.00  0.00     0.001 A 
ATOM     89  C   UNL A   1      47.610  28.064  32.774  1.00  0.00     0.001 A 
ATOM     90  C   UNL A   1      47.597  27.044  33.724  1.00  0.00     0.000 A 
ENDBRANCH  72  85
ENDBRANCH  46  47
ENDBRANCH  38  41
ENDBRANCH  36  37
ENDBRANCH  35  36
ENDBRANCH   1  35
TORSDOF 16
ENDMDL
MODEL 3
REMARK VINA RESULT:     -13.1      3.369     10.062
REMARK SMILES COc1ccc(-c2ccc(/C=C3\SC(=S)N([C@H](Cc4ccccc4)C(=O)NCCCNC(=O)c4ccc(-c5c6nc(c(-c7ccccc7)c7ccc([nH]7)c(-c7ccccc7)c7nc(c(-c8ccccc8)c8ccc5[nH]8)C=C7)C=C6)cc4)C3=O)o2)cc1
REMARK SMILES IDX 28 1 27 2 25 3 26 4 17 6 16 7 11 8 12 9 13 10 82 11 14 12
REMARK SMILES IDX 83 13 15 14 10 15 7 16 8 17 84 18 9 19 6 20 3 21 4 22 86 23
REMARK SMILES IDX 5 24 85 25 2 26 1 27 18 28 19 29 20 30 24 31 21 32 23 33
REMARK SMILES IDX 22 34 29 35 30 36 31 37 32 38 33 40 34 41 35 42 81 43 36 44
REMARK SMILES IDX 80 45 37 46 38 47 39 48 74 49 40 50 79 51 73 52 75 53 41 54
REMARK SMILES IDX 78 55 72 56 71 57 42 59 64 60 49 61 63 62 50 63 53 64 62 65
REMARK SMILES IDX 76 66 51 67 52 68 61 70 77 71 54 72 43 73 44 74 48 75 45 76
REMARK SMILES IDX 47 77 46 78 65 79 66 80 70 81 67 82 69 83 68 84 55 85 56 86
REMARK SMILES IDX 60 87 57 88 59 89 58 90
REMARK H PARENT 27 5 31 39 75 58 53 69
REMARK Flexibility Score: inf
ROOT
ATOM      1  C   UNL A   1      36.350  20.961  24.901  1.00  0.00     0.117 C 
ENDROOT
BRANCH   1   2
ATOM      2  N   UNL A   1      35.683  21.094  26.184  1.00  0.00    -0.354 N 
ATOM      3  C   UNL A   1      34.375  21.364  26.478  1.00  0.00     0.243 C 
ATOM      4  O   UNL A   1      34.044  21.321  27.667  1.00  0.00    -0.273 OA
ATOM      5  H   UNL A   1      36.266  20.971  26.968  1.00  0.00     0.163 HD
BRANCH   3   6
ATOM      6  C   UNL A   1      33.363  21.838  25.402  1.00  0.00     0.185 C 
BRANCH   6   7
ATOM      7  N   UNL A   1      32.815  23.230  25.530  1.00  0.00    -0.280 N 
ATOM      8  C   UNL A   1      33.202  26.773  24.838  1.00  0.00     0.068 C 
ATOM      9  C   UNL A   1      32.719  25.579  25.202  1.00  0.00     0.084 C 
ATOM     10  S   UNL A   1      31.237  25.238  25.976  1.00  0.00    -0.054 SA
ATOM     11  C   UNL A   1      33.444  24.311  24.924  1.00  0.00     0.267 C 
ATOM     12  C   UNL A   1      31.538  23.512  25.998  1.00  0.00     0.149 C 
ATOM     13  O   UNL A   1      34.445  24.294  24.224  1.00  0.00    -0.268 OA
ATOM     14  S   UNL A   1      30.321  22.506  26.526  1.00  0.00    -0.052 S 
BRANCH   8  15
ATOM     15  C   UNL A   1      32.506  27.991  25.069  1.00  0.00     0.128 A 
ATOM     16  C   UNL A   1      31.106  29.661  24.656  1.00  0.00     0.134 A 
ATOM     17  C   UNL A   1      31.602  29.891  25.916  1.00  0.00     0.051 A 
ATOM     18  O   UNL A   1      31.657  28.532  24.134  1.00  0.00    -0.457 OA
ATOM     19  C   UNL A   1      32.508  28.838  26.173  1.00  0.00     0.051 A 
BRANCH  16  20
ATOM     20  C   UNL A   1      30.176  30.367  23.801  1.00  0.00     0.017 A 
ATOM     21  C   UNL A   1      28.379  31.715  22.127  1.00  0.00     0.118 A 
ATOM     22  C   UNL A   1      28.632  32.196  23.411  1.00  0.00     0.047 A 
ATOM     23  C   UNL A   1      29.049  30.585  21.661  1.00  0.00     0.047 A 
ATOM     24  C   UNL A   1      29.514  31.516  24.253  1.00  0.00     0.016 A 
ATOM     25  C   UNL A   1      29.946  29.916  22.496  1.00  0.00     0.016 A 
BRANCH  21  26
ATOM     26  O   UNL A   1      27.499  32.441  21.372  1.00  0.00    -0.497 OA
ATOM     27  C   UNL A   1      27.774  32.392  19.974  1.00  0.00     0.278 C 
ENDBRANCH  21  26
ENDBRANCH  16  20
ENDBRANCH   8  15
ENDBRANCH   6   7
BRANCH   6  28
ATOM     28  C   UNL A   1      32.261  20.733  25.325  1.00  0.00     0.071 C 
BRANCH  28  29
ATOM     29  C   UNL A   1      32.574  19.394  24.676  1.00  0.00    -0.045 A 
ATOM     30  C   UNL A   1      32.342  19.270  23.294  1.00  0.00     0.004 A 
ATOM     31  C   UNL A   1      33.168  18.311  25.337  1.00  0.00     0.004 A 
ATOM     32  C   UNL A   1      32.712  18.117  22.597  1.00  0.00     0.000 A 
ATOM     33  C   UNL A   1      33.559  17.166  24.636  1.00  0.00     0.000 A 
ATOM     34  C   UNL A   1      33.334  17.070  23.268  1.00  0.00     0.000 A 
ENDBRANCH  28  29
ENDBRANCH   6  28
ENDBRANCH   3   6
ENDBRANCH   1   2
BRANCH   1  35
ATOM     35  C   UNL A   1      37.503  19.966  24.940  1.00  0.00     0.042 C 
BRANCH  35  36
ATOM     36  C   UNL A   1      38.743  20.456  25.682  1.00  0.00     0.118 C 
BRANCH  36  37
ATOM     37  N   UNL A   1      39.812  19.467  25.729  1.00  0.00    -0.352 N 
ATOM     38  C   UNL A   1      41.143  19.605  26.043  1.00  0.00     0.251 C 
ATOM     39  H   UNL A   1      39.536  18.551  25.499  1.00  0.00     0.163 HD
ATOM     40  O   UNL A   1      41.911  18.663  25.868  1.00  0.00    -0.269 OA
BRANCH  38  41
ATOM     41  C   UNL A   1      41.669  20.889  26.558  1.00  0.00     0.039 A 
ATOM     42  C   UNL A   1      42.089  21.858  25.642  1.00  0.00     0.014 A 
ATOM     43  C   UNL A   1      41.759  21.140  27.929  1.00  0.00     0.014 A 
ATOM     44  C   UNL A   1      42.509  23.110  26.098  1.00  0.00     0.010 A 
ATOM     45  C   UNL A   1      42.103  22.411  28.380  1.00  0.00     0.010 A 
ATOM     46  C   UNL A   1      42.469  23.414  27.469  1.00  0.00    -0.014 A 
BRANCH  46  47
ATOM     47  C   UNL A   1      42.764  24.783  27.967  1.00  0.00     0.031 A 
ATOM     48  C   UNL A   1      44.154  25.154  28.400  1.00  0.00     0.074 A 
ATOM     49  C   UNL A   1      41.757  25.666  28.110  1.00  0.00     0.049 A 
ATOM     50  N   UNL A   1      44.577  26.266  28.948  1.00  0.00    -0.248 NA
ATOM     51  C   UNL A   1      45.201  24.137  28.218  1.00  0.00     0.031 C 
ATOM     52  C   UNL A   1      40.354  25.419  27.764  1.00  0.00     0.029 A 
ATOM     53  N   UNL A   1      41.756  26.950  28.596  1.00  0.00    -0.354 N 
ATOM     54  C   UNL A   1      45.931  26.075  29.193  1.00  0.00     0.074 A 
ATOM     55  C   UNL A   1      46.250  24.727  28.773  1.00  0.00     0.031 C 
ATOM     56  C   UNL A   1      39.635  26.521  28.029  1.00  0.00     0.029 A 
ATOM     57  C   UNL A   1      40.513  27.535  28.603  1.00  0.00     0.049 A 
ATOM     58  H   UNL A   1      42.569  27.407  28.911  1.00  0.00     0.167 HD
ATOM     59  C   UNL A   1      46.832  26.946  29.707  1.00  0.00     0.031 A 
ATOM     60  C   UNL A   1      40.118  28.747  29.036  1.00  0.00     0.031 A 
ATOM     61  C   UNL A   1      46.520  28.290  30.115  1.00  0.00     0.049 A 
ATOM     62  C   UNL A   1      41.131  29.687  29.623  1.00  0.00     0.074 A 
ATOM     63  C   UNL A   1      47.379  29.269  30.584  1.00  0.00     0.029 A 
ATOM     64  N   UNL A   1      45.249  28.843  30.106  1.00  0.00    -0.354 N 
ATOM     65  N   UNL A   1      42.420  29.512  29.786  1.00  0.00    -0.248 NA
ATOM     66  C   UNL A   1      40.635  30.991  30.083  1.00  0.00     0.031 C 
ATOM     67  C   UNL A   1      46.619  30.399  30.906  1.00  0.00     0.029 A 
ATOM     68  C   UNL A   1      45.295  30.139  30.591  1.00  0.00     0.049 A 
ATOM     69  H   UNL A   1      44.435  28.382  29.800  1.00  0.00     0.167 HD
ATOM     70  C   UNL A   1      42.891  30.689  30.352  1.00  0.00     0.074 A 
ATOM     71  C   UNL A   1      41.754  31.577  30.485  1.00  0.00     0.031 C 
ATOM     72  C   UNL A   1      44.154  31.005  30.730  1.00  0.00     0.031 A 
BRANCH  59  73
ATOM     73  C   UNL A   1      48.247  26.464  29.867  1.00  0.00    -0.014 A 
ATOM     74  C   UNL A   1      49.200  26.662  28.855  1.00  0.00     0.009 A 
ATOM     75  C   UNL A   1      48.641  25.836  31.058  1.00  0.00     0.009 A 
ATOM     76  C   UNL A   1      50.510  26.207  29.019  1.00  0.00     0.001 A 
ATOM     77  C   UNL A   1      49.958  25.406  31.230  1.00  0.00     0.001 A 
ATOM     78  C   UNL A   1      50.889  25.584  30.208  1.00  0.00     0.000 A 
ENDBRANCH  59  73
BRANCH  60  79
ATOM     79  C   UNL A   1      38.690  29.145  28.930  1.00  0.00    -0.014 A 
ATOM     80  C   UNL A   1      37.829  28.994  30.028  1.00  0.00     0.009 A 
ATOM     81  C   UNL A   1      38.181  29.676  27.734  1.00  0.00     0.009 A 
ATOM     82  C   UNL A   1      36.482  29.347  29.923  1.00  0.00     0.001 A 
ATOM     83  C   UNL A   1      36.840  30.051  27.641  1.00  0.00     0.001 A 
ATOM     84  C   UNL A   1      35.989  29.878  28.732  1.00  0.00     0.000 A 
ENDBRANCH  60  79
BRANCH  72  85
ATOM     85  C   UNL A   1      44.371  32.372  31.311  1.00  0.00    -0.014 A 
ATOM     86  C   UNL A   1      44.399  32.573  32.700  1.00  0.00     0.009 A 
ATOM     87  C   UNL A   1      44.584  33.467  30.460  1.00  0.00     0.009 A 
ATOM     88  C   UNL A   1      44.608  33.849  33.225  1.00  0.00     0.001 A 
ATOM     89  C   UNL A   1      44.819  34.738  30.988  1.00  0.00     0.001 A 
ATOM     90  C   UNL A   1      44.822  34.929  32.369  1.00  0.00     0.000 A 
ENDBRANCH  72  85
ENDBRANCH  46  47
ENDBRANCH  38  41
ENDBRANCH  36  37
ENDBRANCH  35  36
ENDBRANCH   1  35
TORSDOF 16
ENDMDL
