MODEL 1
REMARK VINA RESULT:      -9.0      0.000      0.000
REMARK SMILES CCN(CC(=O)NC(C)C)C(=O)N[C@H]1C=C[C@H](C(=O)NCCCNC(=O)c2ccc(-c3c4nc(c(-c5ccccc5)c5ccc([nH]5)c(-c5ccccc5)c5nc(c(-c6ccccc6)c6ccc3[nH]6)C=C5)C=C4)cc2)C1
REMARK SMILES IDX 18 1 19 2 20 3 17 5 14 6 15 7 75 8 16 9 13 10 11 11 12 12
REMARK SMILES IDX 3 14 2 15 1 16 4 17 5 18 6 19 7 20 8 22 9 23 10 24 21 25
REMARK SMILES IDX 22 26 23 27 24 28 25 29 26 31 27 32 28 33 74 34 29 35 73 36
REMARK SMILES IDX 30 37 31 38 32 39 67 40 33 41 72 42 66 43 68 44 34 45 71 46
REMARK SMILES IDX 65 47 64 48 35 50 57 51 42 52 56 53 43 54 46 55 55 56 69 57
REMARK SMILES IDX 44 58 45 59 54 61 70 62 47 63 36 64 37 65 41 66 38 67 40 68
REMARK SMILES IDX 39 69 58 70 59 71 63 72 60 73 62 74 61 75 48 76 49 77 53 78
REMARK SMILES IDX 50 79 52 80 51 81
REMARK H PARENT 20 4 13 13 7 21 24 30 68 49 46 60
REMARK Flexibility Score: inf
ROOT
ATOM      1  C   UNL A   1      45.265  22.747  26.098  1.00  0.00     0.227 C 
ATOM      2  O   UNL A   1      46.138  23.092  26.897  1.00  0.00    -0.274 OA
ATOM      3  N   UNL A   1      44.539  21.641  26.418  1.00  0.00    -0.356 N 
ATOM      4  H   UNL A   1      44.607  21.349  27.355  1.00  0.00     0.163 HD
ENDROOT
BRANCH   1   5
ATOM      5  C   UNL A   1      44.965  23.519  24.807  1.00  0.00     0.103 C 
ATOM      6  C   UNL A   1      45.552  25.802  25.343  1.00  0.00     0.107 C 
ATOM      7  C   UNL A   1      44.066  25.640  25.275  1.00  0.00    -0.006 C 
ATOM      8  C   UNL A   1      46.034  24.589  24.543  1.00  0.00     0.047 C 
ATOM      9  C   UNL A   1      43.737  24.370  25.001  1.00  0.00    -0.016 C 
BRANCH   6  10
ATOM     10  N   UNL A   1      45.925  27.064  24.760  1.00  0.00    -0.332 N 
ATOM     11  C   UNL A   1      46.345  28.258  25.206  1.00  0.00     0.318 C 
ATOM     12  O   UNL A   1      46.573  29.086  24.314  1.00  0.00    -0.249 OA
ATOM     13  H   UNL A   1      45.855  27.046  23.779  1.00  0.00     0.165 HD
BRANCH  11  14
ATOM     14  N   UNL A   1      46.523  28.575  26.526  1.00  0.00    -0.316 N 
BRANCH  14  15
ATOM     15  C   UNL A   1      47.790  28.141  27.131  1.00  0.00     0.118 C 
ATOM     16  C   UNL A   1      48.670  29.298  27.588  1.00  0.00     0.027 C 
ENDBRANCH  14  15
BRANCH  14  17
ATOM     17  C   UNL A   1      45.557  29.210  27.436  1.00  0.00     0.221 C 
BRANCH  17  18
ATOM     18  C   UNL A   1      44.211  29.618  26.800  1.00  0.00     0.239 C 
ATOM     19  O   UNL A   1      43.267  28.827  26.726  1.00  0.00    -0.273 OA
ATOM     20  N   UNL A   1      43.967  30.902  26.417  1.00  0.00    -0.352 N 
ATOM     21  H   UNL A   1      43.381  31.027  25.636  1.00  0.00     0.163 HD
BRANCH  20  22
ATOM     22  C   UNL A   1      44.482  32.106  27.041  1.00  0.00     0.075 C 
ATOM     23  C   UNL A   1      44.231  33.328  26.171  1.00  0.00     0.030 C 
ATOM     24  C   UNL A   1      43.836  32.252  28.418  1.00  0.00     0.030 C 
ENDBRANCH  20  22
ENDBRANCH  17  18
ENDBRANCH  14  17
ENDBRANCH  11  14
ENDBRANCH   6  10
ENDBRANCH   1   5
BRANCH   3  25
ATOM     25  C   UNL A   1      43.682  20.835  25.576  1.00  0.00     0.117 C 
BRANCH  25  26
ATOM     26  C   UNL A   1      42.334  20.593  26.252  1.00  0.00     0.042 C 
BRANCH  26  27
ATOM     27  C   UNL A   1      41.595  21.881  26.617  1.00  0.00     0.118 C 
BRANCH  27  28
ATOM     28  N   UNL A   1      40.268  21.947  26.016  1.00  0.00    -0.352 N 
ATOM     29  C   UNL A   1      39.272  22.874  26.162  1.00  0.00     0.251 C 
ATOM     30  H   UNL A   1      40.054  21.204  25.407  1.00  0.00     0.163 HD
ATOM     31  O   UNL A   1      38.140  22.618  25.748  1.00  0.00    -0.269 OA
BRANCH  29  32
ATOM     32  C   UNL A   1      39.533  24.171  26.818  1.00  0.00     0.039 A 
ATOM     33  C   UNL A   1      39.065  24.378  28.118  1.00  0.00     0.014 A 
ATOM     34  C   UNL A   1      40.201  25.198  26.144  1.00  0.00     0.014 A 
ATOM     35  C   UNL A   1      39.322  25.588  28.766  1.00  0.00     0.010 A 
ATOM     36  C   UNL A   1      40.526  26.372  26.818  1.00  0.00     0.010 A 
ATOM     37  C   UNL A   1      40.087  26.581  28.134  1.00  0.00    -0.014 A 
BRANCH  37  38
ATOM     38  C   UNL A   1      40.447  27.838  28.837  1.00  0.00     0.031 A 
ATOM     39  C   UNL A   1      41.779  27.973  29.524  1.00  0.00     0.074 A 
ATOM     40  C   UNL A   1      39.546  28.837  28.915  1.00  0.00     0.049 A 
ATOM     41  N   UNL A   1      42.243  28.968  30.237  1.00  0.00    -0.248 NA
ATOM     42  C   UNL A   1      42.701  26.830  29.416  1.00  0.00     0.031 C 
ATOM     43  C   UNL A   1      38.205  28.817  28.326  1.00  0.00     0.029 A 
ATOM     44  N   UNL A   1      39.619  30.061  29.530  1.00  0.00    -0.354 N 
ATOM     45  C   UNL A   1      43.498  28.565  30.676  1.00  0.00     0.074 A 
ATOM     46  C   UNL A   1      43.703  27.218  30.191  1.00  0.00     0.031 C 
ATOM     47  C   UNL A   1      37.594  29.983  28.584  1.00  0.00     0.029 A 
ATOM     48  C   UNL A   1      38.478  30.813  29.396  1.00  0.00     0.049 A 
ATOM     49  H   UNL A   1      40.414  30.371  30.021  1.00  0.00     0.167 HD
ATOM     50  C   UNL A   1      44.406  29.259  31.404  1.00  0.00     0.031 A 
ATOM     51  C   UNL A   1      38.171  32.032  29.880  1.00  0.00     0.031 A 
ATOM     52  C   UNL A   1      44.203  30.602  31.882  1.00  0.00     0.049 A 
ATOM     53  C   UNL A   1      39.188  32.773  30.703  1.00  0.00     0.074 A 
ATOM     54  C   UNL A   1      45.086  31.411  32.575  1.00  0.00     0.029 A 
ATOM     55  N   UNL A   1      43.035  31.329  31.721  1.00  0.00    -0.354 N 
ATOM     56  N   UNL A   1      40.398  32.407  31.047  1.00  0.00    -0.248 NA
ATOM     57  C   UNL A   1      38.797  34.102  31.194  1.00  0.00     0.031 C 
ATOM     58  C   UNL A   1      44.429  32.605  32.888  1.00  0.00     0.029 A 
ATOM     59  C   UNL A   1      43.162  32.567  32.330  1.00  0.00     0.049 A 
ATOM     60  H   UNL A   1      42.234  31.014  31.245  1.00  0.00     0.167 HD
ATOM     61  C   UNL A   1      40.924  33.470  31.769  1.00  0.00     0.074 A 
ATOM     62  C   UNL A   1      39.907  34.501  31.798  1.00  0.00     0.031 C 
ATOM     63  C   UNL A   1      42.142  33.583  32.354  1.00  0.00     0.031 A 
BRANCH  50  64
ATOM     64  C   UNL A   1      45.700  28.570  31.738  1.00  0.00    -0.014 A 
ATOM     65  C   UNL A   1      45.825  27.760  32.879  1.00  0.00     0.009 A 
ATOM     66  C   UNL A   1      46.803  28.703  30.879  1.00  0.00     0.009 A 
ATOM     67  C   UNL A   1      47.036  27.131  33.173  1.00  0.00     0.001 A 
ATOM     68  C   UNL A   1      48.004  28.047  31.159  1.00  0.00     0.001 A 
ATOM     69  C   UNL A   1      48.123  27.272  32.310  1.00  0.00     0.000 A 
ENDBRANCH  50  64
BRANCH  51  70
ATOM     70  C   UNL A   1      36.842  32.634  29.593  1.00  0.00    -0.014 A 
ATOM     71  C   UNL A   1      35.790  32.511  30.513  1.00  0.00     0.009 A 
ATOM     72  C   UNL A   1      36.615  33.328  28.394  1.00  0.00     0.009 A 
ATOM     73  C   UNL A   1      34.531  33.045  30.226  1.00  0.00     0.001 A 
ATOM     74  C   UNL A   1      35.365  33.889  28.123  1.00  0.00     0.001 A 
ATOM     75  C   UNL A   1      34.321  33.738  29.034  1.00  0.00     0.000 A 
ENDBRANCH  51  70
BRANCH  63  76
ATOM     76  C   UNL A   1      42.456  34.880  33.045  1.00  0.00    -0.014 A 
ATOM     77  C   UNL A   1      43.169  35.901  32.397  1.00  0.00     0.009 A 
ATOM     78  C   UNL A   1      41.996  35.098  34.353  1.00  0.00     0.009 A 
ATOM     79  C   UNL A   1      43.444  37.100  33.059  1.00  0.00     0.001 A 
ATOM     80  C   UNL A   1      42.244  36.309  35.001  1.00  0.00     0.001 A 
ATOM     81  C   UNL A   1      42.976  37.304  34.357  1.00  0.00     0.000 A 
ENDBRANCH  63  76
ENDBRANCH  37  38
ENDBRANCH  29  32
ENDBRANCH  27  28
ENDBRANCH  26  27
ENDBRANCH  25  26
ENDBRANCH   3  25
TORSDOF 16
ENDMDL
MODEL 2
REMARK VINA RESULT:      -8.9      4.232      7.704
REMARK SMILES CCN(CC(=O)NC(C)C)C(=O)N[C@H]1C=C[C@H](C(=O)NCCCNC(=O)c2ccc(-c3c4nc(c(-c5ccccc5)c5ccc([nH]5)c(-c5ccccc5)c5nc(c(-c6ccccc6)c6ccc3[nH]6)C=C5)C=C4)cc2)C1
REMARK SMILES IDX 18 1 19 2 20 3 17 5 14 6 15 7 75 8 16 9 13 10 11 11 12 12
REMARK SMILES IDX 3 14 2 15 1 16 4 17 5 18 6 19 7 20 8 22 9 23 10 24 21 25
REMARK SMILES IDX 22 26 23 27 24 28 25 29 26 31 27 32 28 33 74 34 29 35 73 36
REMARK SMILES IDX 30 37 31 38 32 39 67 40 33 41 72 42 66 43 68 44 34 45 71 46
REMARK SMILES IDX 65 47 64 48 35 50 57 51 42 52 56 53 43 54 46 55 55 56 69 57
REMARK SMILES IDX 44 58 45 59 54 61 70 62 47 63 36 64 37 65 41 66 38 67 40 68
REMARK SMILES IDX 39 69 58 70 59 71 63 72 60 73 62 74 61 75 48 76 49 77 53 78
REMARK SMILES IDX 50 79 52 80 51 81
REMARK H PARENT 20 4 13 13 7 21 24 30 68 49 46 60
REMARK Flexibility Score: inf
ROOT
ATOM      1  C   UNL A   1      35.288  22.545  24.128  1.00  0.00     0.227 C 
ATOM      2  O   UNL A   1      35.329  23.338  23.185  1.00  0.00    -0.274 OA
ATOM      3  N   UNL A   1      36.309  21.650  24.225  1.00  0.00    -0.356 N 
ATOM      4  H   UNL A   1      37.104  21.856  23.683  1.00  0.00     0.163 HD
ENDROOT
BRANCH   1   5
ATOM      5  C   UNL A   1      34.170  22.557  25.177  1.00  0.00     0.103 C 
ATOM      6  C   UNL A   1      32.879  24.527  24.634  1.00  0.00     0.107 C 
ATOM      7  C   UNL A   1      33.683  24.747  25.877  1.00  0.00    -0.006 C 
ATOM      8  C   UNL A   1      32.836  22.998  24.559  1.00  0.00     0.047 C 
ATOM      9  C   UNL A   1      34.417  23.664  26.168  1.00  0.00    -0.016 C 
BRANCH   6  10
ATOM     10  N   UNL A   1      31.584  25.135  24.785  1.00  0.00    -0.332 N 
ATOM     11  C   UNL A   1      30.908  26.146  24.218  1.00  0.00     0.318 C 
ATOM     12  O   UNL A   1      29.767  26.316  24.667  1.00  0.00    -0.249 OA
ATOM     13  H   UNL A   1      31.054  24.693  25.488  1.00  0.00     0.165 HD
BRANCH  11  14
ATOM     14  N   UNL A   1      31.401  26.946  23.221  1.00  0.00    -0.316 N 
BRANCH  14  15
ATOM     15  C   UNL A   1      31.415  26.364  21.872  1.00  0.00     0.118 C 
ATOM     16  C   UNL A   1      32.810  25.983  21.392  1.00  0.00     0.027 C 
ENDBRANCH  14  15
BRANCH  14  17
ATOM     17  C   UNL A   1      32.009  28.279  23.357  1.00  0.00     0.221 C 
BRANCH  17  18
ATOM     18  C   UNL A   1      33.286  28.344  24.221  1.00  0.00     0.239 C 
ATOM     19  O   UNL A   1      34.403  28.465  23.712  1.00  0.00    -0.273 OA
ATOM     20  N   UNL A   1      33.221  28.406  25.581  1.00  0.00    -0.352 N 
ATOM     21  H   UNL A   1      33.952  27.975  26.078  1.00  0.00     0.163 HD
BRANCH  20  22
ATOM     22  C   UNL A   1      32.183  29.041  26.371  1.00  0.00     0.075 C 
ATOM     23  C   UNL A   1      31.767  28.162  27.541  1.00  0.00     0.030 C 
ATOM     24  C   UNL A   1      32.697  30.401  26.843  1.00  0.00     0.030 C 
ENDBRANCH  20  22
ENDBRANCH  17  18
ENDBRANCH  14  17
ENDBRANCH  11  14
ENDBRANCH   6  10
ENDBRANCH   1   5
BRANCH   3  25
ATOM     25  C   UNL A   1      36.391  20.440  25.014  1.00  0.00     0.117 C 
BRANCH  25  26
ATOM     26  C   UNL A   1      37.741  19.755  24.813  1.00  0.00     0.042 C 
BRANCH  26  27
ATOM     27  C   UNL A   1      38.850  20.323  25.699  1.00  0.00     0.118 C 
BRANCH  27  28
ATOM     28  N   UNL A   1      40.005  19.437  25.777  1.00  0.00    -0.352 N 
ATOM     29  C   UNL A   1      41.320  19.712  26.039  1.00  0.00     0.251 C 
ATOM     30  H   UNL A   1      39.806  18.486  25.614  1.00  0.00     0.163 HD
ATOM     31  O   UNL A   1      42.174  18.850  25.825  1.00  0.00    -0.269 OA
BRANCH  29  32
ATOM     32  C   UNL A   1      41.729  21.030  26.565  1.00  0.00     0.039 A 
ATOM     33  C   UNL A   1      42.195  21.999  25.672  1.00  0.00     0.014 A 
ATOM     34  C   UNL A   1      41.694  21.302  27.935  1.00  0.00     0.014 A 
ATOM     35  C   UNL A   1      42.564  23.260  26.145  1.00  0.00     0.010 A 
ATOM     36  C   UNL A   1      41.985  22.583  28.396  1.00  0.00     0.010 A 
ATOM     37  C   UNL A   1      42.427  23.574  27.506  1.00  0.00    -0.014 A 
BRANCH  37  38
ATOM     38  C   UNL A   1      42.729  24.936  28.015  1.00  0.00     0.031 A 
ATOM     39  C   UNL A   1      44.132  25.310  28.407  1.00  0.00     0.074 A 
ATOM     40  C   UNL A   1      41.724  25.818  28.187  1.00  0.00     0.049 A 
ATOM     41  N   UNL A   1      44.574  26.427  28.926  1.00  0.00    -0.248 NA
ATOM     42  C   UNL A   1      45.171  24.285  28.212  1.00  0.00     0.031 C 
ATOM     43  C   UNL A   1      40.314  25.567  27.883  1.00  0.00     0.029 A 
ATOM     44  N   UNL A   1      41.736  27.102  28.670  1.00  0.00    -0.354 N 
ATOM     45  C   UNL A   1      45.934  26.234  29.136  1.00  0.00     0.074 A 
ATOM     46  C   UNL A   1      46.235  24.878  28.736  1.00  0.00     0.031 C 
ATOM     47  C   UNL A   1      39.601  26.670  28.159  1.00  0.00     0.029 A 
ATOM     48  C   UNL A   1      40.493  27.688  28.704  1.00  0.00     0.049 A 
ATOM     49  H   UNL A   1      42.556  27.561  28.964  1.00  0.00     0.167 HD
ATOM     50  C   UNL A   1      46.853  27.111  29.606  1.00  0.00     0.031 A 
ATOM     51  C   UNL A   1      40.112  28.905  29.135  1.00  0.00     0.031 A 
ATOM     52  C   UNL A   1      46.554  28.463  30.000  1.00  0.00     0.049 A 
ATOM     53  C   UNL A   1      41.148  29.853  29.672  1.00  0.00     0.074 A 
ATOM     54  C   UNL A   1      47.426  29.447  30.432  1.00  0.00     0.029 A 
ATOM     55  N   UNL A   1      45.284  29.018  30.016  1.00  0.00    -0.354 N 
ATOM     56  N   UNL A   1      42.440  29.680  29.796  1.00  0.00    -0.248 NA
ATOM     57  C   UNL A   1      40.669  31.169  30.119  1.00  0.00     0.031 C 
ATOM     58  C   UNL A   1      46.675  30.579  30.768  1.00  0.00     0.029 A 
ATOM     59  C   UNL A   1      45.345  30.322  30.481  1.00  0.00     0.049 A 
ATOM     60  H   UNL A   1      44.461  28.555  29.739  1.00  0.00     0.167 HD
ATOM     61  C   UNL A   1      42.935  30.873  30.306  1.00  0.00     0.074 A 
ATOM     62  C   UNL A   1      41.805  31.766  30.452  1.00  0.00     0.031 C 
ATOM     63  C   UNL A   1      44.212  31.200  30.624  1.00  0.00     0.031 A 
BRANCH  50  64
ATOM     64  C   UNL A   1      48.272  26.630  29.731  1.00  0.00    -0.014 A 
ATOM     65  C   UNL A   1      49.259  27.015  28.807  1.00  0.00     0.009 A 
ATOM     66  C   UNL A   1      48.638  25.808  30.808  1.00  0.00     0.009 A 
ATOM     67  C   UNL A   1      50.571  26.554  28.940  1.00  0.00     0.001 A 
ATOM     68  C   UNL A   1      49.957  25.375  30.956  1.00  0.00     0.001 A 
ATOM     69  C   UNL A   1      50.919  25.739  30.015  1.00  0.00     0.000 A 
ENDBRANCH  50  64
BRANCH  51  70
ATOM     70  C   UNL A   1      38.680  29.302  29.071  1.00  0.00    -0.014 A 
ATOM     71  C   UNL A   1      38.152  29.882  27.908  1.00  0.00     0.009 A 
ATOM     72  C   UNL A   1      37.834  29.108  30.175  1.00  0.00     0.009 A 
ATOM     73  C   UNL A   1      36.816  30.287  27.861  1.00  0.00     0.001 A 
ATOM     74  C   UNL A   1      36.491  29.484  30.115  1.00  0.00     0.001 A 
ATOM     75  C   UNL A   1      35.985  30.083  28.963  1.00  0.00     0.000 A 
ENDBRANCH  51  70
BRANCH  63  76
ATOM     76  C   UNL A   1      44.461  32.594  31.125  1.00  0.00    -0.014 A 
ATOM     77  C   UNL A   1      44.725  33.654  30.244  1.00  0.00     0.009 A 
ATOM     78  C   UNL A   1      44.392  32.858  32.502  1.00  0.00     0.009 A 
ATOM     79  C   UNL A   1      44.948  34.942  30.735  1.00  0.00     0.001 A 
ATOM     80  C   UNL A   1      44.583  34.153  32.988  1.00  0.00     0.001 A 
ATOM     81  C   UNL A   1      44.870  35.191  32.105  1.00  0.00     0.000 A 
ENDBRANCH  63  76
ENDBRANCH  37  38
ENDBRANCH  29  32
ENDBRANCH  27  28
ENDBRANCH  26  27
ENDBRANCH  25  26
ENDBRANCH   3  25
TORSDOF 16
ENDMDL
MODEL 3
REMARK VINA RESULT:      -8.8      4.163     10.573
REMARK SMILES CCN(CC(=O)NC(C)C)C(=O)N[C@H]1C=C[C@H](C(=O)NCCCNC(=O)c2ccc(-c3c4nc(c(-c5ccccc5)c5ccc([nH]5)c(-c5ccccc5)c5nc(c(-c6ccccc6)c6ccc3[nH]6)C=C5)C=C4)cc2)C1
REMARK SMILES IDX 18 1 19 2 20 3 17 5 14 6 15 7 75 8 16 9 13 10 11 11 12 12
REMARK SMILES IDX 3 14 2 15 1 16 4 17 5 18 6 19 7 20 8 22 9 23 10 24 21 25
REMARK SMILES IDX 22 26 23 27 24 28 25 29 26 31 27 32 28 33 74 34 29 35 73 36
REMARK SMILES IDX 30 37 31 38 32 39 67 40 33 41 72 42 66 43 68 44 34 45 71 46
REMARK SMILES IDX 65 47 64 48 35 50 57 51 42 52 56 53 43 54 46 55 55 56 69 57
REMARK SMILES IDX 44 58 45 59 54 61 70 62 47 63 36 64 37 65 41 66 38 67 40 68
REMARK SMILES IDX 39 69 58 70 59 71 63 72 60 73 62 74 61 75 48 76 49 77 53 78
REMARK SMILES IDX 50 79 52 80 51 81
REMARK H PARENT 20 4 13 13 7 21 24 30 68 49 46 60
REMARK Flexibility Score: inf
ROOT
ATOM      1  C   UNL A   1      31.982  28.904  24.763  1.00  0.00     0.227 C 
ATOM      2  O   UNL A   1      31.261  28.635  23.800  1.00  0.00    -0.274 OA
ATOM      3  N   UNL A   1      31.411  29.595  25.787  1.00  0.00    -0.356 N 
ATOM      4  H   UNL A   1      30.427  29.618  25.783  1.00  0.00     0.163 HD
ENDROOT
BRANCH   1   5
ATOM      5  C   UNL A   1      33.451  28.472  24.849  1.00  0.00     0.103 C 
ATOM      6  C   UNL A   1      33.430  26.177  24.088  1.00  0.00     0.107 C 
ATOM      7  C   UNL A   1      33.640  26.242  25.568  1.00  0.00    -0.006 C 
ATOM      8  C   UNL A   1      33.838  27.588  23.655  1.00  0.00     0.047 C 
ATOM      9  C   UNL A   1      33.630  27.512  25.996  1.00  0.00    -0.016 C 
BRANCH   6  10
ATOM     10  N   UNL A   1      34.257  25.140  23.529  1.00  0.00    -0.332 N 
ATOM     11  C   UNL A   1      34.248  23.799  23.494  1.00  0.00     0.318 C 
ATOM     12  O   UNL A   1      35.186  23.297  22.862  1.00  0.00    -0.249 OA
ATOM     13  H   UNL A   1      35.030  25.512  23.047  1.00  0.00     0.165 HD
BRANCH  11  14
ATOM     14  N   UNL A   1      33.299  23.013  24.091  1.00  0.00    -0.316 N 
BRANCH  14  15
ATOM     15  C   UNL A   1      31.995  22.948  23.417  1.00  0.00     0.118 C 
ATOM     16  C   UNL A   1      30.858  23.543  24.239  1.00  0.00     0.027 C 
ENDBRANCH  14  15
BRANCH  14  17
ATOM     17  C   UNL A   1      33.397  22.306  25.378  1.00  0.00     0.221 C 
BRANCH  17  18
ATOM     18  C   UNL A   1      34.491  21.221  25.460  1.00  0.00     0.239 C 
ATOM     19  O   UNL A   1      35.537  21.407  26.087  1.00  0.00    -0.273 OA
ATOM     20  N   UNL A   1      34.288  19.969  24.959  1.00  0.00    -0.352 N 
ATOM     21  H   UNL A   1      35.077  19.506  24.597  1.00  0.00     0.163 HD
BRANCH  20  22
ATOM     22  C   UNL A   1      33.030  19.250  24.906  1.00  0.00     0.075 C 
ATOM     23  C   UNL A   1      32.392  19.361  23.530  1.00  0.00     0.030 C 
ATOM     24  C   UNL A   1      33.287  17.794  25.292  1.00  0.00     0.030 C 
ENDBRANCH  20  22
ENDBRANCH  17  18
ENDBRANCH  14  17
ENDBRANCH  11  14
ENDBRANCH   6  10
ENDBRANCH   1   5
BRANCH   3  25
ATOM     25  C   UNL A   1      32.045  30.299  26.881  1.00  0.00     0.117 C 
BRANCH  25  26
ATOM     26  C   UNL A   1      31.640  31.771  26.882  1.00  0.00     0.042 C 
BRANCH  26  27
ATOM     27  C   UNL A   1      32.830  32.730  26.864  1.00  0.00     0.118 C 
BRANCH  27  28
ATOM     28  N   UNL A   1      32.573  33.946  27.628  1.00  0.00    -0.352 N 
ATOM     29  C   UNL A   1      33.193  34.444  28.742  1.00  0.00     0.251 C 
ATOM     30  H   UNL A   1      31.833  34.498  27.286  1.00  0.00     0.163 HD
ATOM     31  O   UNL A   1      32.667  35.366  29.367  1.00  0.00    -0.269 OA
BRANCH  29  32
ATOM     32  C   UNL A   1      34.476  33.883  29.210  1.00  0.00     0.039 A 
ATOM     33  C   UNL A   1      34.481  33.055  30.336  1.00  0.00     0.014 A 
ATOM     34  C   UNL A   1      35.677  34.200  28.570  1.00  0.00     0.014 A 
ATOM     35  C   UNL A   1      35.680  32.495  30.781  1.00  0.00     0.010 A 
ATOM     36  C   UNL A   1      36.859  33.578  28.966  1.00  0.00     0.010 A 
ATOM     37  C   UNL A   1      36.873  32.722  30.077  1.00  0.00    -0.014 A 
BRANCH  37  38
ATOM     38  C   UNL A   1      38.142  32.065  30.481  1.00  0.00     0.031 A 
ATOM     39  C   UNL A   1      39.062  32.726  31.470  1.00  0.00     0.074 A 
ATOM     40  C   UNL A   1      38.499  30.900  29.905  1.00  0.00     0.049 A 
ATOM     41  N   UNL A   1      40.236  32.333  31.896  1.00  0.00    -0.248 NA
ATOM     42  C   UNL A   1      38.616  34.009  32.038  1.00  0.00     0.031 C 
ATOM     43  C   UNL A   1      37.715  30.174  28.903  1.00  0.00     0.029 A 
ATOM     44  N   UNL A   1      39.618  30.126  30.074  1.00  0.00    -0.354 N 
ATOM     45  C   UNL A   1      40.675  33.326  32.764  1.00  0.00     0.074 A 
ATOM     46  C   UNL A   1      39.666  34.361  32.767  1.00  0.00     0.031 C 
ATOM     47  C   UNL A   1      38.364  29.049  28.567  1.00  0.00     0.029 A 
ATOM     48  C   UNL A   1      39.628  28.996  29.292  1.00  0.00     0.049 A 
ATOM     49  H   UNL A   1      40.346  30.356  30.696  1.00  0.00     0.167 HD
ATOM     50  C   UNL A   1      41.809  33.366  33.504  1.00  0.00     0.031 A 
ATOM     51  C   UNL A   1      40.557  28.028  29.165  1.00  0.00     0.031 A 
ATOM     52  C   UNL A   1      42.811  32.332  33.505  1.00  0.00     0.049 A 
ATOM     53  C   UNL A   1      41.816  28.106  29.982  1.00  0.00     0.074 A 
ATOM     54  C   UNL A   1      43.965  32.253  34.265  1.00  0.00     0.029 A 
ATOM     55  N   UNL A   1      42.782  31.203  32.701  1.00  0.00    -0.354 N 
ATOM     56  N   UNL A   1      42.182  29.015  30.852  1.00  0.00    -0.248 NA
ATOM     57  C   UNL A   1      42.786  27.016  29.804  1.00  0.00     0.031 C 
ATOM     58  C   UNL A   1      44.665  31.105  33.876  1.00  0.00     0.029 A 
ATOM     59  C   UNL A   1      43.914  30.436  32.925  1.00  0.00     0.049 A 
ATOM     60  H   UNL A   1      42.064  30.980  32.067  1.00  0.00     0.167 HD
ATOM     61  C   UNL A   1      43.408  28.593  31.348  1.00  0.00     0.074 A 
ATOM     62  C   UNL A   1      43.715  27.338  30.693  1.00  0.00     0.031 C 
ATOM     63  C   UNL A   1      44.208  29.190  32.265  1.00  0.00     0.031 A 
BRANCH  50  64
ATOM     64  C   UNL A   1      42.031  34.575  34.369  1.00  0.00    -0.014 A 
ATOM     65  C   UNL A   1      42.693  35.714  33.879  1.00  0.00     0.009 A 
ATOM     66  C   UNL A   1      41.539  34.593  35.684  1.00  0.00     0.009 A 
ATOM     67  C   UNL A   1      42.891  36.827  34.700  1.00  0.00     0.001 A 
ATOM     68  C   UNL A   1      41.710  35.719  36.491  1.00  0.00     0.001 A 
ATOM     69  C   UNL A   1      42.396  36.829  36.003  1.00  0.00     0.000 A 
ENDBRANCH  50  64
BRANCH  51  70
ATOM     70  C   UNL A   1      40.327  26.896  28.229  1.00  0.00    -0.014 A 
ATOM     71  C   UNL A   1      40.820  26.944  26.916  1.00  0.00     0.009 A 
ATOM     72  C   UNL A   1      39.608  25.762  28.641  1.00  0.00     0.009 A 
ATOM     73  C   UNL A   1      40.572  25.896  26.027  1.00  0.00     0.001 A 
ATOM     74  C   UNL A   1      39.389  24.701  27.760  1.00  0.00     0.001 A 
ATOM     75  C   UNL A   1      39.862  24.773  26.451  1.00  0.00     0.000 A 
ENDBRANCH  51  70
BRANCH  63  76
ATOM     76  C   UNL A   1      45.475  28.476  32.643  1.00  0.00    -0.014 A 
ATOM     77  C   UNL A   1      46.678  28.705  31.957  1.00  0.00     0.009 A 
ATOM     78  C   UNL A   1      45.472  27.589  33.731  1.00  0.00     0.009 A 
ATOM     79  C   UNL A   1      47.844  28.032  32.332  1.00  0.00     0.001 A 
ATOM     80  C   UNL A   1      46.645  26.943  34.124  1.00  0.00     0.001 A 
ATOM     81  C   UNL A   1      47.827  27.158  33.418  1.00  0.00     0.000 A 
ENDBRANCH  63  76
ENDBRANCH  37  38
ENDBRANCH  29  32
ENDBRANCH  27  28
ENDBRANCH  26  27
ENDBRANCH  25  26
ENDBRANCH   3  25
TORSDOF 16
ENDMDL
