MODEL 1
REMARK VINA RESULT:     -12.7      0.000      0.000
REMARK SMILES O=C(N/N=C\c1ccccc1C(=O)NCCCNC(=O)c1ccc(-c2c3nc(c(-c4ccccc4)c4ccc([nH]4)c(-c4ccccc4)c4nc(c(-c5ccccc5)c5ccc2[nH]5)C=C4)C=C3)cc1)C(=O)N1CCCCC1
REMARK SMILES IDX 15 1 14 2 12 3 13 4 11 6 6 7 7 8 8 9 10 10 9 11 5 12 4 13
REMARK SMILES IDX 3 14 1 15 2 16 69 18 70 19 71 20 72 21 76 22 73 23 75 24
REMARK SMILES IDX 74 25 16 26 17 27 18 28 19 29 20 31 21 32 22 33 68 34 23 35
REMARK SMILES IDX 67 36 24 37 25 38 26 39 61 40 27 41 66 42 60 43 62 44 28 45
REMARK SMILES IDX 65 46 59 47 58 48 29 50 51 51 36 52 50 53 37 54 40 55 49 56
REMARK SMILES IDX 63 57 38 58 39 59 48 61 64 62 41 63 30 64 31 65 35 66 32 67
REMARK SMILES IDX 34 68 33 69 52 70 53 71 57 72 54 73 56 74 55 75 42 76 43 77
REMARK SMILES IDX 47 78 44 79 46 80 45 81
REMARK H PARENT 14 5 3 17 18 30 62 49 40 60
REMARK Flexibility Score: inf
ROOT
ATOM      1  C   UNL A   1      32.086  29.776  25.618  1.00  0.00     0.118 C 
ENDROOT
BRANCH   1   2
ATOM      2  N   UNL A   1      32.715  29.451  24.389  1.00  0.00    -0.352 N 
ATOM      3  C   UNL A   1      32.206  28.877  23.276  1.00  0.00     0.251 C 
ATOM      4  O   UNL A   1      33.013  28.583  22.395  1.00  0.00    -0.269 OA
ATOM      5  H   UNL A   1      33.671  29.678  24.339  1.00  0.00     0.163 HD
BRANCH   3   6
ATOM      6  C   UNL A   1      30.775  28.558  23.057  1.00  0.00     0.048 A 
ATOM      7  C   UNL A   1      29.687  27.308  23.832  1.00  0.00     0.007 A 
ATOM      8  C   UNL A   1      27.848  27.463  23.711  1.00  0.00     0.010 A 
ATOM      9  C   UNL A   1      27.131  28.732  22.653  1.00  0.00     0.001 A 
ATOM     10  C   UNL A   1      30.000  29.908  22.124  1.00  0.00     0.014 A 
ATOM     11  C   UNL A   1      28.194  29.945  21.836  1.00  0.00     0.001 A 
BRANCH   7  12
ATOM     12  C   UNL A   1      29.994  26.327  24.833  1.00  0.00     0.142 C 
ATOM     13  N   UNL A   1      30.756  25.360  24.494  1.00  0.00    -0.180 NA
BRANCH  13  14
ATOM     14  N   UNL A   1      31.101  25.357  23.179  1.00  0.00    -0.239 N 
ATOM     15  O   UNL A   1      32.327  25.476  21.376  1.00  0.00    -0.262 OA
ATOM     16  C   UNL A   1      32.221  24.888  22.466  1.00  0.00     0.329 C 
ATOM     17  H   UNL A   1      30.421  25.773  22.600  1.00  0.00     0.194 HD
BRANCH  16  18
ATOM     18  C   UNL A   1      33.390  23.621  22.797  1.00  0.00     0.313 C 
ATOM     19  O   UNL A   1      32.733  22.719  22.160  1.00  0.00    -0.263 OA
ATOM     20  N   UNL A   1      35.184  23.556  23.682  1.00  0.00    -0.334 N 
ATOM     21  C   UNL A   1      36.684  22.879  23.224  1.00  0.00     0.120 C 
ATOM     22  C   UNL A   1      35.773  24.207  25.163  1.00  0.00     0.120 C 
ATOM     23  C   UNL A   1      37.261  21.872  24.232  1.00  0.00     0.022 C 
ATOM     24  C   UNL A   1      36.262  23.114  26.121  1.00  0.00     0.022 C 
ATOM     25  C   UNL A   1      37.521  22.466  25.598  1.00  0.00     0.004 C 
ENDBRANCH  16  18
ENDBRANCH  13  14
ENDBRANCH   7  12
ENDBRANCH   3   6
ENDBRANCH   1   2
BRANCH   1  26
ATOM     26  C   UNL A   1      32.287  28.721  26.679  1.00  0.00     0.042 C 
BRANCH  26  27
ATOM     27  C   UNL A   1      33.593  28.981  27.380  1.00  0.00     0.118 C 
BRANCH  27  28
ATOM     28  N   UNL A   1      33.661  30.312  27.988  1.00  0.00    -0.352 N 
ATOM     29  C   UNL A   1      34.738  30.937  28.559  1.00  0.00     0.251 C 
ATOM     30  H   UNL A   1      32.821  30.825  27.985  1.00  0.00     0.163 HD
ATOM     31  O   UNL A   1      34.628  32.044  29.070  1.00  0.00    -0.269 OA
BRANCH  29  32
ATOM     32  C   UNL A   1      36.005  30.196  28.613  1.00  0.00     0.039 A 
ATOM     33  C   UNL A   1      36.866  30.275  27.521  1.00  0.00     0.014 A 
ATOM     34  C   UNL A   1      36.396  29.580  29.802  1.00  0.00     0.014 A 
ATOM     35  C   UNL A   1      38.161  29.792  27.655  1.00  0.00     0.010 A 
ATOM     36  C   UNL A   1      37.728  29.269  29.987  1.00  0.00     0.010 A 
ATOM     37  C   UNL A   1      38.612  29.332  28.904  1.00  0.00    -0.014 A 
BRANCH  37  38
ATOM     38  C   UNL A   1      39.992  28.843  29.089  1.00  0.00     0.031 A 
ATOM     39  C   UNL A   1      41.012  29.758  29.707  1.00  0.00     0.074 A 
ATOM     40  C   UNL A   1      40.326  27.612  28.658  1.00  0.00     0.049 A 
ATOM     41  N   UNL A   1      42.282  29.546  29.927  1.00  0.00    -0.248 NA
ATOM     42  C   UNL A   1      40.559  31.109  30.089  1.00  0.00     0.031 C 
ATOM     43  C   UNL A   1      39.427  26.668  27.989  1.00  0.00     0.029 A 
ATOM     44  N   UNL A   1      41.517  26.941  28.732  1.00  0.00    -0.354 N 
ATOM     45  C   UNL A   1      42.773  30.738  30.443  1.00  0.00     0.074 A 
ATOM     46  C   UNL A   1      41.695  31.695  30.419  1.00  0.00     0.031 C 
ATOM     47  C   UNL A   1      40.084  25.518  27.768  1.00  0.00     0.029 A 
ATOM     48  C   UNL A   1      41.458  25.662  28.232  1.00  0.00     0.049 A 
ATOM     49  H   UNL A   1      42.338  27.336  29.107  1.00  0.00     0.167 HD
ATOM     50  C   UNL A   1      44.005  31.002  30.932  1.00  0.00     0.031 A 
ATOM     51  C   UNL A   1      42.411  24.716  28.165  1.00  0.00     0.031 A 
ATOM     52  C   UNL A   1      45.059  30.031  30.975  1.00  0.00     0.049 A 
ATOM     53  C   UNL A   1      43.774  25.031  28.717  1.00  0.00     0.074 A 
ATOM     54  C   UNL A   1      46.330  30.160  31.504  1.00  0.00     0.029 A 
ATOM     55  N   UNL A   1      44.961  28.744  30.466  1.00  0.00    -0.354 N 
ATOM     56  N   UNL A   1      44.204  26.138  29.275  1.00  0.00    -0.248 NA
ATOM     57  C   UNL A   1      44.778  23.962  28.641  1.00  0.00     0.031 C 
ATOM     58  C   UNL A   1      47.022  28.971  31.256  1.00  0.00     0.029 A 
ATOM     59  C   UNL A   1      46.158  28.077  30.640  1.00  0.00     0.049 A 
ATOM     60  H   UNL A   1      44.158  28.364  30.043  1.00  0.00     0.167 HD
ATOM     61  C   UNL A   1      45.520  25.889  29.644  1.00  0.00     0.074 A 
ATOM     62  C   UNL A   1      45.806  24.520  29.262  1.00  0.00     0.031 C 
ATOM     63  C   UNL A   1      46.413  26.715  30.245  1.00  0.00     0.031 A 
BRANCH  50  64
ATOM     64  C   UNL A   1      44.259  32.391  31.448  1.00  0.00    -0.014 A 
ATOM     65  C   UNL A   1      44.019  32.731  32.792  1.00  0.00     0.009 A 
ATOM     66  C   UNL A   1      44.742  33.379  30.577  1.00  0.00     0.009 A 
ATOM     67  C   UNL A   1      44.213  34.040  33.237  1.00  0.00     0.001 A 
ATOM     68  C   UNL A   1      44.970  34.677  31.035  1.00  0.00     0.001 A 
ATOM     69  C   UNL A   1      44.694  35.010  32.360  1.00  0.00     0.000 A 
ENDBRANCH  50  64
BRANCH  51  70
ATOM     70  C   UNL A   1      42.102  23.384  27.582  1.00  0.00    -0.014 A 
ATOM     71  C   UNL A   1      41.521  22.377  28.369  1.00  0.00     0.009 A 
ATOM     72  C   UNL A   1      42.380  23.113  26.234  1.00  0.00     0.009 A 
ATOM     73  C   UNL A   1      41.255  21.117  27.826  1.00  0.00     0.001 A 
ATOM     74  C   UNL A   1      42.082  21.863  25.685  1.00  0.00     0.001 A 
ATOM     75  C   UNL A   1      41.531  20.863  26.484  1.00  0.00     0.000 A 
ENDBRANCH  51  70
BRANCH  63  76
ATOM     76  C   UNL A   1      47.767  26.145  30.558  1.00  0.00    -0.014 A 
ATOM     77  C   UNL A   1      48.089  25.685  31.843  1.00  0.00     0.009 A 
ATOM     78  C   UNL A   1      48.719  26.028  29.532  1.00  0.00     0.009 A 
ATOM     79  C   UNL A   1      49.352  25.153  32.104  1.00  0.00     0.001 A 
ATOM     80  C   UNL A   1      49.967  25.462  29.787  1.00  0.00     0.001 A 
ATOM     81  C   UNL A   1      50.286  25.036  31.075  1.00  0.00     0.000 A 
ENDBRANCH  63  76
ENDBRANCH  37  38
ENDBRANCH  29  32
ENDBRANCH  27  28
ENDBRANCH  26  27
ENDBRANCH   1  26
TORSDOF 13
ENDMDL
MODEL 2
REMARK VINA RESULT:     -12.6      2.645      8.343
REMARK SMILES O=C(N/N=C\c1ccccc1C(=O)NCCCNC(=O)c1ccc(-c2c3nc(c(-c4ccccc4)c4ccc([nH]4)c(-c4ccccc4)c4nc(c(-c5ccccc5)c5ccc2[nH]5)C=C4)C=C3)cc1)C(=O)N1CCCCC1
REMARK SMILES IDX 15 1 14 2 12 3 13 4 11 6 6 7 7 8 8 9 10 10 9 11 5 12 4 13
REMARK SMILES IDX 3 14 1 15 2 16 69 18 70 19 71 20 72 21 76 22 73 23 75 24
REMARK SMILES IDX 74 25 16 26 17 27 18 28 19 29 20 31 21 32 22 33 68 34 23 35
REMARK SMILES IDX 67 36 24 37 25 38 26 39 61 40 27 41 66 42 60 43 62 44 28 45
REMARK SMILES IDX 65 46 59 47 58 48 29 50 51 51 36 52 50 53 37 54 40 55 49 56
REMARK SMILES IDX 63 57 38 58 39 59 48 61 64 62 41 63 30 64 31 65 35 66 32 67
REMARK SMILES IDX 34 68 33 69 52 70 53 71 57 72 54 73 56 74 55 75 42 76 43 77
REMARK SMILES IDX 47 78 44 79 46 80 45 81
REMARK H PARENT 14 5 3 17 18 30 62 49 40 60
REMARK Flexibility Score: inf
ROOT
ATOM      1  C   UNL A   1      37.042  21.361  25.102  1.00  0.00     0.118 C 
ENDROOT
BRANCH   1   2
ATOM      2  N   UNL A   1      36.185  21.343  26.231  1.00  0.00    -0.352 N 
ATOM      3  C   UNL A   1      34.846  21.512  26.310  1.00  0.00     0.251 C 
ATOM      4  O   UNL A   1      34.370  21.583  27.444  1.00  0.00    -0.269 OA
ATOM      5  H   UNL A   1      36.635  21.183  27.091  1.00  0.00     0.163 HD
BRANCH   3   6
ATOM      6  C   UNL A   1      33.931  21.643  25.152  1.00  0.00     0.048 A 
ATOM      7  C   UNL A   1      33.728  22.982  23.922  1.00  0.00     0.007 A 
ATOM      8  C   UNL A   1      32.857  22.661  22.323  1.00  0.00     0.010 A 
ATOM      9  C   UNL A   1      32.025  21.084  22.065  1.00  0.00     0.001 A 
ATOM     10  C   UNL A   1      33.204  20.022  24.782  1.00  0.00     0.014 A 
ATOM     11  C   UNL A   1      32.171  19.766  23.294  1.00  0.00     0.001 A 
BRANCH   7  12
ATOM     12  C   UNL A   1      34.415  24.237  23.820  1.00  0.00     0.142 C 
ATOM     13  N   UNL A   1      33.917  25.233  24.445  1.00  0.00    -0.180 NA
BRANCH  13  14
ATOM     14  N   UNL A   1      32.733  24.970  25.059  1.00  0.00    -0.239 N 
ATOM     15  O   UNL A   1      31.037  25.163  26.421  1.00  0.00    -0.262 OA
ATOM     16  C   UNL A   1      31.696  25.778  25.564  1.00  0.00     0.329 C 
ATOM     17  H   UNL A   1      32.565  24.006  25.176  1.00  0.00     0.194 HD
BRANCH  16  18
ATOM     18  C   UNL A   1      31.149  27.395  25.156  1.00  0.00     0.313 C 
ATOM     19  O   UNL A   1      31.880  27.967  26.045  1.00  0.00    -0.263 OA
ATOM     20  N   UNL A   1      29.961  28.166  23.743  1.00  0.00    -0.334 N 
ATOM     21  C   UNL A   1      30.139  29.475  22.659  1.00  0.00     0.120 C 
ATOM     22  C   UNL A   1      28.408  27.711  23.155  1.00  0.00     0.120 C 
ATOM     23  C   UNL A   1      29.033  30.538  22.758  1.00  0.00     0.022 C 
ATOM     24  C   UNL A   1      27.366  28.817  23.363  1.00  0.00     0.022 C 
ATOM     25  C   UNL A   1      27.650  29.998  22.469  1.00  0.00     0.004 C 
ENDBRANCH  16  18
ENDBRANCH  13  14
ENDBRANCH   7  12
ENDBRANCH   3   6
ENDBRANCH   1   2
BRANCH   1  26
ATOM     26  C   UNL A   1      37.917  20.134  25.008  1.00  0.00     0.042 C 
BRANCH  26  27
ATOM     27  C   UNL A   1      39.184  20.382  25.783  1.00  0.00     0.118 C 
BRANCH  27  28
ATOM     28  N   UNL A   1      40.103  19.243  25.754  1.00  0.00    -0.352 N 
ATOM     29  C   UNL A   1      41.446  19.221  26.029  1.00  0.00     0.251 C 
ATOM     30  H   UNL A   1      39.705  18.379  25.503  1.00  0.00     0.163 HD
ATOM     31  O   UNL A   1      42.096  18.190  25.918  1.00  0.00    -0.269 OA
BRANCH  29  32
ATOM     32  C   UNL A   1      42.090  20.493  26.378  1.00  0.00     0.039 A 
ATOM     33  C   UNL A   1      42.365  21.399  25.355  1.00  0.00     0.014 A 
ATOM     34  C   UNL A   1      42.252  20.843  27.718  1.00  0.00     0.014 A 
ATOM     35  C   UNL A   1      42.738  22.693  25.692  1.00  0.00     0.010 A 
ATOM     36  C   UNL A   1      42.444  22.169  28.045  1.00  0.00     0.010 A 
ATOM     37  C   UNL A   1      42.731  23.097  27.038  1.00  0.00    -0.014 A 
BRANCH  37  38
ATOM     38  C   UNL A   1      43.090  24.475  27.427  1.00  0.00     0.031 A 
ATOM     39  C   UNL A   1      44.529  24.902  27.347  1.00  0.00     0.074 A 
ATOM     40  C   UNL A   1      42.139  25.305  27.893  1.00  0.00     0.049 A 
ATOM     41  N   UNL A   1      45.067  26.048  27.673  1.00  0.00    -0.248 NA
ATOM     42  C   UNL A   1      45.504  23.898  26.881  1.00  0.00     0.031 C 
ATOM     43  C   UNL A   1      40.724  24.968  28.069  1.00  0.00     0.029 A 
ATOM     44  N   UNL A   1      42.222  26.612  28.294  1.00  0.00    -0.354 N 
ATOM     45  C   UNL A   1      46.432  25.885  27.476  1.00  0.00     0.074 A 
ATOM     46  C   UNL A   1      46.653  24.513  27.093  1.00  0.00     0.031 C 
ATOM     47  C   UNL A   1      40.061  26.060  28.486  1.00  0.00     0.029 A 
ATOM     48  C   UNL A   1      41.011  27.153  28.654  1.00  0.00     0.049 A 
ATOM     49  H   UNL A   1      43.067  27.115  28.322  1.00  0.00     0.167 HD
ATOM     50  C   UNL A   1      47.414  26.810  27.568  1.00  0.00     0.031 A 
ATOM     51  C   UNL A   1      40.710  28.397  29.067  1.00  0.00     0.031 A 
ATOM     52  C   UNL A   1      47.175  28.179  27.923  1.00  0.00     0.049 A 
ATOM     53  C   UNL A   1      41.817  29.409  29.160  1.00  0.00     0.074 A 
ATOM     54  C   UNL A   1      48.078  29.223  27.988  1.00  0.00     0.029 A 
ATOM     55  N   UNL A   1      45.935  28.692  28.274  1.00  0.00    -0.354 N 
ATOM     56  N   UNL A   1      43.094  29.265  28.895  1.00  0.00    -0.248 NA
ATOM     57  C   UNL A   1      41.439  30.759  29.596  1.00  0.00     0.031 C 
ATOM     58  C   UNL A   1      47.395  30.355  28.441  1.00  0.00     0.029 A 
ATOM     59  C   UNL A   1      46.053  30.033  28.587  1.00  0.00     0.049 A 
ATOM     60  H   UNL A   1      45.096  28.178  28.298  1.00  0.00     0.167 HD
ATOM     61  C   UNL A   1      43.668  30.512  29.103  1.00  0.00     0.074 A 
ATOM     62  C   UNL A   1      42.594  31.402  29.497  1.00  0.00     0.031 C 
ATOM     63  C   UNL A   1      44.964  30.891  28.980  1.00  0.00     0.031 A 
BRANCH  50  64
ATOM     64  C   UNL A   1      48.818  26.356  27.281  1.00  0.00    -0.014 A 
ATOM     65  C   UNL A   1      49.655  25.867  28.299  1.00  0.00     0.009 A 
ATOM     66  C   UNL A   1      49.316  26.422  25.971  1.00  0.00     0.009 A 
ATOM     67  C   UNL A   1      50.973  25.499  28.019  1.00  0.00     0.001 A 
ATOM     68  C   UNL A   1      50.621  26.019  25.688  1.00  0.00     0.001 A 
ATOM     69  C   UNL A   1      51.453  25.570  26.713  1.00  0.00     0.000 A 
ENDBRANCH  50  64
BRANCH  51  70
ATOM     70  C   UNL A   1      39.305  28.755  29.394  1.00  0.00    -0.014 A 
ATOM     71  C   UNL A   1      38.830  28.660  30.712  1.00  0.00     0.009 A 
ATOM     72  C   UNL A   1      38.430  29.202  28.391  1.00  0.00     0.009 A 
ATOM     73  C   UNL A   1      37.502  28.973  31.011  1.00  0.00     0.001 A 
ATOM     74  C   UNL A   1      37.112  29.546  28.699  1.00  0.00     0.001 A 
ATOM     75  C   UNL A   1      36.645  29.421  30.007  1.00  0.00     0.000 A 
ENDBRANCH  51  70
BRANCH  63  76
ATOM     76  C   UNL A   1      45.281  32.336  29.239  1.00  0.00    -0.014 A 
ATOM     77  C   UNL A   1      45.305  33.278  28.200  1.00  0.00     0.009 A 
ATOM     78  C   UNL A   1      45.515  32.766  30.556  1.00  0.00     0.009 A 
ATOM     79  C   UNL A   1      45.595  34.616  28.470  1.00  0.00     0.001 A 
ATOM     80  C   UNL A   1      45.767  34.109  30.827  1.00  0.00     0.001 A 
ATOM     81  C   UNL A   1      45.819  35.031  29.783  1.00  0.00     0.000 A 
ENDBRANCH  63  76
ENDBRANCH  37  38
ENDBRANCH  29  32
ENDBRANCH  27  28
ENDBRANCH  26  27
ENDBRANCH   1  26
TORSDOF 13
ENDMDL
MODEL 3
REMARK VINA RESULT:     -12.5      3.450      4.837
REMARK SMILES O=C(N/N=C\c1ccccc1C(=O)NCCCNC(=O)c1ccc(-c2c3nc(c(-c4ccccc4)c4ccc([nH]4)c(-c4ccccc4)c4nc(c(-c5ccccc5)c5ccc2[nH]5)C=C4)C=C3)cc1)C(=O)N1CCCCC1
REMARK SMILES IDX 15 1 14 2 12 3 13 4 11 6 6 7 7 8 8 9 10 10 9 11 5 12 4 13
REMARK SMILES IDX 3 14 1 15 2 16 69 18 70 19 71 20 72 21 76 22 73 23 75 24
REMARK SMILES IDX 74 25 16 26 17 27 18 28 19 29 20 31 21 32 22 33 68 34 23 35
REMARK SMILES IDX 67 36 24 37 25 38 26 39 61 40 27 41 66 42 60 43 62 44 28 45
REMARK SMILES IDX 65 46 59 47 58 48 29 50 51 51 36 52 50 53 37 54 40 55 49 56
REMARK SMILES IDX 63 57 38 58 39 59 48 61 64 62 41 63 30 64 31 65 35 66 32 67
REMARK SMILES IDX 34 68 33 69 52 70 53 71 57 72 54 73 56 74 55 75 42 76 43 77
REMARK SMILES IDX 47 78 44 79 46 80 45 81
REMARK H PARENT 14 5 3 17 18 30 62 49 40 60
REMARK Flexibility Score: inf
ROOT
ATOM      1  C   UNL A   1      32.210  30.188  26.699  1.00  0.00     0.118 C 
ENDROOT
BRANCH   1   2
ATOM      2  N   UNL A   1      33.113  29.866  25.654  1.00  0.00    -0.352 N 
ATOM      3  C   UNL A   1      33.030  28.919  24.693  1.00  0.00     0.251 C 
ATOM      4  O   UNL A   1      34.028  28.767  23.988  1.00  0.00    -0.269 OA
ATOM      5  H   UNL A   1      33.927  30.418  25.624  1.00  0.00     0.163 HD
BRANCH   3   6
ATOM      6  C   UNL A   1      31.855  28.049  24.449  1.00  0.00     0.048 A 
ATOM      7  C   UNL A   1      31.274  26.540  25.306  1.00  0.00     0.007 A 
ATOM      8  C   UNL A   1      29.534  25.953  25.093  1.00  0.00     0.010 A 
ATOM      9  C   UNL A   1      28.470  26.749  23.877  1.00  0.00     0.001 A 
ATOM     10  C   UNL A   1      30.697  28.907  23.347  1.00  0.00     0.014 A 
ATOM     11  C   UNL A   1      29.045  28.211  22.982  1.00  0.00     0.001 A 
BRANCH   7  12
ATOM     12  C   UNL A   1      31.856  25.843  26.417  1.00  0.00     0.142 C 
ATOM     13  N   UNL A   1      32.535  24.792  26.161  1.00  0.00    -0.180 NA
BRANCH  13  14
ATOM     14  N   UNL A   1      32.534  24.434  24.850  1.00  0.00    -0.239 N 
ATOM     15  O   UNL A   1      33.248  23.713  22.916  1.00  0.00    -0.262 OA
ATOM     16  C   UNL A   1      33.165  23.409  24.119  1.00  0.00     0.329 C 
ATOM     17  H   UNL A   1      31.971  25.017  24.290  1.00  0.00     0.194 HD
BRANCH  16  18
ATOM     18  C   UNL A   1      33.755  21.819  24.575  1.00  0.00     0.313 C 
ATOM     19  O   UNL A   1      34.809  22.274  25.153  1.00  0.00    -0.263 OA
ATOM     20  N   UNL A   1      33.038  19.957  24.434  1.00  0.00    -0.334 N 
ATOM     21  C   UNL A   1      32.894  18.677  25.556  1.00  0.00     0.120 C 
ATOM     22  C   UNL A   1      32.301  19.090  23.142  1.00  0.00     0.120 C 
ATOM     23  C   UNL A   1      33.585  17.373  25.126  1.00  0.00     0.022 C 
ATOM     24  C   UNL A   1      33.106  17.845  22.749  1.00  0.00     0.022 C 
ATOM     25  C   UNL A   1      33.044  16.800  23.835  1.00  0.00     0.004 C 
ENDBRANCH  16  18
ENDBRANCH  13  14
ENDBRANCH   7  12
ENDBRANCH   3   6
ENDBRANCH   1   2
BRANCH   1  26
ATOM     26  C   UNL A   1      31.781  31.636  26.680  1.00  0.00     0.042 C 
BRANCH  26  27
ATOM     27  C   UNL A   1      32.884  32.475  27.267  1.00  0.00     0.118 C 
BRANCH  27  28
ATOM     28  N   UNL A   1      32.446  33.827  27.623  1.00  0.00    -0.352 N 
ATOM     29  C   UNL A   1      33.016  34.704  28.508  1.00  0.00     0.251 C 
ATOM     30  H   UNL A   1      31.635  34.147  27.168  1.00  0.00     0.163 HD
ATOM     31  O   UNL A   1      32.504  35.793  28.735  1.00  0.00    -0.269 OA
BRANCH  29  32
ATOM     32  C   UNL A   1      34.211  34.258  29.236  1.00  0.00     0.039 A 
ATOM     33  C   UNL A   1      34.047  33.374  30.301  1.00  0.00     0.014 A 
ATOM     34  C   UNL A   1      35.477  34.579  28.749  1.00  0.00     0.014 A 
ATOM     35  C   UNL A   1      35.169  32.754  30.832  1.00  0.00     0.010 A 
ATOM     36  C   UNL A   1      36.561  33.828  29.157  1.00  0.00     0.010 A 
ATOM     37  C   UNL A   1      36.425  32.940  30.230  1.00  0.00    -0.014 A 
BRANCH  37  38
ATOM     38  C   UNL A   1      37.632  32.269  30.750  1.00  0.00     0.031 A 
ATOM     39  C   UNL A   1      38.277  32.796  32.001  1.00  0.00     0.074 A 
ATOM     40  C   UNL A   1      38.164  31.235  30.071  1.00  0.00     0.049 A 
ATOM     41  N   UNL A   1      39.358  32.383  32.607  1.00  0.00    -0.248 NA
ATOM     42  C   UNL A   1      37.651  33.973  32.635  1.00  0.00     0.031 C 
ATOM     43  C   UNL A   1      37.651  30.685  28.813  1.00  0.00     0.029 A 
ATOM     44  N   UNL A   1      39.251  30.453  30.357  1.00  0.00    -0.354 N 
ATOM     45  C   UNL A   1      39.548  33.262  33.666  1.00  0.00     0.074 A 
ATOM     46  C   UNL A   1      38.532  34.280  33.570  1.00  0.00     0.031 C 
ATOM     47  C   UNL A   1      38.389  29.618  28.468  1.00  0.00     0.029 A 
ATOM     48  C   UNL A   1      39.453  29.441  29.450  1.00  0.00     0.049 A 
ATOM     49  H   UNL A   1      39.833  30.601  31.137  1.00  0.00     0.167 HD
ATOM     50  C   UNL A   1      40.466  33.203  34.656  1.00  0.00     0.031 A 
ATOM     51  C   UNL A   1      40.391  28.478  29.424  1.00  0.00     0.031 A 
ATOM     52  C   UNL A   1      41.454  32.168  34.754  1.00  0.00     0.049 A 
ATOM     53  C   UNL A   1      41.400  28.432  30.537  1.00  0.00     0.074 A 
ATOM     54  C   UNL A   1      42.396  31.966  35.745  1.00  0.00     0.029 A 
ATOM     55  N   UNL A   1      41.623  31.156  33.820  1.00  0.00    -0.354 N 
ATOM     56  N   UNL A   1      41.522  29.222  31.577  1.00  0.00    -0.248 NA
ATOM     57  C   UNL A   1      42.394  27.352  30.479  1.00  0.00     0.031 C 
ATOM     58  C   UNL A   1      43.178  30.868  35.377  1.00  0.00     0.029 A 
ATOM     59  C   UNL A   1      42.675  30.343  34.195  1.00  0.00     0.049 A 
ATOM     60  H   UNL A   1      41.076  31.036  33.011  1.00  0.00     0.167 HD
ATOM     61  C   UNL A   1      42.586  28.718  32.314  1.00  0.00     0.074 A 
ATOM     62  C   UNL A   1      43.060  27.544  31.609  1.00  0.00     0.031 C 
ATOM     63  C   UNL A   1      43.125  29.182  33.469  1.00  0.00     0.031 A 
BRANCH  50  64
ATOM     64  C   UNL A   1      40.431  34.291  35.693  1.00  0.00    -0.014 A 
ATOM     65  C   UNL A   1      41.185  35.469  35.550  1.00  0.00     0.009 A 
ATOM     66  C   UNL A   1      39.634  34.135  36.838  1.00  0.00     0.009 A 
ATOM     67  C   UNL A   1      41.178  36.443  36.550  1.00  0.00     0.001 A 
ATOM     68  C   UNL A   1      39.601  35.127  37.819  1.00  0.00     0.001 A 
ATOM     69  C   UNL A   1      40.381  36.273  37.681  1.00  0.00     0.000 A 
ENDBRANCH  50  64
BRANCH  51  70
ATOM     70  C   UNL A   1      40.399  27.473  28.329  1.00  0.00    -0.014 A 
ATOM     71  C   UNL A   1      41.157  27.687  27.167  1.00  0.00     0.009 A 
ATOM     72  C   UNL A   1      39.655  26.288  28.442  1.00  0.00     0.009 A 
ATOM     73  C   UNL A   1      41.142  26.753  26.128  1.00  0.00     0.001 A 
ATOM     74  C   UNL A   1      39.669  25.340  27.417  1.00  0.00     0.001 A 
ATOM     75  C   UNL A   1      40.404  25.577  26.256  1.00  0.00     0.000 A 
ENDBRANCH  51  70
BRANCH  63  76
ATOM     76  C   UNL A   1      44.260  28.395  34.057  1.00  0.00    -0.014 A 
ATOM     77  C   UNL A   1      45.594  28.669  33.720  1.00  0.00     0.009 A 
ATOM     78  C   UNL A   1      43.987  27.391  35.001  1.00  0.00     0.009 A 
ATOM     79  C   UNL A   1      46.630  27.927  34.288  1.00  0.00     0.001 A 
ATOM     80  C   UNL A   1      45.026  26.677  35.594  1.00  0.00     0.001 A 
ATOM     81  C   UNL A   1      46.346  26.937  35.228  1.00  0.00     0.000 A 
ENDBRANCH  63  76
ENDBRANCH  37  38
ENDBRANCH  29  32
ENDBRANCH  27  28
ENDBRANCH  26  27
ENDBRANCH   1  26
TORSDOF 13
ENDMDL
