MODEL 1
REMARK VINA RESULT:     -11.2      0.000      0.000
REMARK SMILES O=C(NCCCNC(=O)C1(C[C@@H]2COc3ccccc32)CC[NH2+]CC1)c1ccc(-c2c3nc(c(-c4ccccc4)c4ccc([nH]4)c(-c4ccccc4)c4nc(c(-c5ccccc5)c5ccc2[nH]5)C=C4)C=C3)cc1
REMARK SMILES IDX 5 1 4 2 3 3 1 4 2 5 26 7 27 8 73 9 28 10 72 11 29 12 30 13
REMARK SMILES IDX 31 14 66 15 32 16 71 17 65 18 67 19 33 20 70 21 64 22 63 23
REMARK SMILES IDX 34 25 56 26 41 27 55 28 42 29 45 30 54 31 68 32 43 33 44 34
REMARK SMILES IDX 53 36 69 37 46 38 35 39 36 40 40 41 37 42 39 43 38 44 57 45
REMARK SMILES IDX 58 46 62 47 59 48 61 49 60 50 47 51 48 52 52 53 49 54 51 55
REMARK SMILES IDX 50 56 6 57 7 58 8 59 9 61 10 62 21 63 25 64 22 65 24 66
REMARK SMILES IDX 23 67 11 70 12 71 13 72 20 73 14 74 15 75 19 76 16 77 18 78
REMARK SMILES IDX 17 79
REMARK H PARENT 3 6 67 24 45 35 7 60 23 68 23 69
REMARK Flexibility Score: inf
ROOT
ATOM      1  C   UNL A   1      31.970  29.329  27.163  1.00  0.00     0.042 C 
ENDROOT
BRANCH   1   2
ATOM      2  C   UNL A   1      33.336  29.995  26.919  1.00  0.00     0.118 C 
BRANCH   2   3
ATOM      3  N   UNL A   1      33.612  31.040  27.882  1.00  0.00    -0.352 N 
ATOM      4  O   UNL A   1      34.514  32.144  29.599  1.00  0.00    -0.269 OA
ATOM      5  C   UNL A   1      34.650  31.245  28.757  1.00  0.00     0.251 C 
ATOM      6  H   UNL A   1      32.920  31.739  27.917  1.00  0.00     0.163 HD
BRANCH   5   7
ATOM      7  C   UNL A   1      35.920  30.472  28.755  1.00  0.00     0.039 A 
ATOM      8  C   UNL A   1      36.783  30.406  27.659  1.00  0.00     0.014 A 
ATOM      9  C   UNL A   1      36.354  29.953  29.985  1.00  0.00     0.014 A 
ATOM     10  C   UNL A   1      38.059  29.821  27.793  1.00  0.00     0.010 A 
ATOM     11  C   UNL A   1      37.634  29.398  30.128  1.00  0.00     0.010 A 
ATOM     12  C   UNL A   1      38.509  29.337  29.035  1.00  0.00    -0.014 A 
BRANCH  12  13
ATOM     13  C   UNL A   1      39.914  28.872  29.232  1.00  0.00     0.031 A 
ATOM     14  C   UNL A   1      40.976  29.780  29.791  1.00  0.00     0.074 A 
ATOM     15  C   UNL A   1      40.268  27.633  28.831  1.00  0.00     0.049 A 
ATOM     16  N   UNL A   1      42.249  29.535  29.997  1.00  0.00    -0.248 NA
ATOM     17  C   UNL A   1      40.560  31.141  30.157  1.00  0.00     0.031 C 
ATOM     18  C   UNL A   1      39.367  26.651  28.224  1.00  0.00     0.029 A 
ATOM     19  N   UNL A   1      41.485  26.992  28.863  1.00  0.00    -0.354 N 
ATOM     20  C   UNL A   1      42.786  30.709  30.509  1.00  0.00     0.074 A 
ATOM     21  C   UNL A   1      41.707  31.676  30.556  1.00  0.00     0.031 C 
ATOM     22  C   UNL A   1      40.056  25.529  27.959  1.00  0.00     0.029 A 
ATOM     23  C   UNL A   1      41.451  25.718  28.347  1.00  0.00     0.049 A 
ATOM     24  H   UNL A   1      42.302  27.406  29.222  1.00  0.00     0.167 HD
ATOM     25  C   UNL A   1      44.057  30.963  30.913  1.00  0.00     0.031 A 
ATOM     26  C   UNL A   1      42.427  24.802  28.193  1.00  0.00     0.031 A 
ATOM     27  C   UNL A   1      45.145  30.019  30.868  1.00  0.00     0.049 A 
ATOM     28  C   UNL A   1      43.831  25.114  28.629  1.00  0.00     0.074 A 
ATOM     29  C   UNL A   1      46.446  30.184  31.314  1.00  0.00     0.029 A 
ATOM     30  N   UNL A   1      45.066  28.743  30.336  1.00  0.00    -0.354 N 
ATOM     31  N   UNL A   1      44.300  26.204  29.182  1.00  0.00    -0.248 NA
ATOM     32  C   UNL A   1      44.838  24.060  28.424  1.00  0.00     0.031 C 
ATOM     33  C   UNL A   1      47.166  29.021  31.015  1.00  0.00     0.029 A 
ATOM     34  C   UNL A   1      46.302  28.119  30.420  1.00  0.00     0.049 A 
ATOM     35  H   UNL A   1      44.254  28.338  29.955  1.00  0.00     0.167 HD
ATOM     36  C   UNL A   1      45.649  25.963  29.409  1.00  0.00     0.074 A 
ATOM     37  C   UNL A   1      45.922  24.618  28.947  1.00  0.00     0.031 C 
ATOM     38  C   UNL A   1      46.577  26.786  29.953  1.00  0.00     0.031 A 
BRANCH  25  39
ATOM     39  C   UNL A   1      44.351  32.337  31.444  1.00  0.00    -0.014 A 
ATOM     40  C   UNL A   1      44.232  32.622  32.814  1.00  0.00     0.009 A 
ATOM     41  C   UNL A   1      44.812  33.340  30.577  1.00  0.00     0.009 A 
ATOM     42  C   UNL A   1      44.542  33.893  33.300  1.00  0.00     0.001 A 
ATOM     43  C   UNL A   1      45.142  34.604  31.070  1.00  0.00     0.001 A 
ATOM     44  C   UNL A   1      45.000  34.882  32.429  1.00  0.00     0.000 A 
ENDBRANCH  25  39
BRANCH  26  45
ATOM     45  C   UNL A   1      42.110  23.478  27.601  1.00  0.00    -0.014 A 
ATOM     46  C   UNL A   1      42.338  23.238  26.237  1.00  0.00     0.009 A 
ATOM     47  C   UNL A   1      41.572  22.453  28.393  1.00  0.00     0.009 A 
ATOM     48  C   UNL A   1      42.018  22.002  25.674  1.00  0.00     0.001 A 
ATOM     49  C   UNL A   1      41.274  21.210  27.831  1.00  0.00     0.001 A 
ATOM     50  C   UNL A   1      41.491  20.988  26.473  1.00  0.00     0.000 A 
ENDBRANCH  26  45
BRANCH  38  51
ATOM     51  C   UNL A   1      47.971  26.249  30.102  1.00  0.00    -0.014 A 
ATOM     52  C   UNL A   1      48.417  25.716  31.322  1.00  0.00     0.009 A 
ATOM     53  C   UNL A   1      48.842  26.251  29.002  1.00  0.00     0.009 A 
ATOM     54  C   UNL A   1      49.719  25.224  31.443  1.00  0.00     0.001 A 
ATOM     55  C   UNL A   1      50.135  25.738  29.120  1.00  0.00     0.001 A 
ATOM     56  C   UNL A   1      50.575  25.233  30.342  1.00  0.00     0.000 A 
ENDBRANCH  38  51
ENDBRANCH  12  13
ENDBRANCH   5   7
ENDBRANCH   2   3
ENDBRANCH   1   2
BRANCH   1  57
ATOM     57  C   UNL A   1      31.945  27.819  27.482  1.00  0.00     0.117 C 
BRANCH  57  58
ATOM     58  N   UNL A   1      31.082  26.990  26.652  1.00  0.00    -0.356 N 
ATOM     59  C   UNL A   1      31.247  26.015  25.721  1.00  0.00     0.226 C 
ATOM     60  H   UNL A   1      30.129  27.190  26.805  1.00  0.00     0.163 HD
ATOM     61  O   UNL A   1      30.189  25.545  25.285  1.00  0.00    -0.274 OA
BRANCH  59  62
ATOM     62  C   UNL A   1      32.610  25.503  25.204  1.00  0.00     0.061 C 
ATOM     63  C   UNL A   1      33.631  26.671  25.024  1.00  0.00     0.078 C 
ATOM     64  C   UNL A   1      32.385  24.876  23.799  1.00  0.00     0.078 C 
ATOM     65  C   UNL A   1      33.318  27.628  23.874  1.00  0.00     0.261 C 
ATOM     66  C   UNL A   1      32.071  25.925  22.724  1.00  0.00     0.261 C 
ATOM     67  N   UNL A   1      33.146  26.906  22.618  1.00  0.00    -0.346 N 
ATOM     68  H   UNL A   1      34.016  26.425  22.388  1.00  0.00     0.346 HD
ATOM     69  H   UNL A   1      32.906  27.575  21.887  1.00  0.00     0.346 HD
BRANCH  62  70
ATOM     70  C   UNL A   1      33.267  24.469  26.163  1.00  0.00     0.029 C 
BRANCH  70  71
ATOM     71  C   UNL A   1      34.013  23.243  25.594  1.00  0.00     0.062 C 
ATOM     72  C   UNL A   1      33.632  21.812  26.002  1.00  0.00     0.238 C 
ATOM     73  C   UNL A   1      35.488  23.092  25.770  1.00  0.00     0.001 A 
ATOM     74  O   UNL A   1      34.680  20.934  25.532  1.00  0.00    -0.493 OA
ATOM     75  C   UNL A   1      35.788  21.736  25.634  1.00  0.00     0.122 A 
ATOM     76  C   UNL A   1      36.507  24.021  25.865  1.00  0.00     0.008 A 
ATOM     77  C   UNL A   1      37.077  21.259  25.564  1.00  0.00     0.047 A 
ATOM     78  C   UNL A   1      37.827  23.554  25.825  1.00  0.00     0.001 A 
ATOM     79  C   UNL A   1      38.110  22.186  25.665  1.00  0.00     0.004 A 
ENDBRANCH  70  71
ENDBRANCH  62  70
ENDBRANCH  59  62
ENDBRANCH  57  58
ENDBRANCH   1  57
TORSDOF 12
ENDMDL
MODEL 2
REMARK VINA RESULT:     -11.1      2.461      7.983
REMARK SMILES O=C(NCCCNC(=O)C1(C[C@@H]2COc3ccccc32)CC[NH2+]CC1)c1ccc(-c2c3nc(c(-c4ccccc4)c4ccc([nH]4)c(-c4ccccc4)c4nc(c(-c5ccccc5)c5ccc2[nH]5)C=C4)C=C3)cc1
REMARK SMILES IDX 5 1 4 2 3 3 1 4 2 5 26 7 27 8 73 9 28 10 72 11 29 12 30 13
REMARK SMILES IDX 31 14 66 15 32 16 71 17 65 18 67 19 33 20 70 21 64 22 63 23
REMARK SMILES IDX 34 25 56 26 41 27 55 28 42 29 45 30 54 31 68 32 43 33 44 34
REMARK SMILES IDX 53 36 69 37 46 38 35 39 36 40 40 41 37 42 39 43 38 44 57 45
REMARK SMILES IDX 58 46 62 47 59 48 61 49 60 50 47 51 48 52 52 53 49 54 51 55
REMARK SMILES IDX 50 56 6 57 7 58 8 59 9 61 10 62 21 63 25 64 22 65 24 66
REMARK SMILES IDX 23 67 11 70 12 71 13 72 20 73 14 74 15 75 19 76 16 77 18 78
REMARK SMILES IDX 17 79
REMARK H PARENT 3 6 67 24 45 35 7 60 23 68 23 69
REMARK Flexibility Score: inf
ROOT
ATOM      1  C   UNL A   1      36.981  22.279  24.092  1.00  0.00     0.042 C 
ENDROOT
BRANCH   1   2
ATOM      2  C   UNL A   1      37.447  22.369  25.557  1.00  0.00     0.118 C 
BRANCH   2   3
ATOM      3  N   UNL A   1      38.842  22.012  25.707  1.00  0.00    -0.352 N 
ATOM      4  O   UNL A   1      41.050  22.192  25.976  1.00  0.00    -0.269 OA
ATOM      5  C   UNL A   1      39.939  22.716  26.138  1.00  0.00     0.251 C 
ATOM      6  H   UNL A   1      39.044  21.083  25.449  1.00  0.00     0.163 HD
BRANCH   5   7
ATOM      7  C   UNL A   1      39.881  24.052  26.789  1.00  0.00     0.039 A 
ATOM      8  C   UNL A   1      39.302  24.277  28.040  1.00  0.00     0.014 A 
ATOM      9  C   UNL A   1      40.624  25.085  26.195  1.00  0.00     0.014 A 
ATOM     10  C   UNL A   1      39.458  25.524  28.680  1.00  0.00     0.010 A 
ATOM     11  C   UNL A   1      40.805  26.315  26.844  1.00  0.00     0.010 A 
ATOM     12  C   UNL A   1      40.234  26.545  28.103  1.00  0.00    -0.014 A 
BRANCH  12  13
ATOM     13  C   UNL A   1      40.549  27.803  28.843  1.00  0.00     0.031 A 
ATOM     14  C   UNL A   1      41.846  27.979  29.587  1.00  0.00     0.074 A 
ATOM     15  C   UNL A   1      39.623  28.782  28.916  1.00  0.00     0.049 A 
ATOM     16  N   UNL A   1      42.256  29.000  30.302  1.00  0.00    -0.248 NA
ATOM     17  C   UNL A   1      42.799  26.862  29.533  1.00  0.00     0.031 C 
ATOM     18  C   UNL A   1      38.300  28.742  28.292  1.00  0.00     0.029 A 
ATOM     19  N   UNL A   1      39.651  29.999  29.558  1.00  0.00    -0.354 N 
ATOM     20  C   UNL A   1      43.511  28.649  30.785  1.00  0.00     0.074 A 
ATOM     21  C   UNL A   1      43.781  27.307  30.306  1.00  0.00     0.031 C 
ATOM     22  C   UNL A   1      37.651  29.887  28.565  1.00  0.00     0.029 A 
ATOM     23  C   UNL A   1      38.497  30.729  29.407  1.00  0.00     0.049 A 
ATOM     24  H   UNL A   1      40.425  30.316  30.076  1.00  0.00     0.167 HD
ATOM     25  C   UNL A   1      44.366  29.373  31.550  1.00  0.00     0.031 A 
ATOM     26  C   UNL A   1      38.145  31.935  29.893  1.00  0.00     0.031 A 
ATOM     27  C   UNL A   1      44.114  30.704  32.042  1.00  0.00     0.049 A 
ATOM     28  C   UNL A   1      39.102  32.710  30.754  1.00  0.00     0.074 A 
ATOM     29  C   UNL A   1      44.957  31.526  32.773  1.00  0.00     0.029 A 
ATOM     30  N   UNL A   1      42.931  31.403  31.867  1.00  0.00    -0.354 N 
ATOM     31  N   UNL A   1      40.313  32.391  31.135  1.00  0.00    -0.248 NA
ATOM     32  C   UNL A   1      38.641  34.019  31.245  1.00  0.00     0.031 C 
ATOM     33  C   UNL A   1      44.269  32.707  33.076  1.00  0.00     0.029 A 
ATOM     34  C   UNL A   1      43.013  32.636  32.498  1.00  0.00     0.049 A 
ATOM     35  H   UNL A   1      42.148  31.075  31.369  1.00  0.00     0.167 HD
ATOM     36  C   UNL A   1      40.766  33.463  31.894  1.00  0.00     0.074 A 
ATOM     37  C   UNL A   1      39.706  34.449  31.908  1.00  0.00     0.031 C 
ATOM     38  C   UNL A   1      41.958  33.613  32.520  1.00  0.00     0.031 A 
BRANCH  25  39
ATOM     39  C   UNL A   1      45.676  28.735  31.915  1.00  0.00    -0.014 A 
ATOM     40  C   UNL A   1      46.809  28.899  31.102  1.00  0.00     0.009 A 
ATOM     41  C   UNL A   1      45.795  28.015  33.114  1.00  0.00     0.009 A 
ATOM     42  C   UNL A   1      48.030  28.331  31.471  1.00  0.00     0.001 A 
ATOM     43  C   UNL A   1      47.022  27.465  33.489  1.00  0.00     0.001 A 
ATOM     44  C   UNL A   1      48.136  27.617  32.664  1.00  0.00     0.000 A 
ENDBRANCH  25  39
BRANCH  26  45
ATOM     45  C   UNL A   1      36.813  32.504  29.565  1.00  0.00    -0.014 A 
ATOM     46  C   UNL A   1      36.617  33.204  28.365  1.00  0.00     0.009 A 
ATOM     47  C   UNL A   1      35.736  32.354  30.451  1.00  0.00     0.009 A 
ATOM     48  C   UNL A   1      35.372  33.759  28.066  1.00  0.00     0.001 A 
ATOM     49  C   UNL A   1      34.485  32.891  30.138  1.00  0.00     0.001 A 
ATOM     50  C   UNL A   1      34.307  33.598  28.951  1.00  0.00     0.000 A 
ENDBRANCH  26  45
BRANCH  38  51
ATOM     51  C   UNL A   1      42.190  34.901  33.257  1.00  0.00    -0.014 A 
ATOM     52  C   UNL A   1      41.654  35.111  34.538  1.00  0.00     0.009 A 
ATOM     53  C   UNL A   1      42.974  35.908  32.675  1.00  0.00     0.009 A 
ATOM     54  C   UNL A   1      41.877  36.316  35.207  1.00  0.00     0.001 A 
ATOM     55  C   UNL A   1      43.214  37.103  33.355  1.00  0.00     0.001 A 
ATOM     56  C   UNL A   1      42.659  37.309  34.617  1.00  0.00     0.000 A 
ENDBRANCH  38  51
ENDBRANCH  12  13
ENDBRANCH   5   7
ENDBRANCH   2   3
ENDBRANCH   1   2
BRANCH   1  57
ATOM     57  C   UNL A   1      36.014  23.364  23.571  1.00  0.00     0.117 C 
BRANCH  57  58
ATOM     58  N   UNL A   1      34.612  22.988  23.457  1.00  0.00    -0.356 N 
ATOM     59  C   UNL A   1      33.454  23.286  24.102  1.00  0.00     0.226 C 
ATOM     60  H   UNL A   1      34.464  22.350  22.721  1.00  0.00     0.163 HD
ATOM     61  O   UNL A   1      32.451  22.743  23.623  1.00  0.00    -0.274 OA
BRANCH  59  62
ATOM     62  C   UNL A   1      33.337  24.206  25.338  1.00  0.00     0.061 C 
ATOM     63  C   UNL A   1      34.305  23.758  26.480  1.00  0.00     0.078 C 
ATOM     64  C   UNL A   1      31.891  24.083  25.893  1.00  0.00     0.078 C 
ATOM     65  C   UNL A   1      33.928  22.443  27.163  1.00  0.00     0.261 C 
ATOM     66  C   UNL A   1      31.621  22.723  26.550  1.00  0.00     0.261 C 
ATOM     67  N   UNL A   1      32.551  22.474  27.646  1.00  0.00    -0.346 N 
ATOM     68  H   UNL A   1      32.457  23.218  28.339  1.00  0.00     0.346 HD
ATOM     69  H   UNL A   1      32.332  21.570  28.062  1.00  0.00     0.346 HD
BRANCH  62  70
ATOM     70  C   UNL A   1      33.673  25.691  25.015  1.00  0.00     0.029 C 
BRANCH  70  71
ATOM     71  C   UNL A   1      32.682  26.813  25.393  1.00  0.00     0.062 C 
ATOM     72  C   UNL A   1      31.749  27.444  24.349  1.00  0.00     0.238 C 
ATOM     73  C   UNL A   1      33.163  28.091  25.997  1.00  0.00     0.001 A 
ATOM     74  O   UNL A   1      31.172  28.629  24.943  1.00  0.00    -0.493 OA
ATOM     75  C   UNL A   1      32.187  29.059  25.759  1.00  0.00     0.122 A 
ATOM     76  C   UNL A   1      34.238  28.378  26.817  1.00  0.00     0.008 A 
ATOM     77  C   UNL A   1      32.221  30.311  26.329  1.00  0.00     0.047 A 
ATOM     78  C   UNL A   1      34.308  29.657  27.386  1.00  0.00     0.001 A 
ATOM     79  C   UNL A   1      33.303  30.612  27.152  1.00  0.00     0.004 A 
ENDBRANCH  70  71
ENDBRANCH  62  70
ENDBRANCH  59  62
ENDBRANCH  57  58
ENDBRANCH   1  57
TORSDOF 12
ENDMDL
MODEL 3
REMARK VINA RESULT:     -11.1      3.116      8.031
REMARK SMILES O=C(NCCCNC(=O)C1(C[C@@H]2COc3ccccc32)CC[NH2+]CC1)c1ccc(-c2c3nc(c(-c4ccccc4)c4ccc([nH]4)c(-c4ccccc4)c4nc(c(-c5ccccc5)c5ccc2[nH]5)C=C4)C=C3)cc1
REMARK SMILES IDX 5 1 4 2 3 3 1 4 2 5 26 7 27 8 73 9 28 10 72 11 29 12 30 13
REMARK SMILES IDX 31 14 66 15 32 16 71 17 65 18 67 19 33 20 70 21 64 22 63 23
REMARK SMILES IDX 34 25 56 26 41 27 55 28 42 29 45 30 54 31 68 32 43 33 44 34
REMARK SMILES IDX 53 36 69 37 46 38 35 39 36 40 40 41 37 42 39 43 38 44 57 45
REMARK SMILES IDX 58 46 62 47 59 48 61 49 60 50 47 51 48 52 52 53 49 54 51 55
REMARK SMILES IDX 50 56 6 57 7 58 8 59 9 61 10 62 21 63 25 64 22 65 24 66
REMARK SMILES IDX 23 67 11 70 12 71 13 72 20 73 14 74 15 75 19 76 16 77 18 78
REMARK SMILES IDX 17 79
REMARK H PARENT 3 6 67 24 45 35 7 60 23 68 23 69
REMARK Flexibility Score: inf
ROOT
ATOM      1  C   UNL A   1      34.050  31.464  27.250  1.00  0.00     0.042 C 
ENDROOT
BRANCH   1   2
ATOM      2  C   UNL A   1      32.610  31.977  27.436  1.00  0.00     0.118 C 
BRANCH   2   3
ATOM      3  N   UNL A   1      32.564  33.412  27.619  1.00  0.00    -0.352 N 
ATOM      4  O   UNL A   1      32.896  35.441  28.485  1.00  0.00    -0.269 OA
ATOM      5  C   UNL A   1      33.297  34.272  28.398  1.00  0.00     0.251 C 
ATOM      6  H   UNL A   1      31.871  33.858  27.079  1.00  0.00     0.163 HD
BRANCH   5   7
ATOM      7  C   UNL A   1      34.535  33.899  29.132  1.00  0.00     0.039 A 
ATOM      8  C   UNL A   1      34.544  33.096  30.275  1.00  0.00     0.014 A 
ATOM      9  C   UNL A   1      35.759  34.211  28.518  1.00  0.00     0.014 A 
ATOM     10  C   UNL A   1      35.764  32.621  30.799  1.00  0.00     0.010 A 
ATOM     11  C   UNL A   1      36.971  33.714  29.022  1.00  0.00     0.010 A 
ATOM     12  C   UNL A   1      36.986  32.901  30.163  1.00  0.00    -0.014 A 
BRANCH  12  13
ATOM     13  C   UNL A   1      38.264  32.268  30.607  1.00  0.00     0.031 A 
ATOM     14  C   UNL A   1      38.742  30.964  30.027  1.00  0.00     0.074 A 
ATOM     15  C   UNL A   1      38.974  32.832  31.607  1.00  0.00     0.049 A 
ATOM     16  N   UNL A   1      39.816  30.271  30.327  1.00  0.00    -0.248 NA
ATOM     17  C   UNL A   1      37.905  30.354  28.986  1.00  0.00     0.031 C 
ATOM     18  C   UNL A   1      38.617  34.066  32.306  1.00  0.00     0.029 A 
ATOM     19  N   UNL A   1      40.141  32.431  32.215  1.00  0.00    -0.354 N 
ATOM     20  C   UNL A   1      39.780  29.143  29.517  1.00  0.00     0.074 A 
ATOM     21  C   UNL A   1      38.564  29.230  28.733  1.00  0.00     0.031 C 
ATOM     22  C   UNL A   1      39.552  34.333  33.233  1.00  0.00     0.029 A 
ATOM     23  C   UNL A   1      40.559  33.274  33.217  1.00  0.00     0.049 A 
ATOM     24  H   UNL A   1      40.631  31.617  31.958  1.00  0.00     0.167 HD
ATOM     25  C   UNL A   1      40.678  28.129  29.424  1.00  0.00     0.031 A 
ATOM     26  C   UNL A   1      41.624  33.209  34.039  1.00  0.00     0.031 A 
ATOM     27  C   UNL A   1      41.888  28.020  30.197  1.00  0.00     0.049 A 
ATOM     28  C   UNL A   1      42.594  32.066  33.930  1.00  0.00     0.074 A 
ATOM     29  C   UNL A   1      42.878  27.052  30.117  1.00  0.00     0.029 A 
ATOM     30  N   UNL A   1      42.270  28.895  31.200  1.00  0.00    -0.354 N 
ATOM     31  N   UNL A   1      42.581  31.050  33.104  1.00  0.00    -0.248 NA
ATOM     32  C   UNL A   1      43.729  32.069  34.865  1.00  0.00     0.031 C 
ATOM     33  C   UNL A   1      43.838  27.319  31.100  1.00  0.00     0.029 A 
ATOM     34  C   UNL A   1      43.466  28.475  31.764  1.00  0.00     0.049 A 
ATOM     35  H   UNL A   1      41.767  29.696  31.474  1.00  0.00     0.167 HD
ATOM     36  C   UNL A   1      43.713  30.303  33.406  1.00  0.00     0.074 A 
ATOM     37  C   UNL A   1      44.398  30.990  34.481  1.00  0.00     0.031 C 
ATOM     38  C   UNL A   1      44.144  29.152  32.838  1.00  0.00     0.031 A 
BRANCH  25  39
ATOM     39  C   UNL A   1      40.382  27.034  28.438  1.00  0.00    -0.014 A 
ATOM     40  C   UNL A   1      40.939  27.055  27.149  1.00  0.00     0.009 A 
ATOM     41  C   UNL A   1      39.592  25.939  28.822  1.00  0.00     0.009 A 
ATOM     42  C   UNL A   1      40.685  26.013  26.255  1.00  0.00     0.001 A 
ATOM     43  C   UNL A   1      39.358  24.890  27.932  1.00  0.00     0.001 A 
ATOM     44  C   UNL A   1      39.898  24.931  26.647  1.00  0.00     0.000 A 
ENDBRANCH  25  39
BRANCH  26  45
ATOM     45  C   UNL A   1      41.845  34.277  35.047  1.00  0.00    -0.014 A 
ATOM     46  C   UNL A   1      41.304  34.158  36.336  1.00  0.00     0.009 A 
ATOM     47  C   UNL A   1      42.591  35.420  34.723  1.00  0.00     0.009 A 
ATOM     48  C   UNL A   1      41.491  35.172  37.277  1.00  0.00     0.001 A 
ATOM     49  C   UNL A   1      42.796  36.422  35.674  1.00  0.00     0.001 A 
ATOM     50  C   UNL A   1      42.240  36.300  36.946  1.00  0.00     0.000 A 
ENDBRANCH  26  45
BRANCH  38  51
ATOM     51  C   UNL A   1      45.429  28.569  33.353  1.00  0.00    -0.014 A 
ATOM     52  C   UNL A   1      45.433  27.634  34.400  1.00  0.00     0.009 A 
ATOM     53  C   UNL A   1      46.649  28.941  32.767  1.00  0.00     0.009 A 
ATOM     54  C   UNL A   1      46.638  27.105  34.868  1.00  0.00     0.001 A 
ATOM     55  C   UNL A   1      47.849  28.394  33.223  1.00  0.00     0.001 A 
ATOM     56  C   UNL A   1      47.844  27.483  34.278  1.00  0.00     0.000 A 
ENDBRANCH  38  51
ENDBRANCH  12  13
ENDBRANCH   5   7
ENDBRANCH   2   3
ENDBRANCH   1   2
BRANCH   1  57
ATOM     57  C   UNL A   1      34.292  29.941  27.317  1.00  0.00     0.117 C 
BRANCH  57  58
ATOM     58  N   UNL A   1      33.209  29.130  27.856  1.00  0.00    -0.356 N 
ATOM     59  C   UNL A   1      32.239  28.321  27.358  1.00  0.00     0.226 C 
ATOM     60  H   UNL A   1      33.169  29.184  28.839  1.00  0.00     0.163 HD
ATOM     61  O   UNL A   1      31.533  27.784  28.219  1.00  0.00    -0.274 OA
BRANCH  59  62
ATOM     62  C   UNL A   1      31.983  28.063  25.856  1.00  0.00     0.061 C 
ATOM     63  C   UNL A   1      30.951  26.910  25.640  1.00  0.00     0.078 C 
ATOM     64  C   UNL A   1      33.321  27.600  25.214  1.00  0.00     0.078 C 
ATOM     65  C   UNL A   1      31.457  25.515  26.008  1.00  0.00     0.261 C 
ATOM     66  C   UNL A   1      33.737  26.192  25.658  1.00  0.00     0.261 C 
ATOM     67  N   UNL A   1      32.709  25.211  25.324  1.00  0.00    -0.346 N 
ATOM     68  H   UNL A   1      32.551  25.223  24.317  1.00  0.00     0.346 HD
ATOM     69  H   UNL A   1      33.028  24.289  25.624  1.00  0.00     0.346 HD
BRANCH  62  70
ATOM     70  C   UNL A   1      31.427  29.314  25.117  1.00  0.00     0.029 C 
BRANCH  70  71
ATOM     71  C   UNL A   1      30.467  29.148  23.918  1.00  0.00     0.062 C 
ATOM     72  C   UNL A   1      30.966  28.651  22.554  1.00  0.00     0.238 C 
ATOM     73  C   UNL A   1      29.671  30.303  23.408  1.00  0.00     0.001 A 
ATOM     74  O   UNL A   1      29.908  28.879  21.596  1.00  0.00    -0.493 OA
ATOM     75  C   UNL A   1      29.322  30.018  22.087  1.00  0.00     0.122 A 
ATOM     76  C   UNL A   1      29.141  31.412  24.040  1.00  0.00     0.008 A 
ATOM     77  C   UNL A   1      28.438  30.787  21.364  1.00  0.00     0.047 A 
ATOM     78  C   UNL A   1      28.261  32.225  23.313  1.00  0.00     0.001 A 
ATOM     79  C   UNL A   1      27.904  31.909  21.991  1.00  0.00     0.004 A 
ENDBRANCH  70  71
ENDBRANCH  62  70
ENDBRANCH  59  62
ENDBRANCH  57  58
ENDBRANCH   1  57
TORSDOF 12
ENDMDL
