MODEL 1
REMARK VINA RESULT:     -11.0      0.000      0.000
REMARK SMILES CCC[C@@]1(C(=O)NCCCNC(=O)c2ccc(-c3c4nc(c(-c5ccccc5)c5ccc([nH]5)c(-c5ccccc5)c5nc(c(-c6ccccc6)c6ccc3[nH]6)C=C5)C=C4)cc2)CCCN(C(=O)CCn2cncn2)C1
REMARK SMILES IDX 8 1 7 2 5 3 6 4 4 6 62 7 75 8 63 9 65 10 64 11 3 12 2 13
REMARK SMILES IDX 1 14 66 15 67 16 68 17 69 18 70 19 71 20 74 21 72 22 73 23
REMARK SMILES IDX 9 24 10 25 11 26 12 27 13 29 14 30 15 31 61 32 16 33 60 34
REMARK SMILES IDX 17 35 18 36 19 37 54 38 20 39 59 40 53 41 55 42 21 43 58 44
REMARK SMILES IDX 52 45 51 46 22 48 44 49 29 50 43 51 30 52 33 53 42 54 56 55
REMARK SMILES IDX 31 56 32 57 41 59 57 60 34 61 23 62 24 63 28 64 25 65 27 66
REMARK SMILES IDX 26 67 45 68 46 69 50 70 47 71 49 72 48 73 35 74 36 75 40 76
REMARK SMILES IDX 37 77 39 78 38 79
REMARK H PARENT 7 5 11 28 55 47 33 58
REMARK Flexibility Score: inf
ROOT
ATOM      1  C   UNL A   1      36.139  21.460  24.895  1.00  0.00     0.117 C 
ENDROOT
BRANCH   1   2
ATOM      2  N   UNL A   1      35.917  22.241  26.091  1.00  0.00    -0.355 N 
ATOM      3  C   UNL A   1      34.707  22.698  26.543  1.00  0.00     0.228 C 
ATOM      4  O   UNL A   1      34.480  22.459  27.733  1.00  0.00    -0.274 OA
ATOM      5  H   UNL A   1      36.708  22.466  26.631  1.00  0.00     0.163 HD
BRANCH   3   6
ATOM      6  C   UNL A   1      33.768  23.622  25.703  1.00  0.00     0.067 C 
ATOM      7  C   UNL A   1      32.582  24.121  26.586  1.00  0.00     0.020 C 
ATOM      8  C   UNL A   1      33.108  22.956  24.465  1.00  0.00     0.136 C 
ATOM      9  C   UNL A   1      31.580  23.016  26.922  1.00  0.00     0.023 C 
ATOM     10  N   UNL A   1      32.206  21.857  24.848  1.00  0.00    -0.342 N 
ATOM     11  C   UNL A   1      31.091  22.279  25.685  1.00  0.00     0.119 C 
BRANCH   6  12
ATOM     12  C   UNL A   1      34.637  24.832  25.218  1.00  0.00     0.018 C 
BRANCH  12  13
ATOM     13  C   UNL A   1      33.999  26.236  25.203  1.00  0.00    -0.002 C 
ATOM     14  C   UNL A   1      33.400  26.688  23.879  1.00  0.00     0.004 C 
ENDBRANCH  12  13
ENDBRANCH   6  12
BRANCH  10  15
ATOM     15  C   UNL A   1      32.285  20.622  24.224  1.00  0.00     0.224 C 
ATOM     16  O   UNL A   1      32.182  20.504  22.999  1.00  0.00    -0.275 OA
BRANCH  15  17
ATOM     17  C   UNL A   1      32.608  19.384  25.044  1.00  0.00     0.124 C 
BRANCH  17  18
ATOM     18  C   UNL A   1      33.750  18.558  24.445  1.00  0.00     0.156 C 
BRANCH  18  19
ATOM     19  N   UNL A   1      33.770  17.162  24.822  1.00  0.00    -0.252 N 
ATOM     20  C   UNL A   1      34.842  16.329  24.903  1.00  0.00     0.219 A 
ATOM     21  N   UNL A   1      32.626  16.498  25.082  1.00  0.00    -0.160 NA
ATOM     22  N   UNL A   1      34.439  15.132  25.267  1.00  0.00    -0.224 NA
ATOM     23  C   UNL A   1      33.088  15.280  25.374  1.00  0.00     0.246 A 
ENDBRANCH  18  19
ENDBRANCH  17  18
ENDBRANCH  15  17
ENDBRANCH  10  15
ENDBRANCH   3   6
ENDBRANCH   1   2
BRANCH   1  24
ATOM     24  C   UNL A   1      37.168  20.358  25.010  1.00  0.00     0.042 C 
BRANCH  24  25
ATOM     25  C   UNL A   1      38.490  20.836  25.582  1.00  0.00     0.118 C 
BRANCH  25  26
ATOM     26  N   UNL A   1      39.500  19.780  25.652  1.00  0.00    -0.352 N 
ATOM     27  C   UNL A   1      40.832  19.813  25.996  1.00  0.00     0.251 C 
ATOM     28  H   UNL A   1      39.167  18.886  25.410  1.00  0.00     0.163 HD
ATOM     29  O   UNL A   1      41.529  18.826  25.804  1.00  0.00    -0.269 OA
BRANCH  27  30
ATOM     30  C   UNL A   1      41.426  21.036  26.577  1.00  0.00     0.039 A 
ATOM     31  C   UNL A   1      41.974  22.001  25.727  1.00  0.00     0.014 A 
ATOM     32  C   UNL A   1      41.452  21.233  27.957  1.00  0.00     0.014 A 
ATOM     33  C   UNL A   1      42.451  23.201  26.259  1.00  0.00     0.010 A 
ATOM     34  C   UNL A   1      41.813  22.468  28.473  1.00  0.00     0.010 A 
ATOM     35  C   UNL A   1      42.323  23.467  27.632  1.00  0.00    -0.014 A 
BRANCH  35  36
ATOM     36  C   UNL A   1      42.704  24.776  28.218  1.00  0.00     0.031 A 
ATOM     37  C   UNL A   1      41.660  25.839  28.432  1.00  0.00     0.074 A 
ATOM     38  C   UNL A   1      44.002  25.042  28.465  1.00  0.00     0.049 A 
ATOM     39  N   UNL A   1      41.812  27.076  28.833  1.00  0.00    -0.248 NA
ATOM     40  C   UNL A   1      40.268  25.478  28.118  1.00  0.00     0.031 C 
ATOM     41  C   UNL A   1      45.118  24.118  28.245  1.00  0.00     0.029 A 
ATOM     42  N   UNL A   1      44.604  26.177  28.947  1.00  0.00    -0.354 N 
ATOM     43  C   UNL A   1      40.544  27.643  28.791  1.00  0.00     0.074 A 
ATOM     44  C   UNL A   1      39.646  26.636  28.272  1.00  0.00     0.031 C 
ATOM     45  C   UNL A   1      46.261  24.710  28.623  1.00  0.00     0.029 A 
ATOM     46  C   UNL A   1      45.968  26.068  29.067  1.00  0.00     0.049 A 
ATOM     47  H   UNL A   1      44.105  26.992  29.185  1.00  0.00     0.167 HD
ATOM     48  C   UNL A   1      40.156  28.883  29.172  1.00  0.00     0.031 A 
ATOM     49  C   UNL A   1      46.884  26.965  29.479  1.00  0.00     0.031 A 
ATOM     50  C   UNL A   1      41.046  29.874  29.712  1.00  0.00     0.049 A 
ATOM     51  C   UNL A   1      46.428  28.333  29.903  1.00  0.00     0.074 A 
ATOM     52  C   UNL A   1      40.741  31.133  30.198  1.00  0.00     0.029 A 
ATOM     53  N   UNL A   1      42.418  29.716  29.835  1.00  0.00    -0.354 N 
ATOM     54  N   UNL A   1      45.214  28.827  29.929  1.00  0.00    -0.248 NA
ATOM     55  C   UNL A   1      47.469  29.264  30.360  1.00  0.00     0.031 C 
ATOM     56  C   UNL A   1      41.937  31.758  30.569  1.00  0.00     0.029 A 
ATOM     57  C   UNL A   1      42.978  30.866  30.366  1.00  0.00     0.049 A 
ATOM     58  H   UNL A   1      42.919  28.907  29.585  1.00  0.00     0.167 HD
ATOM     59  C   UNL A   1      45.342  30.117  30.426  1.00  0.00     0.074 A 
ATOM     60  C   UNL A   1      46.748  30.320  30.707  1.00  0.00     0.031 C 
ATOM     61  C   UNL A   1      44.381  31.051  30.632  1.00  0.00     0.031 A 
BRANCH  48  62
ATOM     62  C   UNL A   1      38.702  29.233  29.014  1.00  0.00    -0.014 A 
ATOM     63  C   UNL A   1      37.799  29.096  30.081  1.00  0.00     0.009 A 
ATOM     64  C   UNL A   1      38.233  29.731  27.789  1.00  0.00     0.009 A 
ATOM     65  C   UNL A   1      36.450  29.413  29.913  1.00  0.00     0.001 A 
ATOM     66  C   UNL A   1      36.889  30.077  27.633  1.00  0.00     0.001 A 
ATOM     67  C   UNL A   1      35.997  29.907  28.691  1.00  0.00     0.000 A 
ENDBRANCH  48  62
BRANCH  49  68
ATOM     68  C   UNL A   1      48.321  26.593  29.530  1.00  0.00    -0.014 A 
ATOM     69  C   UNL A   1      48.846  25.937  30.655  1.00  0.00     0.009 A 
ATOM     70  C   UNL A   1      49.177  26.888  28.457  1.00  0.00     0.009 A 
ATOM     71  C   UNL A   1      50.202  25.609  30.715  1.00  0.00     0.001 A 
ATOM     72  C   UNL A   1      50.527  26.533  28.509  1.00  0.00     0.001 A 
ATOM     73  C   UNL A   1      51.040  25.902  29.641  1.00  0.00     0.000 A 
ENDBRANCH  49  68
BRANCH  61  74
ATOM     74  C   UNL A   1      44.818  32.367  31.208  1.00  0.00    -0.014 A 
ATOM     75  C   UNL A   1      45.210  33.430  30.381  1.00  0.00     0.009 A 
ATOM     76  C   UNL A   1      44.799  32.557  32.599  1.00  0.00     0.009 A 
ATOM     77  C   UNL A   1      45.606  34.648  30.936  1.00  0.00     0.001 A 
ATOM     78  C   UNL A   1      45.166  33.785  33.151  1.00  0.00     0.001 A 
ATOM     79  C   UNL A   1      45.578  34.826  32.320  1.00  0.00     0.000 A 
ENDBRANCH  61  74
ENDBRANCH  35  36
ENDBRANCH  27  30
ENDBRANCH  25  26
ENDBRANCH  24  25
ENDBRANCH   1  24
TORSDOF 16
ENDMDL
MODEL 2
REMARK VINA RESULT:     -10.9      4.553      9.575
REMARK SMILES CCC[C@@]1(C(=O)NCCCNC(=O)c2ccc(-c3c4nc(c(-c5ccccc5)c5ccc([nH]5)c(-c5ccccc5)c5nc(c(-c6ccccc6)c6ccc3[nH]6)C=C5)C=C4)cc2)CCCN(C(=O)CCn2cncn2)C1
REMARK SMILES IDX 8 1 7 2 5 3 6 4 4 6 62 7 75 8 63 9 65 10 64 11 3 12 2 13
REMARK SMILES IDX 1 14 66 15 67 16 68 17 69 18 70 19 71 20 74 21 72 22 73 23
REMARK SMILES IDX 9 24 10 25 11 26 12 27 13 29 14 30 15 31 61 32 16 33 60 34
REMARK SMILES IDX 17 35 18 36 19 37 54 38 20 39 59 40 53 41 55 42 21 43 58 44
REMARK SMILES IDX 52 45 51 46 22 48 44 49 29 50 43 51 30 52 33 53 42 54 56 55
REMARK SMILES IDX 31 56 32 57 41 59 57 60 34 61 23 62 24 63 28 64 25 65 27 66
REMARK SMILES IDX 26 67 45 68 46 69 50 70 47 71 49 72 48 73 35 74 36 75 40 76
REMARK SMILES IDX 37 77 39 78 38 79
REMARK H PARENT 7 5 11 28 55 47 33 58
REMARK Flexibility Score: inf
ROOT
ATOM      1  C   UNL A   1      31.874  29.482  25.838  1.00  0.00     0.117 C 
ENDROOT
BRANCH   1   2
ATOM      2  N   UNL A   1      33.175  29.236  25.258  1.00  0.00    -0.355 N 
ATOM      3  C   UNL A   1      33.454  28.357  24.245  1.00  0.00     0.228 C 
ATOM      4  O   UNL A   1      34.122  28.833  23.322  1.00  0.00    -0.274 OA
ATOM      5  H   UNL A   1      33.932  29.748  25.625  1.00  0.00     0.163 HD
BRANCH   3   6
ATOM      6  C   UNL A   1      33.143  26.828  24.323  1.00  0.00     0.067 C 
ATOM      7  C   UNL A   1      33.735  26.099  23.076  1.00  0.00     0.020 C 
ATOM      8  C   UNL A   1      31.636  26.453  24.342  1.00  0.00     0.136 C 
ATOM      9  C   UNL A   1      32.987  26.423  21.782  1.00  0.00     0.023 C 
ATOM     10  N   UNL A   1      30.955  26.849  23.098  1.00  0.00    -0.342 N 
ATOM     11  C   UNL A   1      31.488  26.199  21.907  1.00  0.00     0.119 C 
BRANCH   6  12
ATOM     12  C   UNL A   1      33.809  26.295  25.637  1.00  0.00     0.018 C 
BRANCH  12  13
ATOM     13  C   UNL A   1      34.443  24.889  25.622  1.00  0.00    -0.002 C 
ATOM     14  C   UNL A   1      33.550  23.744  26.076  1.00  0.00     0.004 C 
ENDBRANCH  12  13
ENDBRANCH   6  12
BRANCH  10  15
ATOM     15  C   UNL A   1      29.758  27.546  23.133  1.00  0.00     0.224 C 
ATOM     16  O   UNL A   1      28.749  27.079  23.667  1.00  0.00    -0.275 OA
BRANCH  15  17
ATOM     17  C   UNL A   1      29.699  28.965  22.593  1.00  0.00     0.124 C 
BRANCH  17  18
ATOM     18  C   UNL A   1      28.276  29.531  22.571  1.00  0.00     0.156 C 
BRANCH  18  19
ATOM     19  N   UNL A   1      28.154  30.879  22.062  1.00  0.00    -0.252 N 
ATOM     20  C   UNL A   1      28.150  32.045  22.764  1.00  0.00     0.219 A 
ATOM     21  N   UNL A   1      27.949  31.110  20.750  1.00  0.00    -0.160 NA
ATOM     22  N   UNL A   1      28.001  33.054  21.934  1.00  0.00    -0.224 NA
ATOM     23  C   UNL A   1      27.892  32.443  20.720  1.00  0.00     0.246 A 
ENDBRANCH  18  19
ENDBRANCH  17  18
ENDBRANCH  15  17
ENDBRANCH  10  15
ENDBRANCH   3   6
ENDBRANCH   1   2
BRANCH   1  24
ATOM     24  C   UNL A   1      31.580  30.917  26.212  1.00  0.00     0.042 C 
BRANCH  24  25
ATOM     25  C   UNL A   1      32.703  31.569  26.998  1.00  0.00     0.118 C 
BRANCH  25  26
ATOM     26  N   UNL A   1      32.415  32.955  27.366  1.00  0.00    -0.352 N 
ATOM     27  C   UNL A   1      33.069  33.831  28.203  1.00  0.00     0.251 C 
ATOM     28  H   UNL A   1      31.611  33.328  26.939  1.00  0.00     0.163 HD
ATOM     29  O   UNL A   1      32.536  34.891  28.501  1.00  0.00    -0.269 OA
BRANCH  27  30
ATOM     30  C   UNL A   1      34.397  33.489  28.757  1.00  0.00     0.039 A 
ATOM     31  C   UNL A   1      34.476  32.733  29.929  1.00  0.00     0.014 A 
ATOM     32  C   UNL A   1      35.565  33.918  28.127  1.00  0.00     0.014 A 
ATOM     33  C   UNL A   1      35.725  32.325  30.407  1.00  0.00     0.010 A 
ATOM     34  C   UNL A   1      36.793  33.415  28.531  1.00  0.00     0.010 A 
ATOM     35  C   UNL A   1      36.890  32.617  29.679  1.00  0.00    -0.014 A 
BRANCH  35  36
ATOM     36  C   UNL A   1      38.220  32.099  30.085  1.00  0.00     0.031 A 
ATOM     37  C   UNL A   1      38.713  30.782  29.548  1.00  0.00     0.074 A 
ATOM     38  C   UNL A   1      38.939  32.765  31.011  1.00  0.00     0.049 A 
ATOM     39  N   UNL A   1      39.795  30.116  29.862  1.00  0.00    -0.248 NA
ATOM     40  C   UNL A   1      37.859  30.106  28.558  1.00  0.00     0.031 C 
ATOM     41  C   UNL A   1      38.546  34.021  31.652  1.00  0.00     0.029 A 
ATOM     42  N   UNL A   1      40.152  32.468  31.581  1.00  0.00    -0.354 N 
ATOM     43  C   UNL A   1      39.735  28.935  29.131  1.00  0.00     0.074 A 
ATOM     44  C   UNL A   1      38.485  28.949  28.404  1.00  0.00     0.031 C 
ATOM     45  C   UNL A   1      39.513  34.405  32.500  1.00  0.00     0.029 A 
ATOM     46  C   UNL A   1      40.571  33.401  32.498  1.00  0.00     0.049 A 
ATOM     47  H   UNL A   1      40.671  31.663  31.354  1.00  0.00     0.167 HD
ATOM     48  C   UNL A   1      40.647  27.938  29.052  1.00  0.00     0.031 A 
ATOM     49  C   UNL A   1      41.680  33.439  33.261  1.00  0.00     0.031 A 
ATOM     50  C   UNL A   1      41.900  27.938  29.757  1.00  0.00     0.049 A 
ATOM     51  C   UNL A   1      42.681  32.324  33.152  1.00  0.00     0.074 A 
ATOM     52  C   UNL A   1      42.927  27.013  29.687  1.00  0.00     0.029 A 
ATOM     53  N   UNL A   1      42.296  28.911  30.661  1.00  0.00    -0.354 N 
ATOM     54  N   UNL A   1      42.644  31.252  32.397  1.00  0.00    -0.248 NA
ATOM     55  C   UNL A   1      43.880  32.428  33.995  1.00  0.00     0.031 C 
ATOM     56  C   UNL A   1      43.924  27.401  30.589  1.00  0.00     0.029 A 
ATOM     57  C   UNL A   1      43.541  28.597  31.178  1.00  0.00     0.049 A 
ATOM     58  H   UNL A   1      41.770  29.709  30.899  1.00  0.00     0.167 HD
ATOM     59  C   UNL A   1      43.823  30.567  32.657  1.00  0.00     0.074 A 
ATOM     60  C   UNL A   1      44.562  31.354  33.623  1.00  0.00     0.031 C 
ATOM     61  C   UNL A   1      44.257  29.389  32.142  1.00  0.00     0.031 A 
BRANCH  48  62
ATOM     62  C   UNL A   1      40.317  26.764  28.173  1.00  0.00    -0.014 A 
ATOM     63  C   UNL A   1      40.801  26.681  26.856  1.00  0.00     0.009 A 
ATOM     64  C   UNL A   1      39.534  25.714  28.674  1.00  0.00     0.009 A 
ATOM     65  C   UNL A   1      40.473  25.590  26.049  1.00  0.00     0.001 A 
ATOM     66  C   UNL A   1      39.234  24.609  27.874  1.00  0.00     0.001 A 
ATOM     67  C   UNL A   1      39.694  24.554  26.560  1.00  0.00     0.000 A 
ENDBRANCH  48  62
BRANCH  49  68
ATOM     68  C   UNL A   1      41.912  34.582  34.181  1.00  0.00    -0.014 A 
ATOM     69  C   UNL A   1      42.599  35.724  33.738  1.00  0.00     0.009 A 
ATOM     70  C   UNL A   1      41.448  34.542  35.506  1.00  0.00     0.009 A 
ATOM     71  C   UNL A   1      42.840  36.788  34.609  1.00  0.00     0.001 A 
ATOM     72  C   UNL A   1      41.666  35.620  36.366  1.00  0.00     0.001 A 
ATOM     73  C   UNL A   1      42.370  36.738  35.920  1.00  0.00     0.000 A 
ENDBRANCH  49  68
BRANCH  61  74
ATOM     74  C   UNL A   1      45.600  28.897  32.599  1.00  0.00    -0.014 A 
ATOM     75  C   UNL A   1      45.725  28.045  33.707  1.00  0.00     0.009 A 
ATOM     76  C   UNL A   1      46.752  29.260  31.884  1.00  0.00     0.009 A 
ATOM     77  C   UNL A   1      46.982  27.591  34.109  1.00  0.00     0.001 A 
ATOM     78  C   UNL A   1      48.005  28.781  32.270  1.00  0.00     0.001 A 
ATOM     79  C   UNL A   1      48.119  27.956  33.388  1.00  0.00     0.000 A 
ENDBRANCH  61  74
ENDBRANCH  35  36
ENDBRANCH  27  30
ENDBRANCH  25  26
ENDBRANCH  24  25
ENDBRANCH   1  24
TORSDOF 16
ENDMDL
MODEL 3
REMARK VINA RESULT:     -10.9      4.510      9.508
REMARK SMILES CCC[C@@]1(C(=O)NCCCNC(=O)c2ccc(-c3c4nc(c(-c5ccccc5)c5ccc([nH]5)c(-c5ccccc5)c5nc(c(-c6ccccc6)c6ccc3[nH]6)C=C5)C=C4)cc2)CCCN(C(=O)CCn2cncn2)C1
REMARK SMILES IDX 8 1 7 2 5 3 6 4 4 6 62 7 75 8 63 9 65 10 64 11 3 12 2 13
REMARK SMILES IDX 1 14 66 15 67 16 68 17 69 18 70 19 71 20 74 21 72 22 73 23
REMARK SMILES IDX 9 24 10 25 11 26 12 27 13 29 14 30 15 31 61 32 16 33 60 34
REMARK SMILES IDX 17 35 18 36 19 37 54 38 20 39 59 40 53 41 55 42 21 43 58 44
REMARK SMILES IDX 52 45 51 46 22 48 44 49 29 50 43 51 30 52 33 53 42 54 56 55
REMARK SMILES IDX 31 56 32 57 41 59 57 60 34 61 23 62 24 63 28 64 25 65 27 66
REMARK SMILES IDX 26 67 45 68 46 69 50 70 47 71 49 72 48 73 35 74 36 75 40 76
REMARK SMILES IDX 37 77 39 78 38 79
REMARK H PARENT 7 5 11 28 55 47 33 58
REMARK Flexibility Score: inf
ROOT
ATOM      1  C   UNL A   1      31.768  29.659  25.662  1.00  0.00     0.117 C 
ENDROOT
BRANCH   1   2
ATOM      2  N   UNL A   1      33.077  29.452  25.083  1.00  0.00    -0.355 N 
ATOM      3  C   UNL A   1      33.386  28.566  24.085  1.00  0.00     0.228 C 
ATOM      4  O   UNL A   1      34.033  29.050  23.151  1.00  0.00    -0.274 OA
ATOM      5  H   UNL A   1      33.814  29.998  25.438  1.00  0.00     0.163 HD
BRANCH   3   6
ATOM      6  C   UNL A   1      33.132  27.028  24.190  1.00  0.00     0.067 C 
ATOM      7  C   UNL A   1      33.697  26.306  22.927  1.00  0.00     0.020 C 
ATOM      8  C   UNL A   1      31.641  26.601  24.276  1.00  0.00     0.136 C 
ATOM      9  C   UNL A   1      32.885  26.589  21.663  1.00  0.00     0.023 C 
ATOM     10  N   UNL A   1      30.896  26.959  23.058  1.00  0.00    -0.342 N 
ATOM     11  C   UNL A   1      31.401  26.315  21.852  1.00  0.00     0.119 C 
BRANCH   6  12
ATOM     12  C   UNL A   1      33.871  26.534  25.480  1.00  0.00     0.018 C 
BRANCH  12  13
ATOM     13  C   UNL A   1      34.438  25.100  25.499  1.00  0.00    -0.002 C 
ATOM     14  C   UNL A   1      33.695  24.094  26.364  1.00  0.00     0.004 C 
ENDBRANCH  12  13
ENDBRANCH   6  12
BRANCH  10  15
ATOM     15  C   UNL A   1      29.677  27.615  23.137  1.00  0.00     0.224 C 
ATOM     16  O   UNL A   1      28.658  27.047  23.540  1.00  0.00    -0.275 OA
BRANCH  15  17
ATOM     17  C   UNL A   1      29.600  29.098  22.818  1.00  0.00     0.124 C 
BRANCH  17  18
ATOM     18  C   UNL A   1      28.185  29.551  22.448  1.00  0.00     0.156 C 
BRANCH  18  19
ATOM     19  N   UNL A   1      28.085  30.887  21.902  1.00  0.00    -0.252 N 
ATOM     20  C   UNL A   1      28.072  32.070  22.574  1.00  0.00     0.219 A 
ATOM     21  N   UNL A   1      27.914  31.084  20.580  1.00  0.00    -0.160 NA
ATOM     22  N   UNL A   1      27.951  33.058  21.716  1.00  0.00    -0.224 NA
ATOM     23  C   UNL A   1      27.868  32.417  20.516  1.00  0.00     0.246 A 
ENDBRANCH  18  19
ENDBRANCH  17  18
ENDBRANCH  15  17
ENDBRANCH  10  15
ENDBRANCH   3   6
ENDBRANCH   1   2
BRANCH   1  24
ATOM     24  C   UNL A   1      31.482  31.058  26.159  1.00  0.00     0.042 C 
BRANCH  24  25
ATOM     25  C   UNL A   1      32.592  31.618  27.031  1.00  0.00     0.118 C 
BRANCH  25  26
ATOM     26  N   UNL A   1      32.378  33.016  27.404  1.00  0.00    -0.352 N 
ATOM     27  C   UNL A   1      33.089  33.860  28.228  1.00  0.00     0.251 C 
ATOM     28  H   UNL A   1      31.584  33.427  26.993  1.00  0.00     0.163 HD
ATOM     29  O   UNL A   1      32.613  34.944  28.536  1.00  0.00    -0.269 OA
BRANCH  27  30
ATOM     30  C   UNL A   1      34.410  33.455  28.755  1.00  0.00     0.039 A 
ATOM     31  C   UNL A   1      34.486  32.816  29.995  1.00  0.00     0.014 A 
ATOM     32  C   UNL A   1      35.575  33.710  28.033  1.00  0.00     0.014 A 
ATOM     33  C   UNL A   1      35.717  32.346  30.458  1.00  0.00     0.010 A 
ATOM     34  C   UNL A   1      36.775  33.140  28.434  1.00  0.00     0.010 A 
ATOM     35  C   UNL A   1      36.863  32.455  29.653  1.00  0.00    -0.014 A 
BRANCH  35  36
ATOM     36  C   UNL A   1      38.163  31.861  30.052  1.00  0.00     0.031 A 
ATOM     37  C   UNL A   1      39.098  32.628  30.949  1.00  0.00     0.074 A 
ATOM     38  C   UNL A   1      38.543  30.678  29.531  1.00  0.00     0.049 A 
ATOM     39  N   UNL A   1      40.316  32.325  31.324  1.00  0.00    -0.248 NA
ATOM     40  C   UNL A   1      38.619  33.923  31.460  1.00  0.00     0.031 C 
ATOM     41  C   UNL A   1      37.754  29.863  28.604  1.00  0.00     0.029 A 
ATOM     42  N   UNL A   1      39.701  29.960  29.700  1.00  0.00    -0.354 N 
ATOM     43  C   UNL A   1      40.752  33.402  32.087  1.00  0.00     0.074 A 
ATOM     44  C   UNL A   1      39.695  34.388  32.075  1.00  0.00     0.031 C 
ATOM     45  C   UNL A   1      38.434  28.742  28.315  1.00  0.00     0.029 A 
ATOM     46  C   UNL A   1      39.723  28.780  28.995  1.00  0.00     0.049 A 
ATOM     47  H   UNL A   1      40.443  30.260  30.272  1.00  0.00     0.167 HD
ATOM     48  C   UNL A   1      41.919  33.548  32.759  1.00  0.00     0.031 A 
ATOM     49  C   UNL A   1      40.680  27.838  28.899  1.00  0.00     0.031 A 
ATOM     50  C   UNL A   1      42.958  32.556  32.791  1.00  0.00     0.049 A 
ATOM     51  C   UNL A   1      41.964  28.020  29.659  1.00  0.00     0.074 A 
ATOM     52  C   UNL A   1      44.145  32.574  33.502  1.00  0.00     0.029 A 
ATOM     53  N   UNL A   1      42.933  31.366  32.080  1.00  0.00    -0.354 N 
ATOM     54  N   UNL A   1      42.329  29.009  30.438  1.00  0.00    -0.248 NA
ATOM     55  C   UNL A   1      42.964  26.952  29.530  1.00  0.00     0.031 C 
ATOM     56  C   UNL A   1      44.863  31.417  33.180  1.00  0.00     0.029 A 
ATOM     57  C   UNL A   1      44.097  30.653  32.313  1.00  0.00     0.049 A 
ATOM     58  H   UNL A   1      42.197  31.071  31.496  1.00  0.00     0.167 HD
ATOM     59  C   UNL A   1      43.591  28.672  30.910  1.00  0.00     0.074 A 
ATOM     60  C   UNL A   1      43.917  27.379  30.346  1.00  0.00     0.031 C 
ATOM     61  C   UNL A   1      44.406  29.371  31.738  1.00  0.00     0.031 A 
BRANCH  48  62
ATOM     62  C   UNL A   1      42.128  34.833  33.511  1.00  0.00    -0.014 A 
ATOM     63  C   UNL A   1      41.572  35.030  34.787  1.00  0.00     0.009 A 
ATOM     64  C   UNL A   1      42.914  35.851  32.951  1.00  0.00     0.009 A 
ATOM     65  C   UNL A   1      41.766  36.235  35.465  1.00  0.00     0.001 A 
ATOM     66  C   UNL A   1      43.132  37.043  33.645  1.00  0.00     0.001 A 
ATOM     67  C   UNL A   1      42.549  37.237  34.896  1.00  0.00     0.000 A 
ENDBRANCH  48  62
BRANCH  49  68
ATOM     68  C   UNL A   1      40.454  26.628  28.067  1.00  0.00    -0.014 A 
ATOM     69  C   UNL A   1      40.966  26.558  26.761  1.00  0.00     0.009 A 
ATOM     70  C   UNL A   1      39.728  25.537  28.570  1.00  0.00     0.009 A 
ATOM     71  C   UNL A   1      40.732  25.433  25.969  1.00  0.00     0.001 A 
ATOM     72  C   UNL A   1      39.521  24.401  27.784  1.00  0.00     0.001 A 
ATOM     73  C   UNL A   1      40.016  24.353  26.481  1.00  0.00     0.000 A 
ENDBRANCH  49  68
BRANCH  61  74
ATOM     74  C   UNL A   1      45.720  28.738  32.098  1.00  0.00    -0.014 A 
ATOM     75  C   UNL A   1      45.844  27.907  33.221  1.00  0.00     0.009 A 
ATOM     76  C   UNL A   1      46.839  28.946  31.276  1.00  0.00     0.009 A 
ATOM     77  C   UNL A   1      47.072  27.321  33.533  1.00  0.00     0.001 A 
ATOM     78  C   UNL A   1      48.058  28.336  31.573  1.00  0.00     0.001 A 
ATOM     79  C   UNL A   1      48.176  27.532  32.707  1.00  0.00     0.000 A 
ENDBRANCH  61  74
ENDBRANCH  35  36
ENDBRANCH  27  30
ENDBRANCH  25  26
ENDBRANCH  24  25
ENDBRANCH   1  24
TORSDOF 16
ENDMDL
