MODEL 1
REMARK VINA RESULT:      -9.8      0.000      0.000
REMARK SMILES O=C(/C=C/c1ccc(S(=O)(=O)Nc2ccc3c(c2)OCCO3)cc1)NCCCNC(=O)c1ccc(-c2c3nc(c(-c4ccccc4)c4ccc([nH]4)c(-c4ccccc4)c4nc(c(-c5ccccc5)c5ccc2[nH]5)C=C4)C=C3)cc1
REMARK SMILES IDX 26 1 25 2 1 3 2 4 3 6 4 7 5 8 6 9 24 10 7 11 23 12 8 13 9 14
REMARK SMILES IDX 10 15 11 16 12 17 13 19 14 20 18 21 15 22 17 23 16 24 19 25
REMARK SMILES IDX 22 26 20 27 21 28 27 29 28 30 29 31 30 32 31 34 32 35 33 36
REMARK SMILES IDX 79 37 34 38 78 39 35 40 36 41 37 42 72 43 38 44 77 45 71 46
REMARK SMILES IDX 73 47 39 48 76 49 70 50 69 51 40 53 62 54 47 55 61 56 48 57
REMARK SMILES IDX 51 58 60 59 74 60 49 61 50 62 59 64 75 65 52 66 41 67 42 68
REMARK SMILES IDX 46 69 43 70 45 71 44 72 63 73 64 74 68 75 65 76 67 77 66 78
REMARK SMILES IDX 53 79 54 80 58 81 55 82 57 83 56 84
REMARK H PARENT 25 5 12 18 29 33 73 52 51 63
REMARK Flexibility Score: inf
ROOT
ATOM      1  C   UNL A   1      32.397  35.428  32.719  1.00  0.00     0.118 C 
ENDROOT
BRANCH   1   2
ATOM      2  N   UNL A   1      33.540  34.532  32.741  1.00  0.00    -0.352 N 
ATOM      3  O   UNL A   1      34.743  35.766  34.254  1.00  0.00    -0.270 OA
ATOM      4  C   UNL A   1      34.632  34.783  33.530  1.00  0.00     0.244 C 
ATOM      5  H   UNL A   1      33.529  33.725  32.178  1.00  0.00     0.163 HD
BRANCH   4   6
ATOM      6  C   UNL A   1      35.695  33.741  33.553  1.00  0.00     0.072 C 
ATOM      7  C   UNL A   1      36.665  33.605  34.472  1.00  0.00     0.014 C 
BRANCH   7   8
ATOM      8  C   UNL A   1      37.705  32.548  34.474  1.00  0.00    -0.025 A 
ATOM      9  C   UNL A   1      38.879  32.759  35.215  1.00  0.00     0.009 A 
ATOM     10  C   UNL A   1      37.591  31.341  33.769  1.00  0.00     0.009 A 
ATOM     11  C   UNL A   1      39.931  31.829  35.189  1.00  0.00     0.023 A 
ATOM     12  C   UNL A   1      38.618  30.383  33.783  1.00  0.00     0.023 A 
ATOM     13  C   UNL A   1      39.811  30.647  34.449  1.00  0.00     0.087 A 
BRANCH  13  14
ATOM     14  S   UNL A   1      41.217  29.544  34.381  1.00  0.00     0.261 S 
ATOM     15  O   UNL A   1      41.268  29.020  33.030  1.00  0.00    -0.201 OA
ATOM     16  O   UNL A   1      42.349  30.256  34.932  1.00  0.00    -0.201 OA
BRANCH  14  17
ATOM     17  N   UNL A   1      40.947  28.165  35.383  1.00  0.00    -0.279 N 
ATOM     18  H   UNL A   1      40.071  27.990  35.798  1.00  0.00     0.180 HD
BRANCH  17  19
ATOM     19  C   UNL A   1      42.061  27.283  35.583  1.00  0.00     0.053 A 
ATOM     20  C   UNL A   1      42.230  26.752  36.866  1.00  0.00     0.031 A 
ATOM     21  C   UNL A   1      42.843  26.846  34.519  1.00  0.00     0.077 A 
ATOM     22  C   UNL A   1      43.013  25.615  37.042  1.00  0.00     0.052 A 
ATOM     23  C   UNL A   1      43.563  25.671  34.677  1.00  0.00     0.163 A 
ATOM     24  C   UNL A   1      43.590  25.027  35.921  1.00  0.00     0.161 A 
ATOM     25  O   UNL A   1      44.088  25.131  33.534  1.00  0.00    -0.486 OA
ATOM     26  O   UNL A   1      44.057  23.744  36.054  1.00  0.00    -0.486 OA
ATOM     27  C   UNL A   1      44.505  23.768  33.687  1.00  0.00     0.271 C 
ATOM     28  C   UNL A   1      43.782  23.059  34.823  1.00  0.00     0.271 C 
ENDBRANCH  17  19
ENDBRANCH  14  17
ENDBRANCH  13  14
ENDBRANCH   7   8
ENDBRANCH   4   6
ENDBRANCH   1   2
BRANCH   1  29
ATOM     29  C   UNL A   1      32.478  36.470  31.607  1.00  0.00     0.042 C 
BRANCH  29  30
ATOM     30  C   UNL A   1      33.411  36.095  30.459  1.00  0.00     0.118 C 
BRANCH  30  31
ATOM     31  N   UNL A   1      32.745  35.354  29.396  1.00  0.00    -0.352 N 
ATOM     32  C   UNL A   1      33.176  34.277  28.660  1.00  0.00     0.251 C 
ATOM     33  H   UNL A   1      31.843  35.676  29.169  1.00  0.00     0.163 HD
ATOM     34  O   UNL A   1      32.497  33.878  27.718  1.00  0.00    -0.269 OA
BRANCH  32  35
ATOM     35  C   UNL A   1      34.459  33.608  28.971  1.00  0.00     0.039 A 
ATOM     36  C   UNL A   1      35.575  33.899  28.179  1.00  0.00     0.014 A 
ATOM     37  C   UNL A   1      34.567  32.681  30.010  1.00  0.00     0.014 A 
ATOM     38  C   UNL A   1      36.811  33.314  28.470  1.00  0.00     0.010 A 
ATOM     39  C   UNL A   1      35.813  32.151  30.343  1.00  0.00     0.010 A 
ATOM     40  C   UNL A   1      36.948  32.462  29.576  1.00  0.00    -0.014 A 
BRANCH  40  41
ATOM     41  C   UNL A   1      38.266  31.892  29.954  1.00  0.00     0.031 A 
ATOM     42  C   UNL A   1      39.207  32.669  30.832  1.00  0.00     0.074 A 
ATOM     43  C   UNL A   1      38.649  30.702  29.449  1.00  0.00     0.049 A 
ATOM     44  N   UNL A   1      40.430  32.374  31.199  1.00  0.00    -0.248 NA
ATOM     45  C   UNL A   1      38.718  33.957  31.349  1.00  0.00     0.031 C 
ATOM     46  C   UNL A   1      37.846  29.858  28.561  1.00  0.00     0.029 A 
ATOM     47  N   UNL A   1      39.819  30.002  29.604  1.00  0.00    -0.354 N 
ATOM     48  C   UNL A   1      40.862  33.446  31.969  1.00  0.00     0.074 A 
ATOM     49  C   UNL A   1      39.788  34.417  31.982  1.00  0.00     0.031 C 
ATOM     50  C   UNL A   1      38.540  28.746  28.267  1.00  0.00     0.029 A 
ATOM     51  C   UNL A   1      39.849  28.816  28.909  1.00  0.00     0.049 A 
ATOM     52  H   UNL A   1      40.567  30.318  30.161  1.00  0.00     0.167 HD
ATOM     53  C   UNL A   1      42.040  33.605  32.620  1.00  0.00     0.031 A 
ATOM     54  C   UNL A   1      40.823  27.896  28.789  1.00  0.00     0.031 A 
ATOM     55  C   UNL A   1      43.105  32.638  32.618  1.00  0.00     0.049 A 
ATOM     56  C   UNL A   1      42.128  28.104  29.505  1.00  0.00     0.074 A 
ATOM     57  C   UNL A   1      44.313  32.686  33.292  1.00  0.00     0.029 A 
ATOM     58  N   UNL A   1      43.091  31.449  31.906  1.00  0.00    -0.354 N 
ATOM     59  N   UNL A   1      42.498  29.097  30.276  1.00  0.00    -0.248 NA
ATOM     60  C   UNL A   1      43.147  27.057  29.338  1.00  0.00     0.031 C 
ATOM     61  C   UNL A   1      45.051  31.549  32.949  1.00  0.00     0.029 A 
ATOM     62  C   UNL A   1      44.279  30.766  32.105  1.00  0.00     0.049 A 
ATOM     63  H   UNL A   1      42.347  31.136  31.342  1.00  0.00     0.167 HD
ATOM     64  C   UNL A   1      43.780  28.782  30.710  1.00  0.00     0.074 A 
ATOM     65  C   UNL A   1      44.117  27.500  30.126  1.00  0.00     0.031 C 
ATOM     66  C   UNL A   1      44.603  29.491  31.520  1.00  0.00     0.031 A 
BRANCH  53  67
ATOM     67  C   UNL A   1      42.240  34.884  33.383  1.00  0.00    -0.014 A 
ATOM     68  C   UNL A   1      41.765  35.030  34.697  1.00  0.00     0.009 A 
ATOM     69  C   UNL A   1      42.944  35.947  32.794  1.00  0.00     0.009 A 
ATOM     70  C   UNL A   1      41.958  36.227  35.390  1.00  0.00     0.001 A 
ATOM     71  C   UNL A   1      43.160  37.131  33.500  1.00  0.00     0.001 A 
ATOM     72  C   UNL A   1      42.659  37.274  34.793  1.00  0.00     0.000 A 
ENDBRANCH  53  67
BRANCH  54  73
ATOM     73  C   UNL A   1      40.601  26.680  27.964  1.00  0.00    -0.014 A 
ATOM     74  C   UNL A   1      39.975  25.551  28.515  1.00  0.00     0.009 A 
ATOM     75  C   UNL A   1      41.022  26.637  26.626  1.00  0.00     0.009 A 
ATOM     76  C   UNL A   1      39.798  24.396  27.751  1.00  0.00     0.001 A 
ATOM     77  C   UNL A   1      40.817  25.490  25.856  1.00  0.00     0.001 A 
ATOM     78  C   UNL A   1      40.216  24.368  26.421  1.00  0.00     0.000 A 
ENDBRANCH  54  73
BRANCH  66  79
ATOM     79  C   UNL A   1      45.934  28.879  31.852  1.00  0.00    -0.014 A 
ATOM     80  C   UNL A   1      47.072  29.142  31.076  1.00  0.00     0.009 A 
ATOM     81  C   UNL A   1      46.056  28.059  32.985  1.00  0.00     0.009 A 
ATOM     82  C   UNL A   1      48.301  28.567  31.408  1.00  0.00     0.001 A 
ATOM     83  C   UNL A   1      47.291  27.509  33.332  1.00  0.00     0.001 A 
ATOM     84  C   UNL A   1      48.410  27.756  32.539  1.00  0.00     0.000 A 
ENDBRANCH  66  79
ENDBRANCH  40  41
ENDBRANCH  32  35
ENDBRANCH  30  31
ENDBRANCH  29  30
ENDBRANCH   1  29
TORSDOF 14
ENDMDL
MODEL 2
REMARK VINA RESULT:      -9.7      4.778     11.324
REMARK SMILES O=C(/C=C/c1ccc(S(=O)(=O)Nc2ccc3c(c2)OCCO3)cc1)NCCCNC(=O)c1ccc(-c2c3nc(c(-c4ccccc4)c4ccc([nH]4)c(-c4ccccc4)c4nc(c(-c5ccccc5)c5ccc2[nH]5)C=C4)C=C3)cc1
REMARK SMILES IDX 26 1 25 2 1 3 2 4 3 6 4 7 5 8 6 9 24 10 7 11 23 12 8 13 9 14
REMARK SMILES IDX 10 15 11 16 12 17 13 19 14 20 18 21 15 22 17 23 16 24 19 25
REMARK SMILES IDX 22 26 20 27 21 28 27 29 28 30 29 31 30 32 31 34 32 35 33 36
REMARK SMILES IDX 79 37 34 38 78 39 35 40 36 41 37 42 72 43 38 44 77 45 71 46
REMARK SMILES IDX 73 47 39 48 76 49 70 50 69 51 40 53 62 54 47 55 61 56 48 57
REMARK SMILES IDX 51 58 60 59 74 60 49 61 50 62 59 64 75 65 52 66 41 67 42 68
REMARK SMILES IDX 46 69 43 70 45 71 44 72 63 73 64 74 68 75 65 76 67 77 66 78
REMARK SMILES IDX 53 79 54 80 58 81 55 82 57 83 56 84
REMARK H PARENT 25 5 12 18 29 33 73 52 51 63
REMARK Flexibility Score: inf
ROOT
ATOM      1  C   UNL A   1      44.339  19.508  24.295  1.00  0.00     0.118 C 
ENDROOT
BRANCH   1   2
ATOM      2  N   UNL A   1      44.480  20.883  24.743  1.00  0.00    -0.352 N 
ATOM      3  O   UNL A   1      46.759  20.792  24.983  1.00  0.00    -0.270 OA
ATOM      4  C   UNL A   1      45.706  21.416  25.047  1.00  0.00     0.244 C 
ATOM      5  H   UNL A   1      43.676  21.446  24.828  1.00  0.00     0.163 HD
BRANCH   4   6
ATOM      6  C   UNL A   1      45.739  22.864  25.390  1.00  0.00     0.072 C 
ATOM      7  C   UNL A   1      45.168  23.866  24.701  1.00  0.00     0.014 C 
BRANCH   7   8
ATOM      8  C   UNL A   1      45.210  25.299  25.075  1.00  0.00    -0.025 A 
ATOM      9  C   UNL A   1      46.415  26.002  24.916  1.00  0.00     0.009 A 
ATOM     10  C   UNL A   1      44.111  26.004  25.590  1.00  0.00     0.009 A 
ATOM     11  C   UNL A   1      46.535  27.339  25.328  1.00  0.00     0.023 A 
ATOM     12  C   UNL A   1      44.212  27.356  25.954  1.00  0.00     0.023 A 
ATOM     13  C   UNL A   1      45.437  28.012  25.874  1.00  0.00     0.087 A 
BRANCH  13  14
ATOM     14  S   UNL A   1      45.675  29.683  26.463  1.00  0.00     0.261 S 
ATOM     15  O   UNL A   1      46.093  29.580  27.848  1.00  0.00    -0.201 OA
ATOM     16  O   UNL A   1      46.507  30.366  25.498  1.00  0.00    -0.201 OA
BRANCH  14  17
ATOM     17  N   UNL A   1      44.166  30.522  26.516  1.00  0.00    -0.279 N 
ATOM     18  H   UNL A   1      43.308  30.040  26.531  1.00  0.00     0.180 HD
BRANCH  17  19
ATOM     19  C   UNL A   1      44.223  31.955  26.539  1.00  0.00     0.053 A 
ATOM     20  C   UNL A   1      44.208  32.611  25.304  1.00  0.00     0.031 A 
ATOM     21  C   UNL A   1      44.136  32.668  27.729  1.00  0.00     0.077 A 
ATOM     22  C   UNL A   1      43.865  33.959  25.246  1.00  0.00     0.052 A 
ATOM     23  C   UNL A   1      43.720  33.991  27.669  1.00  0.00     0.163 A 
ATOM     24  C   UNL A   1      43.523  34.608  26.428  1.00  0.00     0.161 A 
ATOM     25  O   UNL A   1      43.379  34.566  28.864  1.00  0.00    -0.486 OA
ATOM     26  O   UNL A   1      42.865  35.808  26.320  1.00  0.00    -0.486 OA
ATOM     27  C   UNL A   1      42.634  35.783  28.717  1.00  0.00     0.271 C 
ATOM     28  C   UNL A   1      41.904  35.865  27.384  1.00  0.00     0.271 C 
ENDBRANCH  17  19
ENDBRANCH  14  17
ENDBRANCH  13  14
ENDBRANCH   7   8
ENDBRANCH   4   6
ENDBRANCH   1   2
BRANCH   1  29
ATOM     29  C   UNL A   1      44.425  18.499  25.435  1.00  0.00     0.042 C 
BRANCH  29  30
ATOM     30  C   UNL A   1      43.334  18.646  26.491  1.00  0.00     0.118 C 
BRANCH  30  31
ATOM     31  N   UNL A   1      41.990  18.670  25.929  1.00  0.00    -0.352 N 
ATOM     32  C   UNL A   1      41.017  19.638  25.996  1.00  0.00     0.251 C 
ATOM     33  H   UNL A   1      41.739  17.865  25.420  1.00  0.00     0.163 HD
ATOM     34  O   UNL A   1      39.898  19.401  25.549  1.00  0.00    -0.269 OA
BRANCH  32  35
ATOM     35  C   UNL A   1      41.292  20.950  26.621  1.00  0.00     0.039 A 
ATOM     36  C   UNL A   1      41.140  21.077  28.006  1.00  0.00     0.014 A 
ATOM     37  C   UNL A   1      41.668  22.059  25.859  1.00  0.00     0.014 A 
ATOM     38  C   UNL A   1      41.430  22.293  28.633  1.00  0.00     0.010 A 
ATOM     39  C   UNL A   1      42.021  23.250  26.491  1.00  0.00     0.010 A 
ATOM     40  C   UNL A   1      41.906  23.379  27.884  1.00  0.00    -0.014 A 
BRANCH  40  41
ATOM     41  C   UNL A   1      42.297  24.655  28.537  1.00  0.00     0.031 A 
ATOM     42  C   UNL A   1      41.300  25.772  28.680  1.00  0.00     0.074 A 
ATOM     43  C   UNL A   1      43.570  24.838  28.939  1.00  0.00     0.049 A 
ATOM     44  N   UNL A   1      41.477  26.985  29.143  1.00  0.00    -0.248 NA
ATOM     45  C   UNL A   1      39.929  25.497  28.222  1.00  0.00     0.031 C 
ATOM     46  C   UNL A   1      44.645  23.850  28.831  1.00  0.00     0.029 A 
ATOM     47  N   UNL A   1      44.178  25.928  29.510  1.00  0.00    -0.354 N 
ATOM     48  C   UNL A   1      40.249  27.621  29.013  1.00  0.00     0.074 A 
ATOM     49  C   UNL A   1      39.347  26.677  28.389  1.00  0.00     0.031 C 
ATOM     50  C   UNL A   1      45.773  24.371  29.339  1.00  0.00     0.029 A 
ATOM     51  C   UNL A   1      45.515  25.742  29.768  1.00  0.00     0.049 A 
ATOM     52  H   UNL A   1      43.701  26.765  29.716  1.00  0.00     0.167 HD
ATOM     53  C   UNL A   1      39.898  28.874  29.391  1.00  0.00     0.031 A 
ATOM     54  C   UNL A   1      46.433  26.583  30.280  1.00  0.00     0.031 A 
ATOM     55  C   UNL A   1      40.789  29.812  30.021  1.00  0.00     0.049 A 
ATOM     56  C   UNL A   1      46.023  27.974  30.674  1.00  0.00     0.074 A 
ATOM     57  C   UNL A   1      40.509  31.085  30.489  1.00  0.00     0.029 A 
ATOM     58  N   UNL A   1      42.132  29.581  30.269  1.00  0.00    -0.354 N 
ATOM     59  N   UNL A   1      44.844  28.540  30.597  1.00  0.00    -0.248 NA
ATOM     60  C   UNL A   1      47.072  28.839  31.232  1.00  0.00     0.031 C 
ATOM     61  C   UNL A   1      41.696  31.641  30.976  1.00  0.00     0.029 A 
ATOM     62  C   UNL A   1      42.701  30.695  30.862  1.00  0.00     0.049 A 
ATOM     63  H   UNL A   1      42.611  28.747  30.055  1.00  0.00     0.167 HD
ATOM     64  C   UNL A   1      45.002  29.816  31.123  1.00  0.00     0.074 A 
ATOM     65  C   UNL A   1      46.387  29.935  31.528  1.00  0.00     0.031 C 
ATOM     66  C   UNL A   1      44.081  30.801  31.260  1.00  0.00     0.031 A 
BRANCH  53  67
ATOM     67  C   UNL A   1      38.483  29.306  29.121  1.00  0.00    -0.014 A 
ATOM     68  C   UNL A   1      37.512  29.290  30.135  1.00  0.00     0.009 A 
ATOM     69  C   UNL A   1      38.126  29.767  27.844  1.00  0.00     0.009 A 
ATOM     70  C   UNL A   1      36.202  29.692  29.865  1.00  0.00     0.001 A 
ATOM     71  C   UNL A   1      36.823  30.196  27.585  1.00  0.00     0.001 A 
ATOM     72  C   UNL A   1      35.860  30.148  28.592  1.00  0.00     0.000 A 
ENDBRANCH  53  67
BRANCH  54  73
ATOM     73  C   UNL A   1      47.837  26.130  30.461  1.00  0.00    -0.014 A 
ATOM     74  C   UNL A   1      48.742  26.174  29.390  1.00  0.00     0.009 A 
ATOM     75  C   UNL A   1      48.276  25.643  31.702  1.00  0.00     0.009 A 
ATOM     76  C   UNL A   1      50.051  25.715  29.550  1.00  0.00     0.001 A 
ATOM     77  C   UNL A   1      49.594  25.211  31.866  1.00  0.00     0.001 A 
ATOM     78  C   UNL A   1      50.477  25.238  30.789  1.00  0.00     0.000 A 
ENDBRANCH  54  73
BRANCH  66  79
ATOM     79  C   UNL A   1      44.533  32.080  31.906  1.00  0.00    -0.014 A 
ATOM     80  C   UNL A   1      44.336  32.316  33.274  1.00  0.00     0.009 A 
ATOM     81  C   UNL A   1      45.202  33.045  31.137  1.00  0.00     0.009 A 
ATOM     82  C   UNL A   1      44.770  33.510  33.854  1.00  0.00     0.001 A 
ATOM     83  C   UNL A   1      45.661  34.225  31.724  1.00  0.00     0.001 A 
ATOM     84  C   UNL A   1      45.437  34.461  33.080  1.00  0.00     0.000 A 
ENDBRANCH  66  79
ENDBRANCH  40  41
ENDBRANCH  32  35
ENDBRANCH  30  31
ENDBRANCH  29  30
ENDBRANCH   1  29
TORSDOF 14
ENDMDL
MODEL 3
REMARK VINA RESULT:      -9.6      5.402      8.310
REMARK SMILES O=C(/C=C/c1ccc(S(=O)(=O)Nc2ccc3c(c2)OCCO3)cc1)NCCCNC(=O)c1ccc(-c2c3nc(c(-c4ccccc4)c4ccc([nH]4)c(-c4ccccc4)c4nc(c(-c5ccccc5)c5ccc2[nH]5)C=C4)C=C3)cc1
REMARK SMILES IDX 26 1 25 2 1 3 2 4 3 6 4 7 5 8 6 9 24 10 7 11 23 12 8 13 9 14
REMARK SMILES IDX 10 15 11 16 12 17 13 19 14 20 18 21 15 22 17 23 16 24 19 25
REMARK SMILES IDX 22 26 20 27 21 28 27 29 28 30 29 31 30 32 31 34 32 35 33 36
REMARK SMILES IDX 79 37 34 38 78 39 35 40 36 41 37 42 72 43 38 44 77 45 71 46
REMARK SMILES IDX 73 47 39 48 76 49 70 50 69 51 40 53 62 54 47 55 61 56 48 57
REMARK SMILES IDX 51 58 60 59 74 60 49 61 50 62 59 64 75 65 52 66 41 67 42 68
REMARK SMILES IDX 46 69 43 70 45 71 44 72 63 73 64 74 68 75 65 76 67 77 66 78
REMARK SMILES IDX 53 79 54 80 58 81 55 82 57 83 56 84
REMARK H PARENT 25 5 12 18 29 33 73 52 51 63
REMARK Flexibility Score: inf
ROOT
ATOM      1  C   UNL A   1      34.409  34.139  28.994  1.00  0.00     0.118 C 
ENDROOT
BRANCH   1   2
ATOM      2  N   UNL A   1      34.040  32.803  28.558  1.00  0.00    -0.352 N 
ATOM      3  O   UNL A   1      36.139  32.230  27.836  1.00  0.00    -0.270 OA
ATOM      4  C   UNL A   1      34.960  31.947  28.012  1.00  0.00     0.244 C 
ATOM      5  H   UNL A   1      33.106  32.506  28.658  1.00  0.00     0.163 HD
BRANCH   4   6
ATOM      6  C   UNL A   1      34.490  30.569  27.703  1.00  0.00     0.072 C 
ATOM      7  C   UNL A   1      33.512  30.227  26.848  1.00  0.00     0.014 C 
BRANCH   7   8
ATOM      8  C   UNL A   1      33.073  28.843  26.552  1.00  0.00    -0.025 A 
ATOM      9  C   UNL A   1      31.818  28.419  27.016  1.00  0.00     0.009 A 
ATOM     10  C   UNL A   1      33.846  27.916  25.836  1.00  0.00     0.009 A 
ATOM     11  C   UNL A   1      31.385  27.096  26.835  1.00  0.00     0.023 A 
ATOM     12  C   UNL A   1      33.394  26.607  25.606  1.00  0.00     0.023 A 
ATOM     13  C   UNL A   1      32.187  26.178  26.150  1.00  0.00     0.087 A 
BRANCH  13  14
ATOM     14  S   UNL A   1      31.624  24.485  26.029  1.00  0.00     0.261 S 
ATOM     15  O   UNL A   1      31.563  23.969  27.383  1.00  0.00    -0.201 OA
ATOM     16  O   UNL A   1      30.443  24.483  25.193  1.00  0.00    -0.201 OA
BRANCH  14  17
ATOM     17  N   UNL A   1      32.810  23.513  25.236  1.00  0.00    -0.279 N 
ATOM     18  H   UNL A   1      33.748  23.800  25.162  1.00  0.00     0.180 HD
BRANCH  17  19
ATOM     19  C   UNL A   1      32.362  22.265  24.689  1.00  0.00     0.053 A 
ATOM     20  C   UNL A   1      32.256  22.182  23.296  1.00  0.00     0.031 A 
ATOM     21  C   UNL A   1      32.194  21.138  25.487  1.00  0.00     0.077 A 
ATOM     22  C   UNL A   1      32.220  20.933  22.682  1.00  0.00     0.052 A 
ATOM     23  C   UNL A   1      32.234  19.893  24.877  1.00  0.00     0.163 A 
ATOM     24  C   UNL A   1      32.314  19.799  23.481  1.00  0.00     0.161 A 
ATOM     25  O   UNL A   1      32.347  18.818  25.716  1.00  0.00    -0.486 OA
ATOM     26  O   UNL A   1      32.623  18.615  22.860  1.00  0.00    -0.486 OA
ATOM     27  C   UNL A   1      32.737  17.611  25.047  1.00  0.00     0.271 C 
ATOM     28  C   UNL A   1      33.480  17.878  23.745  1.00  0.00     0.271 C 
ENDBRANCH  17  19
ENDBRANCH  14  17
ENDBRANCH  13  14
ENDBRANCH   7   8
ENDBRANCH   4   6
ENDBRANCH   1   2
BRANCH   1  29
ATOM     29  C   UNL A   1      33.266  35.142  28.876  1.00  0.00     0.042 C 
BRANCH  29  30
ATOM     30  C   UNL A   1      33.407  36.366  29.776  1.00  0.00     0.118 C 
BRANCH  30  31
ATOM     31  N   UNL A   1      32.468  36.371  30.890  1.00  0.00    -0.352 N 
ATOM     32  C   UNL A   1      32.540  35.753  32.115  1.00  0.00     0.251 C 
ATOM     33  H   UNL A   1      31.652  36.901  30.742  1.00  0.00     0.163 HD
ATOM     34  O   UNL A   1      31.571  35.790  32.869  1.00  0.00    -0.269 OA
BRANCH  32  35
ATOM     35  C   UNL A   1      33.760  35.023  32.527  1.00  0.00     0.039 A 
ATOM     36  C   UNL A   1      33.637  33.690  32.933  1.00  0.00     0.014 A 
ATOM     37  C   UNL A   1      35.011  35.642  32.546  1.00  0.00     0.014 A 
ATOM     38  C   UNL A   1      34.774  32.960  33.291  1.00  0.00     0.010 A 
ATOM     39  C   UNL A   1      36.153  34.896  32.838  1.00  0.00     0.010 A 
ATOM     40  C   UNL A   1      36.046  33.547  33.213  1.00  0.00    -0.014 A 
BRANCH  40  41
ATOM     41  C   UNL A   1      37.276  32.770  33.511  1.00  0.00     0.031 A 
ATOM     42  C   UNL A   1      38.042  33.017  34.781  1.00  0.00     0.074 A 
ATOM     43  C   UNL A   1      37.745  31.889  32.606  1.00  0.00     0.049 A 
ATOM     44  N   UNL A   1      39.179  32.500  35.175  1.00  0.00    -0.248 NA
ATOM     45  C   UNL A   1      37.466  33.990  35.722  1.00  0.00     0.031 C 
ATOM     46  C   UNL A   1      37.117  31.575  31.320  1.00  0.00     0.029 A 
ATOM     47  N   UNL A   1      38.870  31.102  32.626  1.00  0.00    -0.354 N 
ATOM     48  C   UNL A   1      39.464  33.099  36.395  1.00  0.00     0.074 A 
ATOM     49  C   UNL A   1      38.403  34.048  36.658  1.00  0.00     0.031 C 
ATOM     50  C   UNL A   1      37.854  30.648  30.686  1.00  0.00     0.029 A 
ATOM     51  C   UNL A   1      39.026  30.334  31.497  1.00  0.00     0.049 A 
ATOM     52  H   UNL A   1      39.504  31.088  33.379  1.00  0.00     0.167 HD
ATOM     53  C   UNL A   1      40.505  32.870  37.231  1.00  0.00     0.031 A 
ATOM     54  C   UNL A   1      40.008  29.482  31.147  1.00  0.00     0.031 A 
ATOM     55  C   UNL A   1      41.555  31.919  36.979  1.00  0.00     0.049 A 
ATOM     56  C   UNL A   1      41.162  29.260  32.083  1.00  0.00     0.074 A 
ATOM     57  C   UNL A   1      42.622  31.578  37.793  1.00  0.00     0.029 A 
ATOM     58  N   UNL A   1      41.672  31.158  35.827  1.00  0.00    -0.354 N 
ATOM     59  N   UNL A   1      41.385  29.792  33.259  1.00  0.00    -0.248 NA
ATOM     60  C   UNL A   1      42.196  28.313  31.642  1.00  0.00     0.031 C 
ATOM     61  C   UNL A   1      43.411  30.647  37.111  1.00  0.00     0.029 A 
ATOM     62  C   UNL A   1      42.806  30.367  35.897  1.00  0.00     0.049 A 
ATOM     63  H   UNL A   1      41.041  31.178  35.070  1.00  0.00     0.167 HD
ATOM     64  C   UNL A   1      42.569  29.223  33.713  1.00  0.00     0.074 A 
ATOM     65  C   UNL A   1      43.008  28.296  32.691  1.00  0.00     0.031 C 
ATOM     66  C   UNL A   1      43.231  29.447  34.873  1.00  0.00     0.031 A 
BRANCH  53  67
ATOM     67  C   UNL A   1      40.562  33.675  38.499  1.00  0.00    -0.014 A 
ATOM     68  C   UNL A   1      39.816  33.306  39.631  1.00  0.00     0.009 A 
ATOM     69  C   UNL A   1      41.401  34.799  38.576  1.00  0.00     0.009 A 
ATOM     70  C   UNL A   1      39.880  34.069  40.799  1.00  0.00     0.001 A 
ATOM     71  C   UNL A   1      41.485  35.542  39.755  1.00  0.00     0.001 A 
ATOM     72  C   UNL A   1      40.717  35.182  40.862  1.00  0.00     0.000 A 
ENDBRANCH  53  67
BRANCH  54  73
ATOM     73  C   UNL A   1      39.939  28.762  29.848  1.00  0.00    -0.014 A 
ATOM     74  C   UNL A   1      39.388  27.474  29.778  1.00  0.00     0.009 A 
ATOM     75  C   UNL A   1      40.433  29.354  28.675  1.00  0.00     0.009 A 
ATOM     76  C   UNL A   1      39.357  26.782  28.565  1.00  0.00     0.001 A 
ATOM     77  C   UNL A   1      40.374  28.671  27.459  1.00  0.00     0.001 A 
ATOM     78  C   UNL A   1      39.846  27.383  27.406  1.00  0.00     0.000 A 
ENDBRANCH  54  73
BRANCH  66  79
ATOM     79  C   UNL A   1      44.482  28.651  35.116  1.00  0.00    -0.014 A 
ATOM     80  C   UNL A   1      45.742  29.137  34.735  1.00  0.00     0.009 A 
ATOM     81  C   UNL A   1      44.399  27.413  35.773  1.00  0.00     0.009 A 
ATOM     82  C   UNL A   1      46.892  28.382  34.977  1.00  0.00     0.001 A 
ATOM     83  C   UNL A   1      45.553  26.674  36.039  1.00  0.00     0.001 A 
ATOM     84  C   UNL A   1      46.796  27.154  35.633  1.00  0.00     0.000 A 
ENDBRANCH  66  79
ENDBRANCH  40  41
ENDBRANCH  32  35
ENDBRANCH  30  31
ENDBRANCH  29  30
ENDBRANCH   1  29
TORSDOF 14
ENDMDL
