MODEL 1
REMARK VINA RESULT:     -11.6      0.000      0.000
REMARK SMILES CN(C)c1ccc(NC(=O)[C@H]2CC=CC[C@@H]2C(=O)NCCCNC(=O)c2ccc(-c3c4nc(c(-c5ccccc5)c5ccc([nH]5)c(-c5ccccc5)c5nc(c(-c6ccccc6)c6ccc3[nH]6)C=C5)C=C4)cc2)cc1
REMARK SMILES IDX 20 1 19 2 17 3 18 4 16 6 11 7 12 8 13 9 15 10 14 11 9 12
REMARK SMILES IDX 8 13 10 15 7 16 4 17 5 18 75 19 6 20 74 21 2 22 1 23 3 24
REMARK SMILES IDX 21 25 22 26 23 27 24 28 25 30 26 31 27 32 73 33 28 34 72 35
REMARK SMILES IDX 29 36 30 37 31 38 66 39 32 40 71 41 65 42 67 43 33 44 70 45
REMARK SMILES IDX 64 46 63 47 34 49 56 50 41 51 55 52 42 53 45 54 54 55 68 56
REMARK SMILES IDX 43 57 44 58 53 60 69 61 46 62 35 63 36 64 40 65 37 66 39 67
REMARK SMILES IDX 38 68 57 69 58 70 62 71 59 72 61 73 60 74 47 75 48 76 52 77
REMARK SMILES IDX 49 78 51 79 50 80
REMARK H PARENT 19 5 8 14 23 29 67 48 45 59
REMARK Flexibility Score: inf
ROOT
ATOM      1  C   UNL A   1      36.226  20.543  24.974  1.00  0.00     0.117 C 
ENDROOT
BRANCH   1   2
ATOM      2  N   UNL A   1      36.547  21.640  24.080  1.00  0.00    -0.356 N 
ATOM      3  C   UNL A   1      35.778  22.676  23.644  1.00  0.00     0.224 C 
ATOM      4  O   UNL A   1      36.216  23.333  22.699  1.00  0.00    -0.275 OA
ATOM      5  H   UNL A   1      37.468  21.635  23.733  1.00  0.00     0.163 HD
BRANCH   3   6
ATOM      6  C   UNL A   1      34.463  23.005  24.346  1.00  0.00     0.095 C 
ATOM      7  C   UNL A   1      33.277  22.849  23.366  1.00  0.00     0.095 C 
ATOM      8  C   UNL A   1      33.182  24.012  22.354  1.00  0.00     0.041 C 
ATOM      9  C   UNL A   1      33.633  25.347  22.860  1.00  0.00    -0.030 C 
ATOM     10  C   UNL A   1      34.551  24.404  24.981  1.00  0.00     0.041 C 
ATOM     11  C   UNL A   1      34.227  25.529  24.044  1.00  0.00    -0.030 C 
BRANCH   7  12
ATOM     12  C   UNL A   1      31.961  22.608  24.125  1.00  0.00     0.228 C 
ATOM     13  N   UNL A   1      31.611  21.364  24.585  1.00  0.00    -0.326 N 
ATOM     14  H   UNL A   1      30.712  21.310  24.983  1.00  0.00     0.169 HD
ATOM     15  O   UNL A   1      31.154  23.524  24.318  1.00  0.00    -0.274 OA
BRANCH  13  16
ATOM     16  C   UNL A   1      32.325  20.158  24.581  1.00  0.00     0.041 A 
ATOM     17  C   UNL A   1      33.362  17.519  24.800  1.00  0.00     0.036 A 
ATOM     18  C   UNL A   1      33.007  18.073  23.562  1.00  0.00     0.028 A 
ATOM     19  C   UNL A   1      33.320  18.392  25.900  1.00  0.00     0.028 A 
ATOM     20  C   UNL A   1      32.503  19.373  23.449  1.00  0.00     0.028 A 
ATOM     21  C   UNL A   1      32.827  19.701  25.795  1.00  0.00     0.028 A 
BRANCH  17  22
ATOM     22  N   UNL A   1      33.725  16.183  24.934  1.00  0.00    -0.378 N 
ATOM     23  C   UNL A   1      35.121  15.862  25.223  1.00  0.00     0.143 C 
ATOM     24  C   UNL A   1      32.732  15.176  25.287  1.00  0.00     0.143 C 
ENDBRANCH  17  22
ENDBRANCH  13  16
ENDBRANCH   7  12
ENDBRANCH   3   6
ENDBRANCH   1   2
BRANCH   1  25
ATOM     25  C   UNL A   1      37.415  19.594  25.135  1.00  0.00     0.042 C 
BRANCH  25  26
ATOM     26  C   UNL A   1      38.738  20.288  25.465  1.00  0.00     0.118 C 
BRANCH  26  27
ATOM     27  N   UNL A   1      39.838  19.353  25.650  1.00  0.00    -0.352 N 
ATOM     28  C   UNL A   1      41.124  19.559  26.084  1.00  0.00     0.251 C 
ATOM     29  H   UNL A   1      39.625  18.418  25.427  1.00  0.00     0.163 HD
ATOM     30  O   UNL A   1      41.940  18.647  26.005  1.00  0.00    -0.269 OA
BRANCH  28  31
ATOM     31  C   UNL A   1      41.544  20.869  26.628  1.00  0.00     0.039 A 
ATOM     32  C   UNL A   1      42.067  21.821  25.747  1.00  0.00     0.014 A 
ATOM     33  C   UNL A   1      41.473  21.152  27.994  1.00  0.00     0.014 A 
ATOM     34  C   UNL A   1      42.455  23.075  26.224  1.00  0.00     0.010 A 
ATOM     35  C   UNL A   1      41.796  22.426  28.459  1.00  0.00     0.010 A 
ATOM     36  C   UNL A   1      42.289  23.402  27.580  1.00  0.00    -0.014 A 
BRANCH  36  37
ATOM     37  C   UNL A   1      42.611  24.762  28.084  1.00  0.00     0.031 A 
ATOM     38  C   UNL A   1      44.017  25.121  28.477  1.00  0.00     0.074 A 
ATOM     39  C   UNL A   1      41.620  25.663  28.240  1.00  0.00     0.049 A 
ATOM     40  N   UNL A   1      44.474  26.244  28.975  1.00  0.00    -0.248 NA
ATOM     41  C   UNL A   1      45.042  24.079  28.310  1.00  0.00     0.031 C 
ATOM     42  C   UNL A   1      40.207  25.432  27.931  1.00  0.00     0.029 A 
ATOM     43  N   UNL A   1      41.651  26.954  28.705  1.00  0.00    -0.354 N 
ATOM     44  C   UNL A   1      45.830  26.036  29.196  1.00  0.00     0.074 A 
ATOM     45  C   UNL A   1      46.113  24.668  28.820  1.00  0.00     0.031 C 
ATOM     46  C   UNL A   1      39.513  26.553  28.184  1.00  0.00     0.029 A 
ATOM     47  C   UNL A   1      40.420  27.566  28.714  1.00  0.00     0.049 A 
ATOM     48  H   UNL A   1      42.476  27.400  29.003  1.00  0.00     0.167 HD
ATOM     49  C   UNL A   1      46.759  26.909  29.655  1.00  0.00     0.031 A 
ATOM     50  C   UNL A   1      40.060  28.801  29.109  1.00  0.00     0.031 A 
ATOM     51  C   UNL A   1      46.481  28.274  30.021  1.00  0.00     0.049 A 
ATOM     52  C   UNL A   1      41.107  29.743  29.632  1.00  0.00     0.074 A 
ATOM     53  C   UNL A   1      47.369  29.251  30.439  1.00  0.00     0.029 A 
ATOM     54  N   UNL A   1      45.222  28.852  30.017  1.00  0.00    -0.354 N 
ATOM     55  N   UNL A   1      42.397  29.553  29.766  1.00  0.00    -0.248 NA
ATOM     56  C   UNL A   1      40.647  31.077  30.047  1.00  0.00     0.031 C 
ATOM     57  C   UNL A   1      46.638  30.405  30.740  1.00  0.00     0.029 A 
ATOM     58  C   UNL A   1      45.305  30.165  30.453  1.00  0.00     0.049 A 
ATOM     59  H   UNL A   1      44.392  28.397  29.745  1.00  0.00     0.167 HD
ATOM     60  C   UNL A   1      42.906  30.750  30.253  1.00  0.00     0.074 A 
ATOM     61  C   UNL A   1      41.789  31.664  30.373  1.00  0.00     0.031 C 
ATOM     62  C   UNL A   1      44.186  31.064  30.570  1.00  0.00     0.031 A 
BRANCH  49  63
ATOM     63  C   UNL A   1      48.170  26.409  29.799  1.00  0.00    -0.014 A 
ATOM     64  C   UNL A   1      49.102  26.544  28.756  1.00  0.00     0.009 A 
ATOM     65  C   UNL A   1      48.586  25.830  31.008  1.00  0.00     0.009 A 
ATOM     66  C   UNL A   1      50.408  26.076  28.910  1.00  0.00     0.001 A 
ATOM     67  C   UNL A   1      49.901  25.391  31.169  1.00  0.00     0.001 A 
ATOM     68  C   UNL A   1      50.809  25.505  30.117  1.00  0.00     0.000 A 
ENDBRANCH  49  63
BRANCH  50  69
ATOM     69  C   UNL A   1      38.640  29.230  29.011  1.00  0.00    -0.014 A 
ATOM     70  C   UNL A   1      37.777  29.089  30.109  1.00  0.00     0.009 A 
ATOM     71  C   UNL A   1      38.135  29.769  27.817  1.00  0.00     0.009 A 
ATOM     72  C   UNL A   1      36.433  29.453  30.005  1.00  0.00     0.001 A 
ATOM     73  C   UNL A   1      36.797  30.160  27.725  1.00  0.00     0.001 A 
ATOM     74  C   UNL A   1      35.945  29.992  28.815  1.00  0.00     0.000 A 
ENDBRANCH  50  69
BRANCH  62  75
ATOM     75  C   UNL A   1      44.452  32.466  31.042  1.00  0.00    -0.014 A 
ATOM     76  C   UNL A   1      44.728  33.502  30.137  1.00  0.00     0.009 A 
ATOM     77  C   UNL A   1      44.394  32.759  32.413  1.00  0.00     0.009 A 
ATOM     78  C   UNL A   1      44.978  34.796  30.599  1.00  0.00     0.001 A 
ATOM     79  C   UNL A   1      44.613  34.060  32.871  1.00  0.00     0.001 A 
ATOM     80  C   UNL A   1      44.914  35.074  31.964  1.00  0.00     0.000 A 
ENDBRANCH  62  75
ENDBRANCH  36  37
ENDBRANCH  28  31
ENDBRANCH  26  27
ENDBRANCH  25  26
ENDBRANCH   1  25
TORSDOF 13
ENDMDL
MODEL 2
REMARK VINA RESULT:     -11.5      2.586      8.095
REMARK SMILES CN(C)c1ccc(NC(=O)[C@H]2CC=CC[C@@H]2C(=O)NCCCNC(=O)c2ccc(-c3c4nc(c(-c5ccccc5)c5ccc([nH]5)c(-c5ccccc5)c5nc(c(-c6ccccc6)c6ccc3[nH]6)C=C5)C=C4)cc2)cc1
REMARK SMILES IDX 20 1 19 2 17 3 18 4 16 6 11 7 12 8 13 9 15 10 14 11 9 12
REMARK SMILES IDX 8 13 10 15 7 16 4 17 5 18 75 19 6 20 74 21 2 22 1 23 3 24
REMARK SMILES IDX 21 25 22 26 23 27 24 28 25 30 26 31 27 32 73 33 28 34 72 35
REMARK SMILES IDX 29 36 30 37 31 38 66 39 32 40 71 41 65 42 67 43 33 44 70 45
REMARK SMILES IDX 64 46 63 47 34 49 56 50 41 51 55 52 42 53 45 54 54 55 68 56
REMARK SMILES IDX 43 57 44 58 53 60 69 61 46 62 35 63 36 64 40 65 37 66 39 67
REMARK SMILES IDX 38 68 57 69 58 70 62 71 59 72 61 73 60 74 47 75 48 76 52 77
REMARK SMILES IDX 49 78 51 79 50 80
REMARK H PARENT 19 5 8 14 23 29 67 48 45 59
REMARK Flexibility Score: inf
ROOT
ATOM      1  C   UNL A   1      31.900  26.955  26.246  1.00  0.00     0.117 C 
ENDROOT
BRANCH   1   2
ATOM      2  N   UNL A   1      31.389  25.769  26.906  1.00  0.00    -0.356 N 
ATOM      3  C   UNL A   1      31.699  24.455  26.726  1.00  0.00     0.224 C 
ATOM      4  O   UNL A   1      30.945  23.631  27.243  1.00  0.00    -0.275 OA
ATOM      5  H   UNL A   1      30.708  25.941  27.596  1.00  0.00     0.163 HD
BRANCH   3   6
ATOM      6  C   UNL A   1      32.955  24.062  25.951  1.00  0.00     0.095 C 
ATOM      7  C   UNL A   1      32.591  23.682  24.496  1.00  0.00     0.095 C 
ATOM      8  C   UNL A   1      31.929  22.291  24.391  1.00  0.00     0.041 C 
ATOM      9  C   UNL A   1      32.390  21.278  25.393  1.00  0.00    -0.030 C 
ATOM     10  C   UNL A   1      33.700  22.947  26.706  1.00  0.00     0.041 C 
ATOM     11  C   UNL A   1      33.199  21.564  26.417  1.00  0.00    -0.030 C 
BRANCH   7  12
ATOM     12  C   UNL A   1      33.805  23.839  23.566  1.00  0.00     0.228 C 
ATOM     13  N   UNL A   1      33.947  24.926  22.741  1.00  0.00    -0.326 N 
ATOM     14  H   UNL A   1      34.717  24.882  22.130  1.00  0.00     0.169 HD
ATOM     15  O   UNL A   1      34.682  22.970  23.502  1.00  0.00    -0.274 OA
BRANCH  13  16
ATOM     16  C   UNL A   1      33.173  26.090  22.628  1.00  0.00     0.041 A 
ATOM     17  C   UNL A   1      31.366  28.277  22.809  1.00  0.00     0.036 A 
ATOM     18  C   UNL A   1      32.733  28.424  23.083  1.00  0.00     0.028 A 
ATOM     19  C   UNL A   1      30.971  27.031  22.296  1.00  0.00     0.028 A 
ATOM     20  C   UNL A   1      33.627  27.352  22.988  1.00  0.00     0.028 A 
ATOM     21  C   UNL A   1      31.862  25.953  22.186  1.00  0.00     0.028 A 
BRANCH  17  22
ATOM     22  N   UNL A   1      30.452  29.301  23.042  1.00  0.00    -0.378 N 
ATOM     23  C   UNL A   1      30.540  30.047  24.294  1.00  0.00     0.143 C 
ATOM     24  C   UNL A   1      29.777  29.958  21.930  1.00  0.00     0.143 C 
ENDBRANCH  17  22
ENDBRANCH  13  16
ENDBRANCH   7  12
ENDBRANCH   3   6
ENDBRANCH   1   2
BRANCH   1  25
ATOM     25  C   UNL A   1      32.119  28.094  27.242  1.00  0.00     0.042 C 
BRANCH  25  26
ATOM     26  C   UNL A   1      33.526  28.695  27.217  1.00  0.00     0.118 C 
BRANCH  26  27
ATOM     27  N   UNL A   1      33.554  30.093  27.621  1.00  0.00    -0.352 N 
ATOM     28  C   UNL A   1      34.527  30.821  28.258  1.00  0.00     0.251 C 
ATOM     29  H   UNL A   1      32.739  30.601  27.400  1.00  0.00     0.163 HD
ATOM     30  O   UNL A   1      34.270  31.955  28.653  1.00  0.00    -0.269 OA
BRANCH  28  31
ATOM     31  C   UNL A   1      35.873  30.255  28.492  1.00  0.00     0.039 A 
ATOM     32  C   UNL A   1      36.795  30.268  27.441  1.00  0.00     0.014 A 
ATOM     33  C   UNL A   1      36.220  29.673  29.714  1.00  0.00     0.014 A 
ATOM     34  C   UNL A   1      38.081  29.759  27.635  1.00  0.00     0.010 A 
ATOM     35  C   UNL A   1      37.524  29.229  29.928  1.00  0.00     0.010 A 
ATOM     36  C   UNL A   1      38.470  29.269  28.891  1.00  0.00    -0.014 A 
BRANCH  36  37
ATOM     37  C   UNL A   1      39.862  28.810  29.138  1.00  0.00     0.031 A 
ATOM     38  C   UNL A   1      40.867  29.725  29.781  1.00  0.00     0.074 A 
ATOM     39  C   UNL A   1      40.236  27.581  28.731  1.00  0.00     0.049 A 
ATOM     40  N   UNL A   1      42.135  29.509  30.035  1.00  0.00    -0.248 NA
ATOM     41  C   UNL A   1      40.396  31.063  30.170  1.00  0.00     0.031 C 
ATOM     42  C   UNL A   1      39.370  26.608  28.063  1.00  0.00     0.029 A 
ATOM     43  N   UNL A   1      41.449  26.943  28.815  1.00  0.00    -0.354 N 
ATOM     44  C   UNL A   1      42.614  30.687  30.595  1.00  0.00     0.074 A 
ATOM     45  C   UNL A   1      41.515  31.628  30.604  1.00  0.00     0.031 C 
ATOM     46  C   UNL A   1      40.069  25.486  27.827  1.00  0.00     0.029 A 
ATOM     47  C   UNL A   1      41.441  25.674  28.286  1.00  0.00     0.049 A 
ATOM     48  H   UNL A   1      42.248  27.354  29.217  1.00  0.00     0.167 HD
ATOM     49  C   UNL A   1      43.852  30.957  31.075  1.00  0.00     0.031 A 
ATOM     50  C   UNL A   1      42.428  24.766  28.175  1.00  0.00     0.031 A 
ATOM     51  C   UNL A   1      44.945  30.020  31.076  1.00  0.00     0.049 A 
ATOM     52  C   UNL A   1      43.798  25.098  28.698  1.00  0.00     0.074 A 
ATOM     53  C   UNL A   1      46.219  30.182  31.595  1.00  0.00     0.029 A 
ATOM     54  N   UNL A   1      44.895  28.748  30.529  1.00  0.00    -0.354 N 
ATOM     55  N   UNL A   1      44.214  26.191  29.290  1.00  0.00    -0.248 NA
ATOM     56  C   UNL A   1      44.831  24.063  28.547  1.00  0.00     0.031 C 
ATOM     57  C   UNL A   1      46.956  29.028  31.313  1.00  0.00     0.029 A 
ATOM     58  C   UNL A   1      46.125  28.125  30.672  1.00  0.00     0.049 A 
ATOM     59  H   UNL A   1      44.105  28.347  30.101  1.00  0.00     0.167 HD
ATOM     60  C   UNL A   1      45.547  25.965  29.607  1.00  0.00     0.074 A 
ATOM     61  C   UNL A   1      45.864  24.624  29.158  1.00  0.00     0.031 C 
ATOM     62  C   UNL A   1      46.429  26.792  30.218  1.00  0.00     0.031 A 
BRANCH  49  63
ATOM     63  C   UNL A   1      44.096  32.332  31.632  1.00  0.00    -0.014 A 
ATOM     64  C   UNL A   1      43.978  32.595  33.007  1.00  0.00     0.009 A 
ATOM     65  C   UNL A   1      44.489  33.373  30.776  1.00  0.00     0.009 A 
ATOM     66  C   UNL A   1      44.211  33.878  33.505  1.00  0.00     0.001 A 
ATOM     67  C   UNL A   1      44.752  34.647  31.281  1.00  0.00     0.001 A 
ATOM     68  C   UNL A   1      44.604  34.901  32.643  1.00  0.00     0.000 A 
ENDBRANCH  49  63
BRANCH  50  69
ATOM     69  C   UNL A   1      42.157  23.442  27.557  1.00  0.00    -0.014 A 
ATOM     70  C   UNL A   1      41.539  22.424  28.299  1.00  0.00     0.009 A 
ATOM     71  C   UNL A   1      42.526  23.184  26.228  1.00  0.00     0.009 A 
ATOM     72  C   UNL A   1      41.322  21.166  27.732  1.00  0.00     0.001 A 
ATOM     73  C   UNL A   1      42.281  21.934  25.654  1.00  0.00     0.001 A 
ATOM     74  C   UNL A   1      41.689  20.924  26.409  1.00  0.00     0.000 A 
ENDBRANCH  50  69
BRANCH  62  75
ATOM     75  C   UNL A   1      47.811  26.258  30.470  1.00  0.00    -0.014 A 
ATOM     76  C   UNL A   1      48.174  25.728  31.718  1.00  0.00     0.009 A 
ATOM     77  C   UNL A   1      48.754  26.256  29.431  1.00  0.00     0.009 A 
ATOM     78  C   UNL A   1      49.466  25.241  31.930  1.00  0.00     0.001 A 
ATOM     79  C   UNL A   1      50.035  25.741  29.636  1.00  0.00     0.001 A 
ATOM     80  C   UNL A   1      50.392  25.243  30.888  1.00  0.00     0.000 A 
ENDBRANCH  62  75
ENDBRANCH  36  37
ENDBRANCH  28  31
ENDBRANCH  26  27
ENDBRANCH  25  26
ENDBRANCH   1  25
TORSDOF 13
ENDMDL
MODEL 3
REMARK VINA RESULT:     -11.4      4.764      9.723
REMARK SMILES CN(C)c1ccc(NC(=O)[C@H]2CC=CC[C@@H]2C(=O)NCCCNC(=O)c2ccc(-c3c4nc(c(-c5ccccc5)c5ccc([nH]5)c(-c5ccccc5)c5nc(c(-c6ccccc6)c6ccc3[nH]6)C=C5)C=C4)cc2)cc1
REMARK SMILES IDX 20 1 19 2 17 3 18 4 16 6 11 7 12 8 13 9 15 10 14 11 9 12
REMARK SMILES IDX 8 13 10 15 7 16 4 17 5 18 75 19 6 20 74 21 2 22 1 23 3 24
REMARK SMILES IDX 21 25 22 26 23 27 24 28 25 30 26 31 27 32 73 33 28 34 72 35
REMARK SMILES IDX 29 36 30 37 31 38 66 39 32 40 71 41 65 42 67 43 33 44 70 45
REMARK SMILES IDX 64 46 63 47 34 49 56 50 41 51 55 52 42 53 45 54 54 55 68 56
REMARK SMILES IDX 43 57 44 58 53 60 69 61 46 62 35 63 36 64 40 65 37 66 39 67
REMARK SMILES IDX 38 68 57 69 58 70 62 71 59 72 61 73 60 74 47 75 48 76 52 77
REMARK SMILES IDX 49 78 51 79 50 80
REMARK H PARENT 19 5 8 14 23 29 67 48 45 59
REMARK Flexibility Score: inf
ROOT
ATOM      1  C   UNL A   1      31.603  30.215  25.606  1.00  0.00     0.117 C 
ENDROOT
BRANCH   1   2
ATOM      2  N   UNL A   1      31.527  29.241  26.678  1.00  0.00    -0.356 N 
ATOM      3  C   UNL A   1      31.475  27.881  26.634  1.00  0.00     0.224 C 
ATOM      4  O   UNL A   1      31.168  27.303  27.676  1.00  0.00    -0.275 OA
ATOM      5  H   UNL A   1      31.509  29.626  27.585  1.00  0.00     0.163 HD
BRANCH   3   6
ATOM      6  C   UNL A   1      31.831  27.142  25.346  1.00  0.00     0.095 C 
ATOM      7  C   UNL A   1      30.780  26.046  25.049  1.00  0.00     0.095 C 
ATOM      8  C   UNL A   1      30.934  24.808  25.960  1.00  0.00     0.041 C 
ATOM      9  C   UNL A   1      32.334  24.483  26.377  1.00  0.00    -0.030 C 
ATOM     10  C   UNL A   1      33.268  26.600  25.441  1.00  0.00     0.041 C 
ATOM     11  C   UNL A   1      33.384  25.273  26.128  1.00  0.00    -0.030 C 
BRANCH   7  12
ATOM     12  C   UNL A   1      30.763  25.689  23.553  1.00  0.00     0.228 C 
ATOM     13  N   UNL A   1      30.282  26.559  22.609  1.00  0.00    -0.326 N 
ATOM     14  H   UNL A   1      30.243  26.195  21.694  1.00  0.00     0.169 HD
ATOM     15  O   UNL A   1      31.153  24.587  23.151  1.00  0.00    -0.274 OA
BRANCH  13  16
ATOM     16  C   UNL A   1      29.838  27.883  22.733  1.00  0.00     0.041 A 
ATOM     17  C   UNL A   1      28.917  30.561  22.479  1.00  0.00     0.036 A 
ATOM     18  C   UNL A   1      28.101  29.546  22.997  1.00  0.00     0.028 A 
ATOM     19  C   UNL A   1      30.256  30.212  22.237  1.00  0.00     0.028 A 
ATOM     20  C   UNL A   1      28.552  28.229  23.130  1.00  0.00     0.028 A 
ATOM     21  C   UNL A   1      30.721  28.897  22.379  1.00  0.00     0.028 A 
BRANCH  17  22
ATOM     22  N   UNL A   1      28.428  31.836  22.210  1.00  0.00    -0.378 N 
ATOM     23  C   UNL A   1      28.782  32.927  23.114  1.00  0.00     0.143 C 
ATOM     24  C   UNL A   1      28.025  32.206  20.859  1.00  0.00     0.143 C 
ENDBRANCH  17  22
ENDBRANCH  13  16
ENDBRANCH   7  12
ENDBRANCH   3   6
ENDBRANCH   1   2
BRANCH   1  25
ATOM     25  C   UNL A   1      31.395  31.636  26.131  1.00  0.00     0.042 C 
BRANCH  25  26
ATOM     26  C   UNL A   1      32.509  32.140  27.051  1.00  0.00     0.118 C 
BRANCH  26  27
ATOM     27  N   UNL A   1      32.312  33.517  27.478  1.00  0.00    -0.352 N 
ATOM     28  C   UNL A   1      33.016  34.286  28.371  1.00  0.00     0.251 C 
ATOM     29  H   UNL A   1      31.548  33.973  27.057  1.00  0.00     0.163 HD
ATOM     30  O   UNL A   1      32.571  35.379  28.707  1.00  0.00    -0.269 OA
BRANCH  28  31
ATOM     31  C   UNL A   1      34.292  33.809  28.948  1.00  0.00     0.039 A 
ATOM     32  C   UNL A   1      34.247  32.981  30.074  1.00  0.00     0.014 A 
ATOM     33  C   UNL A   1      35.525  34.204  28.424  1.00  0.00     0.014 A 
ATOM     34  C   UNL A   1      35.433  32.497  30.632  1.00  0.00     0.010 A 
ATOM     35  C   UNL A   1      36.704  33.665  28.938  1.00  0.00     0.010 A 
ATOM     36  C   UNL A   1      36.672  32.805  30.047  1.00  0.00    -0.014 A 
BRANCH  36  37
ATOM     37  C   UNL A   1      37.933  32.223  30.573  1.00  0.00     0.031 A 
ATOM     38  C   UNL A   1      38.508  30.969  29.974  1.00  0.00     0.074 A 
ATOM     39  C   UNL A   1      38.537  32.798  31.633  1.00  0.00     0.049 A 
ATOM     40  N   UNL A   1      39.575  30.298  30.330  1.00  0.00    -0.248 NA
ATOM     41  C   UNL A   1      37.778  30.379  28.840  1.00  0.00     0.031 C 
ATOM     42  C   UNL A   1      38.066  33.996  32.330  1.00  0.00     0.029 A 
ATOM     43  N   UNL A   1      39.677  32.445  32.311  1.00  0.00    -0.354 N 
ATOM     44  C   UNL A   1      39.634  29.200  29.480  1.00  0.00     0.074 A 
ATOM     45  C   UNL A   1      38.473  29.272  28.620  1.00  0.00     0.031 C 
ATOM     46  C   UNL A   1      38.925  34.297  33.317  1.00  0.00     0.029 A 
ATOM     47  C   UNL A   1      39.982  33.291  33.351  1.00  0.00     0.049 A 
ATOM     48  H   UNL A   1      40.223  31.661  32.077  1.00  0.00     0.167 HD
ATOM     49  C   UNL A   1      40.577  28.231  29.410  1.00  0.00     0.031 A 
ATOM     50  C   UNL A   1      40.995  33.259  34.236  1.00  0.00     0.031 A 
ATOM     51  C   UNL A   1      41.738  28.163  30.259  1.00  0.00     0.049 A 
ATOM     52  C   UNL A   1      42.017  32.161  34.148  1.00  0.00     0.074 A 
ATOM     53  C   UNL A   1      42.780  27.252  30.222  1.00  0.00     0.029 A 
ATOM     54  N   UNL A   1      42.008  29.038  31.299  1.00  0.00    -0.354 N 
ATOM     55  N   UNL A   1      42.097  31.172  33.291  1.00  0.00    -0.248 NA
ATOM     56  C   UNL A   1      43.098  32.184  35.145  1.00  0.00     0.031 C 
ATOM     57  C   UNL A   1      43.653  27.543  31.275  1.00  0.00     0.029 A 
ATOM     58  C   UNL A   1      43.186  28.670  31.930  1.00  0.00     0.049 A 
ATOM     59  H   UNL A   1      41.446  29.805  31.552  1.00  0.00     0.167 HD
ATOM     60  C   UNL A   1      43.248  30.473  33.627  1.00  0.00     0.074 A 
ATOM     61  C   UNL A   1      43.845  31.161  34.754  1.00  0.00     0.031 C 
ATOM     62  C   UNL A   1      43.768  29.361  33.051  1.00  0.00     0.031 A 
BRANCH  49  63
ATOM     63  C   UNL A   1      40.386  27.151  28.381  1.00  0.00    -0.014 A 
ATOM     64  C   UNL A   1      40.963  27.248  27.104  1.00  0.00     0.009 A 
ATOM     65  C   UNL A   1      39.651  25.999  28.705  1.00  0.00     0.009 A 
ATOM     66  C   UNL A   1      40.778  26.233  26.163  1.00  0.00     0.001 A 
ATOM     67  C   UNL A   1      39.492  24.972  27.773  1.00  0.00     0.001 A 
ATOM     68  C   UNL A   1      40.048  25.094  26.500  1.00  0.00     0.000 A 
ENDBRANCH  49  63
BRANCH  50  69
ATOM     69  C   UNL A   1      41.107  34.313  35.279  1.00  0.00    -0.014 A 
ATOM     70  C   UNL A   1      41.837  35.485  35.030  1.00  0.00     0.009 A 
ATOM     71  C   UNL A   1      40.498  34.146  36.533  1.00  0.00     0.009 A 
ATOM     72  C   UNL A   1      41.978  36.456  36.024  1.00  0.00     0.001 A 
ATOM     73  C   UNL A   1      40.616  35.133  37.515  1.00  0.00     0.001 A 
ATOM     74  C   UNL A   1      41.364  36.281  37.263  1.00  0.00     0.000 A 
ENDBRANCH  50  69
BRANCH  62  75
ATOM     75  C   UNL A   1      45.064  28.842  33.607  1.00  0.00    -0.014 A 
ATOM     76  C   UNL A   1      45.088  27.875  34.624  1.00  0.00     0.009 A 
ATOM     77  C   UNL A   1      46.280  29.304  33.080  1.00  0.00     0.009 A 
ATOM     78  C   UNL A   1      46.305  27.410  35.128  1.00  0.00     0.001 A 
ATOM     79  C   UNL A   1      47.494  28.815  33.564  1.00  0.00     0.001 A 
ATOM     80  C   UNL A   1      47.505  27.876  34.593  1.00  0.00     0.000 A 
ENDBRANCH  62  75
ENDBRANCH  36  37
ENDBRANCH  28  31
ENDBRANCH  26  27
ENDBRANCH  25  26
ENDBRANCH   1  25
TORSDOF 13
ENDMDL
