MODEL 1
REMARK VINA RESULT:     -10.5      0.000      0.000
REMARK SMILES Cc1cscc1CNC(=O)CC(C)(C)C(=O)NCCCNC(=O)c1ccc(-c2c3nc(c(-c4ccccc4)c4ccc([nH]4)c(-c4ccccc4)c4nc(c(-c5ccccc5)c5ccc2[nH]5)C=C4)C=C3)cc1
REMARK SMILES IDX 18 1 17 2 15 3 16 4 12 6 13 7 14 8 11 9 9 10 8 11 10 13 7 14
REMARK SMILES IDX 6 15 1 16 2 17 3 18 4 19 5 20 19 21 20 22 21 23 22 24 23 26
REMARK SMILES IDX 24 27 25 28 71 29 26 30 70 31 27 32 28 33 29 34 64 35 30 36
REMARK SMILES IDX 69 37 63 38 65 39 31 40 68 41 62 42 61 43 32 45 54 46 39 47
REMARK SMILES IDX 53 48 40 49 43 50 52 51 66 52 41 53 42 54 51 56 67 57 44 58
REMARK SMILES IDX 33 59 34 60 38 61 35 62 37 63 36 64 55 65 56 66 60 67 57 68
REMARK SMILES IDX 59 69 58 70 45 71 46 72 50 73 47 74 49 75 48 76
REMARK H PARENT 17 5 8 12 21 25 65 44 43 55
REMARK Flexibility Score: inf
ROOT
ATOM      1  C   UNL A   1      36.481  20.487  24.989  1.00  0.00     0.117 C 
ENDROOT
BRANCH   1   2
ATOM      2  N   UNL A   1      36.648  21.710  25.746  1.00  0.00    -0.356 N 
ATOM      3  C   UNL A   1      35.969  22.880  25.802  1.00  0.00     0.226 C 
ATOM      4  O   UNL A   1      36.516  23.747  26.488  1.00  0.00    -0.274 OA
ATOM      5  H   UNL A   1      37.424  21.686  26.351  1.00  0.00     0.163 HD
BRANCH   3   6
ATOM      6  C   UNL A   1      34.693  23.184  24.991  1.00  0.00     0.052 C 
ATOM      7  C   UNL A   1      34.630  22.528  23.603  1.00  0.00     0.022 C 
ATOM      8  C   UNL A   1      34.653  24.713  24.780  1.00  0.00     0.022 C 
BRANCH   6   9
ATOM      9  C   UNL A   1      33.423  22.767  25.807  1.00  0.00     0.116 C 
BRANCH   9  10
ATOM     10  C   UNL A   1      33.493  21.558  26.739  1.00  0.00     0.221 C 
ATOM     11  N   UNL A   1      33.182  20.303  26.334  1.00  0.00    -0.352 N 
ATOM     12  H   UNL A   1      33.448  19.598  26.967  1.00  0.00     0.163 HD
ATOM     13  O   UNL A   1      33.768  21.701  27.933  1.00  0.00    -0.275 OA
BRANCH  11  14
ATOM     14  C   UNL A   1      32.530  19.811  25.144  1.00  0.00     0.152 C 
BRANCH  14  15
ATOM     15  C   UNL A   1      32.878  18.367  24.895  1.00  0.00    -0.015 A 
ATOM     16  C   UNL A   1      32.475  18.430  22.313  1.00  0.00     0.045 C 
ATOM     17  C   UNL A   1      32.874  17.747  23.583  1.00  0.00    -0.035 A 
ATOM     18  C   UNL A   1      33.293  16.431  23.641  1.00  0.00     0.068 A 
ATOM     19  S   UNL A   1      33.667  15.922  25.223  1.00  0.00    -0.152 S 
ATOM     20  C   UNL A   1      33.265  17.450  25.861  1.00  0.00     0.070 A 
ENDBRANCH  14  15
ENDBRANCH  11  14
ENDBRANCH   9  10
ENDBRANCH   6   9
ENDBRANCH   3   6
ENDBRANCH   1   2
BRANCH   1  21
ATOM     21  C   UNL A   1      37.791  19.728  24.835  1.00  0.00     0.042 C 
BRANCH  21  22
ATOM     22  C   UNL A   1      38.914  20.245  25.726  1.00  0.00     0.118 C 
BRANCH  22  23
ATOM     23  N   UNL A   1      40.007  19.289  25.861  1.00  0.00    -0.352 N 
ATOM     24  C   UNL A   1      41.337  19.481  26.131  1.00  0.00     0.251 C 
ATOM     25  H   UNL A   1      39.746  18.347  25.739  1.00  0.00     0.163 HD
ATOM     26  O   UNL A   1      42.125  18.544  25.982  1.00  0.00    -0.269 OA
BRANCH  24  27
ATOM     27  C   UNL A   1      41.844  20.795  26.576  1.00  0.00     0.039 A 
ATOM     28  C   UNL A   1      42.254  21.722  25.613  1.00  0.00     0.014 A 
ATOM     29  C   UNL A   1      41.955  21.112  27.932  1.00  0.00     0.014 A 
ATOM     30  C   UNL A   1      42.707  22.982  26.008  1.00  0.00     0.010 A 
ATOM     31  C   UNL A   1      42.304  22.402  28.320  1.00  0.00     0.010 A 
ATOM     32  C   UNL A   1      42.697  23.348  27.364  1.00  0.00    -0.014 A 
BRANCH  32  33
ATOM     33  C   UNL A   1      43.097  24.713  27.793  1.00  0.00     0.031 A 
ATOM     34  C   UNL A   1      42.055  25.761  28.077  1.00  0.00     0.074 A 
ATOM     35  C   UNL A   1      44.406  25.021  27.882  1.00  0.00     0.049 A 
ATOM     36  N   UNL A   1      42.219  27.004  28.457  1.00  0.00    -0.248 NA
ATOM     37  C   UNL A   1      40.647  25.375  27.887  1.00  0.00     0.031 C 
ATOM     38  C   UNL A   1      45.515  24.113  27.580  1.00  0.00     0.029 A 
ATOM     39  N   UNL A   1      45.026  26.186  28.259  1.00  0.00    -0.354 N 
ATOM     40  C   UNL A   1      40.942  27.547  28.534  1.00  0.00     0.074 A 
ATOM     41  C   UNL A   1      40.019  26.520  28.106  1.00  0.00     0.031 C 
ATOM     42  C   UNL A   1      46.676  24.738  27.827  1.00  0.00     0.029 A 
ATOM     43  C   UNL A   1      46.398  26.101  28.263  1.00  0.00     0.049 A 
ATOM     44  H   UNL A   1      44.535  27.003  28.503  1.00  0.00     0.167 HD
ATOM     45  C   UNL A   1      40.565  28.780  28.949  1.00  0.00     0.031 A 
ATOM     46  C   UNL A   1      47.328  27.019  28.584  1.00  0.00     0.031 A 
ATOM     47  C   UNL A   1      41.482  29.800  29.384  1.00  0.00     0.049 A 
ATOM     48  C   UNL A   1      46.885  28.382  29.038  1.00  0.00     0.074 A 
ATOM     49  C   UNL A   1      41.199  31.061  29.877  1.00  0.00     0.029 A 
ATOM     50  N   UNL A   1      42.863  29.675  29.373  1.00  0.00    -0.354 N 
ATOM     51  N   UNL A   1      45.670  28.852  29.182  1.00  0.00    -0.248 NA
ATOM     52  C   UNL A   1      47.946  29.337  29.388  1.00  0.00     0.031 C 
ATOM     53  C   UNL A   1      42.410  31.719  30.113  1.00  0.00     0.029 A 
ATOM     54  C   UNL A   1      43.446  30.846  29.827  1.00  0.00     0.049 A 
ATOM     55  H   UNL A   1      43.356  28.872  29.086  1.00  0.00     0.167 HD
ATOM     56  C   UNL A   1      45.819  30.146  29.663  1.00  0.00     0.074 A 
ATOM     57  C   UNL A   1      47.242  30.377  29.809  1.00  0.00     0.031 C 
ATOM     58  C   UNL A   1      44.865  31.062  29.957  1.00  0.00     0.031 A 
BRANCH  45  59
ATOM     59  C   UNL A   1      39.094  29.094  28.945  1.00  0.00    -0.014 A 
ATOM     60  C   UNL A   1      38.469  29.649  27.817  1.00  0.00     0.009 A 
ATOM     61  C   UNL A   1      38.313  28.799  30.074  1.00  0.00     0.009 A 
ATOM     62  C   UNL A   1      37.103  29.941  27.833  1.00  0.00     0.001 A 
ATOM     63  C   UNL A   1      36.941  29.061  30.077  1.00  0.00     0.001 A 
ATOM     64  C   UNL A   1      36.340  29.641  28.960  1.00  0.00     0.000 A 
ENDBRANCH  45  59
BRANCH  46  65
ATOM     65  C   UNL A   1      48.773  26.675  28.512  1.00  0.00    -0.014 A 
ATOM     66  C   UNL A   1      49.443  26.169  29.638  1.00  0.00     0.009 A 
ATOM     67  C   UNL A   1      49.492  26.857  27.321  1.00  0.00     0.009 A 
ATOM     68  C   UNL A   1      50.808  25.882  29.580  1.00  0.00     0.001 A 
ATOM     69  C   UNL A   1      50.851  26.537  27.258  1.00  0.00     0.001 A 
ATOM     70  C   UNL A   1      51.510  26.061  28.389  1.00  0.00     0.000 A 
ENDBRANCH  46  65
BRANCH  58  71
ATOM     71  C   UNL A   1      45.331  32.387  30.494  1.00  0.00    -0.014 A 
ATOM     72  C   UNL A   1      45.590  33.471  29.640  1.00  0.00     0.009 A 
ATOM     73  C   UNL A   1      45.494  32.557  31.877  1.00  0.00     0.009 A 
ATOM     74  C   UNL A   1      46.046  34.685  30.158  1.00  0.00     0.001 A 
ATOM     75  C   UNL A   1      45.917  33.782  32.395  1.00  0.00     0.001 A 
ATOM     76  C   UNL A   1      46.205  34.840  31.534  1.00  0.00     0.000 A 
ENDBRANCH  58  71
ENDBRANCH  32  33
ENDBRANCH  24  27
ENDBRANCH  22  23
ENDBRANCH  21  22
ENDBRANCH   1  21
TORSDOF 14
ENDMDL
MODEL 2
REMARK VINA RESULT:     -10.4      1.908      3.101
REMARK SMILES Cc1cscc1CNC(=O)CC(C)(C)C(=O)NCCCNC(=O)c1ccc(-c2c3nc(c(-c4ccccc4)c4ccc([nH]4)c(-c4ccccc4)c4nc(c(-c5ccccc5)c5ccc2[nH]5)C=C4)C=C3)cc1
REMARK SMILES IDX 18 1 17 2 15 3 16 4 12 6 13 7 14 8 11 9 9 10 8 11 10 13 7 14
REMARK SMILES IDX 6 15 1 16 2 17 3 18 4 19 5 20 19 21 20 22 21 23 22 24 23 26
REMARK SMILES IDX 24 27 25 28 71 29 26 30 70 31 27 32 28 33 29 34 64 35 30 36
REMARK SMILES IDX 69 37 63 38 65 39 31 40 68 41 62 42 61 43 32 45 54 46 39 47
REMARK SMILES IDX 53 48 40 49 43 50 52 51 66 52 41 53 42 54 51 56 67 57 44 58
REMARK SMILES IDX 33 59 34 60 38 61 35 62 37 63 36 64 55 65 56 66 60 67 57 68
REMARK SMILES IDX 59 69 58 70 45 71 46 72 50 73 47 74 49 75 48 76
REMARK H PARENT 17 5 8 12 21 25 65 44 43 55
REMARK Flexibility Score: inf
ROOT
ATOM      1  C   UNL A   1      36.439  20.570  24.980  1.00  0.00     0.117 C 
ENDROOT
BRANCH   1   2
ATOM      2  N   UNL A   1      35.190  19.840  25.046  1.00  0.00    -0.356 N 
ATOM      3  C   UNL A   1      33.891  20.210  25.127  1.00  0.00     0.226 C 
ATOM      4  O   UNL A   1      33.110  19.271  25.302  1.00  0.00    -0.274 OA
ATOM      5  H   UNL A   1      35.312  18.863  25.029  1.00  0.00     0.163 HD
BRANCH   3   6
ATOM      6  C   UNL A   1      33.401  21.673  25.136  1.00  0.00     0.052 C 
ATOM      7  C   UNL A   1      33.929  22.529  26.297  1.00  0.00     0.022 C 
ATOM      8  C   UNL A   1      31.863  21.627  25.258  1.00  0.00     0.022 C 
BRANCH   6   9
ATOM      9  C   UNL A   1      33.766  22.371  23.783  1.00  0.00     0.116 C 
BRANCH   9  10
ATOM     10  C   UNL A   1      32.721  22.450  22.672  1.00  0.00     0.221 C 
ATOM     11  N   UNL A   1      32.322  23.623  22.124  1.00  0.00    -0.352 N 
ATOM     12  H   UNL A   1      31.794  23.523  21.299  1.00  0.00     0.163 HD
ATOM     13  O   UNL A   1      32.142  21.432  22.282  1.00  0.00    -0.275 OA
BRANCH  11  14
ATOM     14  C   UNL A   1      32.528  24.992  22.529  1.00  0.00     0.152 C 
BRANCH  14  15
ATOM     15  C   UNL A   1      31.890  25.262  23.866  1.00  0.00    -0.015 A 
ATOM     16  C   UNL A   1      34.095  25.957  25.087  1.00  0.00     0.045 C 
ATOM     17  C   UNL A   1      32.617  25.731  25.031  1.00  0.00    -0.035 A 
ATOM     18  C   UNL A   1      31.771  25.954  26.102  1.00  0.00     0.068 A 
ATOM     19  S   UNL A   1      30.144  25.597  25.750  1.00  0.00    -0.152 S 
ATOM     20  C   UNL A   1      30.541  25.127  24.161  1.00  0.00     0.070 A 
ENDBRANCH  14  15
ENDBRANCH  11  14
ENDBRANCH   9  10
ENDBRANCH   6   9
ENDBRANCH   3   6
ENDBRANCH   1   2
BRANCH   1  21
ATOM     21  C   UNL A   1      37.644  19.639  25.001  1.00  0.00     0.042 C 
BRANCH  21  22
ATOM     22  C   UNL A   1      38.906  20.273  25.571  1.00  0.00     0.118 C 
BRANCH  22  23
ATOM     23  N   UNL A   1      39.979  19.305  25.769  1.00  0.00    -0.352 N 
ATOM     24  C   UNL A   1      41.294  19.483  26.112  1.00  0.00     0.251 C 
ATOM     25  H   UNL A   1      39.714  18.366  25.634  1.00  0.00     0.163 HD
ATOM     26  O   UNL A   1      42.078  18.536  26.009  1.00  0.00    -0.269 OA
BRANCH  24  27
ATOM     27  C   UNL A   1      41.790  20.792  26.582  1.00  0.00     0.039 A 
ATOM     28  C   UNL A   1      42.239  21.721  25.639  1.00  0.00     0.014 A 
ATOM     29  C   UNL A   1      41.853  21.102  27.943  1.00  0.00     0.014 A 
ATOM     30  C   UNL A   1      42.684  22.977  26.057  1.00  0.00     0.010 A 
ATOM     31  C   UNL A   1      42.193  22.388  28.350  1.00  0.00     0.010 A 
ATOM     32  C   UNL A   1      42.626  23.337  27.414  1.00  0.00    -0.014 A 
BRANCH  32  33
ATOM     33  C   UNL A   1      43.016  24.698  27.863  1.00  0.00     0.031 A 
ATOM     34  C   UNL A   1      41.968  25.743  28.135  1.00  0.00     0.074 A 
ATOM     35  C   UNL A   1      44.324  25.005  27.984  1.00  0.00     0.049 A 
ATOM     36  N   UNL A   1      42.123  26.983  28.530  1.00  0.00    -0.248 NA
ATOM     37  C   UNL A   1      40.565  25.359  27.911  1.00  0.00     0.031 C 
ATOM     38  C   UNL A   1      45.438  24.100  27.697  1.00  0.00     0.029 A 
ATOM     39  N   UNL A   1      44.934  26.166  28.385  1.00  0.00    -0.354 N 
ATOM     40  C   UNL A   1      40.845  27.525  28.584  1.00  0.00     0.074 A 
ATOM     41  C   UNL A   1      39.932  26.501  28.127  1.00  0.00     0.031 C 
ATOM     42  C   UNL A   1      46.594  24.722  27.975  1.00  0.00     0.029 A 
ATOM     43  C   UNL A   1      46.306  26.082  28.418  1.00  0.00     0.049 A 
ATOM     44  H   UNL A   1      44.439  26.981  28.626  1.00  0.00     0.167 HD
ATOM     45  C   UNL A   1      40.459  28.754  29.002  1.00  0.00     0.031 A 
ATOM     46  C   UNL A   1      47.229  26.996  28.767  1.00  0.00     0.031 A 
ATOM     47  C   UNL A   1      41.367  29.770  29.466  1.00  0.00     0.049 A 
ATOM     48  C   UNL A   1      46.776  28.355  29.224  1.00  0.00     0.074 A 
ATOM     49  C   UNL A   1      41.073  31.026  29.966  1.00  0.00     0.029 A 
ATOM     50  N   UNL A   1      42.748  29.645  29.485  1.00  0.00    -0.354 N 
ATOM     51  N   UNL A   1      45.558  28.824  29.346  1.00  0.00    -0.248 NA
ATOM     52  C   UNL A   1      47.829  29.307  29.605  1.00  0.00     0.031 C 
ATOM     53  C   UNL A   1      42.278  31.682  30.234  1.00  0.00     0.029 A 
ATOM     54  C   UNL A   1      43.320  30.811  29.962  1.00  0.00     0.049 A 
ATOM     55  H   UNL A   1      43.246  28.845  29.200  1.00  0.00     0.167 HD
ATOM     56  C   UNL A   1      45.696  30.113  29.842  1.00  0.00     0.074 A 
ATOM     57  C   UNL A   1      47.116  30.342  30.021  1.00  0.00     0.031 C 
ATOM     58  C   UNL A   1      44.736  31.026  30.124  1.00  0.00     0.031 A 
BRANCH  45  59
ATOM     59  C   UNL A   1      38.988  29.068  28.970  1.00  0.00    -0.014 A 
ATOM     60  C   UNL A   1      38.165  28.817  30.080  1.00  0.00     0.009 A 
ATOM     61  C   UNL A   1      38.422  29.653  27.827  1.00  0.00     0.009 A 
ATOM     62  C   UNL A   1      36.799  29.107  30.031  1.00  0.00     0.001 A 
ATOM     63  C   UNL A   1      37.063  29.973  27.792  1.00  0.00     0.001 A 
ATOM     64  C   UNL A   1      36.251  29.690  28.890  1.00  0.00     0.000 A 
ENDBRANCH  45  59
BRANCH  46  65
ATOM     65  C   UNL A   1      48.675  26.653  28.723  1.00  0.00    -0.014 A 
ATOM     66  C   UNL A   1      49.325  26.151  29.862  1.00  0.00     0.009 A 
ATOM     67  C   UNL A   1      49.416  26.831  27.545  1.00  0.00     0.009 A 
ATOM     68  C   UNL A   1      50.691  25.865  29.831  1.00  0.00     0.001 A 
ATOM     69  C   UNL A   1      50.776  26.512  27.507  1.00  0.00     0.001 A 
ATOM     70  C   UNL A   1      51.414  26.040  28.653  1.00  0.00     0.000 A 
ENDBRANCH  46  65
BRANCH  58  71
ATOM     71  C   UNL A   1      45.190  32.346  30.683  1.00  0.00    -0.014 A 
ATOM     72  C   UNL A   1      45.474  33.436  29.844  1.00  0.00     0.009 A 
ATOM     73  C   UNL A   1      45.317  32.505  32.071  1.00  0.00     0.009 A 
ATOM     74  C   UNL A   1      45.918  34.645  30.383  1.00  0.00     0.001 A 
ATOM     75  C   UNL A   1      45.728  33.726  32.609  1.00  0.00     0.001 A 
ATOM     76  C   UNL A   1      46.041  34.790  31.765  1.00  0.00     0.000 A 
ENDBRANCH  58  71
ENDBRANCH  32  33
ENDBRANCH  24  27
ENDBRANCH  22  23
ENDBRANCH  21  22
ENDBRANCH   1  21
TORSDOF 14
ENDMDL
MODEL 3
REMARK VINA RESULT:     -10.4      4.979      9.486
REMARK SMILES Cc1cscc1CNC(=O)CC(C)(C)C(=O)NCCCNC(=O)c1ccc(-c2c3nc(c(-c4ccccc4)c4ccc([nH]4)c(-c4ccccc4)c4nc(c(-c5ccccc5)c5ccc2[nH]5)C=C4)C=C3)cc1
REMARK SMILES IDX 18 1 17 2 15 3 16 4 12 6 13 7 14 8 11 9 9 10 8 11 10 13 7 14
REMARK SMILES IDX 6 15 1 16 2 17 3 18 4 19 5 20 19 21 20 22 21 23 22 24 23 26
REMARK SMILES IDX 24 27 25 28 71 29 26 30 70 31 27 32 28 33 29 34 64 35 30 36
REMARK SMILES IDX 69 37 63 38 65 39 31 40 68 41 62 42 61 43 32 45 54 46 39 47
REMARK SMILES IDX 53 48 40 49 43 50 52 51 66 52 41 53 42 54 51 56 67 57 44 58
REMARK SMILES IDX 33 59 34 60 38 61 35 62 37 63 36 64 55 65 56 66 60 67 57 68
REMARK SMILES IDX 59 69 58 70 45 71 46 72 50 73 47 74 49 75 48 76
REMARK H PARENT 17 5 8 12 21 25 65 44 43 55
REMARK Flexibility Score: inf
ROOT
ATOM      1  C   UNL A   1      31.558  30.435  25.894  1.00  0.00     0.117 C 
ENDROOT
BRANCH   1   2
ATOM      2  N   UNL A   1      30.875  30.266  24.629  1.00  0.00    -0.356 N 
ATOM      3  C   UNL A   1      30.822  29.266  23.717  1.00  0.00     0.226 C 
ATOM      4  O   UNL A   1      30.221  29.561  22.680  1.00  0.00    -0.274 OA
ATOM      5  H   UNL A   1      30.331  31.046  24.376  1.00  0.00     0.163 HD
BRANCH   3   6
ATOM      6  C   UNL A   1      31.545  27.912  23.868  1.00  0.00     0.052 C 
ATOM      7  C   UNL A   1      33.071  28.002  24.023  1.00  0.00     0.022 C 
ATOM      8  C   UNL A   1      31.259  27.109  22.581  1.00  0.00     0.022 C 
BRANCH   6   9
ATOM      9  C   UNL A   1      30.957  27.120  25.084  1.00  0.00     0.116 C 
BRANCH   9  10
ATOM     10  C   UNL A   1      29.860  26.084  24.846  1.00  0.00     0.221 C 
ATOM     11  N   UNL A   1      29.999  24.779  25.183  1.00  0.00    -0.352 N 
ATOM     12  H   UNL A   1      29.161  24.264  25.153  1.00  0.00     0.163 HD
ATOM     13  O   UNL A   1      28.820  26.395  24.259  1.00  0.00    -0.275 OA
BRANCH  11  14
ATOM     14  C   UNL A   1      31.152  24.007  25.577  1.00  0.00     0.152 C 
BRANCH  14  15
ATOM     15  C   UNL A   1      32.125  23.866  24.436  1.00  0.00    -0.015 A 
ATOM     16  C   UNL A   1      34.150  24.974  25.663  1.00  0.00     0.045 C 
ATOM     17  C   UNL A   1      33.511  24.292  24.495  1.00  0.00    -0.035 A 
ATOM     18  C   UNL A   1      34.187  23.985  23.328  1.00  0.00     0.068 A 
ATOM     19  S   UNL A   1      33.200  23.224  22.168  1.00  0.00    -0.152 S 
ATOM     20  C   UNL A   1      31.846  23.300  23.200  1.00  0.00     0.070 A 
ENDBRANCH  14  15
ENDBRANCH  11  14
ENDBRANCH   9  10
ENDBRANCH   6   9
ENDBRANCH   3   6
ENDBRANCH   1   2
BRANCH   1  21
ATOM     21  C   UNL A   1      31.393  31.844  26.445  1.00  0.00     0.042 C 
BRANCH  21  22
ATOM     22  C   UNL A   1      32.646  32.400  27.111  1.00  0.00     0.118 C 
BRANCH  22  23
ATOM     23  N   UNL A   1      32.475  33.773  27.570  1.00  0.00    -0.352 N 
ATOM     24  C   UNL A   1      33.155  34.492  28.519  1.00  0.00     0.251 C 
ATOM     25  H   UNL A   1      31.750  34.268  27.123  1.00  0.00     0.163 HD
ATOM     26  O   UNL A   1      32.697  35.572  28.900  1.00  0.00    -0.269 OA
BRANCH  24  27
ATOM     27  C   UNL A   1      34.413  33.986  29.105  1.00  0.00     0.039 A 
ATOM     28  C   UNL A   1      34.350  33.200  30.260  1.00  0.00     0.014 A 
ATOM     29  C   UNL A   1      35.655  34.305  28.552  1.00  0.00     0.014 A 
ATOM     30  C   UNL A   1      35.523  32.684  30.814  1.00  0.00     0.010 A 
ATOM     31  C   UNL A   1      36.811  33.704  29.040  1.00  0.00     0.010 A 
ATOM     32  C   UNL A   1      36.761  32.897  30.184  1.00  0.00    -0.014 A 
BRANCH  32  33
ATOM     33  C   UNL A   1      38.006  32.286  30.715  1.00  0.00     0.031 A 
ATOM     34  C   UNL A   1      38.549  31.015  30.117  1.00  0.00     0.074 A 
ATOM     35  C   UNL A   1      38.626  32.854  31.769  1.00  0.00     0.049 A 
ATOM     36  N   UNL A   1      39.618  30.337  30.454  1.00  0.00    -0.248 NA
ATOM     37  C   UNL A   1      37.779  30.410  29.018  1.00  0.00     0.031 C 
ATOM     38  C   UNL A   1      38.172  34.055  32.474  1.00  0.00     0.029 A 
ATOM     39  N   UNL A   1      39.775  32.498  32.427  1.00  0.00    -0.354 N 
ATOM     40  C   UNL A   1      39.638  29.225  29.620  1.00  0.00     0.074 A 
ATOM     41  C   UNL A   1      38.446  29.286  28.805  1.00  0.00     0.031 C 
ATOM     42  C   UNL A   1      39.056  34.362  33.435  1.00  0.00     0.029 A 
ATOM     43  C   UNL A   1      40.115  33.359  33.443  1.00  0.00     0.049 A 
ATOM     44  H   UNL A   1      40.306  31.703  32.195  1.00  0.00     0.167 HD
ATOM     45  C   UNL A   1      40.576  28.253  29.522  1.00  0.00     0.031 A 
ATOM     46  C   UNL A   1      41.164  33.344  34.287  1.00  0.00     0.031 A 
ATOM     47  C   UNL A   1      41.768  28.197  30.326  1.00  0.00     0.049 A 
ATOM     48  C   UNL A   1      42.190  32.253  34.159  1.00  0.00     0.074 A 
ATOM     49  C   UNL A   1      42.808  27.286  30.264  1.00  0.00     0.029 A 
ATOM     50  N   UNL A   1      42.075  29.088  31.343  1.00  0.00    -0.354 N 
ATOM     51  N   UNL A   1      42.234  31.253  33.312  1.00  0.00    -0.248 NA
ATOM     52  C   UNL A   1      43.319  32.297  35.099  1.00  0.00     0.031 C 
ATOM     53  C   UNL A   1      43.718  27.594  31.281  1.00  0.00     0.029 A 
ATOM     54  C   UNL A   1      43.276  28.733  31.933  1.00  0.00     0.049 A 
ATOM     55  H   UNL A   1      41.521  29.858  31.606  1.00  0.00     0.167 HD
ATOM     56  C   UNL A   1      43.406  30.566  33.598  1.00  0.00     0.074 A 
ATOM     57  C   UNL A   1      44.054  31.278  34.681  1.00  0.00     0.031 C 
ATOM     58  C   UNL A   1      43.902  29.447  33.018  1.00  0.00     0.031 A 
BRANCH  45  59
ATOM     59  C   UNL A   1      40.345  27.167  28.507  1.00  0.00    -0.014 A 
ATOM     60  C   UNL A   1      39.596  26.021  28.823  1.00  0.00     0.009 A 
ATOM     61  C   UNL A   1      40.853  27.304  27.205  1.00  0.00     0.009 A 
ATOM     62  C   UNL A   1      39.397  25.019  27.870  1.00  0.00     0.001 A 
ATOM     63  C   UNL A   1      40.625  26.317  26.246  1.00  0.00     0.001 A 
ATOM     64  C   UNL A   1      39.906  25.170  26.582  1.00  0.00     0.000 A 
ENDBRANCH  45  59
BRANCH  46  65
ATOM     65  C   UNL A   1      41.313  34.411  35.312  1.00  0.00    -0.014 A 
ATOM     66  C   UNL A   1      40.715  34.274  36.575  1.00  0.00     0.009 A 
ATOM     67  C   UNL A   1      42.046  35.574  35.033  1.00  0.00     0.009 A 
ATOM     68  C   UNL A   1      40.823  35.292  37.525  1.00  0.00     0.001 A 
ATOM     69  C   UNL A   1      42.180  36.576  35.997  1.00  0.00     0.001 A 
ATOM     70  C   UNL A   1      41.559  36.440  37.237  1.00  0.00     0.000 A 
ENDBRANCH  46  65
BRANCH  58  71
ATOM     71  C   UNL A   1      45.224  28.942  33.526  1.00  0.00    -0.014 A 
ATOM     72  C   UNL A   1      46.437  29.391  32.979  1.00  0.00     0.009 A 
ATOM     73  C   UNL A   1      45.254  28.017  34.581  1.00  0.00     0.009 A 
ATOM     74  C   UNL A   1      47.652  28.890  33.451  1.00  0.00     0.001 A 
ATOM     75  C   UNL A   1      46.472  27.544  35.073  1.00  0.00     0.001 A 
ATOM     76  C   UNL A   1      47.668  27.970  34.499  1.00  0.00     0.000 A 
ENDBRANCH  58  71
ENDBRANCH  32  33
ENDBRANCH  24  27
ENDBRANCH  22  23
ENDBRANCH  21  22
ENDBRANCH   1  21
TORSDOF 14
ENDMDL
