MODEL 1
REMARK VINA RESULT:     -11.5      0.000      0.000
REMARK SMILES NC(=O)[C@H]1CC(C(=O)NCCCNC(=O)c2ccc(-c3c4nc(c(-c5ccccc5)c5ccc([nH]5)c(-c5ccccc5)c5nc(c(-c6ccccc6)c6ccc3[nH]6)C=C5)C=C4)cc2)=NN1c1ccc(F)cc1
REMARK SMILES IDX 11 1 10 2 9 3 7 4 8 5 6 7 4 8 5 9 65 10 64 11 2 12 1 13 3 16
REMARK SMILES IDX 66 17 67 18 72 19 68 20 71 21 69 22 70 23 12 24 13 25 14 26
REMARK SMILES IDX 15 28 16 29 17 30 63 31 18 32 62 33 19 34 20 35 21 36 56 37
REMARK SMILES IDX 22 38 61 39 55 40 57 41 23 42 60 43 54 44 53 45 24 47 46 48
REMARK SMILES IDX 31 49 45 50 32 51 35 52 44 53 58 54 33 55 34 56 43 58 59 59
REMARK SMILES IDX 36 60 25 61 26 62 30 63 27 64 29 65 28 66 47 67 48 68 52 69
REMARK SMILES IDX 49 70 51 71 50 72 37 73 38 74 42 75 39 76 41 77 40 78
REMARK H PARENT 9 6 1 14 1 15 13 27 57 46 35 57
REMARK Flexibility Score: inf
ROOT
ATOM      1  C   UNL A   1      33.876  27.990  26.030  1.00  0.00     0.042 C 
ENDROOT
BRANCH   1   2
ATOM      2  C   UNL A   1      32.874  27.099  25.309  1.00  0.00     0.118 C 
BRANCH   2   3
ATOM      3  N   UNL A   1      32.178  26.216  26.227  1.00  0.00    -0.351 N 
ATOM      4  C   UNL A   1      32.155  24.858  26.424  1.00  0.00     0.267 C 
ATOM      5  O   UNL A   1      31.378  24.422  27.268  1.00  0.00    -0.268 OA
ATOM      6  H   UNL A   1      31.590  26.701  26.851  1.00  0.00     0.163 HD
BRANCH   4   7
ATOM      7  C   UNL A   1      33.069  23.884  25.698  1.00  0.00     0.128 C 
ATOM      8  C   UNL A   1      34.961  22.718  25.040  1.00  0.00     0.203 C 
ATOM      9  C   UNL A   1      34.545  24.065  25.606  1.00  0.00     0.101 C 
ATOM     10  N   UNL A   1      33.691  22.080  24.726  1.00  0.00    -0.252 N 
ATOM     11  N   UNL A   1      32.610  22.789  25.168  1.00  0.00    -0.171 NA
BRANCH   8  12
ATOM     12  C   UNL A   1      35.827  22.939  23.796  1.00  0.00     0.242 C 
ATOM     13  N   UNL A   1      37.178  22.799  23.991  1.00  0.00    -0.368 N 
ATOM     14  H   UNL A   1      37.799  22.926  23.238  1.00  0.00     0.159 HD
ATOM     15  H   UNL A   1      37.525  22.572  24.884  1.00  0.00     0.159 HD
ATOM     16  O   UNL A   1      35.416  23.303  22.699  1.00  0.00    -0.273 OA
ENDBRANCH   8  12
BRANCH  10  17
ATOM     17  C   UNL A   1      33.545  20.743  24.372  1.00  0.00     0.061 A 
ATOM     18  C   UNL A   1      32.454  20.337  23.584  1.00  0.00     0.031 A 
ATOM     19  C   UNL A   1      34.450  19.752  24.789  1.00  0.00     0.031 A 
ATOM     20  C   UNL A   1      32.286  19.003  23.203  1.00  0.00     0.041 A 
ATOM     21  C   UNL A   1      34.271  18.411  24.436  1.00  0.00     0.041 A 
ATOM     22  C   UNL A   1      33.196  18.052  23.639  1.00  0.00     0.123 A 
ATOM     23  F   UNL A   1      33.034  16.768  23.291  1.00  0.00    -0.207 F 
ENDBRANCH  10  17
ENDBRANCH   4   7
ENDBRANCH   2   3
ENDBRANCH   1   2
BRANCH   1  24
ATOM     24  C   UNL A   1      33.392  28.437  27.405  1.00  0.00     0.118 C 
BRANCH  24  25
ATOM     25  N   UNL A   1      33.455  29.887  27.563  1.00  0.00    -0.352 N 
ATOM     26  C   UNL A   1      34.429  30.683  28.108  1.00  0.00     0.251 C 
ATOM     27  H   UNL A   1      32.669  30.373  27.221  1.00  0.00     0.163 HD
ATOM     28  O   UNL A   1      34.171  31.857  28.373  1.00  0.00    -0.269 OA
BRANCH  26  29
ATOM     29  C   UNL A   1      35.777  30.148  28.382  1.00  0.00     0.039 A 
ATOM     30  C   UNL A   1      36.741  30.178  27.368  1.00  0.00     0.014 A 
ATOM     31  C   UNL A   1      36.084  29.576  29.618  1.00  0.00     0.014 A 
ATOM     32  C   UNL A   1      38.026  29.693  27.617  1.00  0.00     0.010 A 
ATOM     33  C   UNL A   1      37.386  29.175  29.894  1.00  0.00     0.010 A 
ATOM     34  C   UNL A   1      38.367  29.219  28.894  1.00  0.00    -0.014 A 
BRANCH  34  35
ATOM     35  C   UNL A   1      39.739  28.753  29.207  1.00  0.00     0.031 A 
ATOM     36  C   UNL A   1      40.696  29.653  29.937  1.00  0.00     0.074 A 
ATOM     37  C   UNL A   1      40.149  27.548  28.766  1.00  0.00     0.049 A 
ATOM     38  N   UNL A   1      41.954  29.453  30.240  1.00  0.00    -0.248 NA
ATOM     39  C   UNL A   1      40.179  30.965  30.358  1.00  0.00     0.031 C 
ATOM     40  C   UNL A   1      39.329  26.595  28.015  1.00  0.00     0.029 A 
ATOM     41  N   UNL A   1      41.364  26.922  28.884  1.00  0.00    -0.354 N 
ATOM     42  C   UNL A   1      42.384  30.620  30.857  1.00  0.00     0.074 A 
ATOM     43  C   UNL A   1      41.269  31.542  30.842  1.00  0.00     0.031 C 
ATOM     44  C   UNL A   1      40.051  25.489  27.777  1.00  0.00     0.029 A 
ATOM     45  C   UNL A   1      41.394  25.673  28.317  1.00  0.00     0.049 A 
ATOM     46  H   UNL A   1      42.139  27.330  29.334  1.00  0.00     0.167 HD
ATOM     47  C   UNL A   1      43.591  30.897  31.405  1.00  0.00     0.031 A 
ATOM     48  C   UNL A   1      42.393  24.774  28.241  1.00  0.00     0.031 A 
ATOM     49  C   UNL A   1      44.695  29.975  31.433  1.00  0.00     0.049 A 
ATOM     50  C   UNL A   1      43.729  25.109  28.838  1.00  0.00     0.074 A 
ATOM     51  C   UNL A   1      45.937  30.132  32.023  1.00  0.00     0.029 A 
ATOM     52  N   UNL A   1      44.689  28.722  30.836  1.00  0.00    -0.354 N 
ATOM     53  N   UNL A   1      44.100  26.191  29.479  1.00  0.00    -0.248 NA
ATOM     54  C   UNL A   1      44.781  24.092  28.707  1.00  0.00     0.031 C 
ATOM     55  C   UNL A   1      46.699  28.992  31.742  1.00  0.00     0.029 A 
ATOM     56  C   UNL A   1      45.914  28.105  31.021  1.00  0.00     0.049 A 
ATOM     57  H   UNL A   1      43.926  28.330  30.354  1.00  0.00     0.167 HD
ATOM     58  C   UNL A   1      45.420  25.975  29.851  1.00  0.00     0.074 A 
ATOM     59  C   UNL A   1      45.780  24.655  29.373  1.00  0.00     0.031 C 
ATOM     60  C   UNL A   1      46.258  26.794  30.534  1.00  0.00     0.031 A 
BRANCH  47  61
ATOM     61  C   UNL A   1      43.774  32.265  32.003  1.00  0.00    -0.014 A 
ATOM     62  C   UNL A   1      44.205  33.351  31.224  1.00  0.00     0.009 A 
ATOM     63  C   UNL A   1      43.514  32.470  33.367  1.00  0.00     0.009 A 
ATOM     64  C   UNL A   1      44.425  34.600  31.810  1.00  0.00     0.001 A 
ATOM     65  C   UNL A   1      43.704  33.727  33.943  1.00  0.00     0.001 A 
ATOM     66  C   UNL A   1      44.173  34.787  33.168  1.00  0.00     0.000 A 
ENDBRANCH  47  61
BRANCH  48  67
ATOM     67  C   UNL A   1      42.151  23.452  27.609  1.00  0.00    -0.014 A 
ATOM     68  C   UNL A   1      42.457  23.257  26.254  1.00  0.00     0.009 A 
ATOM     69  C   UNL A   1      41.637  22.380  28.353  1.00  0.00     0.009 A 
ATOM     70  C   UNL A   1      42.235  22.017  25.650  1.00  0.00     0.001 A 
ATOM     71  C   UNL A   1      41.441  21.134  27.753  1.00  0.00     0.001 A 
ATOM     72  C   UNL A   1      41.734  20.956  26.401  1.00  0.00     0.000 A 
ENDBRANCH  48  67
BRANCH  60  73
ATOM     73  C   UNL A   1      47.634  26.271  30.830  1.00  0.00    -0.014 A 
ATOM     74  C   UNL A   1      48.669  26.366  29.888  1.00  0.00     0.009 A 
ATOM     75  C   UNL A   1      47.904  25.704  32.086  1.00  0.00     0.009 A 
ATOM     76  C   UNL A   1      49.941  25.873  30.188  1.00  0.00     0.001 A 
ATOM     77  C   UNL A   1      49.182  25.237  32.391  1.00  0.00     0.001 A 
ATOM     78  C   UNL A   1      50.197  25.314  31.440  1.00  0.00     0.000 A 
ENDBRANCH  60  73
ENDBRANCH  34  35
ENDBRANCH  26  29
ENDBRANCH  24  25
ENDBRANCH   1  24
TORSDOF 12
ENDMDL
MODEL 2
REMARK VINA RESULT:     -11.4      1.646      2.243
REMARK SMILES NC(=O)[C@H]1CC(C(=O)NCCCNC(=O)c2ccc(-c3c4nc(c(-c5ccccc5)c5ccc([nH]5)c(-c5ccccc5)c5nc(c(-c6ccccc6)c6ccc3[nH]6)C=C5)C=C4)cc2)=NN1c1ccc(F)cc1
REMARK SMILES IDX 11 1 10 2 9 3 7 4 8 5 6 7 4 8 5 9 65 10 64 11 2 12 1 13 3 16
REMARK SMILES IDX 66 17 67 18 72 19 68 20 71 21 69 22 70 23 12 24 13 25 14 26
REMARK SMILES IDX 15 28 16 29 17 30 63 31 18 32 62 33 19 34 20 35 21 36 56 37
REMARK SMILES IDX 22 38 61 39 55 40 57 41 23 42 60 43 54 44 53 45 24 47 46 48
REMARK SMILES IDX 31 49 45 50 32 51 35 52 44 53 58 54 33 55 34 56 43 58 59 59
REMARK SMILES IDX 36 60 25 61 26 62 30 63 27 64 29 65 28 66 47 67 48 68 52 69
REMARK SMILES IDX 49 70 51 71 50 72 37 73 38 74 42 75 39 76 41 77 40 78
REMARK H PARENT 9 6 1 14 1 15 13 27 57 46 35 57
REMARK Flexibility Score: inf
ROOT
ATOM      1  C   UNL A   1      33.114  27.767  26.739  1.00  0.00     0.042 C 
ENDROOT
BRANCH   1   2
ATOM      2  C   UNL A   1      31.715  27.732  26.138  1.00  0.00     0.118 C 
BRANCH   2   3
ATOM      3  N   UNL A   1      30.970  26.565  26.572  1.00  0.00    -0.351 N 
ATOM      4  C   UNL A   1      30.966  25.240  26.216  1.00  0.00     0.267 C 
ATOM      5  O   UNL A   1      30.133  24.513  26.751  1.00  0.00    -0.268 OA
ATOM      6  H   UNL A   1      30.320  26.770  27.283  1.00  0.00     0.163 HD
BRANCH   4   7
ATOM      7  C   UNL A   1      31.962  24.622  25.247  1.00  0.00     0.128 C 
ATOM      8  C   UNL A   1      33.288  24.280  23.377  1.00  0.00     0.203 C 
ATOM      9  C   UNL A   1      31.976  24.925  23.789  1.00  0.00     0.101 C 
ATOM     10  N   UNL A   1      33.702  23.569  24.579  1.00  0.00    -0.252 N 
ATOM     11  N   UNL A   1      32.910  23.834  25.660  1.00  0.00    -0.171 NA
BRANCH   8  12
ATOM     12  C   UNL A   1      33.038  23.336  22.197  1.00  0.00     0.242 C 
ATOM     13  N   UNL A   1      32.178  22.298  22.450  1.00  0.00    -0.368 N 
ATOM     14  H   UNL A   1      31.969  21.650  21.740  1.00  0.00     0.159 HD
ATOM     15  H   UNL A   1      31.771  22.202  23.341  1.00  0.00     0.159 HD
ATOM     16  O   UNL A   1      33.601  23.396  21.109  1.00  0.00    -0.273 OA
ENDBRANCH   8  12
BRANCH  10  17
ATOM     17  C   UNL A   1      34.953  22.989  24.762  1.00  0.00     0.061 A 
ATOM     18  C   UNL A   1      35.086  21.590  24.785  1.00  0.00     0.031 A 
ATOM     19  C   UNL A   1      36.116  23.756  24.946  1.00  0.00     0.031 A 
ATOM     20  C   UNL A   1      36.331  20.979  24.958  1.00  0.00     0.041 A 
ATOM     21  C   UNL A   1      37.360  23.150  25.148  1.00  0.00     0.041 A 
ATOM     22  C   UNL A   1      37.456  21.767  25.143  1.00  0.00     0.123 A 
ATOM     23  F   UNL A   1      38.651  21.189  25.323  1.00  0.00    -0.207 F 
ENDBRANCH  10  17
ENDBRANCH   4   7
ENDBRANCH   2   3
ENDBRANCH   1   2
BRANCH   1  24
ATOM     24  C   UNL A   1      34.018  28.803  26.080  1.00  0.00     0.118 C 
BRANCH  24  25
ATOM     25  N   UNL A   1      33.797  30.142  26.617  1.00  0.00    -0.352 N 
ATOM     26  C   UNL A   1      34.453  30.825  27.609  1.00  0.00     0.251 C 
ATOM     27  H   UNL A   1      33.054  30.637  26.199  1.00  0.00     0.163 HD
ATOM     28  O   UNL A   1      33.945  31.842  28.080  1.00  0.00    -0.269 OA
BRANCH  26  29
ATOM     29  C   UNL A   1      35.756  30.353  28.116  1.00  0.00     0.039 A 
ATOM     30  C   UNL A   1      35.815  29.730  29.367  1.00  0.00     0.014 A 
ATOM     31  C   UNL A   1      36.928  30.561  27.385  1.00  0.00     0.014 A 
ATOM     32  C   UNL A   1      37.037  29.261  29.853  1.00  0.00     0.010 A 
ATOM     33  C   UNL A   1      38.127  30.016  27.828  1.00  0.00     0.010 A 
ATOM     34  C   UNL A   1      38.197  29.371  29.070  1.00  0.00    -0.014 A 
BRANCH  34  35
ATOM     35  C   UNL A   1      39.498  28.830  29.532  1.00  0.00     0.031 A 
ATOM     36  C   UNL A   1      40.346  29.616  30.492  1.00  0.00     0.074 A 
ATOM     37  C   UNL A   1      39.952  27.666  29.027  1.00  0.00     0.049 A 
ATOM     38  N   UNL A   1      41.540  29.344  30.955  1.00  0.00    -0.248 NA
ATOM     39  C   UNL A   1      39.791  30.892  30.972  1.00  0.00     0.031 C 
ATOM     40  C   UNL A   1      39.242  26.825  28.061  1.00  0.00     0.029 A 
ATOM     41  N   UNL A   1      41.124  26.993  29.256  1.00  0.00    -0.354 N 
ATOM     42  C   UNL A   1      41.888  30.424  31.755  1.00  0.00     0.074 A 
ATOM     43  C   UNL A   1      40.803  31.378  31.675  1.00  0.00     0.031 C 
ATOM     44  C   UNL A   1      39.974  25.729  27.813  1.00  0.00     0.029 A 
ATOM     45  C   UNL A   1      41.222  25.811  28.565  1.00  0.00     0.049 A 
ATOM     46  H   UNL A   1      41.828  27.326  29.859  1.00  0.00     0.167 HD
ATOM     47  C   UNL A   1      43.002  30.603  32.505  1.00  0.00     0.031 A 
ATOM     48  C   UNL A   1      42.206  24.894  28.541  1.00  0.00     0.031 A 
ATOM     49  C   UNL A   1      44.074  29.649  32.596  1.00  0.00     0.049 A 
ATOM     50  C   UNL A   1      43.440  25.120  29.366  1.00  0.00     0.074 A 
ATOM     51  C   UNL A   1      45.214  29.701  33.380  1.00  0.00     0.029 A 
ATOM     52  N   UNL A   1      44.140  28.467  31.871  1.00  0.00    -0.354 N 
ATOM     53  N   UNL A   1      43.727  26.115  30.170  1.00  0.00    -0.248 NA
ATOM     54  C   UNL A   1      44.485  24.090  29.283  1.00  0.00     0.031 C 
ATOM     55  C   UNL A   1      45.993  28.574  33.092  1.00  0.00     0.029 A 
ATOM     56  C   UNL A   1      45.313  27.795  32.169  1.00  0.00     0.049 A 
ATOM     57  H   UNL A   1      43.454  28.153  31.239  1.00  0.00     0.167 HD
ATOM     58  C   UNL A   1      44.971  25.818  30.710  1.00  0.00     0.074 A 
ATOM     59  C   UNL A   1      45.379  24.546  30.149  1.00  0.00     0.031 C 
ATOM     60  C   UNL A   1      45.707  26.533  31.597  1.00  0.00     0.031 A 
BRANCH  47  61
ATOM     61  C   UNL A   1      43.113  31.893  33.270  1.00  0.00    -0.014 A 
ATOM     62  C   UNL A   1      43.730  33.024  32.713  1.00  0.00     0.009 A 
ATOM     63  C   UNL A   1      42.594  31.977  34.572  1.00  0.00     0.009 A 
ATOM     64  C   UNL A   1      43.876  34.194  33.461  1.00  0.00     0.001 A 
ATOM     65  C   UNL A   1      42.711  33.159  35.306  1.00  0.00     0.001 A 
ATOM     66  C   UNL A   1      43.365  34.261  34.756  1.00  0.00     0.000 A 
ENDBRANCH  47  61
BRANCH  48  67
ATOM     67  C   UNL A   1      42.043  23.655  27.739  1.00  0.00    -0.014 A 
ATOM     68  C   UNL A   1      41.370  22.551  28.285  1.00  0.00     0.009 A 
ATOM     69  C   UNL A   1      42.535  23.573  26.428  1.00  0.00     0.009 A 
ATOM     70  C   UNL A   1      41.208  21.382  27.539  1.00  0.00     0.001 A 
ATOM     71  C   UNL A   1      42.350  22.411  25.676  1.00  0.00     0.001 A 
ATOM     72  C   UNL A   1      41.693  21.315  26.234  1.00  0.00     0.000 A 
ENDBRANCH  48  67
BRANCH  60  73
ATOM     73  C   UNL A   1      47.013  25.937  32.037  1.00  0.00    -0.014 A 
ATOM     74  C   UNL A   1      48.184  26.110  31.284  1.00  0.00     0.009 A 
ATOM     75  C   UNL A   1      47.077  25.219  33.242  1.00  0.00     0.009 A 
ATOM     76  C   UNL A   1      49.388  25.548  31.714  1.00  0.00     0.001 A 
ATOM     77  C   UNL A   1      48.286  24.682  33.682  1.00  0.00     0.001 A 
ATOM     78  C   UNL A   1      49.438  24.838  32.915  1.00  0.00     0.000 A 
ENDBRANCH  60  73
ENDBRANCH  34  35
ENDBRANCH  26  29
ENDBRANCH  24  25
ENDBRANCH   1  24
TORSDOF 12
ENDMDL
MODEL 3
REMARK VINA RESULT:     -11.3      1.556      2.065
REMARK SMILES NC(=O)[C@H]1CC(C(=O)NCCCNC(=O)c2ccc(-c3c4nc(c(-c5ccccc5)c5ccc([nH]5)c(-c5ccccc5)c5nc(c(-c6ccccc6)c6ccc3[nH]6)C=C5)C=C4)cc2)=NN1c1ccc(F)cc1
REMARK SMILES IDX 11 1 10 2 9 3 7 4 8 5 6 7 4 8 5 9 65 10 64 11 2 12 1 13 3 16
REMARK SMILES IDX 66 17 67 18 72 19 68 20 71 21 69 22 70 23 12 24 13 25 14 26
REMARK SMILES IDX 15 28 16 29 17 30 63 31 18 32 62 33 19 34 20 35 21 36 56 37
REMARK SMILES IDX 22 38 61 39 55 40 57 41 23 42 60 43 54 44 53 45 24 47 46 48
REMARK SMILES IDX 31 49 45 50 32 51 35 52 44 53 58 54 33 55 34 56 43 58 59 59
REMARK SMILES IDX 36 60 25 61 26 62 30 63 27 64 29 65 28 66 47 67 48 68 52 69
REMARK SMILES IDX 49 70 51 71 50 72 37 73 38 74 42 75 39 76 41 77 40 78
REMARK H PARENT 9 6 1 14 1 15 13 27 57 46 35 57
REMARK Flexibility Score: inf
ROOT
ATOM      1  C   UNL A   1      33.268  28.205  25.989  1.00  0.00     0.042 C 
ENDROOT
BRANCH   1   2
ATOM      2  C   UNL A   1      31.805  28.260  25.572  1.00  0.00     0.118 C 
BRANCH   2   3
ATOM      3  N   UNL A   1      31.040  27.167  26.143  1.00  0.00    -0.351 N 
ATOM      4  C   UNL A   1      31.005  25.810  25.943  1.00  0.00     0.267 C 
ATOM      5  O   UNL A   1      30.162  25.168  26.564  1.00  0.00    -0.268 OA
ATOM      6  H   UNL A   1      30.401  27.467  26.830  1.00  0.00     0.163 HD
BRANCH   4   7
ATOM      7  C   UNL A   1      31.979  25.063  25.045  1.00  0.00     0.128 C 
ATOM      8  C   UNL A   1      33.292  24.488  23.224  1.00  0.00     0.203 C 
ATOM      9  C   UNL A   1      32.003  25.217  23.563  1.00  0.00     0.101 C 
ATOM     10  N   UNL A   1      33.681  23.888  24.492  1.00  0.00    -0.252 N 
ATOM     11  N   UNL A   1      32.898  24.288  25.538  1.00  0.00    -0.171 NA
BRANCH   8  12
ATOM     12  C   UNL A   1      33.010  23.439  22.144  1.00  0.00     0.242 C 
ATOM     13  N   UNL A   1      32.111  22.464  22.496  1.00  0.00    -0.368 N 
ATOM     14  H   UNL A   1      31.879  21.755  21.854  1.00  0.00     0.159 HD
ATOM     15  H   UNL A   1      31.700  22.474  23.390  1.00  0.00     0.159 HD
ATOM     16  O   UNL A   1      33.576  23.368  21.058  1.00  0.00    -0.273 OA
ENDBRANCH   8  12
BRANCH  10  17
ATOM     17  C   UNL A   1      34.911  23.286  24.738  1.00  0.00     0.061 A 
ATOM     18  C   UNL A   1      35.046  21.891  24.636  1.00  0.00     0.031 A 
ATOM     19  C   UNL A   1      36.047  24.024  25.108  1.00  0.00     0.031 A 
ATOM     20  C   UNL A   1      36.271  21.259  24.867  1.00  0.00     0.041 A 
ATOM     21  C   UNL A   1      37.268  23.395  25.369  1.00  0.00     0.041 A 
ATOM     22  C   UNL A   1      37.370  22.019  25.237  1.00  0.00     0.123 A 
ATOM     23  F   UNL A   1      38.544  21.420  25.474  1.00  0.00    -0.207 F 
ENDBRANCH  10  17
ENDBRANCH   4   7
ENDBRANCH   2   3
ENDBRANCH   1   2
BRANCH   1  24
ATOM     24  C   UNL A   1      33.480  28.549  27.460  1.00  0.00     0.118 C 
BRANCH  24  25
ATOM     25  N   UNL A   1      33.547  29.990  27.681  1.00  0.00    -0.352 N 
ATOM     26  C   UNL A   1      34.536  30.761  28.237  1.00  0.00     0.251 C 
ATOM     27  H   UNL A   1      32.753  30.490  27.382  1.00  0.00     0.163 HD
ATOM     28  O   UNL A   1      34.285  31.922  28.561  1.00  0.00    -0.269 OA
BRANCH  26  29
ATOM     29  C   UNL A   1      35.889  30.215  28.452  1.00  0.00     0.039 A 
ATOM     30  C   UNL A   1      36.808  30.236  27.396  1.00  0.00     0.014 A 
ATOM     31  C   UNL A   1      36.246  29.642  29.675  1.00  0.00     0.014 A 
ATOM     32  C   UNL A   1      38.098  29.740  27.589  1.00  0.00     0.010 A 
ATOM     33  C   UNL A   1      37.555  29.231  29.893  1.00  0.00     0.010 A 
ATOM     34  C   UNL A   1      38.492  29.266  28.851  1.00  0.00    -0.014 A 
BRANCH  34  35
ATOM     35  C   UNL A   1      39.873  28.788  29.104  1.00  0.00     0.031 A 
ATOM     36  C   UNL A   1      40.882  29.698  29.745  1.00  0.00     0.074 A 
ATOM     37  C   UNL A   1      40.239  27.561  28.685  1.00  0.00     0.049 A 
ATOM     38  N   UNL A   1      42.152  29.488  29.984  1.00  0.00    -0.248 NA
ATOM     39  C   UNL A   1      40.409  31.033  30.145  1.00  0.00     0.031 C 
ATOM     40  C   UNL A   1      39.365  26.595  28.017  1.00  0.00     0.029 A 
ATOM     41  N   UNL A   1      41.449  26.920  28.758  1.00  0.00    -0.354 N 
ATOM     42  C   UNL A   1      42.633  30.669  30.533  1.00  0.00     0.074 A 
ATOM     43  C   UNL A   1      41.532  31.608  30.547  1.00  0.00     0.031 C 
ATOM     44  C   UNL A   1      40.056  25.470  27.779  1.00  0.00     0.029 A 
ATOM     45  C   UNL A   1      41.430  25.651  28.236  1.00  0.00     0.049 A 
ATOM     46  H   UNL A   1      42.254  27.332  29.148  1.00  0.00     0.167 HD
ATOM     47  C   UNL A   1      43.873  30.946  31.002  1.00  0.00     0.031 A 
ATOM     48  C   UNL A   1      42.410  24.734  28.138  1.00  0.00     0.031 A 
ATOM     49  C   UNL A   1      44.963  30.008  31.002  1.00  0.00     0.049 A 
ATOM     50  C   UNL A   1      43.782  25.067  28.647  1.00  0.00     0.074 A 
ATOM     51  C   UNL A   1      46.238  30.165  31.516  1.00  0.00     0.029 A 
ATOM     52  N   UNL A   1      44.905  28.735  30.454  1.00  0.00    -0.354 N 
ATOM     53  N   UNL A   1      44.204  26.166  29.225  1.00  0.00    -0.248 NA
ATOM     54  C   UNL A   1      44.811  24.030  28.495  1.00  0.00     0.031 C 
ATOM     55  C   UNL A   1      46.967  29.003  31.235  1.00  0.00     0.029 A 
ATOM     56  C   UNL A   1      46.130  28.104  30.593  1.00  0.00     0.049 A 
ATOM     57  H   UNL A   1      44.111  28.338  30.029  1.00  0.00     0.167 HD
ATOM     58  C   UNL A   1      45.540  25.942  29.531  1.00  0.00     0.074 A 
ATOM     59  C   UNL A   1      45.853  24.599  29.083  1.00  0.00     0.031 C 
ATOM     60  C   UNL A   1      46.427  26.771  30.135  1.00  0.00     0.031 A 
BRANCH  47  61
ATOM     61  C   UNL A   1      44.109  32.331  31.538  1.00  0.00    -0.014 A 
ATOM     62  C   UNL A   1      43.842  32.652  32.879  1.00  0.00     0.009 A 
ATOM     63  C   UNL A   1      44.602  33.333  30.688  1.00  0.00     0.009 A 
ATOM     64  C   UNL A   1      44.011  33.958  33.343  1.00  0.00     0.001 A 
ATOM     65  C   UNL A   1      44.801  34.631  31.162  1.00  0.00     0.001 A 
ATOM     66  C   UNL A   1      44.492  34.946  32.485  1.00  0.00     0.000 A 
ENDBRANCH  47  61
BRANCH  48  67
ATOM     67  C   UNL A   1      42.113  23.394  27.570  1.00  0.00    -0.014 A 
ATOM     68  C   UNL A   1      42.432  23.114  26.232  1.00  0.00     0.009 A 
ATOM     69  C   UNL A   1      41.535  22.388  28.357  1.00  0.00     0.009 A 
ATOM     70  C   UNL A   1      42.160  21.857  25.688  1.00  0.00     0.001 A 
ATOM     71  C   UNL A   1      41.287  21.124  27.817  1.00  0.00     0.001 A 
ATOM     72  C   UNL A   1      41.594  20.862  26.483  1.00  0.00     0.000 A 
ENDBRANCH  48  67
BRANCH  60  73
ATOM     73  C   UNL A   1      47.809  26.236  30.373  1.00  0.00    -0.014 A 
ATOM     74  C   UNL A   1      48.777  26.238  29.358  1.00  0.00     0.009 A 
ATOM     75  C   UNL A   1      48.156  25.753  31.645  1.00  0.00     0.009 A 
ATOM     76  C   UNL A   1      50.057  25.736  29.604  1.00  0.00     0.001 A 
ATOM     77  C   UNL A   1      49.443  25.278  31.895  1.00  0.00     0.001 A 
ATOM     78  C   UNL A   1      50.390  25.261  30.873  1.00  0.00     0.000 A 
ENDBRANCH  60  73
ENDBRANCH  34  35
ENDBRANCH  26  29
ENDBRANCH  24  25
ENDBRANCH   1  24
TORSDOF 12
ENDMDL
