MODEL 1
REMARK VINA RESULT:     -11.3      0.000      0.000
REMARK SMILES O=C(NCCCNC(=O)[C@@H]1C[NH2+]CCN1C(=O)N[C@@H]1CCOC1)c1ccc(-c2c3nc(c(-c4ccccc4)c4ccc([nH]4)c(-c4ccccc4)c4nc(c(-c5ccccc5)c5ccc2[nH]5)C=C4)C=C3)cc1
REMARK SMILES IDX 5 1 4 2 3 3 1 4 2 5 24 7 25 8 71 9 26 10 70 11 27 12 28 13
REMARK SMILES IDX 29 14 64 15 30 16 69 17 63 18 65 19 31 20 68 21 62 22 61 23
REMARK SMILES IDX 32 25 54 26 39 27 53 28 40 29 43 30 52 31 66 32 41 33 42 34
REMARK SMILES IDX 51 36 67 37 44 38 33 39 34 40 38 41 35 42 37 43 36 44 55 45
REMARK SMILES IDX 56 46 60 47 57 48 59 49 58 50 45 51 46 52 50 53 47 54 49 55
REMARK SMILES IDX 48 56 6 57 7 58 8 59 9 61 10 62 11 63 15 64 12 65 14 66
REMARK SMILES IDX 13 67 16 70 17 71 18 72 19 74 20 75 23 76 21 77 22 78
REMARK H PARENT 3 6 65 24 43 35 7 60 12 68 12 69 18 73
REMARK Flexibility Score: inf
ROOT
ATOM      1  C   UNL A   1      31.553  32.000  26.705  1.00  0.00     0.042 C 
ENDROOT
BRANCH   1   2
ATOM      2  C   UNL A   1      32.713  32.809  27.278  1.00  0.00     0.118 C 
BRANCH   2   3
ATOM      3  N   UNL A   1      32.354  34.171  27.636  1.00  0.00    -0.352 N 
ATOM      4  O   UNL A   1      32.457  36.110  28.792  1.00  0.00    -0.269 OA
ATOM      5  C   UNL A   1      32.953  35.015  28.543  1.00  0.00     0.251 C 
ATOM      6  H   UNL A   1      31.573  34.541  27.164  1.00  0.00     0.163 HD
BRANCH   5   7
ATOM      7  C   UNL A   1      34.169  34.575  29.261  1.00  0.00     0.039 A 
ATOM      8  C   UNL A   1      35.433  34.713  28.682  1.00  0.00     0.014 A 
ATOM      9  C   UNL A   1      34.034  33.968  30.512  1.00  0.00     0.014 A 
ATOM     10  C   UNL A   1      36.525  34.074  29.259  1.00  0.00     0.010 A 
ATOM     11  C   UNL A   1      35.154  33.411  31.137  1.00  0.00     0.010 A 
ATOM     12  C   UNL A   1      36.400  33.408  30.490  1.00  0.00    -0.014 A 
BRANCH  12  13
ATOM     13  C   UNL A   1      37.581  32.726  31.081  1.00  0.00     0.031 A 
ATOM     14  C   UNL A   1      38.144  33.153  32.413  1.00  0.00     0.074 A 
ATOM     15  C   UNL A   1      38.133  31.686  30.427  1.00  0.00     0.049 A 
ATOM     16  N   UNL A   1      39.148  32.645  33.084  1.00  0.00    -0.248 NA
ATOM     17  C   UNL A   1      37.503  34.301  33.076  1.00  0.00     0.031 C 
ATOM     18  C   UNL A   1      37.688  31.171  29.130  1.00  0.00     0.029 A 
ATOM     19  N   UNL A   1      39.170  30.858  30.775  1.00  0.00    -0.354 N 
ATOM     20  C   UNL A   1      39.283  33.427  34.225  1.00  0.00     0.074 A 
ATOM     21  C   UNL A   1      38.266  34.456  34.150  1.00  0.00     0.031 C 
ATOM     22  C   UNL A   1      38.404  30.080  28.821  1.00  0.00     0.029 A 
ATOM     23  C   UNL A   1      39.399  29.857  29.863  1.00  0.00     0.049 A 
ATOM     24  H   UNL A   1      39.699  30.970  31.598  1.00  0.00     0.167 HD
ATOM     25  C   UNL A   1      40.167  33.303  35.244  1.00  0.00     0.031 A 
ATOM     26  C   UNL A   1      40.312  28.869  29.858  1.00  0.00     0.031 A 
ATOM     27  C   UNL A   1      41.168  32.271  35.334  1.00  0.00     0.049 A 
ATOM     28  C   UNL A   1      41.284  28.759  30.994  1.00  0.00     0.074 A 
ATOM     29  C   UNL A   1      42.082  32.042  36.348  1.00  0.00     0.029 A 
ATOM     30  N   UNL A   1      41.386  31.297  34.373  1.00  0.00    -0.354 N 
ATOM     31  N   UNL A   1      41.375  29.491  32.077  1.00  0.00    -0.248 NA
ATOM     32  C   UNL A   1      42.279  27.681  30.907  1.00  0.00     0.031 C 
ATOM     33  C   UNL A   1      42.883  30.954  35.980  1.00  0.00     0.029 A 
ATOM     34  C   UNL A   1      42.433  30.476  34.761  1.00  0.00     0.049 A 
ATOM     35  H   UNL A   1      40.874  31.201  33.537  1.00  0.00     0.167 HD
ATOM     36  C   UNL A   1      42.421  28.950  32.811  1.00  0.00     0.074 A 
ATOM     37  C   UNL A   1      42.922  27.818  32.057  1.00  0.00     0.031 C 
ATOM     38  C   UNL A   1      42.921  29.355  34.003  1.00  0.00     0.031 A 
BRANCH  25  39
ATOM     39  C   UNL A   1      40.116  34.332  36.340  1.00  0.00    -0.014 A 
ATOM     40  C   UNL A   1      40.831  35.536  36.249  1.00  0.00     0.009 A 
ATOM     41  C   UNL A   1      39.302  34.110  37.462  1.00  0.00     0.009 A 
ATOM     42  C   UNL A   1      40.756  36.482  37.276  1.00  0.00     0.001 A 
ATOM     43  C   UNL A   1      39.209  35.067  38.474  1.00  0.00     0.001 A 
ATOM     44  C   UNL A   1      39.943  36.248  38.385  1.00  0.00     0.000 A 
ENDBRANCH  25  39
BRANCH  26  45
ATOM     45  C   UNL A   1      40.340  27.898  28.735  1.00  0.00    -0.014 A 
ATOM     46  C   UNL A   1      39.642  26.685  28.827  1.00  0.00     0.009 A 
ATOM     47  C   UNL A   1      41.055  28.185  27.562  1.00  0.00     0.009 A 
ATOM     48  C   UNL A   1      39.674  25.770  27.772  1.00  0.00     0.001 A 
ATOM     49  C   UNL A   1      41.061  27.281  26.499  1.00  0.00     0.001 A 
ATOM     50  C   UNL A   1      40.378  26.072  26.607  1.00  0.00     0.000 A 
ENDBRANCH  26  45
BRANCH  38  51
ATOM     51  C   UNL A   1      44.041  28.540  34.583  1.00  0.00    -0.014 A 
ATOM     52  C   UNL A   1      45.385  28.860  34.329  1.00  0.00     0.009 A 
ATOM     53  C   UNL A   1      43.745  27.442  35.407  1.00  0.00     0.009 A 
ATOM     54  C   UNL A   1      46.408  28.072  34.860  1.00  0.00     0.001 A 
ATOM     55  C   UNL A   1      44.771  26.674  35.958  1.00  0.00     0.001 A 
ATOM     56  C   UNL A   1      46.101  26.983  35.675  1.00  0.00     0.000 A 
ENDBRANCH  38  51
ENDBRANCH  12  13
ENDBRANCH   5   7
ENDBRANCH   2   3
ENDBRANCH   1   2
BRANCH   1  57
ATOM     57  C   UNL A   1      31.783  30.495  26.740  1.00  0.00     0.117 C 
BRANCH  57  58
ATOM     58  N   UNL A   1      32.720  30.066  25.712  1.00  0.00    -0.354 N 
ATOM     59  C   UNL A   1      32.623  29.013  24.848  1.00  0.00     0.248 C 
ATOM     60  H   UNL A   1      33.536  30.609  25.628  1.00  0.00     0.163 HD
ATOM     61  O   UNL A   1      33.462  28.948  23.949  1.00  0.00    -0.272 OA
BRANCH  59  62
ATOM     62  C   UNL A   1      31.519  27.968  25.066  1.00  0.00     0.231 C 
ATOM     63  C   UNL A   1      32.168  26.982  26.099  1.00  0.00     0.296 C 
ATOM     64  N   UNL A   1      30.830  27.157  24.021  1.00  0.00    -0.302 N 
ATOM     65  N   UNL A   1      31.195  26.104  26.773  1.00  0.00    -0.343 N 
ATOM     66  C   UNL A   1      29.856  26.234  24.647  1.00  0.00     0.183 C 
ATOM     67  C   UNL A   1      30.454  25.350  25.752  1.00  0.00     0.282 C 
ATOM     68  H   UNL A   1      30.546  26.668  27.321  1.00  0.00     0.346 HD
ATOM     69  H   UNL A   1      31.681  25.460  27.396  1.00  0.00     0.346 HD
BRANCH  64  70
ATOM     70  C   UNL A   1      30.476  27.514  22.748  1.00  0.00     0.318 C 
ATOM     71  O   UNL A   1      31.076  27.071  21.761  1.00  0.00    -0.249 OA
ATOM     72  N   UNL A   1      29.550  28.437  22.458  1.00  0.00    -0.333 N 
ATOM     73  H   UNL A   1      29.408  28.522  21.487  1.00  0.00     0.165 HD
BRANCH  72  74
ATOM     74  C   UNL A   1      28.700  29.349  23.211  1.00  0.00     0.112 C 
ATOM     75  C   UNL A   1      27.546  29.779  22.325  1.00  0.00     0.056 C 
ATOM     76  C   UNL A   1      29.368  30.688  23.503  1.00  0.00     0.185 C 
ATOM     77  C   UNL A   1      28.004  31.075  21.679  1.00  0.00     0.162 C 
ATOM     78  O   UNL A   1      29.216  31.482  22.319  1.00  0.00    -0.379 OA
ENDBRANCH  72  74
ENDBRANCH  64  70
ENDBRANCH  59  62
ENDBRANCH  57  58
ENDBRANCH   1  57
TORSDOF 12
ENDMDL
MODEL 2
REMARK VINA RESULT:     -11.2      0.426      6.067
REMARK SMILES O=C(NCCCNC(=O)[C@@H]1C[NH2+]CCN1C(=O)N[C@@H]1CCOC1)c1ccc(-c2c3nc(c(-c4ccccc4)c4ccc([nH]4)c(-c4ccccc4)c4nc(c(-c5ccccc5)c5ccc2[nH]5)C=C4)C=C3)cc1
REMARK SMILES IDX 5 1 4 2 3 3 1 4 2 5 24 7 25 8 71 9 26 10 70 11 27 12 28 13
REMARK SMILES IDX 29 14 64 15 30 16 69 17 63 18 65 19 31 20 68 21 62 22 61 23
REMARK SMILES IDX 32 25 54 26 39 27 53 28 40 29 43 30 52 31 66 32 41 33 42 34
REMARK SMILES IDX 51 36 67 37 44 38 33 39 34 40 38 41 35 42 37 43 36 44 55 45
REMARK SMILES IDX 56 46 60 47 57 48 59 49 58 50 45 51 46 52 50 53 47 54 49 55
REMARK SMILES IDX 48 56 6 57 7 58 8 59 9 61 10 62 11 63 15 64 12 65 14 66
REMARK SMILES IDX 13 67 16 70 17 71 18 72 19 74 20 75 23 76 21 77 22 78
REMARK H PARENT 3 6 65 24 43 35 7 60 12 68 12 69 18 73
REMARK Flexibility Score: inf
ROOT
ATOM      1  C   UNL A   1      31.564  32.019  26.721  1.00  0.00     0.042 C 
ENDROOT
BRANCH   1   2
ATOM      2  C   UNL A   1      32.738  32.806  27.296  1.00  0.00     0.118 C 
BRANCH   2   3
ATOM      3  N   UNL A   1      32.414  34.187  27.616  1.00  0.00    -0.352 N 
ATOM      4  O   UNL A   1      32.529  36.137  28.752  1.00  0.00    -0.269 OA
ATOM      5  C   UNL A   1      32.994  35.020  28.545  1.00  0.00     0.251 C 
ATOM      6  H   UNL A   1      31.676  34.580  27.096  1.00  0.00     0.163 HD
BRANCH   5   7
ATOM      7  C   UNL A   1      34.150  34.544  29.336  1.00  0.00     0.039 A 
ATOM      8  C   UNL A   1      35.442  34.575  28.807  1.00  0.00     0.014 A 
ATOM      9  C   UNL A   1      33.926  34.011  30.607  1.00  0.00     0.014 A 
ATOM     10  C   UNL A   1      36.468  33.901  29.462  1.00  0.00     0.010 A 
ATOM     11  C   UNL A   1      34.982  33.419  31.307  1.00  0.00     0.010 A 
ATOM     12  C   UNL A   1      36.250  33.307  30.717  1.00  0.00    -0.014 A 
BRANCH  12  13
ATOM     13  C   UNL A   1      37.361  32.585  31.391  1.00  0.00     0.031 A 
ATOM     14  C   UNL A   1      38.086  31.454  30.707  1.00  0.00     0.074 A 
ATOM     15  C   UNL A   1      37.747  32.977  32.621  1.00  0.00     0.049 A 
ATOM     16  N   UNL A   1      39.096  30.741  31.141  1.00  0.00    -0.248 NA
ATOM     17  C   UNL A   1      37.614  31.066  29.368  1.00  0.00     0.031 C 
ATOM     18  C   UNL A   1      37.131  34.057  33.396  1.00  0.00     0.029 A 
ATOM     19  N   UNL A   1      38.766  32.531  33.424  1.00  0.00    -0.354 N 
ATOM     20  C   UNL A   1      39.358  29.803  30.150  1.00  0.00     0.074 A 
ATOM     21  C   UNL A   1      38.390  30.025  29.096  1.00  0.00     0.031 C 
ATOM     22  C   UNL A   1      37.821  34.230  34.533  1.00  0.00     0.029 A 
ATOM     23  C   UNL A   1      38.885  33.236  34.597  1.00  0.00     0.049 A 
ATOM     24  H   UNL A   1      39.354  31.779  33.184  1.00  0.00     0.167 HD
ATOM     25  C   UNL A   1      40.316  28.844  30.115  1.00  0.00     0.031 A 
ATOM     26  C   UNL A   1      39.749  33.097  35.618  1.00  0.00     0.031 A 
ATOM     27  C   UNL A   1      41.292  28.630  31.151  1.00  0.00     0.049 A 
ATOM     28  C   UNL A   1      40.794  32.023  35.558  1.00  0.00     0.074 A 
ATOM     29  C   UNL A   1      42.326  27.709  31.185  1.00  0.00     0.029 A 
ATOM     30  N   UNL A   1      41.357  29.345  32.336  1.00  0.00    -0.354 N 
ATOM     31  N   UNL A   1      41.042  31.166  34.598  1.00  0.00    -0.248 NA
ATOM     32  C   UNL A   1      41.680  31.901  36.723  1.00  0.00     0.031 C 
ATOM     33  C   UNL A   1      42.990  27.839  32.410  1.00  0.00     0.029 A 
ATOM     34  C   UNL A   1      42.400  28.874  33.117  1.00  0.00     0.049 A 
ATOM     35  H   UNL A   1      40.751  30.080  32.587  1.00  0.00     0.167 HD
ATOM     36  C   UNL A   1      42.127  30.418  35.034  1.00  0.00     0.074 A 
ATOM     37  C   UNL A   1      42.499  30.934  36.336  1.00  0.00     0.031 C 
ATOM     38  C   UNL A   1      42.759  29.395  34.409  1.00  0.00     0.031 A 
BRANCH  25  39
ATOM     39  C   UNL A   1      40.338  27.925  28.924  1.00  0.00    -0.014 A 
ATOM     40  C   UNL A   1      41.066  28.242  27.767  1.00  0.00     0.009 A 
ATOM     41  C   UNL A   1      39.653  26.701  28.981  1.00  0.00     0.009 A 
ATOM     42  C   UNL A   1      41.080  27.365  26.679  1.00  0.00     0.001 A 
ATOM     43  C   UNL A   1      39.691  25.815  27.902  1.00  0.00     0.001 A 
ATOM     44  C   UNL A   1      40.396  26.152  26.749  1.00  0.00     0.000 A 
ENDBRANCH  25  39
BRANCH  26  45
ATOM     45  C   UNL A   1      39.663  34.011  36.786  1.00  0.00    -0.014 A 
ATOM     46  C   UNL A   1      40.293  35.264  36.754  1.00  0.00     0.009 A 
ATOM     47  C   UNL A   1      38.941  33.639  37.930  1.00  0.00     0.009 A 
ATOM     48  C   UNL A   1      40.216  36.120  37.855  1.00  0.00     0.001 A 
ATOM     49  C   UNL A   1      38.842  34.509  39.017  1.00  0.00     0.001 A 
ATOM     50  C   UNL A   1      39.485  35.745  38.982  1.00  0.00     0.000 A 
ENDBRANCH  26  45
BRANCH  38  51
ATOM     51  C   UNL A   1      43.944  28.797  35.111  1.00  0.00    -0.014 A 
ATOM     52  C   UNL A   1      45.240  29.303  34.917  1.00  0.00     0.009 A 
ATOM     53  C   UNL A   1      43.757  27.718  35.989  1.00  0.00     0.009 A 
ATOM     54  C   UNL A   1      46.329  28.714  35.562  1.00  0.00     0.001 A 
ATOM     55  C   UNL A   1      44.845  27.149  36.653  1.00  0.00     0.001 A 
ATOM     56  C   UNL A   1      46.131  27.641  36.431  1.00  0.00     0.000 A 
ENDBRANCH  38  51
ENDBRANCH  12  13
ENDBRANCH   5   7
ENDBRANCH   2   3
ENDBRANCH   1   2
BRANCH   1  57
ATOM     57  C   UNL A   1      31.777  30.511  26.733  1.00  0.00     0.117 C 
BRANCH  57  58
ATOM     58  N   UNL A   1      32.707  30.086  25.697  1.00  0.00    -0.354 N 
ATOM     59  C   UNL A   1      32.589  29.056  24.810  1.00  0.00     0.248 C 
ATOM     60  H   UNL A   1      33.535  30.614  25.628  1.00  0.00     0.163 HD
ATOM     61  O   UNL A   1      33.429  28.994  23.910  1.00  0.00    -0.272 OA
BRANCH  59  62
ATOM     62  C   UNL A   1      31.463  28.030  25.001  1.00  0.00     0.231 C 
ATOM     63  C   UNL A   1      32.084  27.014  26.021  1.00  0.00     0.296 C 
ATOM     64  N   UNL A   1      30.766  27.251  23.937  1.00  0.00    -0.302 N 
ATOM     65  N   UNL A   1      31.088  26.144  26.674  1.00  0.00    -0.343 N 
ATOM     66  C   UNL A   1      29.768  26.337  24.540  1.00  0.00     0.183 C 
ATOM     67  C   UNL A   1      30.340  25.423  25.634  1.00  0.00     0.282 C 
ATOM     68  H   UNL A   1      30.446  26.712  27.226  1.00  0.00     0.346 HD
ATOM     69  H   UNL A   1      31.556  25.480  27.289  1.00  0.00     0.346 HD
BRANCH  64  70
ATOM     70  C   UNL A   1      30.430  27.636  22.667  1.00  0.00     0.318 C 
ATOM     71  O   UNL A   1      31.029  27.199  21.678  1.00  0.00    -0.249 OA
ATOM     72  N   UNL A   1      29.524  28.582  22.387  1.00  0.00    -0.333 N 
ATOM     73  H   UNL A   1      29.391  28.686  21.416  1.00  0.00     0.165 HD
BRANCH  72  74
ATOM     74  C   UNL A   1      28.684  29.496  23.149  1.00  0.00     0.112 C 
ATOM     75  C   UNL A   1      27.545  29.962  22.261  1.00  0.00     0.056 C 
ATOM     76  C   UNL A   1      29.375  30.818  23.467  1.00  0.00     0.185 C 
ATOM     77  C   UNL A   1      28.031  31.259  21.640  1.00  0.00     0.162 C 
ATOM     78  O   UNL A   1      29.245  31.634  22.296  1.00  0.00    -0.379 OA
ENDBRANCH  72  74
ENDBRANCH  64  70
ENDBRANCH  59  62
ENDBRANCH  57  58
ENDBRANCH   1  57
TORSDOF 12
ENDMDL
MODEL 3
REMARK VINA RESULT:     -11.2      5.116     10.008
REMARK SMILES O=C(NCCCNC(=O)[C@@H]1C[NH2+]CCN1C(=O)N[C@@H]1CCOC1)c1ccc(-c2c3nc(c(-c4ccccc4)c4ccc([nH]4)c(-c4ccccc4)c4nc(c(-c5ccccc5)c5ccc2[nH]5)C=C4)C=C3)cc1
REMARK SMILES IDX 5 1 4 2 3 3 1 4 2 5 24 7 25 8 71 9 26 10 70 11 27 12 28 13
REMARK SMILES IDX 29 14 64 15 30 16 69 17 63 18 65 19 31 20 68 21 62 22 61 23
REMARK SMILES IDX 32 25 54 26 39 27 53 28 40 29 43 30 52 31 66 32 41 33 42 34
REMARK SMILES IDX 51 36 67 37 44 38 33 39 34 40 38 41 35 42 37 43 36 44 55 45
REMARK SMILES IDX 56 46 60 47 57 48 59 49 58 50 45 51 46 52 50 53 47 54 49 55
REMARK SMILES IDX 48 56 6 57 7 58 8 59 9 61 10 62 11 63 15 64 12 65 14 66
REMARK SMILES IDX 13 67 16 70 17 71 18 72 19 74 20 75 23 76 21 77 22 78
REMARK H PARENT 3 6 65 24 43 35 7 60 12 68 12 69 18 73
REMARK Flexibility Score: inf
ROOT
ATOM      1  C   UNL A   1      37.536  20.356  25.000  1.00  0.00     0.042 C 
ENDROOT
BRANCH   1   2
ATOM      2  C   UNL A   1      38.823  20.702  25.743  1.00  0.00     0.118 C 
BRANCH   2   3
ATOM      3  N   UNL A   1      39.834  19.660  25.676  1.00  0.00    -0.352 N 
ATOM      4  O   UNL A   1      41.903  18.762  25.812  1.00  0.00    -0.269 OA
ATOM      5  C   UNL A   1      41.164  19.718  26.024  1.00  0.00     0.251 C 
ATOM      6  H   UNL A   1      39.524  18.791  25.332  1.00  0.00     0.163 HD
BRANCH   5   7
ATOM      7  C   UNL A   1      41.714  20.962  26.608  1.00  0.00     0.039 A 
ATOM      8  C   UNL A   1      41.727  21.161  27.989  1.00  0.00     0.014 A 
ATOM      9  C   UNL A   1      42.176  21.963  25.750  1.00  0.00     0.014 A 
ATOM     10  C   UNL A   1      42.015  22.424  28.498  1.00  0.00     0.010 A 
ATOM     11  C   UNL A   1      42.559  23.202  26.274  1.00  0.00     0.010 A 
ATOM     12  C   UNL A   1      42.427  23.464  27.647  1.00  0.00    -0.014 A 
BRANCH  12  13
ATOM     13  C   UNL A   1      42.720  24.806  28.215  1.00  0.00     0.031 A 
ATOM     14  C   UNL A   1      44.129  25.216  28.561  1.00  0.00     0.074 A 
ATOM     15  C   UNL A   1      41.711  25.680  28.388  1.00  0.00     0.049 A 
ATOM     16  N   UNL A   1      44.562  26.358  29.035  1.00  0.00    -0.248 NA
ATOM     17  C   UNL A   1      45.189  24.215  28.358  1.00  0.00     0.031 C 
ATOM     18  C   UNL A   1      40.301  25.411  28.094  1.00  0.00     0.029 A 
ATOM     19  N   UNL A   1      41.717  26.980  28.826  1.00  0.00    -0.354 N 
ATOM     20  C   UNL A   1      45.931  26.204  29.218  1.00  0.00     0.074 A 
ATOM     21  C   UNL A   1      46.258  24.851  28.820  1.00  0.00     0.031 C 
ATOM     22  C   UNL A   1      39.588  26.529  28.301  1.00  0.00     0.029 A 
ATOM     23  C   UNL A   1      40.477  27.570  28.801  1.00  0.00     0.049 A 
ATOM     24  H   UNL A   1      42.530  27.444  29.129  1.00  0.00     0.167 HD
ATOM     25  C   UNL A   1      46.836  27.104  29.674  1.00  0.00     0.031 A 
ATOM     26  C   UNL A   1      40.090  28.811  29.148  1.00  0.00     0.031 A 
ATOM     27  C   UNL A   1      46.521  28.457  30.054  1.00  0.00     0.049 A 
ATOM     28  C   UNL A   1      41.112  29.785  29.657  1.00  0.00     0.074 A 
ATOM     29  C   UNL A   1      47.379  29.453  30.489  1.00  0.00     0.029 A 
ATOM     30  N   UNL A   1      45.248  29.004  30.044  1.00  0.00    -0.354 N 
ATOM     31  N   UNL A   1      42.405  29.628  29.795  1.00  0.00    -0.248 NA
ATOM     32  C   UNL A   1      40.616  31.110  30.055  1.00  0.00     0.031 C 
ATOM     33  C   UNL A   1      46.618  30.590  30.784  1.00  0.00     0.029 A 
ATOM     34  C   UNL A   1      45.293  30.317  30.484  1.00  0.00     0.049 A 
ATOM     35  H   UNL A   1      44.431  28.530  29.766  1.00  0.00     0.167 HD
ATOM     36  C   UNL A   1      42.882  30.840  30.274  1.00  0.00     0.074 A 
ATOM     37  C   UNL A   1      41.741  31.726  30.386  1.00  0.00     0.031 C 
ATOM     38  C   UNL A   1      44.152  31.187  30.591  1.00  0.00     0.031 A 
BRANCH  25  39
ATOM     39  C   UNL A   1      48.262  26.646  29.818  1.00  0.00    -0.014 A 
ATOM     40  C   UNL A   1      48.707  25.989  30.976  1.00  0.00     0.009 A 
ATOM     41  C   UNL A   1      49.162  26.837  28.758  1.00  0.00     0.009 A 
ATOM     42  C   UNL A   1      50.034  25.562  31.080  1.00  0.00     0.001 A 
ATOM     43  C   UNL A   1      50.480  26.386  28.854  1.00  0.00     0.001 A 
ATOM     44  C   UNL A   1      50.917  25.757  30.019  1.00  0.00     0.000 A 
ENDBRANCH  25  39
BRANCH  26  45
ATOM     45  C   UNL A   1      38.665  29.203  29.016  1.00  0.00    -0.014 A 
ATOM     46  C   UNL A   1      37.799  29.112  30.116  1.00  0.00     0.009 A 
ATOM     47  C   UNL A   1      38.166  29.682  27.795  1.00  0.00     0.009 A 
ATOM     48  C   UNL A   1      36.456  29.475  29.989  1.00  0.00     0.001 A 
ATOM     49  C   UNL A   1      36.831  30.071  27.679  1.00  0.00     0.001 A 
ATOM     50  C   UNL A   1      35.976  29.961  28.773  1.00  0.00     0.000 A 
ENDBRANCH  26  45
BRANCH  38  51
ATOM     51  C   UNL A   1      44.378  32.599  31.050  1.00  0.00    -0.014 A 
ATOM     52  C   UNL A   1      44.326  32.943  32.410  1.00  0.00     0.009 A 
ATOM     53  C   UNL A   1      44.659  33.598  30.104  1.00  0.00     0.009 A 
ATOM     54  C   UNL A   1      44.514  34.267  32.810  1.00  0.00     0.001 A 
ATOM     55  C   UNL A   1      44.873  34.916  30.510  1.00  0.00     0.001 A 
ATOM     56  C   UNL A   1      44.790  35.251  31.861  1.00  0.00     0.000 A 
ENDBRANCH  38  51
ENDBRANCH  12  13
ENDBRANCH   5   7
ENDBRANCH   2   3
ENDBRANCH   1   2
BRANCH   1  57
ATOM     57  C   UNL A   1      36.633  21.558  24.752  1.00  0.00     0.117 C 
BRANCH  57  58
ATOM     58  N   UNL A   1      36.108  22.106  25.993  1.00  0.00    -0.354 N 
ATOM     59  C   UNL A   1      34.901  22.698  26.226  1.00  0.00     0.248 C 
ATOM     60  H   UNL A   1      36.706  22.042  26.773  1.00  0.00     0.163 HD
ATOM     61  O   UNL A   1      34.609  22.932  27.401  1.00  0.00    -0.272 OA
BRANCH  59  62
ATOM     62  C   UNL A   1      34.008  23.070  25.033  1.00  0.00     0.231 C 
ATOM     63  C   UNL A   1      34.451  24.538  24.708  1.00  0.00     0.296 C 
ATOM     64  N   UNL A   1      32.519  23.009  24.971  1.00  0.00    -0.302 N 
ATOM     65  N   UNL A   1      34.032  25.002  23.372  1.00  0.00    -0.343 N 
ATOM     66  C   UNL A   1      32.040  23.491  23.655  1.00  0.00     0.183 C 
ATOM     67  C   UNL A   1      32.572  24.879  23.267  1.00  0.00     0.282 C 
ATOM     68  H   UNL A   1      34.477  24.428  22.655  1.00  0.00     0.346 HD
ATOM     69  H   UNL A   1      34.310  25.973  23.238  1.00  0.00     0.346 HD
BRANCH  64  70
ATOM     70  C   UNL A   1      31.669  22.102  25.543  1.00  0.00     0.318 C 
ATOM     71  O   UNL A   1      30.633  22.457  26.117  1.00  0.00    -0.249 OA
ATOM     72  N   UNL A   1      31.925  20.790  25.634  1.00  0.00    -0.333 N 
ATOM     73  H   UNL A   1      31.174  20.297  26.040  1.00  0.00     0.165 HD
BRANCH  72  74
ATOM     74  C   UNL A   1      33.029  19.905  25.288  1.00  0.00     0.112 C 
ATOM     75  C   UNL A   1      33.020  19.684  23.787  1.00  0.00     0.056 C 
ATOM     76  C   UNL A   1      32.838  18.482  25.801  1.00  0.00     0.185 C 
ATOM     77  C   UNL A   1      32.213  18.414  23.578  1.00  0.00     0.162 C 
ATOM     78  O   UNL A   1      31.981  17.824  24.859  1.00  0.00    -0.379 OA
ENDBRANCH  72  74
ENDBRANCH  64  70
ENDBRANCH  59  62
ENDBRANCH  57  58
ENDBRANCH   1  57
TORSDOF 12
ENDMDL
