MODEL 1
REMARK VINA RESULT:     -10.3      0.000      0.000
REMARK SMILES C[C@@H](C(=O)NCCCNC(=O)c1ccc(-c2c3nc(c(-c4ccccc4)c4ccc([nH]4)c(-c4ccccc4)c4nc(c(-c5ccccc5)c5ccc2[nH]5)C=C4)C=C3)cc1)N(C)C(=O)NC[C@H]1C[N@H+]2CCC[C@@H]2CO1
REMARK SMILES IDX 6 1 5 2 3 3 4 4 2 6 1 7 60 8 61 9 62 10 63 11 64 12 65 14
REMARK SMILES IDX 66 15 67 16 74 17 68 18 73 19 69 20 72 21 70 23 71 24 7 25
REMARK SMILES IDX 8 26 9 27 10 28 11 30 12 31 13 32 59 33 14 34 58 35 15 36
REMARK SMILES IDX 16 37 17 38 52 39 18 40 57 41 51 42 53 43 19 44 56 45 50 46
REMARK SMILES IDX 49 47 20 49 42 50 27 51 41 52 28 53 31 54 40 55 54 56 29 57
REMARK SMILES IDX 30 58 39 60 55 61 32 62 21 63 22 64 26 65 23 66 25 67 24 68
REMARK SMILES IDX 43 69 44 70 48 71 45 72 47 73 46 74 33 75 34 76 38 77 35 78
REMARK SMILES IDX 37 79 36 80
REMARK H PARENT 5 5 64 13 68 22 9 29 53 48 31 59
REMARK Flexibility Score: inf
ROOT
ATOM      1  C   UNL A   1      31.837  28.165  27.174  1.00  0.00     0.117 C 
ENDROOT
BRANCH   1   2
ATOM      2  N   UNL A   1      31.007  27.011  26.913  1.00  0.00    -0.354 N 
ATOM      3  C   UNL A   1      30.620  26.445  25.734  1.00  0.00     0.242 C 
ATOM      4  O   UNL A   1      30.046  25.357  25.831  1.00  0.00    -0.273 OA
ATOM      5  H   UNL A   1      30.664  26.560  27.719  1.00  0.00     0.163 HD
BRANCH   3   6
ATOM      6  C   UNL A   1      30.977  27.116  24.377  1.00  0.00     0.172 C 
ATOM      7  C   UNL A   1      29.787  27.688  23.605  1.00  0.00     0.042 C 
BRANCH   6   8
ATOM      8  N   UNL A   1      31.806  26.201  23.560  1.00  0.00    -0.316 N 
ATOM      9  C   UNL A   1      31.083  25.501  22.512  1.00  0.00     0.149 C 
BRANCH   8  10
ATOM     10  C   UNL A   1      33.171  26.279  23.687  1.00  0.00     0.317 C 
ATOM     11  O   UNL A   1      33.820  27.245  23.277  1.00  0.00    -0.249 OA
ATOM     12  N   UNL A   1      33.898  25.319  24.297  1.00  0.00    -0.335 N 
ATOM     13  H   UNL A   1      34.847  25.327  24.036  1.00  0.00     0.165 HD
BRANCH  12  14
ATOM     14  C   UNL A   1      33.576  24.279  25.257  1.00  0.00     0.155 C 
BRANCH  14  15
ATOM     15  C   UNL A   1      34.804  23.576  25.876  1.00  0.00     0.192 C 
ATOM     16  C   UNL A   1      34.858  22.122  25.312  1.00  0.00     0.296 C 
ATOM     17  O   UNL A   1      36.001  24.326  25.569  1.00  0.00    -0.364 OA
ATOM     18  N   UNL A   1      36.120  21.460  25.641  1.00  0.00    -0.328 N 
ATOM     19  C   UNL A   1      37.194  23.629  25.965  1.00  0.00     0.225 C 
ATOM     20  C   UNL A   1      36.344  20.172  24.991  1.00  0.00     0.262 C 
ATOM     21  C   UNL A   1      37.239  22.312  25.204  1.00  0.00     0.210 C 
ATOM     22  H   UNL A   1      36.070  21.305  26.647  1.00  0.00     0.348 HD
ATOM     23  C   UNL A   1      37.872  20.051  24.935  1.00  0.00     0.068 C 
ATOM     24  C   UNL A   1      38.409  21.388  25.453  1.00  0.00     0.073 C 
ENDBRANCH  14  15
ENDBRANCH  12  14
ENDBRANCH   8  10
ENDBRANCH   6   8
ENDBRANCH   3   6
ENDBRANCH   1   2
BRANCH   1  25
ATOM     25  C   UNL A   1      33.297  27.921  26.813  1.00  0.00     0.042 C 
BRANCH  25  26
ATOM     26  C   UNL A   1      33.990  29.103  26.143  1.00  0.00     0.118 C 
BRANCH  26  27
ATOM     27  N   UNL A   1      33.807  30.351  26.866  1.00  0.00    -0.352 N 
ATOM     28  C   UNL A   1      34.563  30.920  27.857  1.00  0.00     0.251 C 
ATOM     29  H   UNL A   1      33.013  30.870  26.602  1.00  0.00     0.163 HD
ATOM     30  O   UNL A   1      34.130  31.911  28.448  1.00  0.00    -0.269 OA
BRANCH  28  31
ATOM     31  C   UNL A   1      35.881  30.364  28.237  1.00  0.00     0.039 A 
ATOM     32  C   UNL A   1      36.015  29.770  29.496  1.00  0.00     0.014 A 
ATOM     33  C   UNL A   1      36.996  30.477  27.402  1.00  0.00     0.014 A 
ATOM     34  C   UNL A   1      37.251  29.264  29.902  1.00  0.00     0.010 A 
ATOM     35  C   UNL A   1      38.210  29.902  27.774  1.00  0.00     0.010 A 
ATOM     36  C   UNL A   1      38.356  29.312  29.038  1.00  0.00    -0.014 A 
BRANCH  36  37
ATOM     37  C   UNL A   1      39.681  28.796  29.467  1.00  0.00     0.031 A 
ATOM     38  C   UNL A   1      40.535  29.600  30.410  1.00  0.00     0.074 A 
ATOM     39  C   UNL A   1      40.132  27.622  28.987  1.00  0.00     0.049 A 
ATOM     40  N   UNL A   1      41.724  29.326  30.886  1.00  0.00    -0.248 NA
ATOM     41  C   UNL A   1      39.995  30.894  30.857  1.00  0.00     0.031 C 
ATOM     42  C   UNL A   1      39.423  26.766  28.033  1.00  0.00     0.029 A 
ATOM     43  N   UNL A   1      41.300  26.948  29.236  1.00  0.00    -0.354 N 
ATOM     44  C   UNL A   1      42.076  30.417  31.671  1.00  0.00     0.074 A 
ATOM     45  C   UNL A   1      41.002  31.379  31.565  1.00  0.00     0.031 C 
ATOM     46  C   UNL A   1      40.160  25.668  27.799  1.00  0.00     0.029 A 
ATOM     47  C   UNL A   1      41.401  25.756  28.563  1.00  0.00     0.049 A 
ATOM     48  H   UNL A   1      42.000  27.286  29.841  1.00  0.00     0.167 HD
ATOM     49  C   UNL A   1      43.182  30.596  32.434  1.00  0.00     0.031 A 
ATOM     50  C   UNL A   1      42.381  24.833  28.563  1.00  0.00     0.031 A 
ATOM     51  C   UNL A   1      44.247  29.637  32.551  1.00  0.00     0.049 A 
ATOM     52  C   UNL A   1      43.589  25.041  29.431  1.00  0.00     0.074 A 
ATOM     53  C   UNL A   1      45.390  29.707  33.329  1.00  0.00     0.029 A 
ATOM     54  N   UNL A   1      44.296  28.429  31.875  1.00  0.00    -0.354 N 
ATOM     55  N   UNL A   1      43.880  26.052  30.214  1.00  0.00    -0.248 NA
ATOM     56  C   UNL A   1      44.596  23.970  29.430  1.00  0.00     0.031 C 
ATOM     57  C   UNL A   1      46.149  28.553  33.094  1.00  0.00     0.029 A 
ATOM     58  C   UNL A   1      45.453  27.746  32.210  1.00  0.00     0.049 A 
ATOM     59  H   UNL A   1      43.609  28.103  31.248  1.00  0.00     0.167 HD
ATOM     60  C   UNL A   1      45.085  25.727  30.820  1.00  0.00     0.074 A 
ATOM     61  C   UNL A   1      45.465  24.418  30.326  1.00  0.00     0.031 C 
ATOM     62  C   UNL A   1      45.814  26.445  31.708  1.00  0.00     0.031 A 
BRANCH  49  63
ATOM     63  C   UNL A   1      43.287  31.887  33.196  1.00  0.00    -0.014 A 
ATOM     64  C   UNL A   1      42.792  31.997  34.507  1.00  0.00     0.009 A 
ATOM     65  C   UNL A   1      43.896  33.004  32.605  1.00  0.00     0.009 A 
ATOM     66  C   UNL A   1      42.866  33.211  35.193  1.00  0.00     0.001 A 
ATOM     67  C   UNL A   1      43.995  34.210  33.305  1.00  0.00     0.001 A 
ATOM     68  C   UNL A   1      43.470  34.314  34.592  1.00  0.00     0.000 A 
ENDBRANCH  49  63
BRANCH  50  69
ATOM     69  C   UNL A   1      42.242  23.607  27.735  1.00  0.00    -0.014 A 
ATOM     70  C   UNL A   1      41.647  22.452  28.266  1.00  0.00     0.009 A 
ATOM     71  C   UNL A   1      42.699  23.588  26.408  1.00  0.00     0.009 A 
ATOM     72  C   UNL A   1      41.534  21.296  27.492  1.00  0.00     0.001 A 
ATOM     73  C   UNL A   1      42.560  22.438  25.629  1.00  0.00     0.001 A 
ATOM     74  C   UNL A   1      41.986  21.290  26.173  1.00  0.00     0.000 A 
ENDBRANCH  50  69
BRANCH  62  75
ATOM     75  C   UNL A   1      47.073  25.814  32.231  1.00  0.00    -0.014 A 
ATOM     76  C   UNL A   1      48.296  25.962  31.560  1.00  0.00     0.009 A 
ATOM     77  C   UNL A   1      47.037  25.087  33.431  1.00  0.00     0.009 A 
ATOM     78  C   UNL A   1      49.453  25.361  32.061  1.00  0.00     0.001 A 
ATOM     79  C   UNL A   1      48.200  24.511  33.944  1.00  0.00     0.001 A 
ATOM     80  C   UNL A   1      49.404  24.639  33.254  1.00  0.00     0.000 A 
ENDBRANCH  62  75
ENDBRANCH  36  37
ENDBRANCH  28  31
ENDBRANCH  26  27
ENDBRANCH  25  26
ENDBRANCH   1  25
TORSDOF 14
ENDMDL
MODEL 2
REMARK VINA RESULT:     -10.3      2.336      7.570
REMARK SMILES C[C@@H](C(=O)NCCCNC(=O)c1ccc(-c2c3nc(c(-c4ccccc4)c4ccc([nH]4)c(-c4ccccc4)c4nc(c(-c5ccccc5)c5ccc2[nH]5)C=C4)C=C3)cc1)N(C)C(=O)NC[C@H]1C[N@H+]2CCC[C@@H]2CO1
REMARK SMILES IDX 6 1 5 2 3 3 4 4 2 6 1 7 60 8 61 9 62 10 63 11 64 12 65 14
REMARK SMILES IDX 66 15 67 16 74 17 68 18 73 19 69 20 72 21 70 23 71 24 7 25
REMARK SMILES IDX 8 26 9 27 10 28 11 30 12 31 13 32 59 33 14 34 58 35 15 36
REMARK SMILES IDX 16 37 17 38 52 39 18 40 57 41 51 42 53 43 19 44 56 45 50 46
REMARK SMILES IDX 49 47 20 49 42 50 27 51 41 52 28 53 31 54 40 55 54 56 29 57
REMARK SMILES IDX 30 58 39 60 55 61 32 62 21 63 22 64 26 65 23 66 25 67 24 68
REMARK SMILES IDX 43 69 44 70 48 71 45 72 47 73 46 74 33 75 34 76 38 77 35 78
REMARK SMILES IDX 37 79 36 80
REMARK H PARENT 5 5 64 13 68 22 9 29 53 48 31 59
REMARK Flexibility Score: inf
ROOT
ATOM      1  C   UNL A   1      36.349  20.568  24.885  1.00  0.00     0.117 C 
ENDROOT
BRANCH   1   2
ATOM      2  N   UNL A   1      35.147  19.786  25.066  1.00  0.00    -0.354 N 
ATOM      3  C   UNL A   1      33.859  20.176  25.284  1.00  0.00     0.242 C 
ATOM      4  O   UNL A   1      33.015  19.278  25.227  1.00  0.00    -0.273 OA
ATOM      5  H   UNL A   1      35.281  18.811  25.024  1.00  0.00     0.163 HD
BRANCH   3   6
ATOM      6  C   UNL A   1      33.511  21.677  25.499  1.00  0.00     0.172 C 
ATOM      7  C   UNL A   1      33.282  22.085  26.955  1.00  0.00     0.042 C 
BRANCH   6   8
ATOM      8  N   UNL A   1      32.397  22.073  24.608  1.00  0.00    -0.316 N 
ATOM      9  C   UNL A   1      31.321  22.795  25.267  1.00  0.00     0.149 C 
BRANCH   8  10
ATOM     10  C   UNL A   1      32.581  21.959  23.252  1.00  0.00     0.317 C 
ATOM     11  O   UNL A   1      31.837  21.281  22.538  1.00  0.00    -0.249 OA
ATOM     12  N   UNL A   1      33.569  22.606  22.598  1.00  0.00    -0.335 N 
ATOM     13  H   UNL A   1      33.793  22.197  21.732  1.00  0.00     0.165 HD
BRANCH  12  14
ATOM     14  C   UNL A   1      34.370  23.777  22.904  1.00  0.00     0.155 C 
BRANCH  14  15
ATOM     15  C   UNL A   1      33.557  25.077  23.099  1.00  0.00     0.192 C 
ATOM     16  C   UNL A   1      33.787  25.570  24.561  1.00  0.00     0.296 C 
ATOM     17  O   UNL A   1      33.966  26.058  22.119  1.00  0.00    -0.364 OA
ATOM     18  N   UNL A   1      33.265  26.921  24.765  1.00  0.00    -0.328 N 
ATOM     19  C   UNL A   1      33.374  27.345  22.362  1.00  0.00     0.225 C 
ATOM     20  C   UNL A   1      33.606  27.542  26.041  1.00  0.00     0.262 C 
ATOM     21  C   UNL A   1      33.827  27.814  23.737  1.00  0.00     0.210 C 
ATOM     22  H   UNL A   1      32.252  26.809  24.726  1.00  0.00     0.348 HD
ATOM     23  C   UNL A   1      33.566  29.046  25.738  1.00  0.00     0.068 C 
ATOM     24  C   UNL A   1      33.329  29.154  24.229  1.00  0.00     0.073 C 
ENDBRANCH  14  15
ENDBRANCH  12  14
ENDBRANCH   8  10
ENDBRANCH   6   8
ENDBRANCH   3   6
ENDBRANCH   1   2
BRANCH   1  25
ATOM     25  C   UNL A   1      37.606  19.706  24.894  1.00  0.00     0.042 C 
BRANCH  25  26
ATOM     26  C   UNL A   1      38.770  20.293  25.687  1.00  0.00     0.118 C 
BRANCH  26  27
ATOM     27  N   UNL A   1      39.892  19.376  25.810  1.00  0.00    -0.352 N 
ATOM     28  C   UNL A   1      41.201  19.615  26.136  1.00  0.00     0.251 C 
ATOM     29  H   UNL A   1      39.676  18.432  25.630  1.00  0.00     0.163 HD
ATOM     30  O   UNL A   1      42.024  18.706  26.019  1.00  0.00    -0.269 OA
BRANCH  28  31
ATOM     31  C   UNL A   1      41.646  20.943  26.613  1.00  0.00     0.039 A 
ATOM     32  C   UNL A   1      41.572  21.217  27.983  1.00  0.00     0.014 A 
ATOM     33  C   UNL A   1      42.069  21.940  25.729  1.00  0.00     0.014 A 
ATOM     34  C   UNL A   1      41.952  22.472  28.466  1.00  0.00     0.010 A 
ATOM     35  C   UNL A   1      42.523  23.163  26.219  1.00  0.00     0.010 A 
ATOM     36  C   UNL A   1      42.445  23.451  27.590  1.00  0.00    -0.014 A 
BRANCH  36  37
ATOM     37  C   UNL A   1      42.832  24.794  28.088  1.00  0.00     0.031 A 
ATOM     38  C   UNL A   1      41.781  25.848  28.311  1.00  0.00     0.074 A 
ATOM     39  C   UNL A   1      44.128  25.080  28.312  1.00  0.00     0.049 A 
ATOM     40  N   UNL A   1      41.923  27.082  28.727  1.00  0.00    -0.248 NA
ATOM     41  C   UNL A   1      40.391  25.476  28.003  1.00  0.00     0.031 C 
ATOM     42  C   UNL A   1      45.249  24.164  28.094  1.00  0.00     0.029 A 
ATOM     43  N   UNL A   1      44.721  26.229  28.771  1.00  0.00    -0.354 N 
ATOM     44  C   UNL A   1      40.648  27.634  28.713  1.00  0.00     0.074 A 
ATOM     45  C   UNL A   1      39.754  26.620  28.198  1.00  0.00     0.031 C 
ATOM     46  C   UNL A   1      46.392  24.778  28.444  1.00  0.00     0.029 A 
ATOM     47  C   UNL A   1      46.086  26.136  28.885  1.00  0.00     0.049 A 
ATOM     48  H   UNL A   1      44.215  27.044  28.998  1.00  0.00     0.167 HD
ATOM     49  C   UNL A   1      40.247  28.864  29.115  1.00  0.00     0.031 A 
ATOM     50  C   UNL A   1      46.991  27.041  29.301  1.00  0.00     0.031 A 
ATOM     51  C   UNL A   1      41.130  29.870  29.639  1.00  0.00     0.049 A 
ATOM     52  C   UNL A   1      46.524  28.392  29.762  1.00  0.00     0.074 A 
ATOM     53  C   UNL A   1      40.817  31.134  30.112  1.00  0.00     0.029 A 
ATOM     54  N   UNL A   1      42.502  29.725  29.765  1.00  0.00    -0.354 N 
ATOM     55  N   UNL A   1      45.307  28.878  29.798  1.00  0.00    -0.248 NA
ATOM     56  C   UNL A   1      47.555  29.314  30.259  1.00  0.00     0.031 C 
ATOM     57  C   UNL A   1      42.007  31.765  30.491  1.00  0.00     0.029 A 
ATOM     58  C   UNL A   1      43.053  30.877  30.300  1.00  0.00     0.049 A 
ATOM     59  H   UNL A   1      43.011  28.921  29.511  1.00  0.00     0.167 HD
ATOM     60  C   UNL A   1      45.421  30.147  30.347  1.00  0.00     0.074 A 
ATOM     61  C   UNL A   1      46.825  30.352  30.643  1.00  0.00     0.031 C 
ATOM     62  C   UNL A   1      44.452  31.063  30.587  1.00  0.00     0.031 A 
BRANCH  49  63
ATOM     63  C   UNL A   1      38.783  29.181  28.996  1.00  0.00    -0.014 A 
ATOM     64  C   UNL A   1      37.915  29.022  30.090  1.00  0.00     0.009 A 
ATOM     65  C   UNL A   1      38.263  29.654  27.782  1.00  0.00     0.009 A 
ATOM     66  C   UNL A   1      36.551  29.288  29.958  1.00  0.00     0.001 A 
ATOM     67  C   UNL A   1      36.902  29.948  27.661  1.00  0.00     0.001 A 
ATOM     68  C   UNL A   1      36.047  29.754  28.744  1.00  0.00     0.000 A 
ENDBRANCH  49  63
BRANCH  50  69
ATOM     69  C   UNL A   1      48.432  26.684  29.333  1.00  0.00    -0.014 A 
ATOM     70  C   UNL A   1      49.253  26.931  28.222  1.00  0.00     0.009 A 
ATOM     71  C   UNL A   1      48.997  26.100  30.478  1.00  0.00     0.009 A 
ATOM     72  C   UNL A   1      50.603  26.577  28.247  1.00  0.00     0.001 A 
ATOM     73  C   UNL A   1      50.354  25.773  30.510  1.00  0.00     0.001 A 
ATOM     74  C   UNL A   1      51.154  26.004  29.392  1.00  0.00     0.000 A 
ENDBRANCH  50  69
BRANCH  62  75
ATOM     75  C   UNL A   1      44.872  32.352  31.236  1.00  0.00    -0.014 A 
ATOM     76  C   UNL A   1      44.863  32.503  32.630  1.00  0.00     0.009 A 
ATOM     77  C   UNL A   1      45.313  33.418  30.436  1.00  0.00     0.009 A 
ATOM     78  C   UNL A   1      45.251  33.712  33.210  1.00  0.00     0.001 A 
ATOM     79  C   UNL A   1      45.727  34.615  31.020  1.00  0.00     0.001 A 
ATOM     80  C   UNL A   1      45.686  34.766  32.405  1.00  0.00     0.000 A 
ENDBRANCH  62  75
ENDBRANCH  36  37
ENDBRANCH  28  31
ENDBRANCH  26  27
ENDBRANCH  25  26
ENDBRANCH   1  25
TORSDOF 14
ENDMDL
MODEL 3
REMARK VINA RESULT:     -10.2      2.427      7.313
REMARK SMILES C[C@@H](C(=O)NCCCNC(=O)c1ccc(-c2c3nc(c(-c4ccccc4)c4ccc([nH]4)c(-c4ccccc4)c4nc(c(-c5ccccc5)c5ccc2[nH]5)C=C4)C=C3)cc1)N(C)C(=O)NC[C@H]1C[N@H+]2CCC[C@@H]2CO1
REMARK SMILES IDX 6 1 5 2 3 3 4 4 2 6 1 7 60 8 61 9 62 10 63 11 64 12 65 14
REMARK SMILES IDX 66 15 67 16 74 17 68 18 73 19 69 20 72 21 70 23 71 24 7 25
REMARK SMILES IDX 8 26 9 27 10 28 11 30 12 31 13 32 59 33 14 34 58 35 15 36
REMARK SMILES IDX 16 37 17 38 52 39 18 40 57 41 51 42 53 43 19 44 56 45 50 46
REMARK SMILES IDX 49 47 20 49 42 50 27 51 41 52 28 53 31 54 40 55 54 56 29 57
REMARK SMILES IDX 30 58 39 60 55 61 32 62 21 63 22 64 26 65 23 66 25 67 24 68
REMARK SMILES IDX 43 69 44 70 48 71 45 72 47 73 46 74 33 75 34 76 38 77 35 78
REMARK SMILES IDX 37 79 36 80
REMARK H PARENT 5 5 64 13 68 22 9 29 53 48 31 59
REMARK Flexibility Score: inf
ROOT
ATOM      1  C   UNL A   1      34.448  24.306  23.972  1.00  0.00     0.117 C 
ENDROOT
BRANCH   1   2
ATOM      2  N   UNL A   1      34.261  25.162  25.122  1.00  0.00    -0.354 N 
ATOM      3  C   UNL A   1      33.639  26.370  25.236  1.00  0.00     0.242 C 
ATOM      4  O   UNL A   1      33.490  26.783  26.389  1.00  0.00    -0.273 OA
ATOM      5  H   UNL A   1      34.647  24.816  25.959  1.00  0.00     0.163 HD
BRANCH   3   6
ATOM      6  C   UNL A   1      33.092  27.103  23.978  1.00  0.00     0.172 C 
ATOM      7  C   UNL A   1      33.654  28.507  23.752  1.00  0.00     0.042 C 
BRANCH   6   8
ATOM      8  N   UNL A   1      31.612  27.068  23.973  1.00  0.00    -0.316 N 
ATOM      9  C   UNL A   1      30.974  28.366  24.114  1.00  0.00     0.149 C 
BRANCH   8  10
ATOM     10  C   UNL A   1      30.994  25.901  23.595  1.00  0.00     0.317 C 
ATOM     11  O   UNL A   1      31.093  25.439  22.455  1.00  0.00    -0.249 OA
ATOM     12  N   UNL A   1      30.261  25.159  24.451  1.00  0.00    -0.335 N 
ATOM     13  H   UNL A   1      29.625  24.560  23.998  1.00  0.00     0.165 HD
BRANCH  12  14
ATOM     14  C   UNL A   1      30.213  25.058  25.899  1.00  0.00     0.155 C 
BRANCH  14  15
ATOM     15  C   UNL A   1      30.755  23.727  26.467  1.00  0.00     0.192 C 
ATOM     16  C   UNL A   1      31.062  22.783  25.263  1.00  0.00     0.296 C 
ATOM     17  O   UNL A   1      31.925  23.983  27.275  1.00  0.00    -0.364 OA
ATOM     18  N   UNL A   1      31.812  21.599  25.681  1.00  0.00    -0.328 N 
ATOM     19  C   UNL A   1      32.578  22.769  27.683  1.00  0.00     0.225 C 
ATOM     20  C   UNL A   1      32.315  20.758  24.599  1.00  0.00     0.262 C 
ATOM     21  C   UNL A   1      33.008  22.026  26.427  1.00  0.00     0.210 C 
ATOM     22  H   UNL A   1      31.143  21.054  26.223  1.00  0.00     0.348 HD
ATOM     23  C   UNL A   1      33.542  20.070  25.212  1.00  0.00     0.068 C 
ATOM     24  C   UNL A   1      33.720  20.703  26.595  1.00  0.00     0.073 C 
ENDBRANCH  14  15
ENDBRANCH  12  14
ENDBRANCH   8  10
ENDBRANCH   6   8
ENDBRANCH   3   6
ENDBRANCH   1   2
BRANCH   1  25
ATOM     25  C   UNL A   1      35.636  23.366  24.139  1.00  0.00     0.042 C 
BRANCH  25  26
ATOM     26  C   UNL A   1      36.577  23.733  25.283  1.00  0.00     0.118 C 
BRANCH  26  27
ATOM     27  N   UNL A   1      37.591  22.720  25.529  1.00  0.00    -0.352 N 
ATOM     28  C   UNL A   1      38.841  22.832  26.079  1.00  0.00     0.251 C 
ATOM     29  H   UNL A   1      37.340  21.808  25.256  1.00  0.00     0.163 HD
ATOM     30  O   UNL A   1      39.603  21.865  26.042  1.00  0.00    -0.269 OA
BRANCH  28  31
ATOM     31  C   UNL A   1      39.296  24.093  26.707  1.00  0.00     0.039 A 
ATOM     32  C   UNL A   1      38.929  24.347  28.033  1.00  0.00     0.014 A 
ATOM     33  C   UNL A   1      40.019  25.053  25.992  1.00  0.00     0.014 A 
ATOM     34  C   UNL A   1      39.312  25.542  28.648  1.00  0.00     0.010 A 
ATOM     35  C   UNL A   1      40.468  26.208  26.629  1.00  0.00     0.010 A 
ATOM     36  C   UNL A   1      40.098  26.476  27.955  1.00  0.00    -0.014 A 
BRANCH  36  37
ATOM     37  C   UNL A   1      40.494  27.758  28.590  1.00  0.00     0.031 A 
ATOM     38  C   UNL A   1      41.898  27.949  29.097  1.00  0.00     0.074 A 
ATOM     39  C   UNL A   1      39.586  28.741  28.741  1.00  0.00     0.049 A 
ATOM     40  N   UNL A   1      42.429  28.988  29.692  1.00  0.00    -0.248 NA
ATOM     41  C   UNL A   1      42.822  26.814  28.937  1.00  0.00     0.031 C 
ATOM     42  C   UNL A   1      38.181  28.668  28.334  1.00  0.00     0.029 A 
ATOM     43  N   UNL A   1      39.713  29.995  29.282  1.00  0.00    -0.354 N 
ATOM     44  C   UNL A   1      43.736  28.625  29.990  1.00  0.00     0.074 A 
ATOM     45  C   UNL A   1      43.903  27.254  29.560  1.00  0.00     0.031 C 
ATOM     46  C   UNL A   1      37.583  29.837  28.616  1.00  0.00     0.029 A 
ATOM     47  C   UNL A   1      38.553  30.729  29.246  1.00  0.00     0.049 A 
ATOM     48  H   UNL A   1      40.556  30.338  29.660  1.00  0.00     0.167 HD
ATOM     49  C   UNL A   1      44.721  29.370  30.549  1.00  0.00     0.031 A 
ATOM     50  C   UNL A   1      38.298  31.981  29.670  1.00  0.00     0.031 A 
ATOM     51  C   UNL A   1      44.563  30.736  30.966  1.00  0.00     0.049 A 
ATOM     52  C   UNL A   1      39.409  32.797  30.268  1.00  0.00     0.074 A 
ATOM     53  C   UNL A   1      45.510  31.590  31.506  1.00  0.00     0.029 A 
ATOM     54  N   UNL A   1      43.378  31.451  30.886  1.00  0.00    -0.354 N 
ATOM     55  N   UNL A   1      40.656  32.459  30.488  1.00  0.00    -0.248 NA
ATOM     56  C   UNL A   1      39.080  34.176  30.656  1.00  0.00     0.031 C 
ATOM     57  C   UNL A   1      44.887  32.812  31.785  1.00  0.00     0.029 A 
ATOM     58  C   UNL A   1      43.567  32.734  31.373  1.00  0.00     0.049 A 
ATOM     59  H   UNL A   1      42.528  31.100  30.534  1.00  0.00     0.167 HD
ATOM     60  C   UNL A   1      41.268  33.588  31.013  1.00  0.00     0.074 A 
ATOM     61  C   UNL A   1      40.259  34.627  31.064  1.00  0.00     0.031 C 
ATOM     62  C   UNL A   1      42.551  33.754  31.416  1.00  0.00     0.031 A 
BRANCH  49  63
ATOM     63  C   UNL A   1      46.057  28.708  30.739  1.00  0.00    -0.014 A 
ATOM     64  C   UNL A   1      46.337  27.957  31.893  1.00  0.00     0.009 A 
ATOM     65  C   UNL A   1      47.046  28.825  29.750  1.00  0.00     0.009 A 
ATOM     66  C   UNL A   1      47.593  27.375  32.073  1.00  0.00     0.001 A 
ATOM     67  C   UNL A   1      48.292  28.216  29.919  1.00  0.00     0.001 A 
ATOM     68  C   UNL A   1      48.568  27.503  31.084  1.00  0.00     0.000 A 
ENDBRANCH  49  63
BRANCH  50  69
ATOM     69  C   UNL A   1      36.937  32.553  29.510  1.00  0.00    -0.014 A 
ATOM     70  C   UNL A   1      36.570  33.198  28.319  1.00  0.00     0.009 A 
ATOM     71  C   UNL A   1      35.994  32.450  30.545  1.00  0.00     0.009 A 
ATOM     72  C   UNL A   1      35.296  33.751  28.178  1.00  0.00     0.001 A 
ATOM     73  C   UNL A   1      34.713  32.981  30.390  1.00  0.00     0.001 A 
ATOM     74  C   UNL A   1      34.367  33.638  29.211  1.00  0.00     0.000 A 
ENDBRANCH  50  69
BRANCH  62  75
ATOM     75  C   UNL A   1      42.944  35.117  31.910  1.00  0.00    -0.014 A 
ATOM     76  C   UNL A   1      42.716  35.506  33.239  1.00  0.00     0.009 A 
ATOM     77  C   UNL A   1      43.580  36.013  31.036  1.00  0.00     0.009 A 
ATOM     78  C   UNL A   1      43.084  36.780  33.673  1.00  0.00     0.001 A 
ATOM     79  C   UNL A   1      43.971  37.277  31.482  1.00  0.00     0.001 A 
ATOM     80  C   UNL A   1      43.714  37.663  32.795  1.00  0.00     0.000 A 
ENDBRANCH  62  75
ENDBRANCH  36  37
ENDBRANCH  28  31
ENDBRANCH  26  27
ENDBRANCH  25  26
ENDBRANCH   1  25
TORSDOF 14
ENDMDL
