MODEL 1
REMARK VINA RESULT:     -11.9      0.000      0.000
REMARK SMILES CC(=O)c1nnn(-c2ccc(C(=O)NCCCNC(=O)c3ccc(-c4c5nc(c(-c6ccccc6)c6ccc([nH]6)c(-c6ccccc6)c6nc(c(-c7ccccc7)c7ccc4[nH]7)C=C6)C=C5)cc3)cc2)c1C
REMARK SMILES IDX 16 1 15 2 14 3 12 4 13 5 11 7 8 8 9 9 70 10 10 11 69 12 7 13
REMARK SMILES IDX 4 14 5 15 71 16 6 17 72 18 2 19 1 20 3 21 17 22 18 23 19 24
REMARK SMILES IDX 20 26 21 27 22 28 68 29 23 30 67 31 24 32 25 33 26 34 61 35
REMARK SMILES IDX 27 36 66 37 60 38 62 39 28 40 65 41 59 42 58 43 29 45 51 46
REMARK SMILES IDX 36 47 50 48 37 49 40 50 49 51 63 52 38 53 39 54 48 56 64 57
REMARK SMILES IDX 41 58 30 59 31 60 35 61 32 62 34 63 33 64 52 65 53 66 57 67
REMARK SMILES IDX 54 68 56 69 55 70 42 71 43 72 47 73 44 74 46 75 45 76
REMARK H PARENT 14 6 18 25 62 44 40 55
REMARK Flexibility Score: inf
ROOT
ATOM      1  C   UNL A   1      37.666  19.827  24.694  1.00  0.00     0.042 C 
ENDROOT
BRANCH   1   2
ATOM      2  C   UNL A   1      36.337  20.484  25.097  1.00  0.00     0.118 C 
BRANCH   2   3
ATOM      3  N   UNL A   1      35.220  19.547  25.053  1.00  0.00    -0.352 N 
ATOM      4  C   UNL A   1      33.861  19.724  25.202  1.00  0.00     0.251 C 
ATOM      5  O   UNL A   1      33.128  18.757  24.993  1.00  0.00    -0.269 OA
ATOM      6  H   UNL A   1      35.486  18.614  24.885  1.00  0.00     0.163 HD
BRANCH   4   7
ATOM      7  C   UNL A   1      33.250  21.041  25.538  1.00  0.00     0.039 A 
ATOM      8  C   UNL A   1      32.318  23.637  25.965  1.00  0.00     0.067 A 
ATOM      9  C   UNL A   1      31.993  22.991  24.773  1.00  0.00     0.029 A 
ATOM     10  C   UNL A   1      32.974  22.959  26.990  1.00  0.00     0.029 A 
ATOM     11  C   UNL A   1      32.490  21.699  24.554  1.00  0.00     0.016 A 
ATOM     12  C   UNL A   1      33.395  21.652  26.783  1.00  0.00     0.016 A 
BRANCH   8  13
ATOM     13  N   UNL A   1      32.064  25.009  26.126  1.00  0.00    -0.217 N 
ATOM     14  C   UNL A   1      32.224  27.174  26.222  1.00  0.00     0.151 A 
ATOM     15  N   UNL A   1      31.093  26.777  26.888  1.00  0.00    -0.126 NA
ATOM     16  C   UNL A   1      32.848  26.061  25.684  1.00  0.00     0.073 A 
ATOM     17  N   UNL A   1      30.953  25.468  26.730  1.00  0.00    -0.061 NA
ATOM     18  C   UNL A   1      34.003  25.905  24.765  1.00  0.00     0.069 C 
BRANCH  14  19
ATOM     19  C   UNL A   1      32.594  28.572  26.086  1.00  0.00     0.181 C 
ATOM     20  C   UNL A   1      33.129  29.266  27.314  1.00  0.00     0.095 C 
ATOM     21  O   UNL A   1      32.488  29.169  25.017  1.00  0.00    -0.293 OA
ENDBRANCH  14  19
ENDBRANCH   8  13
ENDBRANCH   4   7
ENDBRANCH   2   3
ENDBRANCH   1   2
BRANCH   1  22
ATOM     22  C   UNL A   1      38.829  20.248  25.573  1.00  0.00     0.118 C 
BRANCH  22  23
ATOM     23  N   UNL A   1      39.836  19.195  25.711  1.00  0.00    -0.352 N 
ATOM     24  C   UNL A   1      41.185  19.325  25.982  1.00  0.00     0.251 C 
ATOM     25  H   UNL A   1      39.510  18.273  25.597  1.00  0.00     0.163 HD
ATOM     26  O   UNL A   1      41.968  18.422  25.725  1.00  0.00    -0.269 OA
BRANCH  24  27
ATOM     27  C   UNL A   1      41.665  20.581  26.581  1.00  0.00     0.039 A 
ATOM     28  C   UNL A   1      42.360  21.534  25.830  1.00  0.00     0.014 A 
ATOM     29  C   UNL A   1      41.359  20.813  27.917  1.00  0.00     0.014 A 
ATOM     30  C   UNL A   1      42.664  22.762  26.413  1.00  0.00     0.010 A 
ATOM     31  C   UNL A   1      41.488  22.077  28.422  1.00  0.00     0.010 A 
ATOM     32  C   UNL A   1      42.206  23.033  27.708  1.00  0.00    -0.014 A 
BRANCH  32  33
ATOM     33  C   UNL A   1      42.379  24.342  28.329  1.00  0.00     0.031 A 
ATOM     34  C   UNL A   1      41.298  25.331  28.067  1.00  0.00     0.074 A 
ATOM     35  C   UNL A   1      43.290  24.536  29.309  1.00  0.00     0.049 A 
ATOM     36  N   UNL A   1      41.406  26.496  27.520  1.00  0.00    -0.248 NA
ATOM     37  C   UNL A   1      39.910  24.943  28.371  1.00  0.00     0.031 C 
ATOM     38  C   UNL A   1      44.204  23.545  29.897  1.00  0.00     0.029 A 
ATOM     39  N   UNL A   1      43.470  25.617  30.113  1.00  0.00    -0.354 N 
ATOM     40  C   UNL A   1      40.138  27.072  27.579  1.00  0.00     0.074 A 
ATOM     41  C   UNL A   1      39.234  26.013  27.948  1.00  0.00     0.031 C 
ATOM     42  C   UNL A   1      44.620  23.978  31.106  1.00  0.00     0.029 A 
ATOM     43  C   UNL A   1      44.155  25.338  31.290  1.00  0.00     0.049 A 
ATOM     44  H   UNL A   1      43.144  26.517  29.882  1.00  0.00     0.167 HD
ATOM     45  C   UNL A   1      39.967  28.425  27.565  1.00  0.00     0.031 A 
ATOM     46  C   UNL A   1      44.302  26.152  32.363  1.00  0.00     0.031 A 
ATOM     47  C   UNL A   1      41.165  29.108  27.147  1.00  0.00     0.049 A 
ATOM     48  C   UNL A   1      44.012  27.531  31.912  1.00  0.00     0.074 A 
ATOM     49  C   UNL A   1      41.961  29.080  26.019  1.00  0.00     0.029 A 
ATOM     50  N   UNL A   1      41.927  29.694  28.131  1.00  0.00    -0.354 N 
ATOM     51  N   UNL A   1      44.773  28.185  31.082  1.00  0.00    -0.248 NA
ATOM     52  C   UNL A   1      42.650  28.025  32.030  1.00  0.00     0.031 C 
ATOM     53  C   UNL A   1      43.295  29.187  26.513  1.00  0.00     0.029 A 
ATOM     54  C   UNL A   1      43.232  29.347  27.898  1.00  0.00     0.049 A 
ATOM     55  H   UNL A   1      41.596  30.259  28.866  1.00  0.00     0.167 HD
ATOM     56  C   UNL A   1      43.886  28.854  30.250  1.00  0.00     0.074 A 
ATOM     57  C   UNL A   1      42.608  28.822  30.959  1.00  0.00     0.031 C 
ATOM     58  C   UNL A   1      44.200  29.104  28.944  1.00  0.00     0.031 A 
BRANCH  45  59
ATOM     59  C   UNL A   1      38.877  29.145  28.328  1.00  0.00    -0.014 A 
ATOM     60  C   UNL A   1      38.779  28.938  29.718  1.00  0.00     0.009 A 
ATOM     61  C   UNL A   1      37.782  29.775  27.710  1.00  0.00     0.009 A 
ATOM     62  C   UNL A   1      37.611  29.254  30.425  1.00  0.00     0.001 A 
ATOM     63  C   UNL A   1      36.631  30.134  28.421  1.00  0.00     0.001 A 
ATOM     64  C   UNL A   1      36.534  29.841  29.772  1.00  0.00     0.000 A 
ENDBRANCH  45  59
BRANCH  46  65
ATOM     65  C   UNL A   1      44.487  25.798  33.784  1.00  0.00    -0.014 A 
ATOM     66  C   UNL A   1      45.449  26.454  34.568  1.00  0.00     0.009 A 
ATOM     67  C   UNL A   1      43.548  24.984  34.445  1.00  0.00     0.009 A 
ATOM     68  C   UNL A   1      45.444  26.333  35.964  1.00  0.00     0.001 A 
ATOM     69  C   UNL A   1      43.548  24.857  35.838  1.00  0.00     0.001 A 
ATOM     70  C   UNL A   1      44.486  25.545  36.599  1.00  0.00     0.000 A 
ENDBRANCH  46  65
BRANCH  58  71
ATOM     71  C   UNL A   1      45.617  28.834  28.492  1.00  0.00    -0.014 A 
ATOM     72  C   UNL A   1      46.056  27.564  28.071  1.00  0.00     0.009 A 
ATOM     73  C   UNL A   1      46.486  29.921  28.328  1.00  0.00     0.009 A 
ATOM     74  C   UNL A   1      47.336  27.386  27.536  1.00  0.00     0.001 A 
ATOM     75  C   UNL A   1      47.755  29.748  27.773  1.00  0.00     0.001 A 
ATOM     76  C   UNL A   1      48.183  28.481  27.382  1.00  0.00     0.000 A 
ENDBRANCH  58  71
ENDBRANCH  32  33
ENDBRANCH  24  27
ENDBRANCH  22  23
ENDBRANCH   1  22
TORSDOF 12
ENDMDL
MODEL 2
REMARK VINA RESULT:     -11.8      3.856      9.272
REMARK SMILES CC(=O)c1nnn(-c2ccc(C(=O)NCCCNC(=O)c3ccc(-c4c5nc(c(-c6ccccc6)c6ccc([nH]6)c(-c6ccccc6)c6nc(c(-c7ccccc7)c7ccc4[nH]7)C=C6)C=C5)cc3)cc2)c1C
REMARK SMILES IDX 16 1 15 2 14 3 12 4 13 5 11 7 8 8 9 9 70 10 10 11 69 12 7 13
REMARK SMILES IDX 4 14 5 15 71 16 6 17 72 18 2 19 1 20 3 21 17 22 18 23 19 24
REMARK SMILES IDX 20 26 21 27 22 28 68 29 23 30 67 31 24 32 25 33 26 34 61 35
REMARK SMILES IDX 27 36 66 37 60 38 62 39 28 40 65 41 59 42 58 43 29 45 51 46
REMARK SMILES IDX 36 47 50 48 37 49 40 50 49 51 63 52 38 53 39 54 48 56 64 57
REMARK SMILES IDX 41 58 30 59 31 60 35 61 32 62 34 63 33 64 52 65 53 66 57 67
REMARK SMILES IDX 54 68 56 69 55 70 42 71 43 72 47 73 44 74 46 75 45 76
REMARK H PARENT 14 6 18 25 62 44 40 55
REMARK Flexibility Score: inf
ROOT
ATOM      1  C   UNL A   1      31.181  31.729  26.665  1.00  0.00     0.042 C 
ENDROOT
BRANCH   1   2
ATOM      2  C   UNL A   1      31.456  30.686  25.570  1.00  0.00     0.118 C 
BRANCH   2   3
ATOM      3  N   UNL A   1      30.452  30.716  24.512  1.00  0.00    -0.352 N 
ATOM      4  C   UNL A   1      30.187  29.856  23.469  1.00  0.00     0.251 C 
ATOM      5  O   UNL A   1      29.185  30.070  22.786  1.00  0.00    -0.269 OA
ATOM      6  H   UNL A   1      29.854  31.496  24.550  1.00  0.00     0.163 HD
BRANCH   4   7
ATOM      7  C   UNL A   1      31.020  28.653  23.181  1.00  0.00     0.039 A 
ATOM      8  C   UNL A   1      32.567  26.341  22.956  1.00  0.00     0.067 A 
ATOM      9  C   UNL A   1      31.194  26.218  23.162  1.00  0.00     0.029 A 
ATOM     10  C   UNL A   1      33.145  27.588  22.725  1.00  0.00     0.029 A 
ATOM     11  C   UNL A   1      30.428  27.383  23.303  1.00  0.00     0.016 A 
ATOM     12  C   UNL A   1      32.357  28.729  22.795  1.00  0.00     0.016 A 
BRANCH   8  13
ATOM     13  N   UNL A   1      33.409  25.222  23.062  1.00  0.00    -0.217 N 
ATOM     14  C   UNL A   1      34.888  23.764  23.699  1.00  0.00     0.151 A 
ATOM     15  N   UNL A   1      34.561  23.528  22.388  1.00  0.00    -0.126 NA
ATOM     16  C   UNL A   1      34.132  24.822  24.173  1.00  0.00     0.073 A 
ATOM     17  N   UNL A   1      33.583  24.356  22.047  1.00  0.00    -0.061 NA
ATOM     18  C   UNL A   1      33.964  25.408  25.526  1.00  0.00     0.069 C 
BRANCH  14  19
ATOM     19  C   UNL A   1      35.836  22.934  24.423  1.00  0.00     0.181 C 
ATOM     20  C   UNL A   1      37.081  23.607  24.945  1.00  0.00     0.095 C 
ATOM     21  O   UNL A   1      35.636  21.737  24.615  1.00  0.00    -0.293 OA
ENDBRANCH  14  19
ENDBRANCH   8  13
ENDBRANCH   4   7
ENDBRANCH   2   3
ENDBRANCH   1   2
BRANCH   1  22
ATOM     22  C   UNL A   1      32.444  32.372  27.207  1.00  0.00     0.118 C 
BRANCH  22  23
ATOM     23  N   UNL A   1      32.266  33.795  27.500  1.00  0.00    -0.352 N 
ATOM     24  C   UNL A   1      32.958  34.579  28.404  1.00  0.00     0.251 C 
ATOM     25  H   UNL A   1      31.564  34.254  26.985  1.00  0.00     0.163 HD
ATOM     26  O   UNL A   1      32.492  35.636  28.804  1.00  0.00    -0.269 OA
BRANCH  24  27
ATOM     27  C   UNL A   1      34.269  34.111  28.885  1.00  0.00     0.039 A 
ATOM     28  C   UNL A   1      34.420  33.524  30.144  1.00  0.00     0.014 A 
ATOM     29  C   UNL A   1      35.348  34.229  28.018  1.00  0.00     0.014 A 
ATOM     30  C   UNL A   1      35.654  32.973  30.487  1.00  0.00     0.010 A 
ATOM     31  C   UNL A   1      36.492  33.526  28.278  1.00  0.00     0.010 A 
ATOM     32  C   UNL A   1      36.682  32.962  29.537  1.00  0.00    -0.014 A 
BRANCH  32  33
ATOM     33  C   UNL A   1      37.953  32.289  29.785  1.00  0.00     0.031 A 
ATOM     34  C   UNL A   1      38.009  30.851  29.408  1.00  0.00     0.074 A 
ATOM     35  C   UNL A   1      39.077  32.994  30.048  1.00  0.00     0.049 A 
ATOM     36  N   UNL A   1      38.275  29.842  30.170  1.00  0.00    -0.248 NA
ATOM     37  C   UNL A   1      37.639  30.475  28.033  1.00  0.00     0.031 C 
ATOM     38  C   UNL A   1      39.226  34.455  30.122  1.00  0.00     0.029 A 
ATOM     39  N   UNL A   1      40.363  32.561  30.129  1.00  0.00    -0.354 N 
ATOM     40  C   UNL A   1      38.294  28.723  29.340  1.00  0.00     0.074 A 
ATOM     41  C   UNL A   1      37.729  29.146  28.085  1.00  0.00     0.031 C 
ATOM     42  C   UNL A   1      40.525  34.784  29.958  1.00  0.00     0.029 A 
ATOM     43  C   UNL A   1      41.309  33.565  29.953  1.00  0.00     0.049 A 
ATOM     44  H   UNL A   1      40.603  31.621  30.296  1.00  0.00     0.167 HD
ATOM     45  C   UNL A   1      39.002  27.604  29.666  1.00  0.00     0.031 A 
ATOM     46  C   UNL A   1      42.643  33.410  29.778  1.00  0.00     0.031 A 
ATOM     47  C   UNL A   1      39.398  27.611  31.052  1.00  0.00     0.049 A 
ATOM     48  C   UNL A   1      42.994  32.051  30.250  1.00  0.00     0.074 A 
ATOM     49  C   UNL A   1      38.728  27.680  32.258  1.00  0.00     0.029 A 
ATOM     50  N   UNL A   1      40.704  27.938  31.328  1.00  0.00    -0.354 N 
ATOM     51  N   UNL A   1      42.932  31.692  31.499  1.00  0.00    -0.248 NA
ATOM     52  C   UNL A   1      42.986  30.962  29.287  1.00  0.00     0.031 C 
ATOM     53  C   UNL A   1      39.543  28.516  33.078  1.00  0.00     0.029 A 
ATOM     54  C   UNL A   1      40.691  28.845  32.355  1.00  0.00     0.049 A 
ATOM     55  H   UNL A   1      41.503  27.585  30.872  1.00  0.00     0.167 HD
ATOM     56  C   UNL A   1      42.418  30.404  31.467  1.00  0.00     0.074 A 
ATOM     57  C   UNL A   1      42.594  29.964  30.084  1.00  0.00     0.031 C 
ATOM     58  C   UNL A   1      41.634  29.933  32.482  1.00  0.00     0.031 A 
BRANCH  45  59
ATOM     59  C   UNL A   1      39.698  26.721  28.655  1.00  0.00    -0.014 A 
ATOM     60  C   UNL A   1      40.621  27.311  27.770  1.00  0.00     0.009 A 
ATOM     61  C   UNL A   1      39.279  25.415  28.343  1.00  0.00     0.009 A 
ATOM     62  C   UNL A   1      41.020  26.666  26.591  1.00  0.00     0.001 A 
ATOM     63  C   UNL A   1      39.711  24.749  27.191  1.00  0.00     0.001 A 
ATOM     64  C   UNL A   1      40.555  25.390  26.297  1.00  0.00     0.000 A 
ENDBRANCH  45  59
BRANCH  46  65
ATOM     65  C   UNL A   1      43.596  34.277  29.058  1.00  0.00    -0.014 A 
ATOM     66  C   UNL A   1      43.234  34.894  27.850  1.00  0.00     0.009 A 
ATOM     67  C   UNL A   1      44.784  34.704  29.680  1.00  0.00     0.009 A 
ATOM     68  C   UNL A   1      44.010  35.927  27.309  1.00  0.00     0.001 A 
ATOM     69  C   UNL A   1      45.563  35.731  29.136  1.00  0.00     0.001 A 
ATOM     70  C   UNL A   1      45.166  36.354  27.959  1.00  0.00     0.000 A 
ENDBRANCH  46  65
BRANCH  58  71
ATOM     71  C   UNL A   1      41.524  30.768  33.737  1.00  0.00    -0.014 A 
ATOM     72  C   UNL A   1      40.614  31.835  33.869  1.00  0.00     0.009 A 
ATOM     73  C   UNL A   1      42.239  30.365  34.874  1.00  0.00     0.009 A 
ATOM     74  C   UNL A   1      40.452  32.496  35.091  1.00  0.00     0.001 A 
ATOM     75  C   UNL A   1      42.060  31.010  36.099  1.00  0.00     0.001 A 
ATOM     76  C   UNL A   1      41.173  32.078  36.207  1.00  0.00     0.000 A 
ENDBRANCH  58  71
ENDBRANCH  32  33
ENDBRANCH  24  27
ENDBRANCH  22  23
ENDBRANCH   1  22
TORSDOF 12
ENDMDL
MODEL 3
REMARK VINA RESULT:     -11.5      4.562     10.351
REMARK SMILES CC(=O)c1nnn(-c2ccc(C(=O)NCCCNC(=O)c3ccc(-c4c5nc(c(-c6ccccc6)c6ccc([nH]6)c(-c6ccccc6)c6nc(c(-c7ccccc7)c7ccc4[nH]7)C=C6)C=C5)cc3)cc2)c1C
REMARK SMILES IDX 16 1 15 2 14 3 12 4 13 5 11 7 8 8 9 9 70 10 10 11 69 12 7 13
REMARK SMILES IDX 4 14 5 15 71 16 6 17 72 18 2 19 1 20 3 21 17 22 18 23 19 24
REMARK SMILES IDX 20 26 21 27 22 28 68 29 23 30 67 31 24 32 25 33 26 34 61 35
REMARK SMILES IDX 27 36 66 37 60 38 62 39 28 40 65 41 59 42 58 43 29 45 51 46
REMARK SMILES IDX 36 47 50 48 37 49 40 50 49 51 63 52 38 53 39 54 48 56 64 57
REMARK SMILES IDX 41 58 30 59 31 60 35 61 32 62 34 63 33 64 52 65 53 66 57 67
REMARK SMILES IDX 54 68 56 69 55 70 42 71 43 72 47 73 44 74 46 75 45 76
REMARK H PARENT 14 6 18 25 62 44 40 55
REMARK Flexibility Score: inf
ROOT
ATOM      1  C   UNL A   1      47.509  27.313  28.216  1.00  0.00     0.042 C 
ENDROOT
BRANCH   1   2
ATOM      2  C   UNL A   1      46.395  28.058  27.465  1.00  0.00     0.118 C 
BRANCH   2   3
ATOM      3  N   UNL A   1      46.634  28.109  26.027  1.00  0.00    -0.352 N 
ATOM      4  C   UNL A   1      46.331  27.231  25.009  1.00  0.00     0.251 C 
ATOM      5  O   UNL A   1      46.548  27.592  23.853  1.00  0.00    -0.269 OA
ATOM      6  H   UNL A   1      47.098  28.924  25.727  1.00  0.00     0.163 HD
BRANCH   4   7
ATOM      7  C   UNL A   1      45.697  25.903  25.250  1.00  0.00     0.039 A 
ATOM      8  C   UNL A   1      44.648  23.323  25.427  1.00  0.00     0.067 A 
ATOM      9  C   UNL A   1      45.998  23.524  25.710  1.00  0.00     0.029 A 
ATOM     10  C   UNL A   1      43.798  24.403  25.198  1.00  0.00     0.029 A 
ATOM     11  C   UNL A   1      46.524  24.817  25.590  1.00  0.00     0.016 A 
ATOM     12  C   UNL A   1      44.323  25.688  25.156  1.00  0.00     0.016 A 
BRANCH   8  13
ATOM     13  N   UNL A   1      44.133  22.024  25.285  1.00  0.00    -0.217 N 
ATOM     14  C   UNL A   1      43.172  20.102  25.609  1.00  0.00     0.151 A 
ATOM     15  N   UNL A   1      43.971  20.023  24.497  1.00  0.00    -0.126 NA
ATOM     16  C   UNL A   1      43.223  21.390  26.114  1.00  0.00     0.073 A 
ATOM     17  N   UNL A   1      44.466  21.229  24.252  1.00  0.00    -0.061 NA
ATOM     18  C   UNL A   1      42.468  22.075  27.193  1.00  0.00     0.069 C 
BRANCH  14  19
ATOM     19  C   UNL A   1      42.372  18.981  26.070  1.00  0.00     0.181 C 
ATOM     20  C   UNL A   1      43.045  17.982  26.979  1.00  0.00     0.095 C 
ATOM     21  O   UNL A   1      41.194  18.849  25.747  1.00  0.00    -0.293 OA
ENDBRANCH  14  19
ENDBRANCH   8  13
ENDBRANCH   4   7
ENDBRANCH   2   3
ENDBRANCH   1   2
BRANCH   1  22
ATOM     22  C   UNL A   1      47.002  26.527  29.410  1.00  0.00     0.118 C 
BRANCH  22  23
ATOM     23  N   UNL A   1      46.300  25.304  29.019  1.00  0.00    -0.352 N 
ATOM     24  C   UNL A   1      44.980  24.962  29.241  1.00  0.00     0.251 C 
ATOM     25  H   UNL A   1      46.838  24.639  28.532  1.00  0.00     0.163 HD
ATOM     26  O   UNL A   1      44.615  23.796  29.184  1.00  0.00    -0.269 OA
BRANCH  24  27
ATOM     27  C   UNL A   1      44.018  26.030  29.558  1.00  0.00     0.039 A 
ATOM     28  C   UNL A   1      43.909  26.560  30.847  1.00  0.00     0.014 A 
ATOM     29  C   UNL A   1      43.252  26.533  28.513  1.00  0.00     0.014 A 
ATOM     30  C   UNL A   1      43.084  27.664  31.055  1.00  0.00     0.010 A 
ATOM     31  C   UNL A   1      42.597  27.722  28.678  1.00  0.00     0.010 A 
ATOM     32  C   UNL A   1      42.445  28.252  29.957  1.00  0.00    -0.014 A 
BRANCH  32  33
ATOM     33  C   UNL A   1      41.671  29.483  30.084  1.00  0.00     0.031 A 
ATOM     34  C   UNL A   1      42.417  30.746  29.829  1.00  0.00     0.074 A 
ATOM     35  C   UNL A   1      40.320  29.458  30.127  1.00  0.00     0.049 A 
ATOM     36  N   UNL A   1      42.581  31.745  30.631  1.00  0.00    -0.248 NA
ATOM     37  C   UNL A   1      43.144  30.880  28.556  1.00  0.00     0.031 C 
ATOM     38  C   UNL A   1      39.439  28.283  30.054  1.00  0.00     0.029 A 
ATOM     39  N   UNL A   1      39.440  30.492  30.067  1.00  0.00    -0.354 N 
ATOM     40  C   UNL A   1      43.269  32.716  29.906  1.00  0.00     0.074 A 
ATOM     41  C   UNL A   1      43.736  32.066  28.709  1.00  0.00     0.031 C 
ATOM     42  C   UNL A   1      38.201  28.672  29.684  1.00  0.00     0.029 A 
ATOM     43  C   UNL A   1      38.158  30.120  29.677  1.00  0.00     0.049 A 
ATOM     44  H   UNL A   1      39.687  31.420  30.280  1.00  0.00     0.167 HD
ATOM     45  C   UNL A   1      43.186  34.039  30.227  1.00  0.00     0.031 A 
ATOM     46  C   UNL A   1      37.137  30.942  29.332  1.00  0.00     0.031 A 
ATOM     47  C   UNL A   1      42.622  34.233  31.539  1.00  0.00     0.049 A 
ATOM     48  C   UNL A   1      37.455  32.285  29.867  1.00  0.00     0.074 A 
ATOM     49  C   UNL A   1      42.956  33.825  32.815  1.00  0.00     0.029 A 
ATOM     50  N   UNL A   1      41.306  34.626  31.603  1.00  0.00    -0.354 N 
ATOM     51  N   UNL A   1      37.486  32.557  31.139  1.00  0.00    -0.248 NA
ATOM     52  C   UNL A   1      38.172  33.217  29.012  1.00  0.00     0.031 C 
ATOM     53  C   UNL A   1      41.709  33.526  33.440  1.00  0.00     0.029 A 
ATOM     54  C   UNL A   1      40.689  33.839  32.539  1.00  0.00     0.049 A 
ATOM     55  H   UNL A   1      40.884  35.341  31.073  1.00  0.00     0.167 HD
ATOM     56  C   UNL A   1      38.580  33.396  31.289  1.00  0.00     0.074 A 
ATOM     57  C   UNL A   1      38.881  33.868  29.939  1.00  0.00     0.031 C 
ATOM     58  C   UNL A   1      39.317  33.392  32.440  1.00  0.00     0.031 A 
BRANCH  45  59
ATOM     59  C   UNL A   1      43.211  35.157  29.209  1.00  0.00    -0.014 A 
ATOM     60  C   UNL A   1      42.075  35.355  28.400  1.00  0.00     0.009 A 
ATOM     61  C   UNL A   1      44.385  35.824  28.814  1.00  0.00     0.009 A 
ATOM     62  C   UNL A   1      42.143  36.096  27.212  1.00  0.00     0.001 A 
ATOM     63  C   UNL A   1      44.445  36.602  27.654  1.00  0.00     0.001 A 
ATOM     64  C   UNL A   1      43.331  36.709  26.835  1.00  0.00     0.000 A 
ENDBRANCH  45  59
BRANCH  46  65
ATOM     65  C   UNL A   1      36.008  30.692  28.415  1.00  0.00    -0.014 A 
ATOM     66  C   UNL A   1      35.845  29.440  27.802  1.00  0.00     0.009 A 
ATOM     67  C   UNL A   1      34.941  31.606  28.331  1.00  0.00     0.009 A 
ATOM     68  C   UNL A   1      34.644  29.103  27.164  1.00  0.00     0.001 A 
ATOM     69  C   UNL A   1      33.744  31.272  27.688  1.00  0.00     0.001 A 
ATOM     70  C   UNL A   1      33.590  30.013  27.119  1.00  0.00     0.000 A 
ENDBRANCH  46  65
BRANCH  58  71
ATOM     71  C   UNL A   1      38.781  32.616  33.622  1.00  0.00    -0.014 A 
ATOM     72  C   UNL A   1      38.998  31.236  33.792  1.00  0.00     0.009 A 
ATOM     73  C   UNL A   1      38.184  33.326  34.673  1.00  0.00     0.009 A 
ATOM     74  C   UNL A   1      38.599  30.584  34.963  1.00  0.00     0.001 A 
ATOM     75  C   UNL A   1      37.807  32.680  35.851  1.00  0.00     0.001 A 
ATOM     76  C   UNL A   1      38.008  31.309  35.995  1.00  0.00     0.000 A 
ENDBRANCH  58  71
ENDBRANCH  32  33
ENDBRANCH  24  27
ENDBRANCH  22  23
ENDBRANCH   1  22
TORSDOF 12
ENDMDL
