MODEL 1
REMARK VINA RESULT:     -10.9      0.000      0.000
REMARK SMILES [NH3+][C@@]1(C(=O)NCCCNC(=O)c2ccc(-c3c4nc(c(-c5ccccc5)c5ccc([nH]5)c(-c5ccccc5)c5nc(c(-c6ccccc6)c6ccc3[nH]6)C=C5)C=C4)cc2)CC[C@H](Oc2ccccc2[N+](=O)[O-])C1
REMARK SMILES IDX 6 1 5 2 3 3 4 4 2 6 60 7 73 8 61 9 62 10 1 11 63 15 64 16
REMARK SMILES IDX 65 17 69 18 66 19 68 20 67 21 70 22 71 23 72 24 7 25 8 26
REMARK SMILES IDX 9 27 10 28 11 30 12 31 13 32 59 33 14 34 58 35 15 36 16 37
REMARK SMILES IDX 17 38 52 39 18 40 57 41 51 42 53 43 19 44 56 45 50 46 49 47
REMARK SMILES IDX 20 49 42 50 27 51 41 52 28 53 31 54 40 55 54 56 29 57 30 58
REMARK SMILES IDX 39 60 55 61 32 62 21 63 22 64 26 65 23 66 25 67 24 68 43 69
REMARK SMILES IDX 44 70 48 71 45 72 47 73 46 74 33 75 34 76 38 77 35 78 37 79
REMARK SMILES IDX 36 80
REMARK H PARENT 5 5 1 12 1 13 1 14 9 29 53 48 31 59
REMARK Flexibility Score: inf
ROOT
ATOM      1  C   UNL A   1      31.739  26.882  26.662  1.00  0.00     0.118 C 
ENDROOT
BRANCH   1   2
ATOM      2  N   UNL A   1      31.330  26.258  25.428  1.00  0.00    -0.351 N 
ATOM      3  C   UNL A   1      31.026  24.976  25.116  1.00  0.00     0.281 C 
ATOM      4  O   UNL A   1      30.698  24.789  23.934  1.00  0.00    -0.268 OA
ATOM      5  H   UNL A   1      31.259  26.882  24.669  1.00  0.00     0.163 HD
BRANCH   3   6
ATOM      6  C   UNL A   1      31.046  23.762  26.123  1.00  0.00     0.177 C 
ATOM      7  C   UNL A   1      32.142  23.828  27.181  1.00  0.00     0.083 C 
ATOM      8  C   UNL A   1      31.156  22.382  25.466  1.00  0.00     0.124 C 
ATOM      9  C   UNL A   1      33.138  22.714  26.880  1.00  0.00     0.052 C 
ATOM     10  C   UNL A   1      32.523  21.774  25.835  1.00  0.00     0.180 C 
BRANCH   6  11
ATOM     11  N   UNL A   1      29.739  23.817  26.845  1.00  0.00    -0.345 N 
ATOM     12  H   UNL A   1      29.190  24.604  26.498  1.00  0.00     0.345 HD
ATOM     13  H   UNL A   1      29.907  23.934  27.845  1.00  0.00     0.345 HD
ATOM     14  H   UNL A   1      29.226  22.949  26.686  1.00  0.00     0.345 HD
ENDBRANCH   6  11
BRANCH  10  15
ATOM     15  O   UNL A   1      33.217  21.645  24.592  1.00  0.00    -0.483 OA
BRANCH  15  16
ATOM     16  C   UNL A   1      34.570  21.628  24.447  1.00  0.00     0.197 A 
ATOM     17  C   UNL A   1      35.396  20.601  24.901  1.00  0.00     0.054 A 
ATOM     18  C   UNL A   1      35.185  22.808  23.984  1.00  0.00     0.310 A 
ATOM     19  C   UNL A   1      36.777  20.805  25.033  1.00  0.00     0.004 A 
ATOM     20  C   UNL A   1      36.569  23.015  24.107  1.00  0.00     0.090 A 
ATOM     21  C   UNL A   1      37.358  22.016  24.665  1.00  0.00     0.007 A 
BRANCH  18  22
ATOM     22  N   UNL A   1      34.392  23.881  23.382  1.00  0.00     0.066 N 
ATOM     23  O   UNL A   1      34.143  24.867  24.095  1.00  0.00    -0.258 OA
ATOM     24  O   UNL A   1      34.050  23.767  22.197  1.00  0.00    -0.258 OA
ENDBRANCH  18  22
ENDBRANCH  15  16
ENDBRANCH  10  15
ENDBRANCH   3   6
ENDBRANCH   1   2
BRANCH   1  25
ATOM     25  C   UNL A   1      32.265  28.290  26.449  1.00  0.00     0.042 C 
BRANCH  25  26
ATOM     26  C   UNL A   1      33.486  28.601  27.294  1.00  0.00     0.118 C 
BRANCH  26  27
ATOM     27  N   UNL A   1      33.549  30.021  27.634  1.00  0.00    -0.352 N 
ATOM     28  C   UNL A   1      34.514  30.744  28.294  1.00  0.00     0.251 C 
ATOM     29  H   UNL A   1      32.769  30.546  27.341  1.00  0.00     0.163 HD
ATOM     30  O   UNL A   1      34.231  31.855  28.735  1.00  0.00    -0.269 OA
BRANCH  28  31
ATOM     31  C   UNL A   1      35.879  30.205  28.484  1.00  0.00     0.039 A 
ATOM     32  C   UNL A   1      36.788  30.241  27.420  1.00  0.00     0.014 A 
ATOM     33  C   UNL A   1      36.256  29.612  29.688  1.00  0.00     0.014 A 
ATOM     34  C   UNL A   1      38.084  29.744  27.591  1.00  0.00     0.010 A 
ATOM     35  C   UNL A   1      37.576  29.232  29.895  1.00  0.00     0.010 A 
ATOM     36  C   UNL A   1      38.502  29.270  28.845  1.00  0.00    -0.014 A 
BRANCH  36  37
ATOM     37  C   UNL A   1      39.875  28.755  29.087  1.00  0.00     0.031 A 
ATOM     38  C   UNL A   1      40.922  29.673  29.664  1.00  0.00     0.074 A 
ATOM     39  C   UNL A   1      40.206  27.503  28.714  1.00  0.00     0.049 A 
ATOM     40  N   UNL A   1      42.210  29.481  29.799  1.00  0.00    -0.248 NA
ATOM     41  C   UNL A   1      40.466  30.999  30.118  1.00  0.00     0.031 C 
ATOM     42  C   UNL A   1      39.299  26.524  28.111  1.00  0.00     0.029 A 
ATOM     43  N   UNL A   1      41.409  26.844  28.777  1.00  0.00    -0.354 N 
ATOM     44  C   UNL A   1      42.715  30.666  30.321  1.00  0.00     0.074 A 
ATOM     45  C   UNL A   1      41.610  31.591  30.424  1.00  0.00     0.031 C 
ATOM     46  C   UNL A   1      39.970  25.382  27.887  1.00  0.00     0.029 A 
ATOM     47  C   UNL A   1      41.365  25.566  28.273  1.00  0.00     0.049 A 
ATOM     48  H   UNL A   1      42.226  27.250  29.147  1.00  0.00     0.167 HD
ATOM     49  C   UNL A   1      43.980  30.953  30.706  1.00  0.00     0.031 A 
ATOM     50  C   UNL A   1      42.344  24.655  28.120  1.00  0.00     0.031 A 
ATOM     51  C   UNL A   1      45.076  30.027  30.632  1.00  0.00     0.049 A 
ATOM     52  C   UNL A   1      43.747  25.009  28.538  1.00  0.00     0.074 A 
ATOM     53  C   UNL A   1      46.389  30.210  31.026  1.00  0.00     0.029 A 
ATOM     54  N   UNL A   1      44.978  28.735  30.142  1.00  0.00    -0.354 N 
ATOM     55  N   UNL A   1      44.199  26.121  29.064  1.00  0.00    -0.248 NA
ATOM     56  C   UNL A   1      44.773  23.974  28.348  1.00  0.00     0.031 C 
ATOM     57  C   UNL A   1      47.096  29.038  30.745  1.00  0.00     0.029 A 
ATOM     58  C   UNL A   1      46.209  28.109  30.225  1.00  0.00     0.049 A 
ATOM     59  H   UNL A   1      44.156  28.324  29.790  1.00  0.00     0.167 HD
ATOM     60  C   UNL A   1      45.549  25.905  29.304  1.00  0.00     0.074 A 
ATOM     61  C   UNL A   1      45.841  24.552  28.880  1.00  0.00     0.031 C 
ATOM     62  C   UNL A   1      46.470  26.751  29.827  1.00  0.00     0.031 A 
BRANCH  49  63
ATOM     63  C   UNL A   1      44.242  32.324  31.268  1.00  0.00    -0.014 A 
ATOM     64  C   UNL A   1      44.591  33.393  30.427  1.00  0.00     0.009 A 
ATOM     65  C   UNL A   1      44.090  32.562  32.643  1.00  0.00     0.009 A 
ATOM     66  C   UNL A   1      44.813  34.665  30.955  1.00  0.00     0.001 A 
ATOM     67  C   UNL A   1      44.283  33.844  33.164  1.00  0.00     0.001 A 
ATOM     68  C   UNL A   1      44.652  34.891  32.322  1.00  0.00     0.000 A 
ENDBRANCH  49  63
BRANCH  50  69
ATOM     69  C   UNL A   1      42.050  23.315  27.546  1.00  0.00    -0.014 A 
ATOM     70  C   UNL A   1      41.676  22.251  28.382  1.00  0.00     0.009 A 
ATOM     71  C   UNL A   1      42.188  23.077  26.170  1.00  0.00     0.009 A 
ATOM     72  C   UNL A   1      41.492  20.968  27.860  1.00  0.00     0.001 A 
ATOM     73  C   UNL A   1      41.970  21.800  25.645  1.00  0.00     0.001 A 
ATOM     74  C   UNL A   1      41.637  20.744  26.492  1.00  0.00     0.000 A 
ENDBRANCH  50  69
BRANCH  62  75
ATOM     75  C   UNL A   1      47.857  26.217  30.040  1.00  0.00    -0.014 A 
ATOM     76  C   UNL A   1      48.803  26.199  29.003  1.00  0.00     0.009 A 
ATOM     77  C   UNL A   1      48.233  25.771  31.316  1.00  0.00     0.009 A 
ATOM     78  C   UNL A   1      50.091  25.715  29.237  1.00  0.00     0.001 A 
ATOM     79  C   UNL A   1      49.530  25.317  31.553  1.00  0.00     0.001 A 
ATOM     80  C   UNL A   1      50.456  25.281  30.512  1.00  0.00     0.000 A 
ENDBRANCH  62  75
ENDBRANCH  36  37
ENDBRANCH  28  31
ENDBRANCH  26  27
ENDBRANCH  25  26
ENDBRANCH   1  25
TORSDOF 14
ENDMDL
MODEL 2
REMARK VINA RESULT:     -10.9      1.883      7.465
REMARK SMILES [NH3+][C@@]1(C(=O)NCCCNC(=O)c2ccc(-c3c4nc(c(-c5ccccc5)c5ccc([nH]5)c(-c5ccccc5)c5nc(c(-c6ccccc6)c6ccc3[nH]6)C=C5)C=C4)cc2)CC[C@H](Oc2ccccc2[N+](=O)[O-])C1
REMARK SMILES IDX 6 1 5 2 3 3 4 4 2 6 60 7 73 8 61 9 62 10 1 11 63 15 64 16
REMARK SMILES IDX 65 17 69 18 66 19 68 20 67 21 70 22 71 23 72 24 7 25 8 26
REMARK SMILES IDX 9 27 10 28 11 30 12 31 13 32 59 33 14 34 58 35 15 36 16 37
REMARK SMILES IDX 17 38 52 39 18 40 57 41 51 42 53 43 19 44 56 45 50 46 49 47
REMARK SMILES IDX 20 49 42 50 27 51 41 52 28 53 31 54 40 55 54 56 29 57 30 58
REMARK SMILES IDX 39 60 55 61 32 62 21 63 22 64 26 65 23 66 25 67 24 68 43 69
REMARK SMILES IDX 44 70 48 71 45 72 47 73 46 74 33 75 34 76 38 77 35 78 37 79
REMARK SMILES IDX 36 80
REMARK H PARENT 5 5 1 12 1 13 1 14 9 29 53 48 31 59
REMARK Flexibility Score: inf
ROOT
ATOM      1  C   UNL A   1      36.437  20.276  24.992  1.00  0.00     0.118 C 
ENDROOT
BRANCH   1   2
ATOM      2  N   UNL A   1      36.528  21.699  25.207  1.00  0.00    -0.351 N 
ATOM      3  C   UNL A   1      35.670  22.592  25.756  1.00  0.00     0.281 C 
ATOM      4  O   UNL A   1      36.083  23.762  25.789  1.00  0.00    -0.268 OA
ATOM      5  H   UNL A   1      37.373  22.097  24.895  1.00  0.00     0.163 HD
BRANCH   3   6
ATOM      6  C   UNL A   1      34.248  22.247  26.345  1.00  0.00     0.177 C 
ATOM      7  C   UNL A   1      33.400  21.329  25.472  1.00  0.00     0.083 C 
ATOM      8  C   UNL A   1      33.375  23.463  26.675  1.00  0.00     0.124 C 
ATOM      9  C   UNL A   1      32.230  22.151  24.942  1.00  0.00     0.052 C 
ATOM     10  C   UNL A   1      32.174  23.477  25.710  1.00  0.00     0.180 C 
BRANCH   6  11
ATOM     11  N   UNL A   1      34.508  21.517  27.623  1.00  0.00    -0.345 N 
ATOM     12  H   UNL A   1      34.300  20.526  27.497  1.00  0.00     0.345 HD
ATOM     13  H   UNL A   1      33.913  21.899  28.359  1.00  0.00     0.345 HD
ATOM     14  H   UNL A   1      35.488  21.628  27.885  1.00  0.00     0.345 HD
ENDBRANCH   6  11
BRANCH  10  15
ATOM     15  O   UNL A   1      32.327  24.675  24.946  1.00  0.00    -0.483 OA
BRANCH  15  16
ATOM     16  C   UNL A   1      32.471  25.925  25.466  1.00  0.00     0.197 A 
ATOM     17  C   UNL A   1      33.696  26.563  25.647  1.00  0.00     0.054 A 
ATOM     18  C   UNL A   1      31.328  26.525  26.031  1.00  0.00     0.310 A 
ATOM     19  C   UNL A   1      33.800  27.676  26.493  1.00  0.00     0.004 A 
ATOM     20  C   UNL A   1      31.425  27.645  26.874  1.00  0.00     0.090 A 
ATOM     21  C   UNL A   1      32.674  28.198  27.127  1.00  0.00     0.007 A 
BRANCH  18  22
ATOM     22  N   UNL A   1      29.993  25.978  25.783  1.00  0.00     0.066 N 
ATOM     23  O   UNL A   1      29.494  25.279  26.680  1.00  0.00    -0.258 OA
ATOM     24  O   UNL A   1      29.424  26.271  24.723  1.00  0.00    -0.258 OA
ENDBRANCH  18  22
ENDBRANCH  15  16
ENDBRANCH  10  15
ENDBRANCH   3   6
ENDBRANCH   1   2
BRANCH   1  25
ATOM     25  C   UNL A   1      37.798  19.634  24.796  1.00  0.00     0.042 C 
BRANCH  25  26
ATOM     26  C   UNL A   1      38.876  20.253  25.665  1.00  0.00     0.118 C 
BRANCH  26  27
ATOM     27  N   UNL A   1      40.035  19.371  25.781  1.00  0.00    -0.352 N 
ATOM     28  C   UNL A   1      41.357  19.653  26.036  1.00  0.00     0.251 C 
ATOM     29  H   UNL A   1      39.836  18.415  25.654  1.00  0.00     0.163 HD
ATOM     30  O   UNL A   1      42.208  18.802  25.792  1.00  0.00    -0.269 OA
BRANCH  28  31
ATOM     31  C   UNL A   1      41.766  20.962  26.593  1.00  0.00     0.039 A 
ATOM     32  C   UNL A   1      42.153  21.989  25.725  1.00  0.00     0.014 A 
ATOM     33  C   UNL A   1      41.826  21.170  27.971  1.00  0.00     0.014 A 
ATOM     34  C   UNL A   1      42.532  23.234  26.238  1.00  0.00     0.010 A 
ATOM     35  C   UNL A   1      42.083  22.439  28.474  1.00  0.00     0.010 A 
ATOM     36  C   UNL A   1      42.462  23.481  27.619  1.00  0.00    -0.014 A 
BRANCH  36  37
ATOM     37  C   UNL A   1      42.829  24.792  28.215  1.00  0.00     0.031 A 
ATOM     38  C   UNL A   1      41.764  25.841  28.417  1.00  0.00     0.074 A 
ATOM     39  C   UNL A   1      44.117  25.076  28.493  1.00  0.00     0.049 A 
ATOM     40  N   UNL A   1      41.892  27.097  28.761  1.00  0.00    -0.248 NA
ATOM     41  C   UNL A   1      40.371  25.431  28.163  1.00  0.00     0.031 C 
ATOM     42  C   UNL A   1      45.250  24.166  28.310  1.00  0.00     0.029 A 
ATOM     43  N   UNL A   1      44.691  26.225  28.978  1.00  0.00    -0.354 N 
ATOM     44  C   UNL A   1      40.608  27.628  28.735  1.00  0.00     0.074 A 
ATOM     45  C   UNL A   1      39.722  26.578  28.286  1.00  0.00     0.031 C 
ATOM     46  C   UNL A   1      46.376  24.781  28.705  1.00  0.00     0.029 A 
ATOM     47  C   UNL A   1      46.056  26.146  29.112  1.00  0.00     0.049 A 
ATOM     48  H   UNL A   1      44.173  27.031  29.206  1.00  0.00     0.167 HD
ATOM     49  C   UNL A   1      40.195  28.870  29.080  1.00  0.00     0.031 A 
ATOM     50  C   UNL A   1      46.950  27.076  29.497  1.00  0.00     0.031 A 
ATOM     51  C   UNL A   1      41.069  29.907  29.554  1.00  0.00     0.049 A 
ATOM     52  C   UNL A   1      46.465  28.455  29.854  1.00  0.00     0.074 A 
ATOM     53  C   UNL A   1      40.744  31.190  29.958  1.00  0.00     0.029 A 
ATOM     54  N   UNL A   1      42.439  29.772  29.701  1.00  0.00    -0.354 N 
ATOM     55  N   UNL A   1      45.243  28.928  29.859  1.00  0.00    -0.248 NA
ATOM     56  C   UNL A   1      47.487  29.428  30.269  1.00  0.00     0.031 C 
ATOM     57  C   UNL A   1      41.924  31.844  30.321  1.00  0.00     0.029 A 
ATOM     58  C   UNL A   1      42.975  30.949  30.191  1.00  0.00     0.049 A 
ATOM     59  H   UNL A   1      42.954  28.961  29.490  1.00  0.00     0.167 HD
ATOM     60  C   UNL A   1      45.344  30.236  30.314  1.00  0.00     0.074 A 
ATOM     61  C   UNL A   1      46.746  30.478  30.588  1.00  0.00     0.031 C 
ATOM     62  C   UNL A   1      44.368  31.159  30.488  1.00  0.00     0.031 A 
BRANCH  49  63
ATOM     63  C   UNL A   1      38.724  29.167  28.978  1.00  0.00    -0.014 A 
ATOM     64  C   UNL A   1      37.888  29.061  30.101  1.00  0.00     0.009 A 
ATOM     65  C   UNL A   1      38.176  29.603  27.761  1.00  0.00     0.009 A 
ATOM     66  C   UNL A   1      36.528  29.358  30.002  1.00  0.00     0.001 A 
ATOM     67  C   UNL A   1      36.820  29.929  27.673  1.00  0.00     0.001 A 
ATOM     68  C   UNL A   1      35.997  29.798  28.790  1.00  0.00     0.000 A 
ENDBRANCH  49  63
BRANCH  50  69
ATOM     69  C   UNL A   1      48.400  26.749  29.570  1.00  0.00    -0.014 A 
ATOM     70  C   UNL A   1      49.235  26.973  28.465  1.00  0.00     0.009 A 
ATOM     71  C   UNL A   1      48.947  26.166  30.724  1.00  0.00     0.009 A 
ATOM     72  C   UNL A   1      50.576  26.580  28.496  1.00  0.00     0.001 A 
ATOM     73  C   UNL A   1      50.296  25.805  30.764  1.00  0.00     0.001 A 
ATOM     74  C   UNL A   1      51.105  25.998  29.645  1.00  0.00     0.000 A 
ENDBRANCH  50  69
BRANCH  62  75
ATOM     75  C   UNL A   1      44.764  32.485  31.067  1.00  0.00    -0.014 A 
ATOM     76  C   UNL A   1      45.113  33.570  30.247  1.00  0.00     0.009 A 
ATOM     77  C   UNL A   1      44.738  32.663  32.460  1.00  0.00     0.009 A 
ATOM     78  C   UNL A   1      45.459  34.797  30.815  1.00  0.00     0.001 A 
ATOM     79  C   UNL A   1      45.054  33.899  33.022  1.00  0.00     0.001 A 
ATOM     80  C   UNL A   1      45.423  34.963  32.200  1.00  0.00     0.000 A 
ENDBRANCH  62  75
ENDBRANCH  36  37
ENDBRANCH  28  31
ENDBRANCH  26  27
ENDBRANCH  25  26
ENDBRANCH   1  25
TORSDOF 14
ENDMDL
MODEL 3
REMARK VINA RESULT:     -10.9      1.472      2.498
REMARK SMILES [NH3+][C@@]1(C(=O)NCCCNC(=O)c2ccc(-c3c4nc(c(-c5ccccc5)c5ccc([nH]5)c(-c5ccccc5)c5nc(c(-c6ccccc6)c6ccc3[nH]6)C=C5)C=C4)cc2)CC[C@H](Oc2ccccc2[N+](=O)[O-])C1
REMARK SMILES IDX 6 1 5 2 3 3 4 4 2 6 60 7 73 8 61 9 62 10 1 11 63 15 64 16
REMARK SMILES IDX 65 17 69 18 66 19 68 20 67 21 70 22 71 23 72 24 7 25 8 26
REMARK SMILES IDX 9 27 10 28 11 30 12 31 13 32 59 33 14 34 58 35 15 36 16 37
REMARK SMILES IDX 17 38 52 39 18 40 57 41 51 42 53 43 19 44 56 45 50 46 49 47
REMARK SMILES IDX 20 49 42 50 27 51 41 52 28 53 31 54 40 55 54 56 29 57 30 58
REMARK SMILES IDX 39 60 55 61 32 62 21 63 22 64 26 65 23 66 25 67 24 68 43 69
REMARK SMILES IDX 44 70 48 71 45 72 47 73 46 74 33 75 34 76 38 77 35 78 37 79
REMARK SMILES IDX 36 80
REMARK H PARENT 5 5 1 12 1 13 1 14 9 29 53 48 31 59
REMARK Flexibility Score: inf
ROOT
ATOM      1  C   UNL A   1      33.163  28.680  24.934  1.00  0.00     0.118 C 
ENDROOT
BRANCH   1   2
ATOM      2  N   UNL A   1      33.814  28.701  23.647  1.00  0.00    -0.351 N 
ATOM      3  C   UNL A   1      33.654  27.943  22.536  1.00  0.00     0.281 C 
ATOM      4  O   UNL A   1      34.392  28.247  21.586  1.00  0.00    -0.268 OA
ATOM      5  H   UNL A   1      34.505  29.396  23.560  1.00  0.00     0.163 HD
BRANCH   3   6
ATOM      6  C   UNL A   1      32.621  26.761  22.379  1.00  0.00     0.177 C 
ATOM      7  C   UNL A   1      31.200  27.090  22.820  1.00  0.00     0.083 C 
ATOM      8  C   UNL A   1      33.013  25.465  23.098  1.00  0.00     0.124 C 
ATOM      9  C   UNL A   1      30.908  26.274  24.075  1.00  0.00     0.052 C 
ATOM     10  C   UNL A   1      32.013  25.224  24.245  1.00  0.00     0.180 C 
BRANCH   6  11
ATOM     11  N   UNL A   1      32.567  26.467  20.915  1.00  0.00    -0.345 N 
ATOM     12  H   UNL A   1      32.711  25.468  20.762  1.00  0.00     0.345 HD
ATOM     13  H   UNL A   1      33.298  26.993  20.435  1.00  0.00     0.345 HD
ATOM     14  H   UNL A   1      31.655  26.739  20.547  1.00  0.00     0.345 HD
ENDBRANCH   6  11
BRANCH  10  15
ATOM     15  O   UNL A   1      32.796  25.295  25.439  1.00  0.00    -0.483 OA
BRANCH  15  16
ATOM     16  C   UNL A   1      33.722  24.376  25.826  1.00  0.00     0.197 A 
ATOM     17  C   UNL A   1      35.095  24.517  25.632  1.00  0.00     0.054 A 
ATOM     18  C   UNL A   1      33.246  23.127  26.271  1.00  0.00     0.310 A 
ATOM     19  C   UNL A   1      35.944  23.406  25.731  1.00  0.00     0.004 A 
ATOM     20  C   UNL A   1      34.094  22.011  26.378  1.00  0.00     0.090 A 
ATOM     21  C   UNL A   1      35.443  22.152  26.074  1.00  0.00     0.007 A 
BRANCH  18  22
ATOM     22  N   UNL A   1      31.834  22.939  26.609  1.00  0.00     0.066 N 
ATOM     23  O   UNL A   1      31.401  23.564  27.590  1.00  0.00    -0.258 OA
ATOM     24  O   UNL A   1      31.148  22.206  25.884  1.00  0.00    -0.258 OA
ENDBRANCH  18  22
ENDBRANCH  15  16
ENDBRANCH  10  15
ENDBRANCH   3   6
ENDBRANCH   1   2
BRANCH   1  25
ATOM     25  C   UNL A   1      34.071  28.158  26.032  1.00  0.00     0.042 C 
BRANCH  25  26
ATOM     26  C   UNL A   1      33.598  28.536  27.423  1.00  0.00     0.118 C 
BRANCH  26  27
ATOM     27  N   UNL A   1      33.625  29.985  27.616  1.00  0.00    -0.352 N 
ATOM     28  C   UNL A   1      34.562  30.793  28.214  1.00  0.00     0.251 C 
ATOM     29  H   UNL A   1      32.841  30.460  27.258  1.00  0.00     0.163 HD
ATOM     30  O   UNL A   1      34.249  31.937  28.535  1.00  0.00    -0.269 OA
BRANCH  28  31
ATOM     31  C   UNL A   1      35.935  30.307  28.481  1.00  0.00     0.039 A 
ATOM     32  C   UNL A   1      36.243  29.769  29.736  1.00  0.00     0.014 A 
ATOM     33  C   UNL A   1      36.939  30.429  27.522  1.00  0.00     0.014 A 
ATOM     34  C   UNL A   1      37.533  29.296  29.996  1.00  0.00     0.010 A 
ATOM     35  C   UNL A   1      38.183  29.849  27.737  1.00  0.00     0.010 A 
ATOM     36  C   UNL A   1      38.506  29.297  28.983  1.00  0.00    -0.014 A 
BRANCH  36  37
ATOM     37  C   UNL A   1      39.884  28.784  29.199  1.00  0.00     0.031 A 
ATOM     38  C   UNL A   1      40.940  29.703  29.760  1.00  0.00     0.074 A 
ATOM     39  C   UNL A   1      40.210  27.534  28.819  1.00  0.00     0.049 A 
ATOM     40  N   UNL A   1      42.230  29.513  29.871  1.00  0.00    -0.248 NA
ATOM     41  C   UNL A   1      40.490  31.028  30.224  1.00  0.00     0.031 C 
ATOM     42  C   UNL A   1      39.295  26.554  28.230  1.00  0.00     0.029 A 
ATOM     43  N   UNL A   1      41.416  26.877  28.859  1.00  0.00    -0.354 N 
ATOM     44  C   UNL A   1      42.743  30.698  30.386  1.00  0.00     0.074 A 
ATOM     45  C   UNL A   1      41.638  31.621  30.511  1.00  0.00     0.031 C 
ATOM     46  C   UNL A   1      39.964  25.414  27.991  1.00  0.00     0.029 A 
ATOM     47  C   UNL A   1      41.365  25.600  28.353  1.00  0.00     0.049 A 
ATOM     48  H   UNL A   1      42.239  27.283  29.214  1.00  0.00     0.167 HD
ATOM     49  C   UNL A   1      44.014  30.987  30.749  1.00  0.00     0.031 A 
ATOM     50  C   UNL A   1      42.343  24.691  28.180  1.00  0.00     0.031 A 
ATOM     51  C   UNL A   1      45.109  30.062  30.653  1.00  0.00     0.049 A 
ATOM     52  C   UNL A   1      43.752  25.046  28.574  1.00  0.00     0.074 A 
ATOM     53  C   UNL A   1      46.430  30.247  31.024  1.00  0.00     0.029 A 
ATOM     54  N   UNL A   1      45.005  28.771  30.163  1.00  0.00    -0.354 N 
ATOM     55  N   UNL A   1      44.212  26.159  29.094  1.00  0.00    -0.248 NA
ATOM     56  C   UNL A   1      44.777  24.014  28.364  1.00  0.00     0.031 C 
ATOM     57  C   UNL A   1      47.133  29.077  30.728  1.00  0.00     0.029 A 
ATOM     58  C   UNL A   1      46.239  28.147  30.222  1.00  0.00     0.049 A 
ATOM     59  H   UNL A   1      44.178  28.359  29.824  1.00  0.00     0.167 HD
ATOM     60  C   UNL A   1      45.567  25.945  29.309  1.00  0.00     0.074 A 
ATOM     61  C   UNL A   1      45.853  24.592  28.877  1.00  0.00     0.031 C 
ATOM     62  C   UNL A   1      46.495  26.791  29.817  1.00  0.00     0.031 A 
BRANCH  49  63
ATOM     63  C   UNL A   1      44.283  32.357  31.309  1.00  0.00    -0.014 A 
ATOM     64  C   UNL A   1      44.227  32.594  32.692  1.00  0.00     0.009 A 
ATOM     65  C   UNL A   1      44.645  33.409  30.453  1.00  0.00     0.009 A 
ATOM     66  C   UNL A   1      44.497  33.864  33.204  1.00  0.00     0.001 A 
ATOM     67  C   UNL A   1      44.945  34.671  30.971  1.00  0.00     0.001 A 
ATOM     68  C   UNL A   1      44.863  34.899  32.344  1.00  0.00     0.000 A 
ENDBRANCH  49  63
BRANCH  50  69
ATOM     69  C   UNL A   1      42.041  23.351  27.609  1.00  0.00    -0.014 A 
ATOM     70  C   UNL A   1      42.159  23.125  26.229  1.00  0.00     0.009 A 
ATOM     71  C   UNL A   1      41.585  22.307  28.429  1.00  0.00     0.009 A 
ATOM     72  C   UNL A   1      41.784  21.898  25.675  1.00  0.00     0.001 A 
ATOM     73  C   UNL A   1      41.243  21.070  27.877  1.00  0.00     0.001 A 
ATOM     74  C   UNL A   1      41.329  20.871  26.500  1.00  0.00     0.000 A 
ENDBRANCH  50  69
BRANCH  62  75
ATOM     75  C   UNL A   1      47.886  26.259  30.004  1.00  0.00    -0.014 A 
ATOM     76  C   UNL A   1      48.821  26.267  28.957  1.00  0.00     0.009 A 
ATOM     77  C   UNL A   1      48.279  25.789  31.267  1.00  0.00     0.009 A 
ATOM     78  C   UNL A   1      50.114  25.784  29.167  1.00  0.00     0.001 A 
ATOM     79  C   UNL A   1      49.580  25.336  31.480  1.00  0.00     0.001 A 
ATOM     80  C   UNL A   1      50.494  25.326  30.428  1.00  0.00     0.000 A 
ENDBRANCH  62  75
ENDBRANCH  36  37
ENDBRANCH  28  31
ENDBRANCH  26  27
ENDBRANCH  25  26
ENDBRANCH   1  25
TORSDOF 14
ENDMDL
