MODEL 1
REMARK VINA RESULT:     -10.3      0.000      0.000
REMARK SMILES CC[N@@H+]1CC[C@H](C[NH2+]Cc2ccc(C(=O)NCCCNC(=O)c3ccc(-c4c5nc(c(-c6ccccc6)c6ccc([nH]6)c(-c6ccccc6)c6nc(c(-c7ccccc7)c7ccc4[nH]7)C=C6)C=C5)cc3)cn2)C1
REMARK SMILES IDX 14 1 15 2 16 3 13 5 10 6 11 7 72 8 12 9 71 10 9 11 8 12 7 15
REMARK SMILES IDX 6 16 3 17 4 18 73 19 5 21 2 22 1 23 17 24 18 25 19 26 20 27
REMARK SMILES IDX 21 28 22 30 23 31 24 32 70 33 25 34 69 35 26 36 27 37 28 38
REMARK SMILES IDX 63 39 29 40 68 41 62 42 64 43 30 44 67 45 61 46 60 47 31 49
REMARK SMILES IDX 53 50 38 51 52 52 39 53 42 54 51 55 65 56 40 57 41 58 50 60
REMARK SMILES IDX 66 61 43 62 32 63 33 64 37 65 34 66 36 67 35 68 54 69 55 70
REMARK SMILES IDX 59 71 56 72 58 73 57 74 44 75 45 76 49 77 46 78 48 79 47 80
REMARK H PARENT 16 4 8 13 8 14 3 20 20 29 64 48 42 59
REMARK Flexibility Score: inf
ROOT
ATOM      1  C   UNL A   1      41.848  21.822  27.750  1.00  0.00     0.252 C 
ATOM      2  O   UNL A   1      42.420  22.369  28.691  1.00  0.00    -0.269 OA
ATOM      3  N   UNL A   1      42.402  20.675  27.243  1.00  0.00    -0.352 N 
ATOM      4  H   UNL A   1      43.268  20.436  27.645  1.00  0.00     0.163 HD
ENDROOT
BRANCH   1   5
ATOM      5  C   UNL A   1      40.578  22.394  27.254  1.00  0.00     0.058 A 
ATOM      6  C   UNL A   1      38.180  23.224  26.156  1.00  0.00     0.094 A 
ATOM      7  C   UNL A   1      38.868  24.079  27.015  1.00  0.00     0.030 A 
ATOM      8  N   UNL A   1      38.629  21.979  25.868  1.00  0.00    -0.255 NA
ATOM      9  C   UNL A   1      40.073  23.651  27.577  1.00  0.00     0.017 A 
ATOM     10  C   UNL A   1      39.801  21.590  26.430  1.00  0.00     0.125 A 
BRANCH   6  11
ATOM     11  C   UNL A   1      36.941  23.700  25.418  1.00  0.00     0.317 C 
BRANCH  11  12
ATOM     12  N   UNL A   1      36.977  23.473  23.961  1.00  0.00    -0.341 N 
ATOM     13  H   UNL A   1      36.749  24.346  23.485  1.00  0.00     0.346 HD
ATOM     14  H   UNL A   1      37.913  23.155  23.711  1.00  0.00     0.346 HD
BRANCH  12  15
ATOM     15  C   UNL A   1      36.017  22.441  23.548  1.00  0.00     0.270 C 
BRANCH  15  16
ATOM     16  C   UNL A   1      35.161  21.964  24.725  1.00  0.00     0.105 C 
ATOM     17  N   UNL A   1      34.101  19.872  25.381  1.00  0.00    -0.335 N 
ATOM     18  C   UNL A   1      33.138  20.982  25.454  1.00  0.00     0.262 C 
ATOM     19  C   UNL A   1      35.410  20.486  25.058  1.00  0.00     0.271 C 
ATOM     20  H   UNL A   1      34.130  19.367  26.267  1.00  0.00     0.348 HD
ATOM     21  C   UNL A   1      33.660  22.024  24.484  1.00  0.00     0.076 C 
BRANCH  17  22
ATOM     22  C   UNL A   1      33.724  18.865  24.377  1.00  0.00     0.258 C 
ATOM     23  C   UNL A   1      34.732  17.722  24.304  1.00  0.00     0.071 C 
ENDBRANCH  17  22
ENDBRANCH  15  16
ENDBRANCH  12  15
ENDBRANCH  11  12
ENDBRANCH   6  11
ENDBRANCH   1   5
BRANCH   3  24
ATOM     24  C   UNL A   1      41.950  19.748  26.221  1.00  0.00     0.118 C 
BRANCH  24  25
ATOM     25  C   UNL A   1      42.688  18.413  26.315  1.00  0.00     0.042 C 
BRANCH  25  26
ATOM     26  C   UNL A   1      44.193  18.519  26.071  1.00  0.00     0.118 C 
BRANCH  26  27
ATOM     27  N   UNL A   1      44.517  18.588  24.657  1.00  0.00    -0.352 N 
ATOM     28  C   UNL A   1      44.761  19.672  23.851  1.00  0.00     0.251 C 
ATOM     29  H   UNL A   1      44.570  17.717  24.203  1.00  0.00     0.163 HD
ATOM     30  O   UNL A   1      44.813  19.509  22.635  1.00  0.00    -0.269 OA
BRANCH  28  31
ATOM     31  C   UNL A   1      44.955  21.030  24.413  1.00  0.00     0.039 A 
ATOM     32  C   UNL A   1      44.555  22.127  23.642  1.00  0.00     0.014 A 
ATOM     33  C   UNL A   1      45.596  21.242  25.637  1.00  0.00     0.014 A 
ATOM     34  C   UNL A   1      44.770  23.426  24.107  1.00  0.00     0.010 A 
ATOM     35  C   UNL A   1      45.753  22.539  26.131  1.00  0.00     0.010 A 
ATOM     36  C   UNL A   1      45.357  23.644  25.363  1.00  0.00    -0.014 A 
BRANCH  36  37
ATOM     37  C   UNL A   1      45.580  25.024  25.865  1.00  0.00     0.031 A 
ATOM     38  C   UNL A   1      44.451  25.807  26.477  1.00  0.00     0.074 A 
ATOM     39  C   UNL A   1      46.799  25.585  25.747  1.00  0.00     0.049 A 
ATOM     40  N   UNL A   1      44.460  27.020  26.973  1.00  0.00    -0.248 NA
ATOM     41  C   UNL A   1      43.133  25.152  26.519  1.00  0.00     0.031 C 
ATOM     42  C   UNL A   1      47.970  24.950  25.139  1.00  0.00     0.029 A 
ATOM     43  N   UNL A   1      47.255  26.819  26.138  1.00  0.00    -0.354 N 
ATOM     44  C   UNL A   1      43.153  27.277  27.368  1.00  0.00     0.074 A 
ATOM     45  C   UNL A   1      42.369  26.114  27.016  1.00  0.00     0.031 C 
ATOM     46  C   UNL A   1      49.017  25.785  25.227  1.00  0.00     0.029 A 
ATOM     47  C   UNL A   1      48.587  27.021  25.872  1.00  0.00     0.049 A 
ATOM     48  H   UNL A   1      46.683  27.494  26.570  1.00  0.00     0.167 HD
ATOM     49  C   UNL A   1      42.652  28.375  27.984  1.00  0.00     0.031 A 
ATOM     50  C   UNL A   1      49.377  28.082  26.125  1.00  0.00     0.031 A 
ATOM     51  C   UNL A   1      43.431  29.528  28.351  1.00  0.00     0.049 A 
ATOM     52  C   UNL A   1      48.803  29.278  26.829  1.00  0.00     0.074 A 
ATOM     53  C   UNL A   1      43.022  30.670  29.019  1.00  0.00     0.029 A 
ATOM     54  N   UNL A   1      44.780  29.685  28.079  1.00  0.00    -0.354 N 
ATOM     55  N   UNL A   1      47.578  29.479  27.250  1.00  0.00    -0.248 NA
ATOM     56  C   UNL A   1      49.730  30.384  27.113  1.00  0.00     0.031 C 
ATOM     57  C   UNL A   1      44.119  31.533  29.123  1.00  0.00     0.029 A 
ATOM     58  C   UNL A   1      45.220  30.909  28.558  1.00  0.00     0.049 A 
ATOM     59  H   UNL A   1      45.344  29.025  27.615  1.00  0.00     0.167 HD
ATOM     60  C   UNL A   1      47.593  30.721  27.873  1.00  0.00     0.074 A 
ATOM     61  C   UNL A   1      48.951  31.218  27.786  1.00  0.00     0.031 C 
ATOM     62  C   UNL A   1      46.573  31.388  28.465  1.00  0.00     0.031 A 
BRANCH  49  63
ATOM     63  C   UNL A   1      41.181  28.378  28.299  1.00  0.00    -0.014 A 
ATOM     64  C   UNL A   1      40.687  27.776  29.467  1.00  0.00     0.009 A 
ATOM     65  C   UNL A   1      40.281  29.014  27.430  1.00  0.00     0.009 A 
ATOM     66  C   UNL A   1      39.317  27.778  29.739  1.00  0.00     0.001 A 
ATOM     67  C   UNL A   1      38.915  29.038  27.718  1.00  0.00     0.001 A 
ATOM     68  C   UNL A   1      38.433  28.413  28.868  1.00  0.00     0.000 A 
ENDBRANCH  49  63
BRANCH  50  69
ATOM     69  C   UNL A   1      50.811  28.044  25.744  1.00  0.00    -0.014 A 
ATOM     70  C   UNL A   1      51.774  27.574  26.650  1.00  0.00     0.009 A 
ATOM     71  C   UNL A   1      51.225  28.475  24.474  1.00  0.00     0.009 A 
ATOM     72  C   UNL A   1      53.126  27.561  26.301  1.00  0.00     0.001 A 
ATOM     73  C   UNL A   1      52.575  28.436  24.120  1.00  0.00     0.001 A 
ATOM     74  C   UNL A   1      53.525  27.988  25.036  1.00  0.00     0.000 A 
ENDBRANCH  50  69
BRANCH  62  75
ATOM     75  C   UNL A   1      46.899  32.710  29.098  1.00  0.00    -0.014 A 
ATOM     76  C   UNL A   1      47.322  32.795  30.433  1.00  0.00     0.009 A 
ATOM     77  C   UNL A   1      46.799  33.887  28.337  1.00  0.00     0.009 A 
ATOM     78  C   UNL A   1      47.601  34.038  31.006  1.00  0.00     0.001 A 
ATOM     79  C   UNL A   1      47.104  35.124  28.905  1.00  0.00     0.001 A 
ATOM     80  C   UNL A   1      47.494  35.199  30.241  1.00  0.00     0.000 A 
ENDBRANCH  62  75
ENDBRANCH  36  37
ENDBRANCH  28  31
ENDBRANCH  26  27
ENDBRANCH  25  26
ENDBRANCH  24  25
ENDBRANCH   3  24
TORSDOF 15
ENDMDL
MODEL 2
REMARK VINA RESULT:     -10.2      4.556      9.416
REMARK SMILES CC[N@@H+]1CC[C@H](C[NH2+]Cc2ccc(C(=O)NCCCNC(=O)c3ccc(-c4c5nc(c(-c6ccccc6)c6ccc([nH]6)c(-c6ccccc6)c6nc(c(-c7ccccc7)c7ccc4[nH]7)C=C6)C=C5)cc3)cn2)C1
REMARK SMILES IDX 14 1 15 2 16 3 13 5 10 6 11 7 72 8 12 9 71 10 9 11 8 12 7 15
REMARK SMILES IDX 6 16 3 17 4 18 73 19 5 21 2 22 1 23 17 24 18 25 19 26 20 27
REMARK SMILES IDX 21 28 22 30 23 31 24 32 70 33 25 34 69 35 26 36 27 37 28 38
REMARK SMILES IDX 63 39 29 40 68 41 62 42 64 43 30 44 67 45 61 46 60 47 31 49
REMARK SMILES IDX 53 50 38 51 52 52 39 53 42 54 51 55 65 56 40 57 41 58 50 60
REMARK SMILES IDX 66 61 43 62 32 63 33 64 37 65 34 66 36 67 35 68 54 69 55 70
REMARK SMILES IDX 59 71 56 72 58 73 57 74 44 75 45 76 49 77 46 78 48 79 47 80
REMARK H PARENT 16 4 8 13 8 14 3 20 20 29 64 48 42 59
REMARK Flexibility Score: inf
ROOT
ATOM      1  C   UNL A   1      30.634  28.582  22.899  1.00  0.00     0.252 C 
ATOM      2  O   UNL A   1      30.075  28.877  21.844  1.00  0.00    -0.269 OA
ATOM      3  N   UNL A   1      31.089  29.605  23.691  1.00  0.00    -0.352 N 
ATOM      4  H   UNL A   1      30.986  30.498  23.291  1.00  0.00     0.163 HD
ENDROOT
BRANCH   1   5
ATOM      5  C   UNL A   1      30.739  27.157  23.280  1.00  0.00     0.058 A 
ATOM      6  C   UNL A   1      30.796  24.565  24.241  1.00  0.00     0.094 A 
ATOM      7  C   UNL A   1      31.460  24.867  23.053  1.00  0.00     0.030 A 
ATOM      8  N   UNL A   1      30.087  25.496  24.925  1.00  0.00    -0.255 NA
ATOM      9  C   UNL A   1      31.419  26.174  22.565  1.00  0.00     0.017 A 
ATOM     10  C   UNL A   1      30.063  26.757  24.426  1.00  0.00     0.125 A 
BRANCH   6  11
ATOM     11  C   UNL A   1      30.928  23.192  24.876  1.00  0.00     0.317 C 
BRANCH  11  12
ATOM     12  N   UNL A   1      32.295  22.636  24.843  1.00  0.00    -0.341 N 
ATOM     13  H   UNL A   1      32.627  22.635  23.879  1.00  0.00     0.346 HD
ATOM     14  H   UNL A   1      32.889  23.218  25.433  1.00  0.00     0.346 HD
BRANCH  12  15
ATOM     15  C   UNL A   1      32.334  21.264  25.363  1.00  0.00     0.270 C 
BRANCH  15  16
ATOM     16  C   UNL A   1      33.749  20.862  25.788  1.00  0.00     0.105 C 
ATOM     17  N   UNL A   1      35.747  22.031  26.541  1.00  0.00    -0.335 N 
ATOM     18  C   UNL A   1      36.077  21.097  25.453  1.00  0.00     0.262 C 
ATOM     19  C   UNL A   1      34.319  21.801  26.859  1.00  0.00     0.271 C 
ATOM     20  H   UNL A   1      36.346  21.861  27.350  1.00  0.00     0.348 HD
ATOM     21  C   UNL A   1      34.787  20.922  24.677  1.00  0.00     0.076 C 
BRANCH  17  22
ATOM     22  C   UNL A   1      35.991  23.434  26.171  1.00  0.00     0.258 C 
ATOM     23  C   UNL A   1      37.400  23.647  25.627  1.00  0.00     0.071 C 
ENDBRANCH  17  22
ENDBRANCH  15  16
ENDBRANCH  12  15
ENDBRANCH  11  12
ENDBRANCH   6  11
ENDBRANCH   1   5
BRANCH   3  24
ATOM     24  C   UNL A   1      31.696  29.616  25.010  1.00  0.00     0.118 C 
BRANCH  24  25
ATOM     25  C   UNL A   1      33.135  29.103  24.965  1.00  0.00     0.042 C 
BRANCH  25  26
ATOM     26  C   UNL A   1      33.805  29.020  26.336  1.00  0.00     0.118 C 
BRANCH  26  27
ATOM     27  N   UNL A   1      33.666  30.253  27.092  1.00  0.00    -0.352 N 
ATOM     28  C   UNL A   1      34.489  30.818  28.034  1.00  0.00     0.251 C 
ATOM     29  H   UNL A   1      32.850  30.767  26.896  1.00  0.00     0.163 HD
ATOM     30  O   UNL A   1      34.072  31.765  28.695  1.00  0.00    -0.269 OA
BRANCH  28  31
ATOM     31  C   UNL A   1      35.859  30.308  28.275  1.00  0.00     0.039 A 
ATOM     32  C   UNL A   1      36.152  29.773  29.534  1.00  0.00     0.014 A 
ATOM     33  C   UNL A   1      36.873  30.424  27.320  1.00  0.00     0.014 A 
ATOM     34  C   UNL A   1      37.445  29.331  29.825  1.00  0.00     0.010 A 
ATOM     35  C   UNL A   1      38.150  29.924  27.588  1.00  0.00     0.010 A 
ATOM     36  C   UNL A   1      38.452  29.388  28.849  1.00  0.00    -0.014 A 
BRANCH  36  37
ATOM     37  C   UNL A   1      39.826  28.913  29.151  1.00  0.00     0.031 A 
ATOM     38  C   UNL A   1      40.794  29.794  29.894  1.00  0.00     0.074 A 
ATOM     39  C   UNL A   1      40.214  27.692  28.734  1.00  0.00     0.049 A 
ATOM     40  N   UNL A   1      42.030  29.546  30.251  1.00  0.00    -0.248 NA
ATOM     41  C   UNL A   1      40.320  31.136  30.267  1.00  0.00     0.031 C 
ATOM     42  C   UNL A   1      39.387  26.755  27.971  1.00  0.00     0.029 A 
ATOM     43  N   UNL A   1      41.405  27.030  28.897  1.00  0.00    -0.354 N 
ATOM     44  C   UNL A   1      42.484  30.702  30.873  1.00  0.00     0.074 A 
ATOM     45  C   UNL A   1      41.408  31.667  30.807  1.00  0.00     0.031 C 
ATOM     46  C   UNL A   1      40.085  25.627  27.761  1.00  0.00     0.029 A 
ATOM     47  C   UNL A   1      41.412  25.771  28.349  1.00  0.00     0.049 A 
ATOM     48  H   UNL A   1      42.180  27.420  29.363  1.00  0.00     0.167 HD
ATOM     49  C   UNL A   1      43.682  30.937  31.461  1.00  0.00     0.031 A 
ATOM     50  C   UNL A   1      42.378  24.833  28.328  1.00  0.00     0.031 A 
ATOM     51  C   UNL A   1      44.750  29.976  31.543  1.00  0.00     0.049 A 
ATOM     52  C   UNL A   1      43.689  25.109  29.007  1.00  0.00     0.074 A 
ATOM     53  C   UNL A   1      45.982  30.104  32.160  1.00  0.00     0.029 A 
ATOM     54  N   UNL A   1      44.709  28.706  30.991  1.00  0.00    -0.354 N 
ATOM     55  N   UNL A   1      44.079  26.187  29.643  1.00  0.00    -0.248 NA
ATOM     56  C   UNL A   1      44.684  24.027  28.984  1.00  0.00     0.031 C 
ATOM     57  C   UNL A   1      46.702  28.922  31.951  1.00  0.00     0.029 A 
ATOM     58  C   UNL A   1      45.898  28.042  31.244  1.00  0.00     0.049 A 
ATOM     59  H   UNL A   1      43.947  28.330  30.493  1.00  0.00     0.167 HD
ATOM     60  C   UNL A   1      45.353  25.904  30.119  1.00  0.00     0.074 A 
ATOM     61  C   UNL A   1      45.662  24.548  29.711  1.00  0.00     0.031 C 
ATOM     62  C   UNL A   1      46.191  26.695  30.832  1.00  0.00     0.031 A 
BRANCH  49  63
ATOM     63  C   UNL A   1      43.899  32.298  32.062  1.00  0.00    -0.014 A 
ATOM     64  C   UNL A   1      44.399  33.361  31.292  1.00  0.00     0.009 A 
ATOM     65  C   UNL A   1      43.575  32.529  33.408  1.00  0.00     0.009 A 
ATOM     66  C   UNL A   1      44.605  34.617  31.868  1.00  0.00     0.001 A 
ATOM     67  C   UNL A   1      43.758  33.792  33.974  1.00  0.00     0.001 A 
ATOM     68  C   UNL A   1      44.280  34.832  33.207  1.00  0.00     0.000 A 
ENDBRANCH  49  63
BRANCH  50  69
ATOM     69  C   UNL A   1      42.125  23.525  27.672  1.00  0.00    -0.014 A 
ATOM     70  C   UNL A   1      41.493  22.489  28.376  1.00  0.00     0.009 A 
ATOM     71  C   UNL A   1      42.513  23.306  26.342  1.00  0.00     0.009 A 
ATOM     72  C   UNL A   1      41.277  21.251  27.768  1.00  0.00     0.001 A 
ATOM     73  C   UNL A   1      42.272  22.075  25.729  1.00  0.00     0.001 A 
ATOM     74  C   UNL A   1      41.663  21.045  26.445  1.00  0.00     0.000 A 
ENDBRANCH  50  69
BRANCH  62  75
ATOM     75  C   UNL A   1      47.504  26.097  31.248  1.00  0.00    -0.014 A 
ATOM     76  C   UNL A   1      48.604  26.076  30.376  1.00  0.00     0.009 A 
ATOM     77  C   UNL A   1      47.646  25.565  32.539  1.00  0.00     0.009 A 
ATOM     78  C   UNL A   1      49.810  25.497  30.778  1.00  0.00     0.001 A 
ATOM     79  C   UNL A   1      48.860  25.011  32.946  1.00  0.00     0.001 A 
ATOM     80  C   UNL A   1      49.937  24.968  32.062  1.00  0.00     0.000 A 
ENDBRANCH  62  75
ENDBRANCH  36  37
ENDBRANCH  28  31
ENDBRANCH  26  27
ENDBRANCH  25  26
ENDBRANCH  24  25
ENDBRANCH   3  24
TORSDOF 15
ENDMDL
MODEL 3
REMARK VINA RESULT:     -10.2      5.461      9.680
REMARK SMILES CC[N@@H+]1CC[C@H](C[NH2+]Cc2ccc(C(=O)NCCCNC(=O)c3ccc(-c4c5nc(c(-c6ccccc6)c6ccc([nH]6)c(-c6ccccc6)c6nc(c(-c7ccccc7)c7ccc4[nH]7)C=C6)C=C5)cc3)cn2)C1
REMARK SMILES IDX 14 1 15 2 16 3 13 5 10 6 11 7 72 8 12 9 71 10 9 11 8 12 7 15
REMARK SMILES IDX 6 16 3 17 4 18 73 19 5 21 2 22 1 23 17 24 18 25 19 26 20 27
REMARK SMILES IDX 21 28 22 30 23 31 24 32 70 33 25 34 69 35 26 36 27 37 28 38
REMARK SMILES IDX 63 39 29 40 68 41 62 42 64 43 30 44 67 45 61 46 60 47 31 49
REMARK SMILES IDX 53 50 38 51 52 52 39 53 42 54 51 55 65 56 40 57 41 58 50 60
REMARK SMILES IDX 66 61 43 62 32 63 33 64 37 65 34 66 36 67 35 68 54 69 55 70
REMARK SMILES IDX 59 71 56 72 58 73 57 74 44 75 45 76 49 77 46 78 48 79 47 80
REMARK H PARENT 16 4 8 13 8 14 3 20 20 29 64 48 42 59
REMARK Flexibility Score: inf
ROOT
ATOM      1  C   UNL A   1      30.479  28.945  22.802  1.00  0.00     0.252 C 
ATOM      2  O   UNL A   1      29.832  29.412  21.866  1.00  0.00    -0.269 OA
ATOM      3  N   UNL A   1      30.871  29.800  23.799  1.00  0.00    -0.352 N 
ATOM      4  H   UNL A   1      30.653  30.744  23.627  1.00  0.00     0.163 HD
ENDROOT
BRANCH   1   5
ATOM      5  C   UNL A   1      30.753  27.493  22.828  1.00  0.00     0.058 A 
ATOM      6  C   UNL A   1      31.063  24.757  23.090  1.00  0.00     0.094 A 
ATOM      7  C   UNL A   1      31.913  25.461  22.239  1.00  0.00     0.030 A 
ATOM      8  N   UNL A   1      30.060  25.365  23.769  1.00  0.00    -0.255 NA
ATOM      9  C   UNL A   1      31.745  26.840  22.101  1.00  0.00     0.017 A 
ATOM     10  C   UNL A   1      29.920  26.705  23.613  1.00  0.00     0.125 A 
BRANCH   6  11
ATOM     11  C   UNL A   1      31.296  23.284  23.375  1.00  0.00     0.317 C 
BRANCH  11  12
ATOM     12  N   UNL A   1      32.697  22.849  23.222  1.00  0.00    -0.341 N 
ATOM     13  H   UNL A   1      32.710  21.909  22.827  1.00  0.00     0.346 HD
ATOM     14  H   UNL A   1      33.171  23.510  22.607  1.00  0.00     0.346 HD
BRANCH  12  15
ATOM     15  C   UNL A   1      33.404  22.835  24.510  1.00  0.00     0.270 C 
BRANCH  15  16
ATOM     16  C   UNL A   1      34.738  23.582  24.430  1.00  0.00     0.105 C 
ATOM     17  N   UNL A   1      37.085  22.955  24.263  1.00  0.00    -0.335 N 
ATOM     18  C   UNL A   1      36.889  23.932  25.346  1.00  0.00     0.262 C 
ATOM     19  C   UNL A   1      35.774  22.825  23.587  1.00  0.00     0.271 C 
ATOM     20  H   UNL A   1      37.810  23.277  23.621  1.00  0.00     0.348 HD
ATOM     21  C   UNL A   1      35.441  23.772  25.766  1.00  0.00     0.076 C 
BRANCH  17  22
ATOM     22  C   UNL A   1      37.560  21.653  24.758  1.00  0.00     0.258 C 
ATOM     23  C   UNL A   1      38.619  21.805  25.845  1.00  0.00     0.071 C 
ENDBRANCH  17  22
ENDBRANCH  15  16
ENDBRANCH  12  15
ENDBRANCH  11  12
ENDBRANCH   6  11
ENDBRANCH   1   5
BRANCH   3  24
ATOM     24  C   UNL A   1      31.550  29.573  25.062  1.00  0.00     0.118 C 
BRANCH  24  25
ATOM     25  C   UNL A   1      33.030  29.260  24.852  1.00  0.00     0.042 C 
BRANCH  25  26
ATOM     26  C   UNL A   1      33.879  29.405  26.114  1.00  0.00     0.118 C 
BRANCH  26  27
ATOM     27  N   UNL A   1      33.688  30.693  26.760  1.00  0.00    -0.352 N 
ATOM     28  C   UNL A   1      34.386  31.290  27.779  1.00  0.00     0.251 C 
ATOM     29  H   UNL A   1      32.936  31.222  26.409  1.00  0.00     0.163 HD
ATOM     30  O   UNL A   1      33.920  32.296  28.307  1.00  0.00    -0.269 OA
BRANCH  28  31
ATOM     31  C   UNL A   1      35.678  30.747  28.258  1.00  0.00     0.039 A 
ATOM     32  C   UNL A   1      35.652  29.642  29.116  1.00  0.00     0.014 A 
ATOM     33  C   UNL A   1      36.899  31.354  27.949  1.00  0.00     0.014 A 
ATOM     34  C   UNL A   1      36.843  29.131  29.638  1.00  0.00     0.010 A 
ATOM     35  C   UNL A   1      38.094  30.804  28.419  1.00  0.00     0.010 A 
ATOM     36  C   UNL A   1      38.077  29.697  29.282  1.00  0.00    -0.014 A 
BRANCH  36  37
ATOM     37  C   UNL A   1      39.345  29.152  29.828  1.00  0.00     0.031 A 
ATOM     38  C   UNL A   1      39.948  29.728  31.080  1.00  0.00     0.074 A 
ATOM     39  C   UNL A   1      39.971  28.151  29.180  1.00  0.00     0.049 A 
ATOM     40  N   UNL A   1      41.045  29.377  31.706  1.00  0.00    -0.248 NA
ATOM     41  C   UNL A   1      39.240  30.859  31.700  1.00  0.00     0.031 C 
ATOM     42  C   UNL A   1      39.514  27.528  27.936  1.00  0.00     0.029 A 
ATOM     43  N   UNL A   1      41.128  27.477  29.484  1.00  0.00    -0.354 N 
ATOM     44  C   UNL A   1      41.166  30.252  32.778  1.00  0.00     0.074 A 
ATOM     45  C   UNL A   1      40.057  31.176  32.695  1.00  0.00     0.031 C 
ATOM     46  C   UNL A   1      40.363  26.544  27.601  1.00  0.00     0.029 A 
ATOM     47  C   UNL A   1      41.435  26.483  28.588  1.00  0.00     0.049 A 
ATOM     48  H   UNL A   1      41.684  27.686  30.270  1.00  0.00     0.167 HD
ATOM     49  C   UNL A   1      42.105  30.275  33.755  1.00  0.00     0.031 A 
ATOM     50  C   UNL A   1      42.463  25.613  28.568  1.00  0.00     0.031 A 
ATOM     51  C   UNL A   1      43.201  29.348  33.851  1.00  0.00     0.049 A 
ATOM     52  C   UNL A   1      43.478  25.643  29.674  1.00  0.00     0.074 A 
ATOM     53  C   UNL A   1      44.177  29.262  34.829  1.00  0.00     0.029 A 
ATOM     54  N   UNL A   1      43.466  28.344  32.933  1.00  0.00    -0.354 N 
ATOM     55  N   UNL A   1      43.542  26.439  30.714  1.00  0.00    -0.248 NA
ATOM     56  C   UNL A   1      44.550  24.639  29.614  1.00  0.00     0.031 C 
ATOM     57  C   UNL A   1      45.052  28.226  34.485  1.00  0.00     0.029 A 
ATOM     58  C   UNL A   1      44.594  27.639  33.316  1.00  0.00     0.049 A 
ATOM     59  H   UNL A   1      42.930  28.159  32.128  1.00  0.00     0.167 HD
ATOM     60  C   UNL A   1      44.643  26.014  31.447  1.00  0.00     0.074 A 
ATOM     61  C   UNL A   1      45.207  24.883  30.739  1.00  0.00     0.031 C 
ATOM     62  C   UNL A   1      45.142  26.516  32.602  1.00  0.00     0.031 A 
BRANCH  49  63
ATOM     63  C   UNL A   1      41.984  31.348  34.802  1.00  0.00    -0.014 A 
ATOM     64  C   UNL A   1      41.232  31.141  35.970  1.00  0.00     0.009 A 
ATOM     65  C   UNL A   1      42.652  32.570  34.632  1.00  0.00     0.009 A 
ATOM     66  C   UNL A   1      41.121  32.152  36.928  1.00  0.00     0.001 A 
ATOM     67  C   UNL A   1      42.561  33.568  35.604  1.00  0.00     0.001 A 
ATOM     68  C   UNL A   1      41.789  33.362  36.746  1.00  0.00     0.000 A 
ENDBRANCH  49  63
BRANCH  50  69
ATOM     69  C   UNL A   1      42.560  24.608  27.479  1.00  0.00    -0.014 A 
ATOM     70  C   UNL A   1      43.241  24.913  26.291  1.00  0.00     0.009 A 
ATOM     71  C   UNL A   1      41.974  23.341  27.621  1.00  0.00     0.009 A 
ATOM     72  C   UNL A   1      43.312  23.977  25.256  1.00  0.00     0.001 A 
ATOM     73  C   UNL A   1      42.068  22.399  26.595  1.00  0.00     0.001 A 
ATOM     74  C   UNL A   1      42.729  22.721  25.410  1.00  0.00     0.000 A 
ENDBRANCH  50  69
BRANCH  62  75
ATOM     75  C   UNL A   1      46.334  25.817  33.191  1.00  0.00    -0.014 A 
ATOM     76  C   UNL A   1      46.185  24.808  34.155  1.00  0.00     0.009 A 
ATOM     77  C   UNL A   1      47.624  26.164  32.759  1.00  0.00     0.009 A 
ATOM     78  C   UNL A   1      47.310  24.186  34.702  1.00  0.00     0.001 A 
ATOM     79  C   UNL A   1      48.744  25.522  33.289  1.00  0.00     0.001 A 
ATOM     80  C   UNL A   1      48.586  24.542  34.267  1.00  0.00     0.000 A 
ENDBRANCH  62  75
ENDBRANCH  36  37
ENDBRANCH  28  31
ENDBRANCH  26  27
ENDBRANCH  25  26
ENDBRANCH  24  25
ENDBRANCH   3  24
TORSDOF 15
ENDMDL
