MODEL 1
REMARK VINA RESULT:     -11.3      0.000      0.000
REMARK SMILES C[C@@H](C(=O)NCCCNC(=O)c1ccc(-c2c3nc(c(-c4ccccc4)c4ccc([nH]4)c(-c4ccccc4)c4nc(c(-c5ccccc5)c5ccc2[nH]5)C=C4)C=C3)cc1)c1ccc(OC2CCCC2)cc1F
REMARK SMILES IDX 6 1 5 2 3 3 4 4 2 6 1 7 60 8 61 9 71 10 62 11 70 12 72 13
REMARK SMILES IDX 63 14 64 15 65 16 66 17 69 18 67 19 68 20 7 21 8 22 9 23
REMARK SMILES IDX 10 24 11 26 12 27 13 28 59 29 14 30 58 31 15 32 16 33 17 34
REMARK SMILES IDX 52 35 18 36 57 37 51 38 53 39 19 40 56 41 50 42 49 43 20 45
REMARK SMILES IDX 42 46 27 47 41 48 28 49 31 50 40 51 54 52 29 53 30 54 39 56
REMARK SMILES IDX 55 57 32 58 21 59 22 60 26 61 23 62 25 63 24 64 43 65 44 66
REMARK SMILES IDX 48 67 45 68 47 69 46 70 33 71 34 72 38 73 35 74 37 75 36 76
REMARK H PARENT 5 5 9 25 53 44 31 55
REMARK Flexibility Score: inf
ROOT
ATOM      1  C   UNL A   1      31.566  27.676  26.207  1.00  0.00     0.117 C 
ENDROOT
BRANCH   1   2
ATOM      2  N   UNL A   1      31.019  26.393  26.607  1.00  0.00    -0.356 N 
ATOM      3  C   UNL A   1      31.103  25.164  26.014  1.00  0.00     0.227 C 
ATOM      4  O   UNL A   1      30.421  24.268  26.516  1.00  0.00    -0.274 OA
ATOM      5  H   UNL A   1      30.501  26.409  27.445  1.00  0.00     0.163 HD
BRANCH   3   6
ATOM      6  C   UNL A   1      32.046  24.935  24.816  1.00  0.00     0.108 C 
ATOM      7  C   UNL A   1      31.318  25.250  23.505  1.00  0.00     0.023 C 
BRANCH   6   8
ATOM      8  C   UNL A   1      32.696  23.548  24.850  1.00  0.00     0.000 A 
ATOM      9  C   UNL A   1      32.255  22.549  23.964  1.00  0.00     0.011 A 
ATOM     10  C   UNL A   1      33.719  23.195  25.736  1.00  0.00     0.130 A 
ATOM     11  C   UNL A   1      32.847  21.277  23.956  1.00  0.00     0.047 A 
ATOM     12  C   UNL A   1      34.283  21.923  25.751  1.00  0.00     0.086 A 
ATOM     13  F   UNL A   1      34.216  24.070  26.620  1.00  0.00    -0.207 F 
ATOM     14  C   UNL A   1      33.877  20.959  24.842  1.00  0.00     0.122 A 
BRANCH  14  15
ATOM     15  O   UNL A   1      34.391  19.702  24.714  1.00  0.00    -0.490 OA
BRANCH  15  16
ATOM     16  C   UNL A   1      33.572  18.572  24.419  1.00  0.00     0.173 C 
ATOM     17  C   UNL A   1      34.256  17.380  23.751  1.00  0.00     0.045 C 
ATOM     18  C   UNL A   1      32.756  18.034  25.596  1.00  0.00     0.045 C 
ATOM     19  C   UNL A   1      33.340  16.206  24.062  1.00  0.00     0.004 C 
ATOM     20  C   UNL A   1      32.693  16.520  25.408  1.00  0.00     0.004 C 
ENDBRANCH  15  16
ENDBRANCH  14  15
ENDBRANCH   6   8
ENDBRANCH   3   6
ENDBRANCH   1   2
BRANCH   1  21
ATOM     21  C   UNL A   1      32.101  28.456  27.410  1.00  0.00     0.042 C 
BRANCH  21  22
ATOM     22  C   UNL A   1      33.501  29.030  27.210  1.00  0.00     0.118 C 
BRANCH  22  23
ATOM     23  N   UNL A   1      33.608  30.409  27.665  1.00  0.00    -0.352 N 
ATOM     24  C   UNL A   1      34.610  31.037  28.358  1.00  0.00     0.251 C 
ATOM     25  H   UNL A   1      32.839  30.981  27.439  1.00  0.00     0.163 HD
ATOM     26  O   UNL A   1      34.411  32.159  28.825  1.00  0.00    -0.269 OA
BRANCH  24  27
ATOM     27  C   UNL A   1      35.916  30.378  28.575  1.00  0.00     0.039 A 
ATOM     28  C   UNL A   1      36.841  30.360  27.525  1.00  0.00     0.014 A 
ATOM     29  C   UNL A   1      36.228  29.756  29.787  1.00  0.00     0.014 A 
ATOM     30  C   UNL A   1      38.103  29.793  27.718  1.00  0.00     0.010 A 
ATOM     31  C   UNL A   1      37.509  29.247  29.999  1.00  0.00     0.010 A 
ATOM     32  C   UNL A   1      38.465  29.274  28.972  1.00  0.00    -0.014 A 
BRANCH  32  33
ATOM     33  C   UNL A   1      39.852  28.818  29.242  1.00  0.00     0.031 A 
ATOM     34  C   UNL A   1      40.868  29.750  29.841  1.00  0.00     0.074 A 
ATOM     35  C   UNL A   1      40.217  27.575  28.867  1.00  0.00     0.049 A 
ATOM     36  N   UNL A   1      42.140  29.540  30.073  1.00  0.00    -0.248 NA
ATOM     37  C   UNL A   1      40.403  31.095  30.214  1.00  0.00     0.031 C 
ATOM     38  C   UNL A   1      39.338  26.587  28.238  1.00  0.00     0.029 A 
ATOM     39  N   UNL A   1      41.429  26.934  28.947  1.00  0.00    -0.354 N 
ATOM     40  C   UNL A   1      42.630  30.728  30.602  1.00  0.00     0.074 A 
ATOM     41  C   UNL A   1      41.528  31.665  30.629  1.00  0.00     0.031 C 
ATOM     42  C   UNL A   1      40.035  25.464  28.003  1.00  0.00     0.029 A 
ATOM     43  C   UNL A   1      41.417  25.665  28.421  1.00  0.00     0.049 A 
ATOM     44  H   UNL A   1      42.232  27.346  29.344  1.00  0.00     0.167 HD
ATOM     45  C   UNL A   1      43.883  31.008  31.034  1.00  0.00     0.031 A 
ATOM     46  C   UNL A   1      42.411  24.770  28.270  1.00  0.00     0.031 A 
ATOM     47  C   UNL A   1      44.977  30.073  31.021  1.00  0.00     0.049 A 
ATOM     48  C   UNL A   1      43.796  25.121  28.733  1.00  0.00     0.074 A 
ATOM     49  C   UNL A   1      46.259  30.243  31.516  1.00  0.00     0.029 A 
ATOM     50  N   UNL A   1      44.923  28.800  30.480  1.00  0.00    -0.354 N 
ATOM     51  N   UNL A   1      44.219  26.218  29.313  1.00  0.00    -0.248 NA
ATOM     52  C   UNL A   1      44.842  24.110  28.521  1.00  0.00     0.031 C 
ATOM     53  C   UNL A   1      46.999  29.094  31.220  1.00  0.00     0.029 A 
ATOM     54  C   UNL A   1      46.161  28.189  30.589  1.00  0.00     0.049 A 
ATOM     55  H   UNL A   1      44.124  28.389  30.077  1.00  0.00     0.167 HD
ATOM     56  C   UNL A   1      45.573  26.022  29.551  1.00  0.00     0.074 A 
ATOM     57  C   UNL A   1      45.895  24.692  29.076  1.00  0.00     0.031 C 
ATOM     58  C   UNL A   1      46.470  26.869  30.108  1.00  0.00     0.031 A 
BRANCH  45  59
ATOM     59  C   UNL A   1      44.154  32.389  31.558  1.00  0.00    -0.014 A 
ATOM     60  C   UNL A   1      44.049  32.681  32.927  1.00  0.00     0.009 A 
ATOM     61  C   UNL A   1      44.609  33.388  30.682  1.00  0.00     0.009 A 
ATOM     62  C   UNL A   1      44.375  33.952  33.405  1.00  0.00     0.001 A 
ATOM     63  C   UNL A   1      44.957  34.650  31.167  1.00  0.00     0.001 A 
ATOM     64  C   UNL A   1      44.836  34.932  32.526  1.00  0.00     0.000 A 
ENDBRANCH  45  59
BRANCH  46  65
ATOM     65  C   UNL A   1      42.145  23.455  27.630  1.00  0.00    -0.014 A 
ATOM     66  C   UNL A   1      42.399  23.262  26.263  1.00  0.00     0.009 A 
ATOM     67  C   UNL A   1      41.601  22.396  28.374  1.00  0.00     0.009 A 
ATOM     68  C   UNL A   1      42.081  22.049  25.649  1.00  0.00     0.001 A 
ATOM     69  C   UNL A   1      41.314  21.174  27.763  1.00  0.00     0.001 A 
ATOM     70  C   UNL A   1      41.542  21.005  26.400  1.00  0.00     0.000 A 
ENDBRANCH  46  65
BRANCH  58  71
ATOM     71  C   UNL A   1      47.881  26.377  30.247  1.00  0.00    -0.014 A 
ATOM     72  C   UNL A   1      48.802  26.515  29.196  1.00  0.00     0.009 A 
ATOM     73  C   UNL A   1      48.306  25.802  31.454  1.00  0.00     0.009 A 
ATOM     74  C   UNL A   1      50.113  26.057  29.343  1.00  0.00     0.001 A 
ATOM     75  C   UNL A   1      49.625  25.371  31.608  1.00  0.00     0.001 A 
ATOM     76  C   UNL A   1      50.524  25.491  30.550  1.00  0.00     0.000 A 
ENDBRANCH  58  71
ENDBRANCH  32  33
ENDBRANCH  24  27
ENDBRANCH  22  23
ENDBRANCH  21  22
ENDBRANCH   1  21
TORSDOF 13
ENDMDL
MODEL 2
REMARK VINA RESULT:     -11.3      2.796      7.198
REMARK SMILES C[C@@H](C(=O)NCCCNC(=O)c1ccc(-c2c3nc(c(-c4ccccc4)c4ccc([nH]4)c(-c4ccccc4)c4nc(c(-c5ccccc5)c5ccc2[nH]5)C=C4)C=C3)cc1)c1ccc(OC2CCCC2)cc1F
REMARK SMILES IDX 6 1 5 2 3 3 4 4 2 6 1 7 60 8 61 9 71 10 62 11 70 12 72 13
REMARK SMILES IDX 63 14 64 15 65 16 66 17 69 18 67 19 68 20 7 21 8 22 9 23
REMARK SMILES IDX 10 24 11 26 12 27 13 28 59 29 14 30 58 31 15 32 16 33 17 34
REMARK SMILES IDX 52 35 18 36 57 37 51 38 53 39 19 40 56 41 50 42 49 43 20 45
REMARK SMILES IDX 42 46 27 47 41 48 28 49 31 50 40 51 54 52 29 53 30 54 39 56
REMARK SMILES IDX 55 57 32 58 21 59 22 60 26 61 23 62 25 63 24 64 43 65 44 66
REMARK SMILES IDX 48 67 45 68 47 69 46 70 33 71 34 72 38 73 35 74 37 75 36 76
REMARK H PARENT 5 5 9 25 53 44 31 55
REMARK Flexibility Score: inf
ROOT
ATOM      1  C   UNL A   1      37.331  21.439  24.244  1.00  0.00     0.117 C 
ENDROOT
BRANCH   1   2
ATOM      2  N   UNL A   1      37.457  22.431  25.296  1.00  0.00    -0.356 N 
ATOM      3  C   UNL A   1      36.685  23.518  25.594  1.00  0.00     0.227 C 
ATOM      4  O   UNL A   1      37.112  24.267  26.475  1.00  0.00    -0.274 OA
ATOM      5  H   UNL A   1      38.228  22.299  25.896  1.00  0.00     0.163 HD
BRANCH   3   6
ATOM      6  C   UNL A   1      35.336  23.740  24.881  1.00  0.00     0.108 C 
ATOM      7  C   UNL A   1      34.683  25.033  25.378  1.00  0.00     0.023 C 
BRANCH   6   8
ATOM      8  C   UNL A   1      34.428  22.509  24.970  1.00  0.00     0.000 A 
ATOM      9  C   UNL A   1      33.766  22.045  23.818  1.00  0.00     0.011 A 
ATOM     10  C   UNL A   1      34.196  21.802  26.154  1.00  0.00     0.130 A 
ATOM     11  C   UNL A   1      32.946  20.907  23.863  1.00  0.00     0.047 A 
ATOM     12  C   UNL A   1      33.357  20.692  26.206  1.00  0.00     0.086 A 
ATOM     13  F   UNL A   1      34.778  22.155  27.308  1.00  0.00    -0.207 F 
ATOM     14  C   UNL A   1      32.747  20.212  25.057  1.00  0.00     0.122 A 
BRANCH  14  15
ATOM     15  O   UNL A   1      31.957  19.105  24.965  1.00  0.00    -0.490 OA
BRANCH  15  16
ATOM     16  C   UNL A   1      32.475  17.831  24.589  1.00  0.00     0.173 C 
ATOM     17  C   UNL A   1      33.594  17.821  23.548  1.00  0.00     0.045 C 
ATOM     18  C   UNL A   1      32.920  16.940  25.751  1.00  0.00     0.045 C 
ATOM     19  C   UNL A   1      34.284  16.482  23.759  1.00  0.00     0.004 C 
ATOM     20  C   UNL A   1      34.126  16.154  25.242  1.00  0.00     0.004 C 
ENDBRANCH  15  16
ENDBRANCH  14  15
ENDBRANCH   6   8
ENDBRANCH   3   6
ENDBRANCH   1   2
BRANCH   1  21
ATOM     21  C   UNL A   1      37.940  20.099  24.662  1.00  0.00     0.042 C 
BRANCH  21  22
ATOM     22  C   UNL A   1      38.866  20.183  25.872  1.00  0.00     0.118 C 
BRANCH  22  23
ATOM     23  N   UNL A   1      39.890  19.148  25.863  1.00  0.00    -0.352 N 
ATOM     24  C   UNL A   1      41.251  19.248  25.995  1.00  0.00     0.251 C 
ATOM     25  H   UNL A   1      39.552  18.232  25.743  1.00  0.00     0.163 HD
ATOM     26  O   UNL A   1      41.956  18.269  25.751  1.00  0.00    -0.269 OA
BRANCH  24  27
ATOM     27  C   UNL A   1      41.886  20.521  26.400  1.00  0.00     0.039 A 
ATOM     28  C   UNL A   1      42.323  21.399  25.402  1.00  0.00     0.014 A 
ATOM     29  C   UNL A   1      42.080  20.846  27.745  1.00  0.00     0.014 A 
ATOM     30  C   UNL A   1      42.877  22.634  25.754  1.00  0.00     0.010 A 
ATOM     31  C   UNL A   1      42.574  22.103  28.095  1.00  0.00     0.010 A 
ATOM     32  C   UNL A   1      42.963  23.015  27.102  1.00  0.00    -0.014 A 
BRANCH  32  33
ATOM     33  C   UNL A   1      43.395  24.383  27.485  1.00  0.00     0.031 A 
ATOM     34  C   UNL A   1      42.389  25.426  27.887  1.00  0.00     0.074 A 
ATOM     35  C   UNL A   1      44.701  24.707  27.393  1.00  0.00     0.049 A 
ATOM     36  N   UNL A   1      42.586  26.688  28.178  1.00  0.00    -0.248 NA
ATOM     37  C   UNL A   1      40.981  25.006  27.954  1.00  0.00     0.031 C 
ATOM     38  C   UNL A   1      45.772  23.799  26.977  1.00  0.00     0.029 A 
ATOM     39  N   UNL A   1      45.348  25.896  27.628  1.00  0.00    -0.354 N 
ATOM     40  C   UNL A   1      41.328  27.215  28.447  1.00  0.00     0.074 A 
ATOM     41  C   UNL A   1      40.373  26.146  28.255  1.00  0.00     0.031 C 
ATOM     42  C   UNL A   1      46.942  24.458  27.000  1.00  0.00     0.029 A 
ATOM     43  C   UNL A   1      46.700  25.843  27.386  1.00  0.00     0.049 A 
ATOM     44  H   UNL A   1      44.887  26.708  27.940  1.00  0.00     0.167 HD
ATOM     45  C   UNL A   1      41.003  28.473  28.828  1.00  0.00     0.031 A 
ATOM     46  C   UNL A   1      47.639  26.806  27.448  1.00  0.00     0.031 A 
ATOM     47  C   UNL A   1      41.955  29.534  29.034  1.00  0.00     0.049 A 
ATOM     48  C   UNL A   1      47.241  28.199  27.846  1.00  0.00     0.074 A 
ATOM     49  C   UNL A   1      41.723  30.817  29.501  1.00  0.00     0.029 A 
ATOM     50  N   UNL A   1      43.312  29.439  28.778  1.00  0.00    -0.354 N 
ATOM     51  N   UNL A   1      46.060  28.655  28.183  1.00  0.00    -0.248 NA
ATOM     52  C   UNL A   1      48.308  29.210  27.873  1.00  0.00     0.031 C 
ATOM     53  C   UNL A   1      42.933  31.518  29.470  1.00  0.00     0.029 A 
ATOM     54  C   UNL A   1      43.925  30.654  29.036  1.00  0.00     0.049 A 
ATOM     55  H   UNL A   1      43.773  28.630  28.461  1.00  0.00     0.167 HD
ATOM     56  C   UNL A   1      46.244  29.999  28.479  1.00  0.00     0.074 A 
ATOM     57  C   UNL A   1      47.655  30.278  28.306  1.00  0.00     0.031 C 
ATOM     58  C   UNL A   1      45.327  30.921  28.855  1.00  0.00     0.031 A 
BRANCH  45  59
ATOM     59  C   UNL A   1      39.551  28.789  29.048  1.00  0.00    -0.014 A 
ATOM     60  C   UNL A   1      38.956  28.635  30.309  1.00  0.00     0.009 A 
ATOM     61  C   UNL A   1      38.792  29.333  27.999  1.00  0.00     0.009 A 
ATOM     62  C   UNL A   1      37.623  29.002  30.511  1.00  0.00     0.001 A 
ATOM     63  C   UNL A   1      37.468  29.720  28.210  1.00  0.00     0.001 A 
ATOM     64  C   UNL A   1      36.884  29.551  29.464  1.00  0.00     0.000 A 
ENDBRANCH  45  59
BRANCH  46  65
ATOM     65  C   UNL A   1      49.051  26.499  27.100  1.00  0.00    -0.014 A 
ATOM     66  C   UNL A   1      49.492  26.573  25.770  1.00  0.00     0.009 A 
ATOM     67  C   UNL A   1      49.958  26.096  28.093  1.00  0.00     0.009 A 
ATOM     68  C   UNL A   1      50.800  26.215  25.437  1.00  0.00     0.001 A 
ATOM     69  C   UNL A   1      51.274  25.769  27.762  1.00  0.00     0.001 A 
ATOM     70  C   UNL A   1      51.691  25.817  26.434  1.00  0.00     0.000 A 
ENDBRANCH  46  65
BRANCH  58  71
ATOM     71  C   UNL A   1      45.823  32.313  29.119  1.00  0.00    -0.014 A 
ATOM     72  C   UNL A   1      46.314  32.678  30.382  1.00  0.00     0.009 A 
ATOM     73  C   UNL A   1      45.833  33.260  28.084  1.00  0.00     0.009 A 
ATOM     74  C   UNL A   1      46.777  33.976  30.611  1.00  0.00     0.001 A 
ATOM     75  C   UNL A   1      46.322  34.547  28.307  1.00  0.00     0.001 A 
ATOM     76  C   UNL A   1      46.785  34.907  29.572  1.00  0.00     0.000 A 
ENDBRANCH  58  71
ENDBRANCH  32  33
ENDBRANCH  24  27
ENDBRANCH  22  23
ENDBRANCH  21  22
ENDBRANCH   1  21
TORSDOF 13
ENDMDL
MODEL 3
REMARK VINA RESULT:     -11.1      1.752      2.349
REMARK SMILES C[C@@H](C(=O)NCCCNC(=O)c1ccc(-c2c3nc(c(-c4ccccc4)c4ccc([nH]4)c(-c4ccccc4)c4nc(c(-c5ccccc5)c5ccc2[nH]5)C=C4)C=C3)cc1)c1ccc(OC2CCCC2)cc1F
REMARK SMILES IDX 6 1 5 2 3 3 4 4 2 6 1 7 60 8 61 9 71 10 62 11 70 12 72 13
REMARK SMILES IDX 63 14 64 15 65 16 66 17 69 18 67 19 68 20 7 21 8 22 9 23
REMARK SMILES IDX 10 24 11 26 12 27 13 28 59 29 14 30 58 31 15 32 16 33 17 34
REMARK SMILES IDX 52 35 18 36 57 37 51 38 53 39 19 40 56 41 50 42 49 43 20 45
REMARK SMILES IDX 42 46 27 47 41 48 28 49 31 50 40 51 54 52 29 53 30 54 39 56
REMARK SMILES IDX 55 57 32 58 21 59 22 60 26 61 23 62 25 63 24 64 43 65 44 66
REMARK SMILES IDX 48 67 45 68 47 69 46 70 33 71 34 72 38 73 35 74 37 75 36 76
REMARK H PARENT 5 5 9 25 53 44 31 55
REMARK Flexibility Score: inf
ROOT
ATOM      1  C   UNL A   1      31.622  28.309  26.712  1.00  0.00     0.117 C 
ENDROOT
BRANCH   1   2
ATOM      2  N   UNL A   1      30.891  27.083  26.976  1.00  0.00    -0.356 N 
ATOM      3  C   UNL A   1      30.440  26.114  26.126  1.00  0.00     0.227 C 
ATOM      4  O   UNL A   1      29.726  25.240  26.623  1.00  0.00    -0.274 OA
ATOM      5  H   UNL A   1      30.686  26.923  27.926  1.00  0.00     0.163 HD
BRANCH   3   6
ATOM      6  C   UNL A   1      30.859  26.116  24.642  1.00  0.00     0.108 C 
ATOM      7  C   UNL A   1      29.655  25.784  23.754  1.00  0.00     0.023 C 
BRANCH   6   8
ATOM      8  C   UNL A   1      32.084  25.231  24.388  1.00  0.00     0.000 A 
ATOM      9  C   UNL A   1      33.331  25.826  24.123  1.00  0.00     0.011 A 
ATOM     10  C   UNL A   1      32.042  23.833  24.389  1.00  0.00     0.130 A 
ATOM     11  C   UNL A   1      34.475  25.042  23.910  1.00  0.00     0.047 A 
ATOM     12  C   UNL A   1      33.171  23.056  24.144  1.00  0.00     0.086 A 
ATOM     13  F   UNL A   1      30.908  23.164  24.632  1.00  0.00    -0.207 F 
ATOM     14  C   UNL A   1      34.406  23.649  23.933  1.00  0.00     0.122 A 
BRANCH  14  15
ATOM     15  O   UNL A   1      35.591  23.001  23.744  1.00  0.00    -0.490 OA
BRANCH  15  16
ATOM     16  C   UNL A   1      36.379  22.525  24.834  1.00  0.00     0.173 C 
ATOM     17  C   UNL A   1      37.376  21.408  24.527  1.00  0.00     0.045 C 
ATOM     18  C   UNL A   1      37.126  23.605  25.618  1.00  0.00     0.045 C 
ATOM     19  C   UNL A   1      38.393  21.501  25.653  1.00  0.00     0.004 C 
ATOM     20  C   UNL A   1      38.445  22.972  26.056  1.00  0.00     0.004 C 
ENDBRANCH  15  16
ENDBRANCH  14  15
ENDBRANCH   6   8
ENDBRANCH   3   6
ENDBRANCH   1   2
BRANCH   1  21
ATOM     21  C   UNL A   1      33.127  28.117  26.905  1.00  0.00     0.042 C 
BRANCH  21  22
ATOM     22  C   UNL A   1      33.979  29.258  26.354  1.00  0.00     0.118 C 
BRANCH  22  23
ATOM     23  N   UNL A   1      33.907  30.455  27.179  1.00  0.00    -0.352 N 
ATOM     24  C   UNL A   1      34.740  30.895  28.175  1.00  0.00     0.251 C 
ATOM     25  H   UNL A   1      33.139  31.042  26.992  1.00  0.00     0.163 HD
ATOM     26  O   UNL A   1      34.385  31.832  28.890  1.00  0.00    -0.269 OA
BRANCH  24  27
ATOM     27  C   UNL A   1      36.045  30.243  28.421  1.00  0.00     0.039 A 
ATOM     28  C   UNL A   1      37.015  30.284  27.414  1.00  0.00     0.014 A 
ATOM     29  C   UNL A   1      36.313  29.572  29.617  1.00  0.00     0.014 A 
ATOM     30  C   UNL A   1      38.276  29.726  27.638  1.00  0.00     0.010 A 
ATOM     31  C   UNL A   1      37.591  29.070  29.864  1.00  0.00     0.010 A 
ATOM     32  C   UNL A   1      38.590  29.156  28.883  1.00  0.00    -0.014 A 
BRANCH  32  33
ATOM     33  C   UNL A   1      39.971  28.707  29.193  1.00  0.00     0.031 A 
ATOM     34  C   UNL A   1      40.956  29.635  29.848  1.00  0.00     0.074 A 
ATOM     35  C   UNL A   1      40.360  27.475  28.807  1.00  0.00     0.049 A 
ATOM     36  N   UNL A   1      42.220  29.431  30.122  1.00  0.00    -0.248 NA
ATOM     37  C   UNL A   1      40.465  30.968  30.231  1.00  0.00     0.031 C 
ATOM     38  C   UNL A   1      39.514  26.492  28.127  1.00  0.00     0.029 A 
ATOM     39  N   UNL A   1      41.575  26.843  28.919  1.00  0.00    -0.354 N 
ATOM     40  C   UNL A   1      42.680  30.612  30.693  1.00  0.00     0.074 A 
ATOM     41  C   UNL A   1      41.568  31.538  30.698  1.00  0.00     0.031 C 
ATOM     42  C   UNL A   1      40.229  25.380  27.894  1.00  0.00     0.029 A 
ATOM     43  C   UNL A   1      41.594  25.585  28.367  1.00  0.00     0.049 A 
ATOM     44  H   UNL A   1      42.359  27.253  29.353  1.00  0.00     0.167 HD
ATOM     45  C   UNL A   1      43.913  30.894  31.175  1.00  0.00     0.031 A 
ATOM     46  C   UNL A   1      42.601  24.701  28.234  1.00  0.00     0.031 A 
ATOM     47  C   UNL A   1      45.016  29.968  31.184  1.00  0.00     0.049 A 
ATOM     48  C   UNL A   1      43.965  25.055  28.754  1.00  0.00     0.074 A 
ATOM     49  C   UNL A   1      46.278  30.140  31.728  1.00  0.00     0.029 A 
ATOM     50  N   UNL A   1      44.993  28.706  30.615  1.00  0.00    -0.354 N 
ATOM     51  N   UNL A   1      44.356  26.143  29.372  1.00  0.00    -0.248 NA
ATOM     52  C   UNL A   1      45.027  24.057  28.560  1.00  0.00     0.031 C 
ATOM     53  C   UNL A   1      47.038  29.003  31.436  1.00  0.00     0.029 A 
ATOM     54  C   UNL A   1      46.232  28.104  30.757  1.00  0.00     0.049 A 
ATOM     55  H   UNL A   1      44.213  28.298  30.175  1.00  0.00     0.167 HD
ATOM     56  C   UNL A   1      45.702  25.954  29.655  1.00  0.00     0.074 A 
ATOM     57  C   UNL A   1      46.054  24.637  29.165  1.00  0.00     0.031 C 
ATOM     58  C   UNL A   1      46.571  26.797  30.261  1.00  0.00     0.031 A 
BRANCH  45  59
ATOM     59  C   UNL A   1      44.153  32.266  31.737  1.00  0.00    -0.014 A 
ATOM     60  C   UNL A   1      44.584  33.322  30.920  1.00  0.00     0.009 A 
ATOM     61  C   UNL A   1      43.856  32.526  33.085  1.00  0.00     0.009 A 
ATOM     62  C   UNL A   1      44.732  34.607  31.446  1.00  0.00     0.001 A 
ATOM     63  C   UNL A   1      43.982  33.817  33.602  1.00  0.00     0.001 A 
ATOM     64  C   UNL A   1      44.424  34.855  32.783  1.00  0.00     0.000 A 
ENDBRANCH  45  59
BRANCH  46  65
ATOM     65  C   UNL A   1      42.371  23.398  27.558  1.00  0.00    -0.014 A 
ATOM     66  C   UNL A   1      41.947  22.278  28.290  1.00  0.00     0.009 A 
ATOM     67  C   UNL A   1      42.609  23.257  26.182  1.00  0.00     0.009 A 
ATOM     68  C   UNL A   1      41.801  21.038  27.665  1.00  0.00     0.001 A 
ATOM     69  C   UNL A   1      42.431  22.023  25.554  1.00  0.00     0.001 A 
ATOM     70  C   UNL A   1      42.040  20.912  26.297  1.00  0.00     0.000 A 
ENDBRANCH  46  65
BRANCH  58  71
ATOM     71  C   UNL A   1      47.981  26.315  30.442  1.00  0.00    -0.014 A 
ATOM     72  C   UNL A   1      48.396  25.730  31.649  1.00  0.00     0.009 A 
ATOM     73  C   UNL A   1      48.895  26.412  29.382  1.00  0.00     0.009 A 
ATOM     74  C   UNL A   1      49.710  25.281  31.800  1.00  0.00     0.001 A 
ATOM     75  C   UNL A   1      50.199  25.937  29.526  1.00  0.00     0.001 A 
ATOM     76  C   UNL A   1      50.608  25.380  30.737  1.00  0.00     0.000 A 
ENDBRANCH  58  71
ENDBRANCH  32  33
ENDBRANCH  24  27
ENDBRANCH  22  23
ENDBRANCH  21  22
ENDBRANCH   1  21
TORSDOF 13
ENDMDL
