MODEL 1
REMARK VINA RESULT:     -11.5      0.000      0.000
REMARK SMILES COc1ccc(OC)c(NC(=O)[C@@H]2[C@@H](C(=O)NCCCNC(=O)c3ccc(-c4c5nc(c(-c6ccccc6)c6ccc([nH]6)c(-c6ccccc6)c6nc(c(-c7ccccc7)c7ccc4[nH]7)C=C6)C=C5)cc3)[C@H]3C=C[C@@H]2C3)c1
REMARK SMILES IDX 18 1 17 2 15 3 16 4 14 6 13 7 75 8 72 9 74 10 76 11 73 12
REMARK SMILES IDX 11 13 10 14 12 16 9 17 3 18 4 19 77 20 5 21 6 22 2 23 1 24
REMARK SMILES IDX 7 25 8 26 19 27 20 28 21 29 22 30 23 32 24 33 25 34 71 35
REMARK SMILES IDX 26 36 70 37 27 38 28 39 29 40 64 41 30 42 69 43 63 44 65 45
REMARK SMILES IDX 31 46 68 47 62 48 61 49 32 51 54 52 39 53 53 54 40 55 43 56
REMARK SMILES IDX 52 57 66 58 41 59 42 60 51 62 67 63 44 64 33 65 34 66 38 67
REMARK SMILES IDX 35 68 37 69 36 70 55 71 56 72 60 73 57 74 59 75 58 76 45 77
REMARK SMILES IDX 46 78 50 79 47 80 49 81 48 82
REMARK H PARENT 17 5 10 15 21 31 65 50 43 61
REMARK Flexibility Score: inf
ROOT
ATOM      1  C   UNL A   1      36.354  20.007  25.001  1.00  0.00     0.117 C 
ENDROOT
BRANCH   1   2
ATOM      2  N   UNL A   1      35.994  21.088  25.889  1.00  0.00    -0.356 N 
ATOM      3  C   UNL A   1      35.014  22.021  25.749  1.00  0.00     0.224 C 
ATOM      4  O   UNL A   1      34.893  22.829  26.673  1.00  0.00    -0.275 OA
ATOM      5  H   UNL A   1      36.535  21.160  26.708  1.00  0.00     0.163 HD
BRANCH   3   6
ATOM      6  C   UNL A   1      34.210  22.124  24.455  1.00  0.00     0.098 C 
ATOM      7  C   UNL A   1      33.425  23.470  24.388  1.00  0.00     0.099 C 
ATOM      8  C   UNL A   1      31.986  22.977  24.051  1.00  0.00     0.025 C 
ATOM      9  C   UNL A   1      33.114  21.064  24.185  1.00  0.00     0.025 C 
ATOM     10  C   UNL A   1      31.455  22.205  25.248  1.00  0.00    -0.027 C 
ATOM     11  C   UNL A   1      32.273  21.793  23.132  1.00  0.00     0.017 C 
ATOM     12  C   UNL A   1      32.134  21.052  25.320  1.00  0.00    -0.027 C 
BRANCH   7  13
ATOM     13  C   UNL A   1      33.767  24.654  23.477  1.00  0.00     0.229 C 
ATOM     14  N   UNL A   1      33.736  25.976  23.784  1.00  0.00    -0.323 N 
ATOM     15  H   UNL A   1      34.374  26.504  23.252  1.00  0.00     0.170 HD
ATOM     16  O   UNL A   1      34.348  24.400  22.406  1.00  0.00    -0.274 OA
BRANCH  14  17
ATOM     17  C   UNL A   1      33.006  26.762  24.684  1.00  0.00     0.087 A 
ATOM     18  C   UNL A   1      33.155  28.232  26.598  1.00  0.00     0.121 A 
ATOM     19  C   UNL A   1      31.807  28.028  26.868  1.00  0.00     0.050 A 
ATOM     20  C   UNL A   1      33.765  27.583  25.527  1.00  0.00     0.076 A 
ATOM     21  C   UNL A   1      31.028  27.343  25.941  1.00  0.00     0.052 A 
ATOM     22  C   UNL A   1      31.611  26.793  24.793  1.00  0.00     0.142 A 
BRANCH  18  23
ATOM     23  O   UNL A   1      33.921  29.008  27.423  1.00  0.00    -0.497 OA
ATOM     24  C   UNL A   1      33.576  30.387  27.252  1.00  0.00     0.278 C 
ENDBRANCH  18  23
BRANCH  22  25
ATOM     25  O   UNL A   1      30.721  26.224  23.923  1.00  0.00    -0.495 OA
ATOM     26  C   UNL A   1      29.422  26.807  23.875  1.00  0.00     0.278 C 
ENDBRANCH  22  25
ENDBRANCH  14  17
ENDBRANCH   7  13
ENDBRANCH   3   6
ENDBRANCH   1   2
BRANCH   1  27
ATOM     27  C   UNL A   1      37.821  20.004  24.606  1.00  0.00     0.042 C 
BRANCH  27  28
ATOM     28  C   UNL A   1      38.799  20.218  25.750  1.00  0.00     0.118 C 
BRANCH  28  29
ATOM     29  N   UNL A   1      39.840  19.202  25.823  1.00  0.00    -0.352 N 
ATOM     30  C   UNL A   1      41.195  19.300  26.025  1.00  0.00     0.251 C 
ATOM     31  H   UNL A   1      39.513  18.280  25.708  1.00  0.00     0.163 HD
ATOM     32  O   UNL A   1      41.903  18.309  25.872  1.00  0.00    -0.269 OA
BRANCH  30  33
ATOM     33  C   UNL A   1      41.820  20.591  26.392  1.00  0.00     0.039 A 
ATOM     34  C   UNL A   1      42.177  21.484  25.376  1.00  0.00     0.014 A 
ATOM     35  C   UNL A   1      42.082  20.919  27.720  1.00  0.00     0.014 A 
ATOM     36  C   UNL A   1      42.714  22.733  25.703  1.00  0.00     0.010 A 
ATOM     37  C   UNL A   1      42.503  22.202  28.051  1.00  0.00     0.010 A 
ATOM     38  C   UNL A   1      42.836  23.122  27.047  1.00  0.00    -0.014 A 
BRANCH  38  39
ATOM     39  C   UNL A   1      43.327  24.469  27.433  1.00  0.00     0.031 A 
ATOM     40  C   UNL A   1      42.350  25.531  27.862  1.00  0.00     0.074 A 
ATOM     41  C   UNL A   1      44.636  24.765  27.316  1.00  0.00     0.049 A 
ATOM     42  N   UNL A   1      42.566  26.794  28.133  1.00  0.00    -0.248 NA
ATOM     43  C   UNL A   1      40.936  25.132  27.963  1.00  0.00     0.031 C 
ATOM     44  C   UNL A   1      45.680  23.843  26.862  1.00  0.00     0.029 A 
ATOM     45  N   UNL A   1      45.313  25.935  27.560  1.00  0.00    -0.354 N 
ATOM     46  C   UNL A   1      41.318  27.340  28.406  1.00  0.00     0.074 A 
ATOM     47  C   UNL A   1      40.343  26.291  28.207  1.00  0.00     0.031 C 
ATOM     48  C   UNL A   1      46.866  24.473  26.889  1.00  0.00     0.029 A 
ATOM     49  C   UNL A   1      46.662  25.852  27.316  1.00  0.00     0.049 A 
ATOM     50  H   UNL A   1      44.871  26.755  27.879  1.00  0.00     0.167 HD
ATOM     51  C   UNL A   1      41.007  28.594  28.813  1.00  0.00     0.031 A 
ATOM     52  C   UNL A   1      47.628  26.785  27.418  1.00  0.00     0.031 A 
ATOM     53  C   UNL A   1      41.979  29.631  29.033  1.00  0.00     0.049 A 
ATOM     54  C   UNL A   1      47.262  28.169  27.877  1.00  0.00     0.074 A 
ATOM     55  C   UNL A   1      41.777  30.918  29.500  1.00  0.00     0.029 A 
ATOM     56  N   UNL A   1      43.339  29.497  28.801  1.00  0.00    -0.354 N 
ATOM     57  N   UNL A   1      46.084  28.650  28.193  1.00  0.00    -0.248 NA
ATOM     58  C   UNL A   1      48.363  29.134  28.006  1.00  0.00     0.031 C 
ATOM     59  C   UNL A   1      43.010  31.576  29.508  1.00  0.00     0.029 A 
ATOM     60  C   UNL A   1      43.987  30.682  29.100  1.00  0.00     0.049 A 
ATOM     61  H   UNL A   1      43.779  28.678  28.475  1.00  0.00     0.167 HD
ATOM     62  C   UNL A   1      46.305  29.965  28.582  1.00  0.00     0.074 A 
ATOM     63  C   UNL A   1      47.731  30.198  28.481  1.00  0.00     0.031 C 
ATOM     64  C   UNL A   1      45.407  30.896  28.989  1.00  0.00     0.031 A 
BRANCH  51  65
ATOM     65  C   UNL A   1      39.554  28.905  29.045  1.00  0.00    -0.014 A 
ATOM     66  C   UNL A   1      38.741  29.399  28.012  1.00  0.00     0.009 A 
ATOM     67  C   UNL A   1      38.984  28.689  30.309  1.00  0.00     0.009 A 
ATOM     68  C   UNL A   1      37.401  29.714  28.251  1.00  0.00     0.001 A 
ATOM     69  C   UNL A   1      37.635  28.973  30.537  1.00  0.00     0.001 A 
ATOM     70  C   UNL A   1      36.849  29.496  29.512  1.00  0.00     0.000 A 
ENDBRANCH  51  65
BRANCH  52  71
ATOM     71  C   UNL A   1      49.037  26.435  27.098  1.00  0.00    -0.014 A 
ATOM     72  C   UNL A   1      49.531  26.591  25.794  1.00  0.00     0.009 A 
ATOM     73  C   UNL A   1      49.897  25.946  28.094  1.00  0.00     0.009 A 
ATOM     74  C   UNL A   1      50.848  26.241  25.488  1.00  0.00     0.001 A 
ATOM     75  C   UNL A   1      51.222  25.625  27.792  1.00  0.00     0.001 A 
ATOM     76  C   UNL A   1      51.694  25.763  26.488  1.00  0.00     0.000 A 
ENDBRANCH  52  71
BRANCH  64  77
ATOM     77  C   UNL A   1      45.946  32.241  29.386  1.00  0.00    -0.014 A 
ATOM     78  C   UNL A   1      46.045  33.289  28.459  1.00  0.00     0.009 A 
ATOM     79  C   UNL A   1      46.319  32.473  30.719  1.00  0.00     0.009 A 
ATOM     80  C   UNL A   1      46.539  34.535  28.853  1.00  0.00     0.001 A 
ATOM     81  C   UNL A   1      46.784  33.727  31.117  1.00  0.00     0.001 A 
ATOM     82  C   UNL A   1      46.902  34.753  30.182  1.00  0.00     0.000 A 
ENDBRANCH  64  77
ENDBRANCH  38  39
ENDBRANCH  30  33
ENDBRANCH  28  29
ENDBRANCH  27  28
ENDBRANCH   1  27
TORSDOF 14
ENDMDL
MODEL 2
REMARK VINA RESULT:     -11.4      1.739      6.169
REMARK SMILES COc1ccc(OC)c(NC(=O)[C@@H]2[C@@H](C(=O)NCCCNC(=O)c3ccc(-c4c5nc(c(-c6ccccc6)c6ccc([nH]6)c(-c6ccccc6)c6nc(c(-c7ccccc7)c7ccc4[nH]7)C=C6)C=C5)cc3)[C@H]3C=C[C@@H]2C3)c1
REMARK SMILES IDX 18 1 17 2 15 3 16 4 14 6 13 7 75 8 72 9 74 10 76 11 73 12
REMARK SMILES IDX 11 13 10 14 12 16 9 17 3 18 4 19 77 20 5 21 6 22 2 23 1 24
REMARK SMILES IDX 7 25 8 26 19 27 20 28 21 29 22 30 23 32 24 33 25 34 71 35
REMARK SMILES IDX 26 36 70 37 27 38 28 39 29 40 64 41 30 42 69 43 63 44 65 45
REMARK SMILES IDX 31 46 68 47 62 48 61 49 32 51 54 52 39 53 53 54 40 55 43 56
REMARK SMILES IDX 52 57 66 58 41 59 42 60 51 62 67 63 44 64 33 65 34 66 38 67
REMARK SMILES IDX 35 68 37 69 36 70 55 71 56 72 60 73 57 74 59 75 58 76 45 77
REMARK SMILES IDX 46 78 50 79 47 80 49 81 48 82
REMARK H PARENT 17 5 10 15 21 31 65 50 43 61
REMARK Flexibility Score: inf
ROOT
ATOM      1  C   UNL A   1      36.276  20.408  25.019  1.00  0.00     0.117 C 
ENDROOT
BRANCH   1   2
ATOM      2  N   UNL A   1      36.464  21.762  25.486  1.00  0.00    -0.356 N 
ATOM      3  C   UNL A   1      35.579  22.794  25.499  1.00  0.00     0.224 C 
ATOM      4  O   UNL A   1      35.983  23.854  25.983  1.00  0.00    -0.275 OA
ATOM      5  H   UNL A   1      37.358  21.965  25.844  1.00  0.00     0.163 HD
BRANCH   3   6
ATOM      6  C   UNL A   1      34.214  22.664  24.828  1.00  0.00     0.098 C 
ATOM      7  C   UNL A   1      33.664  24.059  24.398  1.00  0.00     0.099 C 
ATOM      8  C   UNL A   1      32.233  24.035  25.015  1.00  0.00     0.025 C 
ATOM      9  C   UNL A   1      33.046  22.064  25.648  1.00  0.00     0.025 C 
ATOM     10  C   UNL A   1      32.367  24.050  26.529  1.00  0.00    -0.027 C 
ATOM     11  C   UNL A   1      31.846  22.569  24.840  1.00  0.00     0.017 C 
ATOM     12  C   UNL A   1      32.852  22.859  26.905  1.00  0.00    -0.027 C 
BRANCH   7  13
ATOM     13  C   UNL A   1      33.572  24.573  22.957  1.00  0.00     0.229 C 
ATOM     14  N   UNL A   1      33.285  25.832  22.540  1.00  0.00    -0.323 N 
ATOM     15  H   UNL A   1      33.690  26.044  21.668  1.00  0.00     0.170 HD
ATOM     16  O   UNL A   1      34.016  23.835  22.059  1.00  0.00    -0.274 OA
BRANCH  14  17
ATOM     17  C   UNL A   1      32.548  26.900  23.064  1.00  0.00     0.087 A 
ATOM     18  C   UNL A   1      30.654  28.360  22.706  1.00  0.00     0.121 A 
ATOM     19  C   UNL A   1      31.174  29.270  23.617  1.00  0.00     0.050 A 
ATOM     20  C   UNL A   1      31.345  27.190  22.405  1.00  0.00     0.076 A 
ATOM     21  C   UNL A   1      32.279  28.907  24.380  1.00  0.00     0.052 A 
ATOM     22  C   UNL A   1      32.909  27.674  24.173  1.00  0.00     0.142 A 
BRANCH  18  23
ATOM     23  O   UNL A   1      29.495  28.633  22.031  1.00  0.00    -0.497 OA
ATOM     24  C   UNL A   1      29.047  29.955  22.351  1.00  0.00     0.278 C 
ENDBRANCH  18  23
BRANCH  22  25
ATOM     25  O   UNL A   1      33.925  27.403  25.048  1.00  0.00    -0.495 OA
ATOM     26  C   UNL A   1      33.794  27.949  26.358  1.00  0.00     0.278 C 
ENDBRANCH  22  25
ENDBRANCH  14  17
ENDBRANCH   7  13
ENDBRANCH   3   6
ENDBRANCH   1   2
BRANCH   1  27
ATOM     27  C   UNL A   1      37.566  19.611  24.921  1.00  0.00     0.042 C 
BRANCH  27  28
ATOM     28  C   UNL A   1      38.760  20.225  25.634  1.00  0.00     0.118 C 
BRANCH  28  29
ATOM     29  N   UNL A   1      39.905  19.330  25.727  1.00  0.00    -0.352 N 
ATOM     30  C   UNL A   1      41.215  19.559  26.074  1.00  0.00     0.251 C 
ATOM     31  H   UNL A   1      39.704  18.392  25.502  1.00  0.00     0.163 HD
ATOM     32  O   UNL A   1      42.048  18.672  25.911  1.00  0.00    -0.269 OA
BRANCH  30  33
ATOM     33  C   UNL A   1      41.643  20.871  26.610  1.00  0.00     0.039 A 
ATOM     34  C   UNL A   1      42.235  21.797  25.744  1.00  0.00     0.014 A 
ATOM     35  C   UNL A   1      41.492  21.188  27.958  1.00  0.00     0.014 A 
ATOM     36  C   UNL A   1      42.592  23.063  26.216  1.00  0.00     0.010 A 
ATOM     37  C   UNL A   1      41.736  22.484  28.400  1.00  0.00     0.010 A 
ATOM     38  C   UNL A   1      42.301  23.434  27.539  1.00  0.00    -0.014 A 
BRANCH  38  39
ATOM     39  C   UNL A   1      42.593  24.795  28.055  1.00  0.00     0.031 A 
ATOM     40  C   UNL A   1      43.986  25.145  28.510  1.00  0.00     0.074 A 
ATOM     41  C   UNL A   1      41.594  25.689  28.195  1.00  0.00     0.049 A 
ATOM     42  N   UNL A   1      44.418  26.238  29.089  1.00  0.00    -0.248 NA
ATOM     43  C   UNL A   1      45.023  24.116  28.328  1.00  0.00     0.031 C 
ATOM     44  C   UNL A   1      40.191  25.459  27.841  1.00  0.00     0.029 A 
ATOM     45  N   UNL A   1      41.605  26.971  28.686  1.00  0.00    -0.354 N 
ATOM     46  C   UNL A   1      45.761  26.014  29.362  1.00  0.00     0.074 A 
ATOM     47  C   UNL A   1      46.059  24.662  28.945  1.00  0.00     0.031 C 
ATOM     48  C   UNL A   1      39.485  26.571  28.098  1.00  0.00     0.029 A 
ATOM     49  C   UNL A   1      40.371  27.574  28.677  1.00  0.00     0.049 A 
ATOM     50  H   UNL A   1      42.420  27.415  29.014  1.00  0.00     0.167 HD
ATOM     51  C   UNL A   1      46.676  26.863  29.886  1.00  0.00     0.031 A 
ATOM     52  C   UNL A   1      39.993  28.797  29.094  1.00  0.00     0.031 A 
ATOM     53  C   UNL A   1      46.386  28.215  30.280  1.00  0.00     0.049 A 
ATOM     54  C   UNL A   1      41.025  29.726  29.668  1.00  0.00     0.074 A 
ATOM     55  C   UNL A   1      47.252  29.178  30.768  1.00  0.00     0.029 A 
ATOM     56  N   UNL A   1      45.128  28.796  30.227  1.00  0.00    -0.354 N 
ATOM     57  N   UNL A   1      42.306  29.520  29.859  1.00  0.00    -0.248 NA
ATOM     58  C   UNL A   1      40.562  31.061  30.071  1.00  0.00     0.031 C 
ATOM     59  C   UNL A   1      46.509  30.327  31.054  1.00  0.00     0.029 A 
ATOM     60  C   UNL A   1      45.191  30.099  30.690  1.00  0.00     0.049 A 
ATOM     61  H   UNL A   1      44.312  28.349  29.906  1.00  0.00     0.167 HD
ATOM     62  C   UNL A   1      42.806  30.706  30.381  1.00  0.00     0.074 A 
ATOM     63  C   UNL A   1      41.695  31.632  30.457  1.00  0.00     0.031 C 
ATOM     64  C   UNL A   1      44.073  31.004  30.761  1.00  0.00     0.031 A 
BRANCH  51  65
ATOM     65  C   UNL A   1      48.079  26.346  30.062  1.00  0.00    -0.014 A 
ATOM     66  C   UNL A   1      49.015  26.411  29.018  1.00  0.00     0.009 A 
ATOM     67  C   UNL A   1      48.475  25.798  31.292  1.00  0.00     0.009 A 
ATOM     68  C   UNL A   1      50.303  25.898  29.185  1.00  0.00     0.001 A 
ATOM     69  C   UNL A   1      49.774  25.316  31.468  1.00  0.00     0.001 A 
ATOM     70  C   UNL A   1      50.682  25.355  30.411  1.00  0.00     0.000 A 
ENDBRANCH  51  65
BRANCH  52  71
ATOM     71  C   UNL A   1      38.573  29.221  28.965  1.00  0.00    -0.014 A 
ATOM     72  C   UNL A   1      38.090  29.732  27.751  1.00  0.00     0.009 A 
ATOM     73  C   UNL A   1      37.693  29.115  30.053  1.00  0.00     0.009 A 
ATOM     74  C   UNL A   1      36.762  30.151  27.636  1.00  0.00     0.001 A 
ATOM     75  C   UNL A   1      36.358  29.507  29.928  1.00  0.00     0.001 A 
ATOM     76  C   UNL A   1      35.896  30.034  28.723  1.00  0.00     0.000 A 
ENDBRANCH  52  71
BRANCH  64  77
ATOM     77  C   UNL A   1      44.330  32.397  31.262  1.00  0.00    -0.014 A 
ATOM     78  C   UNL A   1      44.250  32.706  32.628  1.00  0.00     0.009 A 
ATOM     79  C   UNL A   1      44.699  33.403  30.356  1.00  0.00     0.009 A 
ATOM     80  C   UNL A   1      44.504  34.006  33.073  1.00  0.00     0.001 A 
ATOM     81  C   UNL A   1      44.981  34.693  30.806  1.00  0.00     0.001 A 
ATOM     82  C   UNL A   1      44.875  34.995  32.162  1.00  0.00     0.000 A 
ENDBRANCH  64  77
ENDBRANCH  38  39
ENDBRANCH  30  33
ENDBRANCH  28  29
ENDBRANCH  27  28
ENDBRANCH   1  27
TORSDOF 14
ENDMDL
MODEL 3
REMARK VINA RESULT:     -11.4      3.232      7.820
REMARK SMILES COc1ccc(OC)c(NC(=O)[C@@H]2[C@@H](C(=O)NCCCNC(=O)c3ccc(-c4c5nc(c(-c6ccccc6)c6ccc([nH]6)c(-c6ccccc6)c6nc(c(-c7ccccc7)c7ccc4[nH]7)C=C6)C=C5)cc3)[C@H]3C=C[C@@H]2C3)c1
REMARK SMILES IDX 18 1 17 2 15 3 16 4 14 6 13 7 75 8 72 9 74 10 76 11 73 12
REMARK SMILES IDX 11 13 10 14 12 16 9 17 3 18 4 19 77 20 5 21 6 22 2 23 1 24
REMARK SMILES IDX 7 25 8 26 19 27 20 28 21 29 22 30 23 32 24 33 25 34 71 35
REMARK SMILES IDX 26 36 70 37 27 38 28 39 29 40 64 41 30 42 69 43 63 44 65 45
REMARK SMILES IDX 31 46 68 47 62 48 61 49 32 51 54 52 39 53 53 54 40 55 43 56
REMARK SMILES IDX 52 57 66 58 41 59 42 60 51 62 67 63 44 64 33 65 34 66 38 67
REMARK SMILES IDX 35 68 37 69 36 70 55 71 56 72 60 73 57 74 59 75 58 76 45 77
REMARK SMILES IDX 46 78 50 79 47 80 49 81 48 82
REMARK H PARENT 17 5 10 15 21 31 65 50 43 61
REMARK Flexibility Score: inf
ROOT
ATOM      1  C   UNL A   1      34.640  23.740  25.834  1.00  0.00     0.117 C 
ENDROOT
BRANCH   1   2
ATOM      2  N   UNL A   1      34.577  24.772  24.825  1.00  0.00    -0.356 N 
ATOM      3  C   UNL A   1      33.958  25.982  24.874  1.00  0.00     0.224 C 
ATOM      4  O   UNL A   1      34.080  26.699  23.878  1.00  0.00    -0.275 OA
ATOM      5  H   UNL A   1      35.048  24.570  23.984  1.00  0.00     0.163 HD
BRANCH   3   6
ATOM      6  C   UNL A   1      33.059  26.354  26.051  1.00  0.00     0.098 C 
ATOM      7  C   UNL A   1      31.564  26.430  25.613  1.00  0.00     0.099 C 
ATOM      8  C   UNL A   1      31.147  27.827  26.163  1.00  0.00     0.025 C 
ATOM      9  C   UNL A   1      33.290  27.716  26.749  1.00  0.00     0.025 C 
ATOM     10  C   UNL A   1      31.900  28.890  25.381  1.00  0.00    -0.027 C 
ATOM     11  C   UNL A   1      31.946  27.898  27.461  1.00  0.00     0.017 C 
ATOM     12  C   UNL A   1      33.189  28.823  25.742  1.00  0.00    -0.027 C 
BRANCH   7  13
ATOM     13  C   UNL A   1      30.479  25.411  25.979  1.00  0.00     0.229 C 
ATOM     14  N   UNL A   1      30.496  24.069  25.773  1.00  0.00    -0.323 N 
ATOM     15  H   UNL A   1      29.954  23.578  26.433  1.00  0.00     0.170 HD
ATOM     16  O   UNL A   1      29.573  25.792  26.742  1.00  0.00    -0.274 OA
BRANCH  14  17
ATOM     17  C   UNL A   1      31.104  23.222  24.840  1.00  0.00     0.087 A 
ATOM     18  C   UNL A   1      32.382  21.190  24.552  1.00  0.00     0.121 A 
ATOM     19  C   UNL A   1      32.776  21.608  23.288  1.00  0.00     0.050 A 
ATOM     20  C   UNL A   1      31.572  22.000  25.343  1.00  0.00     0.076 A 
ATOM     21  C   UNL A   1      32.185  22.740  22.735  1.00  0.00     0.052 A 
ATOM     22  C   UNL A   1      31.269  23.495  23.477  1.00  0.00     0.142 A 
BRANCH  18  23
ATOM     23  O   UNL A   1      32.847  20.013  25.074  1.00  0.00    -0.497 OA
ATOM     24  C   UNL A   1      34.271  19.952  24.941  1.00  0.00     0.278 C 
ENDBRANCH  18  23
BRANCH  22  25
ATOM     25  O   UNL A   1      30.697  24.529  22.787  1.00  0.00    -0.495 OA
ATOM     26  C   UNL A   1      31.592  25.435  22.149  1.00  0.00     0.278 C 
ENDBRANCH  22  25
ENDBRANCH  14  17
ENDBRANCH   7  13
ENDBRANCH   3   6
ENDBRANCH   1   2
BRANCH   1  27
ATOM     27  C   UNL A   1      36.053  23.420  26.293  1.00  0.00     0.042 C 
BRANCH  27  28
ATOM     28  C   UNL A   1      37.104  23.424  25.195  1.00  0.00     0.118 C 
BRANCH  28  29
ATOM     29  N   UNL A   1      38.274  22.615  25.508  1.00  0.00    -0.352 N 
ATOM     30  C   UNL A   1      39.454  22.927  26.140  1.00  0.00     0.251 C 
ATOM     31  H   UNL A   1      38.208  21.677  25.215  1.00  0.00     0.163 HD
ATOM     32  O   UNL A   1      40.376  22.116  26.136  1.00  0.00    -0.269 OA
BRANCH  30  33
ATOM     33  C   UNL A   1      39.643  24.240  26.797  1.00  0.00     0.039 A 
ATOM     34  C   UNL A   1      39.122  24.437  28.081  1.00  0.00     0.014 A 
ATOM     35  C   UNL A   1      40.303  25.285  26.155  1.00  0.00     0.014 A 
ATOM     36  C   UNL A   1      39.340  25.648  28.743  1.00  0.00     0.010 A 
ATOM     37  C   UNL A   1      40.622  26.443  26.856  1.00  0.00     0.010 A 
ATOM     38  C   UNL A   1      40.134  26.645  28.154  1.00  0.00    -0.014 A 
BRANCH  38  39
ATOM     39  C   UNL A   1      40.454  27.913  28.858  1.00  0.00     0.031 A 
ATOM     40  C   UNL A   1      41.771  28.065  29.573  1.00  0.00     0.074 A 
ATOM     41  C   UNL A   1      39.531  28.892  28.929  1.00  0.00     0.049 A 
ATOM     42  N   UNL A   1      42.193  29.045  30.332  1.00  0.00    -0.248 NA
ATOM     43  C   UNL A   1      42.726  26.951  29.451  1.00  0.00     0.031 C 
ATOM     44  C   UNL A   1      38.197  28.850  28.326  1.00  0.00     0.029 A 
ATOM     45  N   UNL A   1      39.572  30.114  29.555  1.00  0.00    -0.354 N 
ATOM     46  C   UNL A   1      43.442  28.652  30.796  1.00  0.00     0.074 A 
ATOM     47  C   UNL A   1      43.683  27.321  30.287  1.00  0.00     0.031 C 
ATOM     48  C   UNL A   1      37.561  30.004  28.585  1.00  0.00     0.029 A 
ATOM     49  C   UNL A   1      38.420  30.846  29.409  1.00  0.00     0.049 A 
ATOM     50  H   UNL A   1      40.355  30.434  30.060  1.00  0.00     0.167 HD
ATOM     51  C   UNL A   1      44.324  29.344  31.555  1.00  0.00     0.031 A 
ATOM     52  C   UNL A   1      38.087  32.059  29.890  1.00  0.00     0.031 A 
ATOM     53  C   UNL A   1      44.094  30.677  32.042  1.00  0.00     0.049 A 
ATOM     54  C   UNL A   1      39.084  32.812  30.726  1.00  0.00     0.074 A 
ATOM     55  C   UNL A   1      44.945  31.490  32.770  1.00  0.00     0.029 A 
ATOM     56  N   UNL A   1      42.923  31.394  31.847  1.00  0.00    -0.354 N 
ATOM     57  N   UNL A   1      40.287  32.451  31.102  1.00  0.00    -0.248 NA
ATOM     58  C   UNL A   1      38.681  34.146  31.192  1.00  0.00     0.031 C 
ATOM     59  C   UNL A   1      44.271  32.681  33.055  1.00  0.00     0.029 A 
ATOM     60  C   UNL A   1      43.023  32.633  32.455  1.00  0.00     0.049 A 
ATOM     61  H   UNL A   1      42.138  31.070  31.349  1.00  0.00     0.167 HD
ATOM     62  C   UNL A   1      40.794  33.522  31.826  1.00  0.00     0.074 A 
ATOM     63  C   UNL A   1      39.775  34.552  31.820  1.00  0.00     0.031 C 
ATOM     64  C   UNL A   1      41.996  33.643  32.441  1.00  0.00     0.031 A 
BRANCH  51  65
ATOM     65  C   UNL A   1      45.621  28.663  31.901  1.00  0.00    -0.014 A 
ATOM     66  C   UNL A   1      46.750  28.783  31.074  1.00  0.00     0.009 A 
ATOM     67  C   UNL A   1      45.722  27.903  33.077  1.00  0.00     0.009 A 
ATOM     68  C   UNL A   1      47.936  28.119  31.391  1.00  0.00     0.001 A 
ATOM     69  C   UNL A   1      46.920  27.267  33.409  1.00  0.00     0.001 A 
ATOM     70  C   UNL A   1      48.022  27.366  32.561  1.00  0.00     0.000 A 
ENDBRANCH  51  65
BRANCH  52  71
ATOM     71  C   UNL A   1      36.757  32.645  29.577  1.00  0.00    -0.014 A 
ATOM     72  C   UNL A   1      36.537  33.301  28.356  1.00  0.00     0.009 A 
ATOM     73  C   UNL A   1      35.699  32.548  30.494  1.00  0.00     0.009 A 
ATOM     74  C   UNL A   1      35.294  33.870  28.071  1.00  0.00     0.001 A 
ATOM     75  C   UNL A   1      34.448  33.093  30.195  1.00  0.00     0.001 A 
ATOM     76  C   UNL A   1      34.249  33.762  28.989  1.00  0.00     0.000 A 
ENDBRANCH  52  71
BRANCH  64  77
ATOM     77  C   UNL A   1      42.287  34.947  33.128  1.00  0.00    -0.014 A 
ATOM     78  C   UNL A   1      41.790  35.222  34.411  1.00  0.00     0.009 A 
ATOM     79  C   UNL A   1      43.108  35.896  32.498  1.00  0.00     0.009 A 
ATOM     80  C   UNL A   1      42.083  36.436  35.036  1.00  0.00     0.001 A 
ATOM     81  C   UNL A   1      43.423  37.096  33.136  1.00  0.00     0.001 A 
ATOM     82  C   UNL A   1      42.903  37.368  34.400  1.00  0.00     0.000 A 
ENDBRANCH  64  77
ENDBRANCH  38  39
ENDBRANCH  30  33
ENDBRANCH  28  29
ENDBRANCH  27  28
ENDBRANCH   1  27
TORSDOF 14
ENDMDL
