MODEL 1
REMARK VINA RESULT:     -11.1      0.000      0.000
REMARK SMILES CC(C)[C@H](/N=C1\C(=O)C(=O)[C@H]1[NH+]1CCCC1)C(=O)NCCCNC(=O)c1ccc(-c2c3nc(c(-c4ccccc4)c4ccc([nH]4)c(-c4ccccc4)c4nc(c(-c5ccccc5)c5ccc2[nH]5)C=C4)C=C3)cc1
REMARK SMILES IDX 21 1 20 2 19 3 17 4 18 5 4 7 2 8 1 9 3 10 5 11 6 12 7 13
REMARK SMILES IDX 11 14 8 15 9 16 10 17 12 18 13 19 16 20 14 22 15 23 22 24
REMARK SMILES IDX 23 25 24 26 25 28 26 29 27 30 73 31 28 32 72 33 29 34 30 35
REMARK SMILES IDX 31 36 66 37 32 38 71 39 65 40 67 41 33 42 70 43 64 44 63 45
REMARK SMILES IDX 34 47 56 48 41 49 55 50 42 51 45 52 54 53 68 54 43 55 44 56
REMARK SMILES IDX 53 58 69 59 46 60 35 61 36 62 40 63 37 64 39 65 38 66 57 67
REMARK SMILES IDX 58 68 62 69 59 70 61 71 60 72 47 73 48 74 52 75 49 76 51 77
REMARK SMILES IDX 50 78
REMARK H PARENT 19 6 12 21 23 27 67 46 45 57
REMARK Flexibility Score: inf
ROOT
ATOM      1  C   UNL A   1      37.439  19.769  25.003  1.00  0.00     0.042 C 
ENDROOT
BRANCH   1   2
ATOM      2  C   UNL A   1      36.263  20.722  24.845  1.00  0.00     0.117 C 
BRANCH   2   3
ATOM      3  N   UNL A   1      35.742  21.226  26.102  1.00  0.00    -0.354 N 
ATOM      4  C   UNL A   1      34.479  21.409  26.565  1.00  0.00     0.245 C 
ATOM      5  O   UNL A   1      34.382  21.862  27.712  1.00  0.00    -0.273 OA
ATOM      6  H   UNL A   1      36.441  21.487  26.745  1.00  0.00     0.163 HD
BRANCH   4   7
ATOM      7  C   UNL A   1      33.210  21.163  25.724  1.00  0.00     0.197 C 
BRANCH   7   8
ATOM      8  C   UNL A   1      33.186  19.896  24.832  1.00  0.00     0.017 C 
ATOM      9  C   UNL A   1      32.715  18.643  25.583  1.00  0.00     0.010 C 
ATOM     10  C   UNL A   1      32.266  20.101  23.619  1.00  0.00     0.010 C 
ENDBRANCH   7   8
BRANCH   7  11
ATOM     11  N   UNL A   1      32.976  22.384  24.904  1.00  0.00    -0.266 NA
ATOM     12  C   UNL A   1      32.232  23.301  25.415  1.00  0.00     0.153 C 
ATOM     13  C   UNL A   1      31.391  23.401  26.641  1.00  0.00     0.255 C 
ATOM     14  C   UNL A   1      31.693  24.630  24.853  1.00  0.00     0.314 C 
ATOM     15  O   UNL A   1      31.268  22.766  27.632  1.00  0.00    -0.283 OA
ATOM     16  C   UNL A   1      30.684  24.601  26.065  1.00  0.00     0.268 C 
ATOM     17  O   UNL A   1      29.744  25.194  26.519  1.00  0.00    -0.283 OA
BRANCH  14  18
ATOM     18  N   UNL A   1      32.529  25.859  24.812  1.00  0.00    -0.321 N 
ATOM     19  C   UNL A   1      31.796  27.011  24.287  1.00  0.00     0.263 C 
ATOM     20  C   UNL A   1      33.788  25.774  24.061  1.00  0.00     0.263 C 
ATOM     21  H   UNL A   1      32.770  25.970  25.798  1.00  0.00     0.349 HD
ATOM     22  C   UNL A   1      32.174  27.063  22.825  1.00  0.00     0.067 C 
ATOM     23  C   UNL A   1      33.608  26.581  22.783  1.00  0.00     0.067 C 
ENDBRANCH  14  18
ENDBRANCH   7  11
ENDBRANCH   4   7
ENDBRANCH   2   3
ENDBRANCH   1   2
BRANCH   1  24
ATOM     24  C   UNL A   1      38.732  20.425  25.461  1.00  0.00     0.118 C 
BRANCH  24  25
ATOM     25  N   UNL A   1      39.773  19.441  25.699  1.00  0.00    -0.352 N 
ATOM     26  C   UNL A   1      41.081  19.644  26.066  1.00  0.00     0.251 C 
ATOM     27  H   UNL A   1      39.505  18.501  25.580  1.00  0.00     0.163 HD
ATOM     28  O   UNL A   1      41.896  18.733  25.957  1.00  0.00    -0.269 OA
BRANCH  26  29
ATOM     29  C   UNL A   1      41.515  20.962  26.586  1.00  0.00     0.039 A 
ATOM     30  C   UNL A   1      41.401  21.219  27.955  1.00  0.00     0.014 A 
ATOM     31  C   UNL A   1      41.986  21.960  25.727  1.00  0.00     0.014 A 
ATOM     32  C   UNL A   1      41.789  22.462  28.464  1.00  0.00     0.010 A 
ATOM     33  C   UNL A   1      42.447  23.168  26.244  1.00  0.00     0.010 A 
ATOM     34  C   UNL A   1      42.332  23.441  27.615  1.00  0.00    -0.014 A 
BRANCH  34  35
ATOM     35  C   UNL A   1      42.735  24.772  28.138  1.00  0.00     0.031 A 
ATOM     36  C   UNL A   1      41.700  25.846  28.348  1.00  0.00     0.074 A 
ATOM     37  C   UNL A   1      44.032  25.033  28.394  1.00  0.00     0.049 A 
ATOM     38  N   UNL A   1      41.859  27.077  28.765  1.00  0.00    -0.248 NA
ATOM     39  C   UNL A   1      40.306  25.496  28.029  1.00  0.00     0.031 C 
ATOM     40  C   UNL A   1      45.139  24.093  28.211  1.00  0.00     0.029 A 
ATOM     41  N   UNL A   1      44.636  26.172  28.864  1.00  0.00    -0.354 N 
ATOM     42  C   UNL A   1      40.593  27.650  28.741  1.00  0.00     0.074 A 
ATOM     43  C   UNL A   1      39.687  26.650  28.220  1.00  0.00     0.031 C 
ATOM     44  C   UNL A   1      46.281  24.682  28.600  1.00  0.00     0.029 A 
ATOM     45  C   UNL A   1      45.995  26.050  29.020  1.00  0.00     0.049 A 
ATOM     46  H   UNL A   1      44.142  26.998  29.070  1.00  0.00     0.167 HD
ATOM     47  C   UNL A   1      40.210  28.887  29.138  1.00  0.00     0.031 A 
ATOM     48  C   UNL A   1      46.908  26.938  29.456  1.00  0.00     0.031 A 
ATOM     49  C   UNL A   1      41.103  29.881  29.670  1.00  0.00     0.049 A 
ATOM     50  C   UNL A   1      46.463  28.315  29.866  1.00  0.00     0.074 A 
ATOM     51  C   UNL A   1      40.803  31.146  30.144  1.00  0.00     0.029 A 
ATOM     52  N   UNL A   1      42.473  29.719  29.799  1.00  0.00    -0.354 N 
ATOM     53  N   UNL A   1      45.254  28.821  29.888  1.00  0.00    -0.248 NA
ATOM     54  C   UNL A   1      47.512  29.238  30.321  1.00  0.00     0.031 C 
ATOM     55  C   UNL A   1      41.999  31.768  30.517  1.00  0.00     0.029 A 
ATOM     56  C   UNL A   1      43.036  30.871  30.324  1.00  0.00     0.049 A 
ATOM     57  H   UNL A   1      42.972  28.907  29.554  1.00  0.00     0.167 HD
ATOM     58  C   UNL A   1      45.393  30.110  30.385  1.00  0.00     0.074 A 
ATOM     59  C   UNL A   1      46.802  30.304  30.663  1.00  0.00     0.031 C 
ATOM     60  C   UNL A   1      44.438  31.049  30.595  1.00  0.00     0.031 A 
BRANCH  47  61
ATOM     61  C   UNL A   1      38.753  29.232  29.003  1.00  0.00    -0.014 A 
ATOM     62  C   UNL A   1      38.231  29.722  27.795  1.00  0.00     0.009 A 
ATOM     63  C   UNL A   1      37.886  29.045  30.091  1.00  0.00     0.009 A 
ATOM     64  C   UNL A   1      36.880  30.060  27.693  1.00  0.00     0.001 A 
ATOM     65  C   UNL A   1      36.529  29.355  29.977  1.00  0.00     0.001 A 
ATOM     66  C   UNL A   1      36.030  29.871  28.782  1.00  0.00     0.000 A 
ENDBRANCH  47  61
BRANCH  48  67
ATOM     67  C   UNL A   1      48.337  26.549  29.551  1.00  0.00    -0.014 A 
ATOM     68  C   UNL A   1      48.831  25.942  30.716  1.00  0.00     0.009 A 
ATOM     69  C   UNL A   1      49.218  26.786  28.484  1.00  0.00     0.009 A 
ATOM     70  C   UNL A   1      50.181  25.602  30.821  1.00  0.00     0.001 A 
ATOM     71  C   UNL A   1      50.562  26.420  28.581  1.00  0.00     0.001 A 
ATOM     72  C   UNL A   1      51.044  25.837  29.752  1.00  0.00     0.000 A 
ENDBRANCH  48  67
BRANCH  60  73
ATOM     73  C   UNL A   1      44.881  32.358  31.185  1.00  0.00    -0.014 A 
ATOM     74  C   UNL A   1      45.176  33.462  30.370  1.00  0.00     0.009 A 
ATOM     75  C   UNL A   1      44.966  32.497  32.579  1.00  0.00     0.009 A 
ATOM     76  C   UNL A   1      45.581  34.670  30.941  1.00  0.00     0.001 A 
ATOM     77  C   UNL A   1      45.345  33.714  33.147  1.00  0.00     0.001 A 
ATOM     78  C   UNL A   1      45.660  34.797  32.328  1.00  0.00     0.000 A 
ENDBRANCH  60  73
ENDBRANCH  34  35
ENDBRANCH  26  29
ENDBRANCH  24  25
ENDBRANCH   1  24
TORSDOF 13
ENDMDL
MODEL 2
REMARK VINA RESULT:     -11.0      3.467      8.824
REMARK SMILES CC(C)[C@H](/N=C1\C(=O)C(=O)[C@H]1[NH+]1CCCC1)C(=O)NCCCNC(=O)c1ccc(-c2c3nc(c(-c4ccccc4)c4ccc([nH]4)c(-c4ccccc4)c4nc(c(-c5ccccc5)c5ccc2[nH]5)C=C4)C=C3)cc1
REMARK SMILES IDX 21 1 20 2 19 3 17 4 18 5 4 7 2 8 1 9 3 10 5 11 6 12 7 13
REMARK SMILES IDX 11 14 8 15 9 16 10 17 12 18 13 19 16 20 14 22 15 23 22 24
REMARK SMILES IDX 23 25 24 26 25 28 26 29 27 30 73 31 28 32 72 33 29 34 30 35
REMARK SMILES IDX 31 36 66 37 32 38 71 39 65 40 67 41 33 42 70 43 64 44 63 45
REMARK SMILES IDX 34 47 56 48 41 49 55 50 42 51 45 52 54 53 68 54 43 55 44 56
REMARK SMILES IDX 53 58 69 59 46 60 35 61 36 62 40 63 37 64 39 65 38 66 57 67
REMARK SMILES IDX 58 68 62 69 59 70 61 71 60 72 47 73 48 74 52 75 49 76 51 77
REMARK SMILES IDX 50 78
REMARK H PARENT 19 6 12 21 23 27 67 46 45 57
REMARK Flexibility Score: inf
ROOT
ATOM      1  C   UNL A   1      31.376  31.551  26.224  1.00  0.00     0.042 C 
ENDROOT
BRANCH   1   2
ATOM      2  C   UNL A   1      31.457  30.096  25.784  1.00  0.00     0.117 C 
BRANCH   2   3
ATOM      3  N   UNL A   1      32.621  29.792  24.971  1.00  0.00    -0.354 N 
ATOM      4  C   UNL A   1      32.786  29.048  23.847  1.00  0.00     0.245 C 
ATOM      5  O   UNL A   1      33.935  28.999  23.394  1.00  0.00    -0.273 OA
ATOM      6  H   UNL A   1      33.452  30.204  25.299  1.00  0.00     0.163 HD
BRANCH   4   7
ATOM      7  C   UNL A   1      31.661  28.227  23.185  1.00  0.00     0.197 C 
BRANCH   7   8
ATOM      8  C   UNL A   1      30.251  28.869  23.136  1.00  0.00     0.017 C 
ATOM      9  C   UNL A   1      30.041  29.759  21.904  1.00  0.00     0.010 C 
ATOM     10  C   UNL A   1      29.160  27.787  23.137  1.00  0.00     0.010 C 
ENDBRANCH   7   8
BRANCH   7  11
ATOM     11  N   UNL A   1      31.610  26.906  23.871  1.00  0.00    -0.266 NA
ATOM     12  C   UNL A   1      32.299  25.949  23.355  1.00  0.00     0.153 C 
ATOM     13  C   UNL A   1      33.079  25.785  22.096  1.00  0.00     0.255 C 
ATOM     14  C   UNL A   1      32.424  24.455  23.709  1.00  0.00     0.314 C 
ATOM     15  O   UNL A   1      33.481  26.512  21.254  1.00  0.00    -0.283 OA
ATOM     16  C   UNL A   1      33.075  24.289  22.282  1.00  0.00     0.268 C 
ATOM     17  O   UNL A   1      33.485  23.450  21.529  1.00  0.00    -0.283 OA
BRANCH  14  18
ATOM     18  N   UNL A   1      33.299  23.983  24.814  1.00  0.00    -0.321 N 
ATOM     19  C   UNL A   1      33.295  22.526  24.940  1.00  0.00     0.263 C 
ATOM     20  C   UNL A   1      33.026  24.529  26.149  1.00  0.00     0.263 C 
ATOM     21  H   UNL A   1      34.207  24.343  24.518  1.00  0.00     0.349 HD
ATOM     22  C   UNL A   1      32.279  22.245  26.023  1.00  0.00     0.067 C 
ATOM     23  C   UNL A   1      32.402  23.414  26.977  1.00  0.00     0.067 C 
ENDBRANCH  14  18
ENDBRANCH   7  11
ENDBRANCH   4   7
ENDBRANCH   2   3
ENDBRANCH   1   2
BRANCH   1  24
ATOM     24  C   UNL A   1      32.613  32.068  26.943  1.00  0.00     0.118 C 
BRANCH  24  25
ATOM     25  N   UNL A   1      32.429  33.433  27.404  1.00  0.00    -0.352 N 
ATOM     26  C   UNL A   1      33.133  34.119  28.363  1.00  0.00     0.251 C 
ATOM     27  H   UNL A   1      31.700  33.933  26.971  1.00  0.00     0.163 HD
ATOM     28  O   UNL A   1      32.679  35.160  28.828  1.00  0.00    -0.269 OA
BRANCH  26  29
ATOM     29  C   UNL A   1      34.434  33.602  28.847  1.00  0.00     0.039 A 
ATOM     30  C   UNL A   1      35.592  33.907  28.128  1.00  0.00     0.014 A 
ATOM     31  C   UNL A   1      34.512  32.779  29.975  1.00  0.00     0.014 A 
ATOM     32  C   UNL A   1      36.829  33.416  28.558  1.00  0.00     0.010 A 
ATOM     33  C   UNL A   1      35.752  32.356  30.448  1.00  0.00     0.010 A 
ATOM     34  C   UNL A   1      36.921  32.650  29.731  1.00  0.00    -0.014 A 
BRANCH  34  35
ATOM     35  C   UNL A   1      38.226  32.109  30.193  1.00  0.00     0.031 A 
ATOM     36  C   UNL A   1      38.725  30.790  29.665  1.00  0.00     0.074 A 
ATOM     37  C   UNL A   1      38.949  32.779  31.111  1.00  0.00     0.049 A 
ATOM     38  N   UNL A   1      39.819  30.137  29.969  1.00  0.00    -0.248 NA
ATOM     39  C   UNL A   1      37.872  30.103  28.680  1.00  0.00     0.031 C 
ATOM     40  C   UNL A   1      38.571  34.054  31.723  1.00  0.00     0.029 A 
ATOM     41  N   UNL A   1      40.157  32.477  31.687  1.00  0.00    -0.354 N 
ATOM     42  C   UNL A   1      39.777  28.963  29.229  1.00  0.00     0.074 A 
ATOM     43  C   UNL A   1      38.526  28.966  28.502  1.00  0.00     0.031 C 
ATOM     44  C   UNL A   1      39.546  34.442  32.562  1.00  0.00     0.029 A 
ATOM     45  C   UNL A   1      40.595  33.427  32.577  1.00  0.00     0.049 A 
ATOM     46  H   UNL A   1      40.662  31.657  31.483  1.00  0.00     0.167 HD
ATOM     47  C   UNL A   1      40.702  27.978  29.140  1.00  0.00     0.031 A 
ATOM     48  C   UNL A   1      41.717  33.478  33.320  1.00  0.00     0.031 A 
ATOM     49  C   UNL A   1      41.953  27.974  29.849  1.00  0.00     0.049 A 
ATOM     50  C   UNL A   1      42.718  32.360  33.225  1.00  0.00     0.074 A 
ATOM     51  C   UNL A   1      42.977  27.044  29.789  1.00  0.00     0.029 A 
ATOM     52  N   UNL A   1      42.350  28.950  30.749  1.00  0.00    -0.354 N 
ATOM     53  N   UNL A   1      42.686  31.283  32.479  1.00  0.00    -0.248 NA
ATOM     54  C   UNL A   1      43.914  32.473  34.071  1.00  0.00     0.031 C 
ATOM     55  C   UNL A   1      43.975  27.435  30.687  1.00  0.00     0.029 A 
ATOM     56  C   UNL A   1      43.594  28.633  31.268  1.00  0.00     0.049 A 
ATOM     57  H   UNL A   1      41.826  29.748  30.985  1.00  0.00     0.167 HD
ATOM     58  C   UNL A   1      43.869  30.605  32.742  1.00  0.00     0.074 A 
ATOM     59  C   UNL A   1      44.602  31.399  33.708  1.00  0.00     0.031 C 
ATOM     60  C   UNL A   1      44.311  29.432  32.228  1.00  0.00     0.031 A 
BRANCH  47  61
ATOM     61  C   UNL A   1      40.385  26.815  28.241  1.00  0.00    -0.014 A 
ATOM     62  C   UNL A   1      40.883  26.753  26.929  1.00  0.00     0.009 A 
ATOM     63  C   UNL A   1      39.595  25.757  28.717  1.00  0.00     0.009 A 
ATOM     64  C   UNL A   1      40.561  25.678  26.099  1.00  0.00     0.001 A 
ATOM     65  C   UNL A   1      39.299  24.668  27.895  1.00  0.00     0.001 A 
ATOM     66  C   UNL A   1      39.773  24.634  26.584  1.00  0.00     0.000 A 
ENDBRANCH  47  61
BRANCH  48  67
ATOM     67  C   UNL A   1      41.969  34.643  34.206  1.00  0.00    -0.014 A 
ATOM     68  C   UNL A   1      42.620  35.782  33.710  1.00  0.00     0.009 A 
ATOM     69  C   UNL A   1      41.570  34.621  35.551  1.00  0.00     0.009 A 
ATOM     70  C   UNL A   1      42.887  36.868  34.548  1.00  0.00     0.001 A 
ATOM     71  C   UNL A   1      41.814  35.718  36.380  1.00  0.00     0.001 A 
ATOM     72  C   UNL A   1      42.479  36.836  35.880  1.00  0.00     0.000 A 
ENDBRANCH  48  67
BRANCH  60  73
ATOM     73  C   UNL A   1      45.664  28.952  32.674  1.00  0.00    -0.014 A 
ATOM     74  C   UNL A   1      46.833  29.347  32.006  1.00  0.00     0.009 A 
ATOM     75  C   UNL A   1      45.769  28.123  33.801  1.00  0.00     0.009 A 
ATOM     76  C   UNL A   1      48.079  28.893  32.441  1.00  0.00     0.001 A 
ATOM     77  C   UNL A   1      47.018  27.693  34.249  1.00  0.00     0.001 A 
ATOM     78  C   UNL A   1      48.172  28.071  33.564  1.00  0.00     0.000 A 
ENDBRANCH  60  73
ENDBRANCH  34  35
ENDBRANCH  26  29
ENDBRANCH  24  25
ENDBRANCH   1  24
TORSDOF 13
ENDMDL
MODEL 3
REMARK VINA RESULT:     -11.0      1.125      6.104
REMARK SMILES CC(C)[C@H](/N=C1\C(=O)C(=O)[C@H]1[NH+]1CCCC1)C(=O)NCCCNC(=O)c1ccc(-c2c3nc(c(-c4ccccc4)c4ccc([nH]4)c(-c4ccccc4)c4nc(c(-c5ccccc5)c5ccc2[nH]5)C=C4)C=C3)cc1
REMARK SMILES IDX 21 1 20 2 19 3 17 4 18 5 4 7 2 8 1 9 3 10 5 11 6 12 7 13
REMARK SMILES IDX 11 14 8 15 9 16 10 17 12 18 13 19 16 20 14 22 15 23 22 24
REMARK SMILES IDX 23 25 24 26 25 28 26 29 27 30 73 31 28 32 72 33 29 34 30 35
REMARK SMILES IDX 31 36 66 37 32 38 71 39 65 40 67 41 33 42 70 43 64 44 63 45
REMARK SMILES IDX 34 47 56 48 41 49 55 50 42 51 45 52 54 53 68 54 43 55 44 56
REMARK SMILES IDX 53 58 69 59 46 60 35 61 36 62 40 63 37 64 39 65 38 66 57 67
REMARK SMILES IDX 58 68 62 69 59 70 61 71 60 72 47 73 48 74 52 75 49 76 51 77
REMARK SMILES IDX 50 78
REMARK H PARENT 19 6 12 21 23 27 67 46 45 57
REMARK Flexibility Score: inf
ROOT
ATOM      1  C   UNL A   1      37.386  19.556  24.985  1.00  0.00     0.042 C 
ENDROOT
BRANCH   1   2
ATOM      2  C   UNL A   1      36.136  20.413  25.124  1.00  0.00     0.117 C 
BRANCH   2   3
ATOM      3  N   UNL A   1      36.409  21.803  25.443  1.00  0.00    -0.354 N 
ATOM      4  C   UNL A   1      35.634  22.918  25.425  1.00  0.00     0.245 C 
ATOM      5  O   UNL A   1      36.187  23.968  25.769  1.00  0.00    -0.273 OA
ATOM      6  H   UNL A   1      37.336  21.970  25.726  1.00  0.00     0.163 HD
BRANCH   4   7
ATOM      7  C   UNL A   1      34.172  22.943  24.934  1.00  0.00     0.197 C 
BRANCH   7   8
ATOM      8  C   UNL A   1      33.859  22.204  23.608  1.00  0.00     0.017 C 
ATOM      9  C   UNL A   1      32.621  21.301  23.702  1.00  0.00     0.010 C 
ATOM     10  C   UNL A   1      33.633  23.207  22.467  1.00  0.00     0.010 C 
ENDBRANCH   7   8
BRANCH   7  11
ATOM     11  N   UNL A   1      33.754  24.369  24.849  1.00  0.00    -0.266 NA
ATOM     12  C   UNL A   1      32.697  24.711  25.499  1.00  0.00     0.153 C 
ATOM     13  C   UNL A   1      31.650  23.967  26.255  1.00  0.00     0.255 C 
ATOM     14  C   UNL A   1      31.913  26.035  25.578  1.00  0.00     0.314 C 
ATOM     15  O   UNL A   1      31.532  22.866  26.668  1.00  0.00    -0.283 OA
ATOM     16  C   UNL A   1      30.748  25.175  26.203  1.00  0.00     0.268 C 
ATOM     17  O   UNL A   1      29.611  25.264  26.574  1.00  0.00    -0.283 OA
BRANCH  14  18
ATOM     18  N   UNL A   1      32.353  27.153  26.452  1.00  0.00    -0.321 N 
ATOM     19  C   UNL A   1      31.626  28.392  26.177  1.00  0.00     0.263 C 
ATOM     20  C   UNL A   1      33.784  27.483  26.429  1.00  0.00     0.263 C 
ATOM     21  H   UNL A   1      32.143  26.779  27.378  1.00  0.00     0.349 HD
ATOM     22  C   UNL A   1      32.531  29.160  25.242  1.00  0.00     0.067 C 
ATOM     23  C   UNL A   1      33.933  28.804  25.687  1.00  0.00     0.067 C 
ENDBRANCH  14  18
ENDBRANCH   7  11
ENDBRANCH   4   7
ENDBRANCH   2   3
ENDBRANCH   1   2
BRANCH   1  24
ATOM     24  C   UNL A   1      38.687  20.270  25.320  1.00  0.00     0.118 C 
BRANCH  24  25
ATOM     25  N   UNL A   1      39.747  19.326  25.627  1.00  0.00    -0.352 N 
ATOM     26  C   UNL A   1      41.024  19.580  26.066  1.00  0.00     0.251 C 
ATOM     27  H   UNL A   1      39.520  18.376  25.504  1.00  0.00     0.163 HD
ATOM     28  O   UNL A   1      41.876  18.699  26.013  1.00  0.00    -0.269 OA
BRANCH  26  29
ATOM     29  C   UNL A   1      41.380  20.918  26.594  1.00  0.00     0.039 A 
ATOM     30  C   UNL A   1      41.170  21.187  27.949  1.00  0.00     0.014 A 
ATOM     31  C   UNL A   1      41.872  21.921  25.753  1.00  0.00     0.014 A 
ATOM     32  C   UNL A   1      41.484  22.448  28.465  1.00  0.00     0.010 A 
ATOM     33  C   UNL A   1      42.259  23.150  26.282  1.00  0.00     0.010 A 
ATOM     34  C   UNL A   1      42.047  23.435  27.639  1.00  0.00    -0.014 A 
BRANCH  34  35
ATOM     35  C   UNL A   1      42.372  24.785  28.169  1.00  0.00     0.031 A 
ATOM     36  C   UNL A   1      43.787  25.119  28.564  1.00  0.00     0.074 A 
ATOM     37  C   UNL A   1      41.398  25.701  28.329  1.00  0.00     0.049 A 
ATOM     38  N   UNL A   1      44.263  26.227  29.074  1.00  0.00    -0.248 NA
ATOM     39  C   UNL A   1      44.795  24.061  28.381  1.00  0.00     0.031 C 
ATOM     40  C   UNL A   1      39.984  25.501  28.010  1.00  0.00     0.029 A 
ATOM     41  N   UNL A   1      41.455  26.988  28.801  1.00  0.00    -0.354 N 
ATOM     42  C   UNL A   1      45.616  25.994  29.287  1.00  0.00     0.074 A 
ATOM     43  C   UNL A   1      45.875  24.624  28.901  1.00  0.00     0.031 C 
ATOM     44  C   UNL A   1      39.314  26.637  28.261  1.00  0.00     0.029 A 
ATOM     45  C   UNL A   1      40.241  27.630  28.795  1.00  0.00     0.049 A 
ATOM     46  H   UNL A   1      42.287  27.411  29.115  1.00  0.00     0.167 HD
ATOM     47  C   UNL A   1      46.567  26.845  29.740  1.00  0.00     0.031 A 
ATOM     48  C   UNL A   1      39.911  28.879  29.175  1.00  0.00     0.031 A 
ATOM     49  C   UNL A   1      46.320  28.212  30.112  1.00  0.00     0.049 A 
ATOM     50  C   UNL A   1      40.978  29.799  29.700  1.00  0.00     0.074 A 
ATOM     51  C   UNL A   1      47.226  29.169  30.538  1.00  0.00     0.029 A 
ATOM     52  N   UNL A   1      45.073  28.817  30.103  1.00  0.00    -0.354 N 
ATOM     53  N   UNL A   1      42.262  29.579  29.843  1.00  0.00    -0.248 NA
ATOM     54  C   UNL A   1      40.548  31.144  30.106  1.00  0.00     0.031 C 
ATOM     55  C   UNL A   1      46.520  30.340  30.830  1.00  0.00     0.029 A 
ATOM     56  C   UNL A   1      45.183  30.128  30.537  1.00  0.00     0.049 A 
ATOM     57  H   UNL A   1      44.235  28.381  29.829  1.00  0.00     0.167 HD
ATOM     58  C   UNL A   1      42.798  30.765  30.328  1.00  0.00     0.074 A 
ATOM     59  C   UNL A   1      41.701  31.705  30.443  1.00  0.00     0.031 C 
ATOM     60  C   UNL A   1      44.083  31.051  30.647  1.00  0.00     0.031 A 
BRANCH  47  61
ATOM     61  C   UNL A   1      47.968  26.312  29.861  1.00  0.00    -0.014 A 
ATOM     62  C   UNL A   1      48.860  26.361  28.778  1.00  0.00     0.009 A 
ATOM     63  C   UNL A   1      48.408  25.773  31.079  1.00  0.00     0.009 A 
ATOM     64  C   UNL A   1      50.150  25.840  28.899  1.00  0.00     0.001 A 
ATOM     65  C   UNL A   1      49.709  25.281  31.207  1.00  0.00     0.001 A 
ATOM     66  C   UNL A   1      50.574  25.305  30.115  1.00  0.00     0.000 A 
ENDBRANCH  47  61
BRANCH  48  67
ATOM     67  C   UNL A   1      38.507  29.347  29.051  1.00  0.00    -0.014 A 
ATOM     68  C   UNL A   1      38.049  29.903  27.847  1.00  0.00     0.009 A 
ATOM     69  C   UNL A   1      37.620  29.248  30.134  1.00  0.00     0.009 A 
ATOM     70  C   UNL A   1      36.738  30.372  27.736  1.00  0.00     0.001 A 
ATOM     71  C   UNL A   1      36.302  29.693  30.012  1.00  0.00     0.001 A 
ATOM     72  C   UNL A   1      35.865  30.262  28.817  1.00  0.00     0.000 A 
ENDBRANCH  48  67
BRANCH  60  73
ATOM     73  C   UNL A   1      44.380  32.447  31.118  1.00  0.00    -0.014 A 
ATOM     74  C   UNL A   1      44.688  33.472  30.210  1.00  0.00     0.009 A 
ATOM     75  C   UNL A   1      44.314  32.746  32.487  1.00  0.00     0.009 A 
ATOM     76  C   UNL A   1      44.955  34.763  30.669  1.00  0.00     0.001 A 
ATOM     77  C   UNL A   1      44.555  34.043  32.941  1.00  0.00     0.001 A 
ATOM     78  C   UNL A   1      44.884  35.049  32.033  1.00  0.00     0.000 A 
ENDBRANCH  60  73
ENDBRANCH  34  35
ENDBRANCH  26  29
ENDBRANCH  24  25
ENDBRANCH   1  24
TORSDOF 13
ENDMDL
