MODEL 1
REMARK VINA RESULT:     -10.0      0.000      0.000
REMARK SMILES CCC(CC)Oc1ccc(OC)cc1/C=C/C(=O)NCCCNC(=O)c1ccc(-c2c3nc(c(-c4ccccc4)c4ccc([nH]4)c(-c4ccccc4)c4nc(c(-c5ccccc5)c5ccc2[nH]5)C=C4)C=C3)cc1
REMARK SMILES IDX 20 1 19 2 17 3 18 4 16 6 15 7 14 8 7 9 8 10 9 11 13 12 10 13
REMARK SMILES IDX 6 14 3 15 2 16 1 17 4 18 5 19 11 20 12 21 21 22 22 23 23 24
REMARK SMILES IDX 24 25 25 27 26 28 27 29 73 30 28 31 72 32 29 33 30 34 31 35
REMARK SMILES IDX 66 36 32 37 71 38 65 39 67 40 33 41 70 42 64 43 63 44 34 46
REMARK SMILES IDX 56 47 41 48 55 49 42 50 45 51 54 52 68 53 43 54 44 55 53 57
REMARK SMILES IDX 69 58 46 59 35 60 36 61 40 62 37 63 39 64 38 65 57 66 58 67
REMARK SMILES IDX 62 68 59 69 61 70 60 71 47 72 48 73 52 74 49 75 51 76 50 77
REMARK H PARENT 19 5 23 26 67 45 45 56
REMARK Flexibility Score: inf
ROOT
ATOM      1  C   UNL A   1      31.571  30.016  25.574  1.00  0.00     0.118 C 
ENDROOT
BRANCH   1   2
ATOM      2  N   UNL A   1      32.692  29.698  24.719  1.00  0.00    -0.352 N 
ATOM      3  C   UNL A   1      33.329  28.520  24.515  1.00  0.00     0.244 C 
ATOM      4  O   UNL A   1      34.130  28.420  23.587  1.00  0.00    -0.270 OA
ATOM      5  H   UNL A   1      33.049  30.457  24.204  1.00  0.00     0.163 HD
BRANCH   3   6
ATOM      6  C   UNL A   1      33.038  27.323  25.333  1.00  0.00     0.072 C 
ATOM      7  C   UNL A   1      33.887  26.298  25.522  1.00  0.00     0.018 C 
BRANCH   7   8
ATOM      8  C   UNL A   1      33.438  24.999  26.076  1.00  0.00     0.020 A 
ATOM      9  C   UNL A   1      34.213  23.828  26.034  1.00  0.00     0.127 A 
ATOM     10  C   UNL A   1      33.646  22.594  26.378  1.00  0.00     0.051 A 
ATOM     11  C   UNL A   1      32.343  22.525  26.867  1.00  0.00     0.050 A 
ATOM     12  C   UNL A   1      32.114  24.901  26.559  1.00  0.00     0.058 A 
ATOM     13  C   UNL A   1      31.579  23.683  26.986  1.00  0.00     0.119 A 
BRANCH   9  14
ATOM     14  O   UNL A   1      35.483  23.800  25.538  1.00  0.00    -0.490 OA
BRANCH  14  15
ATOM     15  C   UNL A   1      35.748  22.930  24.410  1.00  0.00     0.172 C 
BRANCH  15  16
ATOM     16  C   UNL A   1      35.204  23.587  23.142  1.00  0.00     0.042 C 
ATOM     17  C   UNL A   1      33.852  23.089  22.665  1.00  0.00     0.008 C 
ENDBRANCH  15  16
BRANCH  15  18
ATOM     18  C   UNL A   1      37.153  22.306  24.269  1.00  0.00     0.042 C 
ATOM     19  C   UNL A   1      37.422  21.021  25.047  1.00  0.00     0.008 C 
ENDBRANCH  15  18
ENDBRANCH  14  15
ENDBRANCH   9  14
BRANCH  13  20
ATOM     20  O   UNL A   1      30.321  23.498  27.488  1.00  0.00    -0.497 OA
ATOM     21  C   UNL A   1      29.518  22.519  26.837  1.00  0.00     0.278 C 
ENDBRANCH  13  20
ENDBRANCH   7   8
ENDBRANCH   3   6
ENDBRANCH   1   2
BRANCH   1  22
ATOM     22  C   UNL A   1      32.026  30.457  26.961  1.00  0.00     0.042 C 
BRANCH  22  23
ATOM     23  C   UNL A   1      33.052  31.582  26.923  1.00  0.00     0.118 C 
BRANCH  23  24
ATOM     24  N   UNL A   1      32.545  32.873  27.371  1.00  0.00    -0.352 N 
ATOM     25  C   UNL A   1      33.119  33.786  28.230  1.00  0.00     0.251 C 
ATOM     26  H   UNL A   1      31.667  33.130  27.007  1.00  0.00     0.163 HD
ATOM     27  O   UNL A   1      32.514  34.810  28.523  1.00  0.00    -0.269 OA
BRANCH  25  28
ATOM     28  C   UNL A   1      34.435  33.501  28.851  1.00  0.00     0.039 A 
ATOM     29  C   UNL A   1      34.465  32.835  30.081  1.00  0.00     0.014 A 
ATOM     30  C   UNL A   1      35.631  33.831  28.213  1.00  0.00     0.014 A 
ATOM     31  C   UNL A   1      35.685  32.397  30.606  1.00  0.00     0.010 A 
ATOM     32  C   UNL A   1      36.834  33.318  28.690  1.00  0.00     0.010 A 
ATOM     33  C   UNL A   1      36.871  32.574  29.879  1.00  0.00    -0.014 A 
BRANCH  33  34
ATOM     34  C   UNL A   1      38.152  31.947  30.301  1.00  0.00     0.031 A 
ATOM     35  C   UNL A   1      39.104  32.689  31.200  1.00  0.00     0.074 A 
ATOM     36  C   UNL A   1      38.515  30.760  29.773  1.00  0.00     0.049 A 
ATOM     37  N   UNL A   1      40.324  32.371  31.552  1.00  0.00    -0.248 NA
ATOM     38  C   UNL A   1      38.638  33.973  31.747  1.00  0.00     0.031 C 
ATOM     39  C   UNL A   1      37.715  29.962  28.837  1.00  0.00     0.029 A 
ATOM     40  N   UNL A   1      39.666  30.025  29.928  1.00  0.00    -0.354 N 
ATOM     41  C   UNL A   1      40.784  33.431  32.321  1.00  0.00     0.074 A 
ATOM     42  C   UNL A   1      39.724  34.415  32.365  1.00  0.00     0.031 C 
ATOM     43  C   UNL A   1      38.390  28.845  28.520  1.00  0.00     0.029 A 
ATOM     44  C   UNL A   1      39.687  28.867  29.186  1.00  0.00     0.049 A 
ATOM     45  H   UNL A   1      40.405  30.301  30.515  1.00  0.00     0.167 HD
ATOM     46  C   UNL A   1      41.977  33.568  32.946  1.00  0.00     0.031 A 
ATOM     47  C   UNL A   1      40.648  27.937  29.040  1.00  0.00     0.031 A 
ATOM     48  C   UNL A   1      43.011  32.569  32.947  1.00  0.00     0.049 A 
ATOM     49  C   UNL A   1      41.953  28.106  29.766  1.00  0.00     0.074 A 
ATOM     50  C   UNL A   1      44.206  32.571  33.647  1.00  0.00     0.029 A 
ATOM     51  N   UNL A   1      42.975  31.395  32.215  1.00  0.00    -0.354 N 
ATOM     52  N   UNL A   1      42.332  29.071  30.566  1.00  0.00    -0.248 NA
ATOM     53  C   UNL A   1      42.962  27.054  29.567  1.00  0.00     0.031 C 
ATOM     54  C   UNL A   1      44.914  31.416  33.302  1.00  0.00     0.029 A 
ATOM     55  C   UNL A   1      44.141  30.678  32.421  1.00  0.00     0.049 A 
ATOM     56  H   UNL A   1      42.231  31.112  31.635  1.00  0.00     0.167 HD
ATOM     57  C   UNL A   1      43.614  28.735  30.981  1.00  0.00     0.074 A 
ATOM     58  C   UNL A   1      43.940  27.468  30.360  1.00  0.00     0.031 C 
ATOM     59  C   UNL A   1      44.449  29.419  31.798  1.00  0.00     0.031 A 
BRANCH  46  60
ATOM     60  C   UNL A   1      42.236  34.847  33.688  1.00  0.00    -0.014 A 
ATOM     61  C   UNL A   1      41.931  34.974  35.052  1.00  0.00     0.009 A 
ATOM     62  C   UNL A   1      42.858  35.919  33.027  1.00  0.00     0.009 A 
ATOM     63  C   UNL A   1      42.219  36.158  35.732  1.00  0.00     0.001 A 
ATOM     64  C   UNL A   1      43.167  37.093  33.717  1.00  0.00     0.001 A 
ATOM     65  C   UNL A   1      42.842  37.214  35.066  1.00  0.00     0.000 A 
ENDBRANCH  46  60
BRANCH  47  66
ATOM     66  C   UNL A   1      40.428  26.758  28.161  1.00  0.00    -0.014 A 
ATOM     67  C   UNL A   1      40.884  26.767  26.834  1.00  0.00     0.009 A 
ATOM     68  C   UNL A   1      39.735  25.632  28.633  1.00  0.00     0.009 A 
ATOM     69  C   UNL A   1      40.622  25.687  25.988  1.00  0.00     0.001 A 
ATOM     70  C   UNL A   1      39.499  24.542  27.793  1.00  0.00     0.001 A 
ATOM     71  C   UNL A   1      39.932  24.575  26.469  1.00  0.00     0.000 A 
ENDBRANCH  47  66
BRANCH  59  72
ATOM     72  C   UNL A   1      45.786  28.802  32.085  1.00  0.00    -0.014 A 
ATOM     73  C   UNL A   1      45.952  27.900  33.148  1.00  0.00     0.009 A 
ATOM     74  C   UNL A   1      46.880  29.089  31.255  1.00  0.00     0.009 A 
ATOM     75  C   UNL A   1      47.196  27.318  33.388  1.00  0.00     0.001 A 
ATOM     76  C   UNL A   1      48.116  28.486  31.483  1.00  0.00     0.001 A 
ATOM     77  C   UNL A   1      48.276  27.606  32.553  1.00  0.00     0.000 A 
ENDBRANCH  59  72
ENDBRANCH  33  34
ENDBRANCH  25  28
ENDBRANCH  23  24
ENDBRANCH  22  23
ENDBRANCH   1  22
TORSDOF 16
ENDMDL
MODEL 2
REMARK VINA RESULT:     -10.0      1.969      7.496
REMARK SMILES CCC(CC)Oc1ccc(OC)cc1/C=C/C(=O)NCCCNC(=O)c1ccc(-c2c3nc(c(-c4ccccc4)c4ccc([nH]4)c(-c4ccccc4)c4nc(c(-c5ccccc5)c5ccc2[nH]5)C=C4)C=C3)cc1
REMARK SMILES IDX 20 1 19 2 17 3 18 4 16 6 15 7 14 8 7 9 8 10 9 11 13 12 10 13
REMARK SMILES IDX 6 14 3 15 2 16 1 17 4 18 5 19 11 20 12 21 21 22 22 23 23 24
REMARK SMILES IDX 24 25 25 27 26 28 27 29 73 30 28 31 72 32 29 33 30 34 31 35
REMARK SMILES IDX 66 36 32 37 71 38 65 39 67 40 33 41 70 42 64 43 63 44 34 46
REMARK SMILES IDX 56 47 41 48 55 49 42 50 45 51 54 52 68 53 43 54 44 55 53 57
REMARK SMILES IDX 69 58 46 59 35 60 36 61 40 62 37 63 39 64 38 65 57 66 58 67
REMARK SMILES IDX 62 68 59 69 61 70 60 71 47 72 48 73 52 74 49 75 51 76 50 77
REMARK H PARENT 19 5 23 26 67 45 45 56
REMARK Flexibility Score: inf
ROOT
ATOM      1  C   UNL A   1      35.265  22.190  24.411  1.00  0.00     0.118 C 
ENDROOT
BRANCH   1   2
ATOM      2  N   UNL A   1      34.975  22.218  25.827  1.00  0.00    -0.352 N 
ATOM      3  C   UNL A   1      34.214  23.077  26.546  1.00  0.00     0.244 C 
ATOM      4  O   UNL A   1      33.931  22.801  27.711  1.00  0.00    -0.270 OA
ATOM      5  H   UNL A   1      35.399  21.501  26.351  1.00  0.00     0.163 HD
BRANCH   3   6
ATOM      6  C   UNL A   1      33.649  24.307  25.951  1.00  0.00     0.072 C 
ATOM      7  C   UNL A   1      34.369  25.381  25.583  1.00  0.00     0.018 C 
BRANCH   7   8
ATOM      8  C   UNL A   1      33.735  26.689  25.294  1.00  0.00     0.020 A 
ATOM      9  C   UNL A   1      33.394  27.117  24.000  1.00  0.00     0.127 A 
ATOM     10  C   UNL A   1      33.000  28.443  23.776  1.00  0.00     0.051 A 
ATOM     11  C   UNL A   1      32.838  29.323  24.844  1.00  0.00     0.050 A 
ATOM     12  C   UNL A   1      33.580  27.606  26.358  1.00  0.00     0.058 A 
ATOM     13  C   UNL A   1      33.101  28.901  26.145  1.00  0.00     0.119 A 
BRANCH   9  14
ATOM     14  O   UNL A   1      33.554  26.333  22.896  1.00  0.00    -0.490 OA
BRANCH  14  15
ATOM     15  C   UNL A   1      32.366  25.771  22.288  1.00  0.00     0.172 C 
BRANCH  15  16
ATOM     16  C   UNL A   1      32.782  24.916  21.092  1.00  0.00     0.042 C 
ATOM     17  C   UNL A   1      32.478  25.497  19.723  1.00  0.00     0.008 C 
ENDBRANCH  15  16
BRANCH  15  18
ATOM     18  C   UNL A   1      31.293  25.138  23.200  1.00  0.00     0.042 C 
ATOM     19  C   UNL A   1      30.133  26.032  23.629  1.00  0.00     0.008 C 
ENDBRANCH  15  18
ENDBRANCH  14  15
ENDBRANCH   9  14
BRANCH  13  20
ATOM     20  O   UNL A   1      32.897  29.844  27.113  1.00  0.00    -0.497 OA
ATOM     21  C   UNL A   1      34.031  30.620  27.489  1.00  0.00     0.278 C 
ENDBRANCH  13  20
ENDBRANCH   7   8
ENDBRANCH   3   6
ENDBRANCH   1   2
BRANCH   1  22
ATOM     22  C   UNL A   1      36.737  22.472  24.131  1.00  0.00     0.042 C 
BRANCH  22  23
ATOM     23  C   UNL A   1      37.476  23.043  25.334  1.00  0.00     0.118 C 
BRANCH  23  24
ATOM     24  N   UNL A   1      38.744  22.387  25.627  1.00  0.00    -0.352 N 
ATOM     25  C   UNL A   1      39.841  22.871  26.308  1.00  0.00     0.251 C 
ATOM     26  H   UNL A   1      38.828  21.464  25.292  1.00  0.00     0.163 HD
ATOM     27  O   UNL A   1      40.844  22.176  26.419  1.00  0.00    -0.269 OA
BRANCH  25  28
ATOM     28  C   UNL A   1      39.834  24.252  26.846  1.00  0.00     0.039 A 
ATOM     29  C   UNL A   1      39.293  24.473  28.118  1.00  0.00     0.014 A 
ATOM     30  C   UNL A   1      40.400  25.315  26.140  1.00  0.00     0.014 A 
ATOM     31  C   UNL A   1      39.429  25.726  28.724  1.00  0.00     0.010 A 
ATOM     32  C   UNL A   1      40.615  26.533  26.778  1.00  0.00     0.010 A 
ATOM     33  C   UNL A   1      40.154  26.744  28.086  1.00  0.00    -0.014 A 
BRANCH  33  34
ATOM     34  C   UNL A   1      40.496  28.016  28.778  1.00  0.00     0.031 A 
ATOM     35  C   UNL A   1      41.803  28.158  29.509  1.00  0.00     0.074 A 
ATOM     36  C   UNL A   1      39.573  28.997  28.855  1.00  0.00     0.049 A 
ATOM     37  N   UNL A   1      42.210  29.126  30.291  1.00  0.00    -0.248 NA
ATOM     38  C   UNL A   1      42.764  27.052  29.374  1.00  0.00     0.031 C 
ATOM     39  C   UNL A   1      38.239  28.964  28.246  1.00  0.00     0.029 A 
ATOM     40  N   UNL A   1      39.608  30.210  29.501  1.00  0.00    -0.354 N 
ATOM     41  C   UNL A   1      43.451  28.727  30.772  1.00  0.00     0.074 A 
ATOM     42  C   UNL A   1      43.719  27.418  30.217  1.00  0.00     0.031 C 
ATOM     43  C   UNL A   1      37.595  30.107  28.532  1.00  0.00     0.029 A 
ATOM     44  C   UNL A   1      38.445  30.934  29.381  1.00  0.00     0.049 A 
ATOM     45  H   UNL A   1      40.392  30.530  30.002  1.00  0.00     0.167 HD
ATOM     46  C   UNL A   1      44.295  29.395  31.591  1.00  0.00     0.031 A 
ATOM     47  C   UNL A   1      38.091  32.119  29.910  1.00  0.00     0.031 A 
ATOM     48  C   UNL A   1      44.053  30.718  32.101  1.00  0.00     0.049 A 
ATOM     49  C   UNL A   1      39.061  32.848  30.797  1.00  0.00     0.074 A 
ATOM     50  C   UNL A   1      44.903  31.521  32.844  1.00  0.00     0.029 A 
ATOM     51  N   UNL A   1      42.879  31.430  31.923  1.00  0.00    -0.354 N 
ATOM     52  N   UNL A   1      40.268  32.496  31.163  1.00  0.00    -0.248 NA
ATOM     53  C   UNL A   1      38.616  34.139  31.343  1.00  0.00     0.031 C 
ATOM     54  C   UNL A   1      44.224  32.703  33.153  1.00  0.00     0.029 A 
ATOM     55  C   UNL A   1      42.969  32.651  32.569  1.00  0.00     0.049 A 
ATOM     56  H   UNL A   1      42.098  31.115  31.413  1.00  0.00     0.167 HD
ATOM     57  C   UNL A   1      40.734  33.528  31.966  1.00  0.00     0.074 A 
ATOM     58  C   UNL A   1      39.688  34.529  32.018  1.00  0.00     0.031 C 
ATOM     59  C   UNL A   1      41.921  33.635  32.608  1.00  0.00     0.031 A 
BRANCH  46  60
ATOM     60  C   UNL A   1      45.569  28.711  31.993  1.00  0.00    -0.014 A 
ATOM     61  C   UNL A   1      46.746  28.861  31.242  1.00  0.00     0.009 A 
ATOM     62  C   UNL A   1      45.609  27.960  33.178  1.00  0.00     0.009 A 
ATOM     63  C   UNL A   1      47.930  28.250  31.657  1.00  0.00     0.001 A 
ATOM     64  C   UNL A   1      46.801  27.370  33.603  1.00  0.00     0.001 A 
ATOM     65  C   UNL A   1      47.959  27.510  32.840  1.00  0.00     0.000 A 
ENDBRANCH  46  60
BRANCH  47  66
ATOM     66  C   UNL A   1      36.751  32.698  29.631  1.00  0.00    -0.014 A 
ATOM     67  C   UNL A   1      36.530  33.447  28.465  1.00  0.00     0.009 A 
ATOM     68  C   UNL A   1      35.695  32.532  30.541  1.00  0.00     0.009 A 
ATOM     69  C   UNL A   1      35.289  34.045  28.232  1.00  0.00     0.001 A 
ATOM     70  C   UNL A   1      34.448  33.108  30.292  1.00  0.00     0.001 A 
ATOM     71  C   UNL A   1      34.248  33.873  29.144  1.00  0.00     0.000 A 
ENDBRANCH  47  66
BRANCH  59  72
ATOM     72  C   UNL A   1      42.161  34.884  33.404  1.00  0.00    -0.014 A 
ATOM     73  C   UNL A   1      41.681  35.006  34.718  1.00  0.00     0.009 A 
ATOM     74  C   UNL A   1      42.913  35.931  32.851  1.00  0.00     0.009 A 
ATOM     75  C   UNL A   1      41.931  36.165  35.453  1.00  0.00     0.001 A 
ATOM     76  C   UNL A   1      43.182  37.078  33.598  1.00  0.00     0.001 A 
ATOM     77  C   UNL A   1      42.685  37.197  34.896  1.00  0.00     0.000 A 
ENDBRANCH  59  72
ENDBRANCH  33  34
ENDBRANCH  25  28
ENDBRANCH  23  24
ENDBRANCH  22  23
ENDBRANCH   1  22
TORSDOF 16
ENDMDL
MODEL 3
REMARK VINA RESULT:      -9.9      3.364      8.338
REMARK SMILES CCC(CC)Oc1ccc(OC)cc1/C=C/C(=O)NCCCNC(=O)c1ccc(-c2c3nc(c(-c4ccccc4)c4ccc([nH]4)c(-c4ccccc4)c4nc(c(-c5ccccc5)c5ccc2[nH]5)C=C4)C=C3)cc1
REMARK SMILES IDX 20 1 19 2 17 3 18 4 16 6 15 7 14 8 7 9 8 10 9 11 13 12 10 13
REMARK SMILES IDX 6 14 3 15 2 16 1 17 4 18 5 19 11 20 12 21 21 22 22 23 23 24
REMARK SMILES IDX 24 25 25 27 26 28 27 29 73 30 28 31 72 32 29 33 30 34 31 35
REMARK SMILES IDX 66 36 32 37 71 38 65 39 67 40 33 41 70 42 64 43 63 44 34 46
REMARK SMILES IDX 56 47 41 48 55 49 42 50 45 51 54 52 68 53 43 54 44 55 53 57
REMARK SMILES IDX 69 58 46 59 35 60 36 61 40 62 37 63 39 64 38 65 57 66 58 67
REMARK SMILES IDX 62 68 59 69 61 70 60 71 47 72 48 73 52 74 49 75 51 76 50 77
REMARK H PARENT 19 5 23 26 67 45 45 56
REMARK Flexibility Score: inf
ROOT
ATOM      1  C   UNL A   1      36.087  20.832  25.303  1.00  0.00     0.118 C 
ENDROOT
BRANCH   1   2
ATOM      2  N   UNL A   1      35.447  19.587  24.943  1.00  0.00    -0.352 N 
ATOM      3  C   UNL A   1      34.138  19.304  24.737  1.00  0.00     0.244 C 
ATOM      4  O   UNL A   1      33.827  18.225  24.234  1.00  0.00    -0.270 OA
ATOM      5  H   UNL A   1      36.059  18.824  24.830  1.00  0.00     0.163 HD
BRANCH   3   6
ATOM      6  C   UNL A   1      33.071  20.284  25.033  1.00  0.00     0.072 C 
ATOM      7  C   UNL A   1      32.617  21.207  24.168  1.00  0.00     0.018 C 
BRANCH   7   8
ATOM      8  C   UNL A   1      31.787  22.353  24.608  1.00  0.00     0.020 A 
ATOM      9  C   UNL A   1      31.754  23.589  23.941  1.00  0.00     0.127 A 
ATOM     10  C   UNL A   1      31.120  24.692  24.528  1.00  0.00     0.051 A 
ATOM     11  C   UNL A   1      30.426  24.553  25.728  1.00  0.00     0.050 A 
ATOM     12  C   UNL A   1      31.091  22.242  25.832  1.00  0.00     0.058 A 
ATOM     13  C   UNL A   1      30.385  23.320  26.373  1.00  0.00     0.119 A 
BRANCH   9  14
ATOM     14  O   UNL A   1      32.433  23.821  22.781  1.00  0.00    -0.490 OA
BRANCH  14  15
ATOM     15  C   UNL A   1      33.721  24.476  22.873  1.00  0.00     0.172 C 
BRANCH  15  16
ATOM     16  C   UNL A   1      33.560  25.940  22.463  1.00  0.00     0.042 C 
ATOM     17  C   UNL A   1      32.421  26.239  21.505  1.00  0.00     0.008 C 
ENDBRANCH  15  16
BRANCH  15  18
ATOM     18  C   UNL A   1      34.586  24.244  24.131  1.00  0.00     0.042 C 
ATOM     19  C   UNL A   1      34.538  25.319  25.212  1.00  0.00     0.008 C 
ENDBRANCH  15  18
ENDBRANCH  14  15
ENDBRANCH   9  14
BRANCH  13  20
ATOM     20  O   UNL A   1      29.665  23.298  27.536  1.00  0.00    -0.497 OA
ATOM     21  C   UNL A   1      28.621  22.332  27.615  1.00  0.00     0.278 C 
ENDBRANCH  13  20
ENDBRANCH   7   8
ENDBRANCH   3   6
ENDBRANCH   1   2
BRANCH   1  22
ATOM     22  C   UNL A   1      37.473  20.954  24.680  1.00  0.00     0.042 C 
BRANCH  22  23
ATOM     23  C   UNL A   1      38.589  21.020  25.714  1.00  0.00     0.118 C 
BRANCH  23  24
ATOM     24  N   UNL A   1      39.528  19.907  25.656  1.00  0.00    -0.352 N 
ATOM     25  C   UNL A   1      40.853  19.861  26.035  1.00  0.00     0.251 C 
ATOM     26  H   UNL A   1      39.163  19.066  25.295  1.00  0.00     0.163 HD
ATOM     27  O   UNL A   1      41.499  18.833  25.870  1.00  0.00    -0.269 OA
BRANCH  25  28
ATOM     28  C   UNL A   1      41.515  21.071  26.580  1.00  0.00     0.039 A 
ATOM     29  C   UNL A   1      42.119  21.963  25.687  1.00  0.00     0.014 A 
ATOM     30  C   UNL A   1      41.498  21.362  27.944  1.00  0.00     0.014 A 
ATOM     31  C   UNL A   1      42.596  23.194  26.149  1.00  0.00     0.010 A 
ATOM     32  C   UNL A   1      41.890  22.621  28.389  1.00  0.00     0.010 A 
ATOM     33  C   UNL A   1      42.420  23.561  27.492  1.00  0.00    -0.014 A 
BRANCH  33  34
ATOM     34  C   UNL A   1      42.725  24.934  27.977  1.00  0.00     0.031 A 
ATOM     35  C   UNL A   1      44.111  25.287  28.443  1.00  0.00     0.074 A 
ATOM     36  C   UNL A   1      41.722  25.825  28.116  1.00  0.00     0.049 A 
ATOM     37  N   UNL A   1      44.530  26.377  29.034  1.00  0.00    -0.248 NA
ATOM     38  C   UNL A   1      45.157  24.269  28.251  1.00  0.00     0.031 C 
ATOM     39  C   UNL A   1      40.318  25.592  27.763  1.00  0.00     0.029 A 
ATOM     40  N   UNL A   1      41.725  27.105  28.617  1.00  0.00    -0.354 N 
ATOM     41  C   UNL A   1      45.871  26.159  29.324  1.00  0.00     0.074 A 
ATOM     42  C   UNL A   1      46.191  24.824  28.868  1.00  0.00     0.031 C 
ATOM     43  C   UNL A   1      39.604  26.695  28.040  1.00  0.00     0.029 A 
ATOM     44  C   UNL A   1      40.483  27.695  28.633  1.00  0.00     0.049 A 
ATOM     45  H   UNL A   1      42.540  27.557  28.933  1.00  0.00     0.167 HD
ATOM     46  C   UNL A   1      46.758  26.999  29.905  1.00  0.00     0.031 A 
ATOM     47  C   UNL A   1      40.090  28.897  29.093  1.00  0.00     0.031 A 
ATOM     48  C   UNL A   1      46.455  28.345  30.311  1.00  0.00     0.049 A 
ATOM     49  C   UNL A   1      41.104  29.817  29.711  1.00  0.00     0.074 A 
ATOM     50  C   UNL A   1      47.320  29.309  30.803  1.00  0.00     0.029 A 
ATOM     51  N   UNL A   1      45.194  28.915  30.274  1.00  0.00    -0.354 N 
ATOM     52  N   UNL A   1      42.388  29.628  29.889  1.00  0.00    -0.248 NA
ATOM     53  C   UNL A   1      40.612  31.117  30.193  1.00  0.00     0.031 C 
ATOM     54  C   UNL A   1      46.571  30.450  31.105  1.00  0.00     0.029 A 
ATOM     55  C   UNL A   1      45.251  30.209  30.764  1.00  0.00     0.049 A 
ATOM     56  H   UNL A   1      44.380  28.468  29.948  1.00  0.00     0.167 HD
ATOM     57  C   UNL A   1      42.860  30.790  30.485  1.00  0.00     0.074 A 
ATOM     58  C   UNL A   1      41.731  31.686  30.620  1.00  0.00     0.031 C 
ATOM     59  C   UNL A   1      44.118  31.086  30.889  1.00  0.00     0.031 A 
BRANCH  46  60
ATOM     60  C   UNL A   1      48.152  26.492  30.140  1.00  0.00    -0.014 A 
ATOM     61  C   UNL A   1      48.498  25.843  31.336  1.00  0.00     0.009 A 
ATOM     62  C   UNL A   1      49.113  26.605  29.124  1.00  0.00     0.009 A 
ATOM     63  C   UNL A   1      49.788  25.342  31.518  1.00  0.00     0.001 A 
ATOM     64  C   UNL A   1      50.395  26.081  29.300  1.00  0.00     0.001 A 
ATOM     65  C   UNL A   1      50.734  25.456  30.498  1.00  0.00     0.000 A 
ENDBRANCH  46  60
BRANCH  47  66
ATOM     66  C   UNL A   1      38.664  29.309  29.000  1.00  0.00    -0.014 A 
ATOM     67  C   UNL A   1      37.813  29.174  30.108  1.00  0.00     0.009 A 
ATOM     68  C   UNL A   1      38.140  29.809  27.798  1.00  0.00     0.009 A 
ATOM     69  C   UNL A   1      36.459  29.501  30.004  1.00  0.00     0.001 A 
ATOM     70  C   UNL A   1      36.791  30.160  27.706  1.00  0.00     0.001 A 
ATOM     71  C   UNL A   1      35.950  29.995  28.804  1.00  0.00     0.000 A 
ENDBRANCH  47  66
BRANCH  59  72
ATOM     72  C   UNL A   1      44.343  32.440  31.496  1.00  0.00    -0.014 A 
ATOM     73  C   UNL A   1      44.227  32.638  32.881  1.00  0.00     0.009 A 
ATOM     74  C   UNL A   1      44.719  33.517  30.681  1.00  0.00     0.009 A 
ATOM     75  C   UNL A   1      44.461  33.897  33.433  1.00  0.00     0.001 A 
ATOM     76  C   UNL A   1      44.976  34.769  31.239  1.00  0.00     0.001 A 
ATOM     77  C   UNL A   1      44.841  34.960  32.614  1.00  0.00     0.000 A 
ENDBRANCH  59  72
ENDBRANCH  33  34
ENDBRANCH  25  28
ENDBRANCH  23  24
ENDBRANCH  22  23
ENDBRANCH   1  22
TORSDOF 16
ENDMDL
