MODEL 1
REMARK VINA RESULT:     -12.3      0.000      0.000
REMARK SMILES Cc1cc(C(=O)NCCCNC(=O)c2ccc(-c3c4nc(c(-c5ccccc5)c5ccc([nH]5)c(-c5ccccc5)c5nc(c(-c6ccccc6)c6ccc3[nH]6)C=C5)C=C4)cc2)nc(N2CCN(c3ccccc3Cl)CC2)n1
REMARK SMILES IDX 9 1 8 2 7 3 5 4 6 5 4 7 1 8 2 9 3 10 77 11 63 12 62 13 64 14
REMARK SMILES IDX 65 15 76 16 66 17 75 18 67 19 68 20 69 21 73 22 70 23 72 24
REMARK SMILES IDX 74 25 71 26 10 27 11 28 12 29 13 31 14 32 15 33 61 34 16 35
REMARK SMILES IDX 60 36 17 37 18 38 19 39 54 40 20 41 59 42 53 43 55 44 21 45
REMARK SMILES IDX 58 46 52 47 51 48 22 50 44 51 29 52 43 53 30 54 33 55 42 56
REMARK SMILES IDX 56 57 31 58 32 59 41 61 57 62 34 63 23 64 24 65 28 66 25 67
REMARK SMILES IDX 27 68 26 69 45 70 46 71 50 72 47 73 49 74 48 75 35 76 36 77
REMARK SMILES IDX 40 78 37 79 39 80 38 81
REMARK H PARENT 7 6 11 30 55 49 33 60
REMARK Flexibility Score: inf
ROOT
ATOM      1  C   UNL A   1      31.555  31.582  26.546  1.00  0.00     0.042 C 
ENDROOT
BRANCH   1   2
ATOM      2  C   UNL A   1      31.773  30.096  26.275  1.00  0.00     0.118 C 
BRANCH   2   3
ATOM      3  N   UNL A   1      32.491  29.925  25.032  1.00  0.00    -0.351 N 
ATOM      4  C   UNL A   1      32.467  28.947  24.071  1.00  0.00     0.270 C 
ATOM      5  O   UNL A   1      33.293  29.069  23.162  1.00  0.00    -0.268 OA
ATOM      6  H   UNL A   1      33.122  30.655  24.837  1.00  0.00     0.163 HD
BRANCH   4   7
ATOM      7  C   UNL A   1      31.481  27.815  24.045  1.00  0.00     0.133 A 
ATOM      8  C   UNL A   1      27.910  26.783  23.747  1.00  0.00     0.067 C 
ATOM      9  C   UNL A   1      29.408  26.761  23.847  1.00  0.00     0.044 A 
ATOM     10  C   UNL A   1      30.113  27.932  24.038  1.00  0.00     0.058 A 
ATOM     11  N   UNL A   1      30.008  25.556  23.775  1.00  0.00    -0.218 NA
ATOM     12  C   UNL A   1      31.336  25.522  23.934  1.00  0.00     0.226 A 
ATOM     13  N   UNL A   1      32.084  26.617  24.032  1.00  0.00    -0.208 NA
BRANCH  12  14
ATOM     14  N   UNL A   1      32.008  24.337  24.054  1.00  0.00    -0.337 N 
ATOM     15  C   UNL A   1      32.801  23.798  22.956  1.00  0.00     0.141 C 
ATOM     16  C   UNL A   1      31.320  23.352  24.903  1.00  0.00     0.141 C 
ATOM     17  C   UNL A   1      33.831  22.784  23.522  1.00  0.00     0.138 C 
ATOM     18  C   UNL A   1      32.316  22.314  25.447  1.00  0.00     0.138 C 
ATOM     19  N   UNL A   1      33.143  21.787  24.353  1.00  0.00    -0.367 N 
BRANCH  19  20
ATOM     20  C   UNL A   1      33.405  20.439  24.248  1.00  0.00     0.056 A 
ATOM     21  C   UNL A   1      32.439  19.584  23.698  1.00  0.00     0.027 A 
ATOM     22  C   UNL A   1      34.615  19.858  24.686  1.00  0.00     0.064 A 
ATOM     23  C   UNL A   1      32.663  18.208  23.583  1.00  0.00     0.002 A 
ATOM     24  C   UNL A   1      34.838  18.481  24.579  1.00  0.00     0.023 A 
ATOM     25  Cl  UNL A   1      35.858  20.792  25.452  1.00  0.00    -0.082 Cl
ATOM     26  C   UNL A   1      33.861  17.657  24.027  1.00  0.00     0.002 A 
ENDBRANCH  19  20
ENDBRANCH  12  14
ENDBRANCH   4   7
ENDBRANCH   2   3
ENDBRANCH   1   2
BRANCH   1  27
ATOM     27  C   UNL A   1      32.815  32.258  27.078  1.00  0.00     0.118 C 
BRANCH  27  28
ATOM     28  N   UNL A   1      32.551  33.632  27.487  1.00  0.00    -0.352 N 
ATOM     29  C   UNL A   1      33.151  34.385  28.465  1.00  0.00     0.251 C 
ATOM     30  H   UNL A   1      31.835  34.088  26.987  1.00  0.00     0.163 HD
ATOM     31  O   UNL A   1      32.625  35.421  28.853  1.00  0.00    -0.269 OA
BRANCH  29  32
ATOM     32  C   UNL A   1      34.428  33.936  29.051  1.00  0.00     0.039 A 
ATOM     33  C   UNL A   1      34.407  33.118  30.183  1.00  0.00     0.014 A 
ATOM     34  C   UNL A   1      35.642  34.334  28.487  1.00  0.00     0.014 A 
ATOM     35  C   UNL A   1      35.609  32.643  30.710  1.00  0.00     0.010 A 
ATOM     36  C   UNL A   1      36.831  33.797  28.964  1.00  0.00     0.010 A 
ATOM     37  C   UNL A   1      36.827  32.947  30.080  1.00  0.00    -0.014 A 
BRANCH  37  38
ATOM     38  C   UNL A   1      38.114  32.387  30.557  1.00  0.00     0.031 A 
ATOM     39  C   UNL A   1      38.642  31.111  29.963  1.00  0.00     0.074 A 
ATOM     40  C   UNL A   1      38.754  32.973  31.588  1.00  0.00     0.049 A 
ATOM     41  N   UNL A   1      39.674  30.395  30.329  1.00  0.00    -0.248 NA
ATOM     42  C   UNL A   1      37.893  30.550  28.826  1.00  0.00     0.031 C 
ATOM     43  C   UNL A   1      38.326  34.198  32.267  1.00  0.00     0.029 A 
ATOM     44  N   UNL A   1      39.893  32.604  32.257  1.00  0.00    -0.354 N 
ATOM     45  C   UNL A   1      39.684  29.292  29.486  1.00  0.00     0.074 A 
ATOM     46  C   UNL A   1      38.530  29.407  28.621  1.00  0.00     0.031 C 
ATOM     47  C   UNL A   1      39.200  34.488  33.243  1.00  0.00     0.029 A 
ATOM     48  C   UNL A   1      40.218  33.444  33.294  1.00  0.00     0.049 A 
ATOM     49  H   UNL A   1      40.426  31.812  32.016  1.00  0.00     0.167 HD
ATOM     50  C   UNL A   1      40.583  28.281  29.426  1.00  0.00     0.031 A 
ATOM     51  C   UNL A   1      41.213  33.371  34.198  1.00  0.00     0.031 A 
ATOM     52  C   UNL A   1      41.732  28.174  30.285  1.00  0.00     0.049 A 
ATOM     53  C   UNL A   1      42.178  32.220  34.134  1.00  0.00     0.074 A 
ATOM     54  C   UNL A   1      42.732  27.218  30.270  1.00  0.00     0.029 A 
ATOM     55  N   UNL A   1      42.029  29.051  31.318  1.00  0.00    -0.354 N 
ATOM     56  N   UNL A   1      42.212  31.217  33.289  1.00  0.00    -0.248 NA
ATOM     57  C   UNL A   1      43.246  32.192  35.143  1.00  0.00     0.031 C 
ATOM     58  C   UNL A   1      43.601  27.481  31.333  1.00  0.00     0.029 A 
ATOM     59  C   UNL A   1      43.182  28.640  31.965  1.00  0.00     0.049 A 
ATOM     60  H   UNL A   1      41.500  29.846  31.554  1.00  0.00     0.167 HD
ATOM     61  C   UNL A   1      43.322  30.460  33.643  1.00  0.00     0.074 A 
ATOM     62  C   UNL A   1      43.939  31.126  34.772  1.00  0.00     0.031 C 
ATOM     63  C   UNL A   1      43.787  29.319  33.082  1.00  0.00     0.031 A 
BRANCH  50  64
ATOM     64  C   UNL A   1      40.349  27.201  28.406  1.00  0.00    -0.014 A 
ATOM     65  C   UNL A   1      40.900  27.282  27.116  1.00  0.00     0.009 A 
ATOM     66  C   UNL A   1      39.595  26.068  28.750  1.00  0.00     0.009 A 
ATOM     67  C   UNL A   1      40.668  26.270  26.182  1.00  0.00     0.001 A 
ATOM     68  C   UNL A   1      39.392  25.043  27.824  1.00  0.00     0.001 A 
ATOM     69  C   UNL A   1      39.919  25.149  26.539  1.00  0.00     0.000 A 
ENDBRANCH  50  64
BRANCH  51  70
ATOM     70  C   UNL A   1      41.350  34.420  35.243  1.00  0.00    -0.014 A 
ATOM     71  C   UNL A   1      40.680  34.295  36.469  1.00  0.00     0.009 A 
ATOM     72  C   UNL A   1      42.145  35.555  35.019  1.00  0.00     0.009 A 
ATOM     73  C   UNL A   1      40.779  35.298  37.437  1.00  0.00     0.001 A 
ATOM     74  C   UNL A   1      42.269  36.540  36.000  1.00  0.00     0.001 A 
ATOM     75  C   UNL A   1      41.577  36.418  37.203  1.00  0.00     0.000 A 
ENDBRANCH  51  70
BRANCH  63  76
ATOM     76  C   UNL A   1      45.054  28.737  33.644  1.00  0.00    -0.014 A 
ATOM     77  C   UNL A   1      45.029  27.765  34.655  1.00  0.00     0.009 A 
ATOM     78  C   UNL A   1      46.291  29.124  33.102  1.00  0.00     0.009 A 
ATOM     79  C   UNL A   1      46.220  27.211  35.129  1.00  0.00     0.001 A 
ATOM     80  C   UNL A   1      47.477  28.546  33.555  1.00  0.00     0.001 A 
ATOM     81  C   UNL A   1      47.441  27.595  34.574  1.00  0.00     0.000 A 
ENDBRANCH  63  76
ENDBRANCH  37  38
ENDBRANCH  29  32
ENDBRANCH  27  28
ENDBRANCH   1  27
TORSDOF 12
ENDMDL
MODEL 2
REMARK VINA RESULT:     -12.3      3.936      9.303
REMARK SMILES Cc1cc(C(=O)NCCCNC(=O)c2ccc(-c3c4nc(c(-c5ccccc5)c5ccc([nH]5)c(-c5ccccc5)c5nc(c(-c6ccccc6)c6ccc3[nH]6)C=C5)C=C4)cc2)nc(N2CCN(c3ccccc3Cl)CC2)n1
REMARK SMILES IDX 9 1 8 2 7 3 5 4 6 5 4 7 1 8 2 9 3 10 77 11 63 12 62 13 64 14
REMARK SMILES IDX 65 15 76 16 66 17 75 18 67 19 68 20 69 21 73 22 70 23 72 24
REMARK SMILES IDX 74 25 71 26 10 27 11 28 12 29 13 31 14 32 15 33 61 34 16 35
REMARK SMILES IDX 60 36 17 37 18 38 19 39 54 40 20 41 59 42 53 43 55 44 21 45
REMARK SMILES IDX 58 46 52 47 51 48 22 50 44 51 29 52 43 53 30 54 33 55 42 56
REMARK SMILES IDX 56 57 31 58 32 59 41 61 57 62 34 63 23 64 24 65 28 66 25 67
REMARK SMILES IDX 27 68 26 69 45 70 46 71 50 72 47 73 49 74 48 75 35 76 36 77
REMARK SMILES IDX 40 78 37 79 39 80 38 81
REMARK H PARENT 7 6 11 30 55 49 33 60
REMARK Flexibility Score: inf
ROOT
ATOM      1  C   UNL A   1      38.152  19.643  24.944  1.00  0.00     0.042 C 
ENDROOT
BRANCH   1   2
ATOM      2  C   UNL A   1      36.863  20.459  25.007  1.00  0.00     0.118 C 
BRANCH   2   3
ATOM      3  N   UNL A   1      36.918  21.536  24.045  1.00  0.00    -0.351 N 
ATOM      4  C   UNL A   1      36.118  22.628  23.825  1.00  0.00     0.270 C 
ATOM      5  O   UNL A   1      36.407  23.314  22.840  1.00  0.00    -0.268 OA
ATOM      6  H   UNL A   1      37.680  21.474  23.425  1.00  0.00     0.163 HD
BRANCH   4   7
ATOM      7  C   UNL A   1      34.993  23.044  24.728  1.00  0.00     0.133 A 
ATOM      8  C   UNL A   1      33.216  22.511  27.963  1.00  0.00     0.067 C 
ATOM      9  C   UNL A   1      33.654  23.069  26.640  1.00  0.00     0.044 A 
ATOM     10  C   UNL A   1      34.610  22.417  25.887  1.00  0.00     0.058 A 
ATOM     11  N   UNL A   1      33.050  24.201  26.224  1.00  0.00    -0.218 NA
ATOM     12  C   UNL A   1      33.386  24.665  25.014  1.00  0.00     0.226 A 
ATOM     13  N   UNL A   1      34.358  24.136  24.278  1.00  0.00    -0.208 NA
BRANCH  12  14
ATOM     14  N   UNL A   1      32.702  25.698  24.435  1.00  0.00    -0.337 N 
ATOM     15  C   UNL A   1      32.322  26.880  25.198  1.00  0.00     0.141 C 
ATOM     16  C   UNL A   1      31.762  25.270  23.388  1.00  0.00     0.141 C 
ATOM     17  C   UNL A   1      32.058  28.055  24.219  1.00  0.00     0.138 C 
ATOM     18  C   UNL A   1      31.457  26.430  22.425  1.00  0.00     0.138 C 
ATOM     19  N   UNL A   1      31.102  27.637  23.185  1.00  0.00    -0.367 N 
BRANCH  19  20
ATOM     20  C   UNL A   1      30.038  28.425  22.807  1.00  0.00     0.056 A 
ATOM     21  C   UNL A   1      30.271  29.624  22.117  1.00  0.00     0.027 A 
ATOM     22  C   UNL A   1      28.698  28.091  23.096  1.00  0.00     0.064 A 
ATOM     23  C   UNL A   1      29.218  30.456  21.725  1.00  0.00     0.002 A 
ATOM     24  C   UNL A   1      27.643  28.927  22.711  1.00  0.00     0.023 A 
ATOM     25  Cl  UNL A   1      28.280  26.678  24.009  1.00  0.00    -0.082 Cl
ATOM     26  C   UNL A   1      27.905  30.109  22.026  1.00  0.00     0.002 A 
ENDBRANCH  19  20
ENDBRANCH  12  14
ENDBRANCH   4   7
ENDBRANCH   2   3
ENDBRANCH   1   2
BRANCH   1  27
ATOM     27  C   UNL A   1      39.219  20.184  25.891  1.00  0.00     0.118 C 
BRANCH  27  28
ATOM     28  N   UNL A   1      40.355  19.275  25.989  1.00  0.00    -0.352 N 
ATOM     29  C   UNL A   1      41.688  19.555  26.160  1.00  0.00     0.251 C 
ATOM     30  H   UNL A   1      40.133  18.318  25.923  1.00  0.00     0.163 HD
ATOM     31  O   UNL A   1      42.529  18.691  25.950  1.00  0.00    -0.269 OA
BRANCH  29  32
ATOM     32  C   UNL A   1      42.099  20.905  26.591  1.00  0.00     0.039 A 
ATOM     33  C   UNL A   1      42.413  21.862  25.623  1.00  0.00     0.014 A 
ATOM     34  C   UNL A   1      42.187  21.216  27.950  1.00  0.00     0.014 A 
ATOM     35  C   UNL A   1      42.750  23.157  26.020  1.00  0.00     0.010 A 
ATOM     36  C   UNL A   1      42.444  22.525  28.340  1.00  0.00     0.010 A 
ATOM     37  C   UNL A   1      42.729  23.507  27.380  1.00  0.00    -0.014 A 
BRANCH  37  38
ATOM     38  C   UNL A   1      42.992  24.894  27.833  1.00  0.00     0.031 A 
ATOM     39  C   UNL A   1      44.387  25.306  28.211  1.00  0.00     0.074 A 
ATOM     40  C   UNL A   1      41.963  25.748  27.995  1.00  0.00     0.049 A 
ATOM     41  N   UNL A   1      44.800  26.425  28.750  1.00  0.00    -0.248 NA
ATOM     42  C   UNL A   1      45.456  24.319  27.981  1.00  0.00     0.031 C 
ATOM     43  C   UNL A   1      40.561  25.456  27.690  1.00  0.00     0.029 A 
ATOM     44  N   UNL A   1      41.937  27.033  28.476  1.00  0.00    -0.354 N 
ATOM     45  C   UNL A   1      46.166  26.267  28.944  1.00  0.00     0.074 A 
ATOM     46  C   UNL A   1      46.505  24.929  28.510  1.00  0.00     0.031 C 
ATOM     47  C   UNL A   1      39.815  26.535  27.973  1.00  0.00     0.029 A 
ATOM     48  C   UNL A   1      40.676  27.575  28.529  1.00  0.00     0.049 A 
ATOM     49  H   UNL A   1      42.745  27.520  28.755  1.00  0.00     0.167 HD
ATOM     50  C   UNL A   1      47.061  27.162  29.425  1.00  0.00     0.031 A 
ATOM     51  C   UNL A   1      40.256  28.766  28.993  1.00  0.00     0.031 A 
ATOM     52  C   UNL A   1      46.719  28.493  29.849  1.00  0.00     0.049 A 
ATOM     53  C   UNL A   1      41.264  29.729  29.555  1.00  0.00     0.074 A 
ATOM     54  C   UNL A   1      47.560  29.495  30.302  1.00  0.00     0.029 A 
ATOM     55  N   UNL A   1      45.431  29.005  29.880  1.00  0.00    -0.354 N 
ATOM     56  N   UNL A   1      42.562  29.590  29.673  1.00  0.00    -0.248 NA
ATOM     57  C   UNL A   1      40.750  31.017  30.044  1.00  0.00     0.031 C 
ATOM     58  C   UNL A   1      46.773  30.592  30.665  1.00  0.00     0.029 A 
ATOM     59  C   UNL A   1      45.451  30.299  30.372  1.00  0.00     0.049 A 
ATOM     60  H   UNL A   1      44.623  28.520  29.594  1.00  0.00     0.167 HD
ATOM     61  C   UNL A   1      43.024  30.783  30.216  1.00  0.00     0.074 A 
ATOM     62  C   UNL A   1      41.868  31.637  30.394  1.00  0.00     0.031 C 
ATOM     63  C   UNL A   1      44.292  31.138  30.535  1.00  0.00     0.031 A 
BRANCH  50  64
ATOM     64  C   UNL A   1      48.495  26.722  29.532  1.00  0.00    -0.014 A 
ATOM     65  C   UNL A   1      49.410  26.952  28.491  1.00  0.00     0.009 A 
ATOM     66  C   UNL A   1      48.949  26.101  30.706  1.00  0.00     0.009 A 
ATOM     67  C   UNL A   1      50.737  26.533  28.609  1.00  0.00     0.001 A 
ATOM     68  C   UNL A   1      50.283  25.712  30.834  1.00  0.00     0.001 A 
ATOM     69  C   UNL A   1      51.174  25.918  29.781  1.00  0.00     0.000 A 
ENDBRANCH  50  64
BRANCH  51  70
ATOM     70  C   UNL A   1      38.812  29.119  28.944  1.00  0.00    -0.014 A 
ATOM     71  C   UNL A   1      38.249  29.652  27.775  1.00  0.00     0.009 A 
ATOM     72  C   UNL A   1      37.990  28.932  30.066  1.00  0.00     0.009 A 
ATOM     73  C   UNL A   1      36.900  30.018  27.740  1.00  0.00     0.001 A 
ATOM     74  C   UNL A   1      36.636  29.267  30.018  1.00  0.00     0.001 A 
ATOM     75  C   UNL A   1      36.094  29.821  28.860  1.00  0.00     0.000 A 
ENDBRANCH  51  70
BRANCH  63  76
ATOM     76  C   UNL A   1      44.509  32.527  31.065  1.00  0.00    -0.014 A 
ATOM     77  C   UNL A   1      44.504  32.796  32.442  1.00  0.00     0.009 A 
ATOM     78  C   UNL A   1      44.791  33.571  30.169  1.00  0.00     0.009 A 
ATOM     79  C   UNL A   1      44.751  34.089  32.908  1.00  0.00     0.001 A 
ATOM     80  C   UNL A   1      45.069  34.855  30.639  1.00  0.00     0.001 A 
ATOM     81  C   UNL A   1      45.041  35.115  32.008  1.00  0.00     0.000 A 
ENDBRANCH  63  76
ENDBRANCH  37  38
ENDBRANCH  29  32
ENDBRANCH  27  28
ENDBRANCH   1  27
TORSDOF 12
ENDMDL
MODEL 3
REMARK VINA RESULT:     -12.3      4.849     10.040
REMARK SMILES Cc1cc(C(=O)NCCCNC(=O)c2ccc(-c3c4nc(c(-c5ccccc5)c5ccc([nH]5)c(-c5ccccc5)c5nc(c(-c6ccccc6)c6ccc3[nH]6)C=C5)C=C4)cc2)nc(N2CCN(c3ccccc3Cl)CC2)n1
REMARK SMILES IDX 9 1 8 2 7 3 5 4 6 5 4 7 1 8 2 9 3 10 77 11 63 12 62 13 64 14
REMARK SMILES IDX 65 15 76 16 66 17 75 18 67 19 68 20 69 21 73 22 70 23 72 24
REMARK SMILES IDX 74 25 71 26 10 27 11 28 12 29 13 31 14 32 15 33 61 34 16 35
REMARK SMILES IDX 60 36 17 37 18 38 19 39 54 40 20 41 59 42 53 43 55 44 21 45
REMARK SMILES IDX 58 46 52 47 51 48 22 50 44 51 29 52 43 53 30 54 33 55 42 56
REMARK SMILES IDX 56 57 31 58 32 59 41 61 57 62 34 63 23 64 24 65 28 66 25 67
REMARK SMILES IDX 27 68 26 69 45 70 46 71 50 72 47 73 49 74 48 75 35 76 36 77
REMARK SMILES IDX 40 78 37 79 39 80 38 81
REMARK H PARENT 7 6 11 30 55 49 33 60
REMARK Flexibility Score: inf
ROOT
ATOM      1  C   UNL A   1      38.111  19.673  24.880  1.00  0.00     0.042 C 
ENDROOT
BRANCH   1   2
ATOM      2  C   UNL A   1      36.872  20.552  25.030  1.00  0.00     0.118 C 
BRANCH   2   3
ATOM      3  N   UNL A   1      36.905  21.616  24.053  1.00  0.00    -0.351 N 
ATOM      4  C   UNL A   1      36.088  22.693  23.822  1.00  0.00     0.270 C 
ATOM      5  O   UNL A   1      36.359  23.368  22.825  1.00  0.00    -0.268 OA
ATOM      6  H   UNL A   1      37.663  21.555  23.428  1.00  0.00     0.163 HD
BRANCH   4   7
ATOM      7  C   UNL A   1      34.963  23.106  24.727  1.00  0.00     0.133 A 
ATOM      8  C   UNL A   1      33.202  22.579  27.972  1.00  0.00     0.067 C 
ATOM      9  C   UNL A   1      33.631  23.133  26.644  1.00  0.00     0.044 A 
ATOM     10  C   UNL A   1      34.589  22.483  25.891  1.00  0.00     0.058 A 
ATOM     11  N   UNL A   1      33.018  24.258  26.224  1.00  0.00    -0.218 NA
ATOM     12  C   UNL A   1      33.346  24.717  25.010  1.00  0.00     0.226 A 
ATOM     13  N   UNL A   1      34.319  24.192  24.273  1.00  0.00    -0.208 NA
BRANCH  12  14
ATOM     14  N   UNL A   1      32.653  25.742  24.428  1.00  0.00    -0.337 N 
ATOM     15  C   UNL A   1      32.299  26.942  25.177  1.00  0.00     0.141 C 
ATOM     16  C   UNL A   1      31.684  25.299  23.414  1.00  0.00     0.141 C 
ATOM     17  C   UNL A   1      32.016  28.099  24.181  1.00  0.00     0.138 C 
ATOM     18  C   UNL A   1      31.360  26.441  22.436  1.00  0.00     0.138 C 
ATOM     19  N   UNL A   1      31.032  27.665  23.180  1.00  0.00    -0.367 N 
BRANCH  19  20
ATOM     20  C   UNL A   1      29.962  28.452  22.814  1.00  0.00     0.056 A 
ATOM     21  C   UNL A   1      30.185  29.647  22.115  1.00  0.00     0.027 A 
ATOM     22  C   UNL A   1      28.626  28.119  23.124  1.00  0.00     0.064 A 
ATOM     23  C   UNL A   1      29.127  30.477  21.734  1.00  0.00     0.002 A 
ATOM     24  C   UNL A   1      27.566  28.953  22.750  1.00  0.00     0.023 A 
ATOM     25  Cl  UNL A   1      28.221  26.710  24.050  1.00  0.00    -0.082 Cl
ATOM     26  C   UNL A   1      27.818  30.132  22.055  1.00  0.00     0.002 A 
ENDBRANCH  19  20
ENDBRANCH  12  14
ENDBRANCH   4   7
ENDBRANCH   2   3
ENDBRANCH   1   2
BRANCH   1  27
ATOM     27  C   UNL A   1      39.255  20.136  25.777  1.00  0.00     0.118 C 
BRANCH  27  28
ATOM     28  N   UNL A   1      40.252  19.087  25.953  1.00  0.00    -0.352 N 
ATOM     29  C   UNL A   1      41.609  19.191  26.131  1.00  0.00     0.251 C 
ATOM     30  H   UNL A   1      39.900  18.168  25.942  1.00  0.00     0.163 HD
ATOM     31  O   UNL A   1      42.324  18.206  25.991  1.00  0.00    -0.269 OA
BRANCH  29  32
ATOM     32  C   UNL A   1      42.200  20.495  26.484  1.00  0.00     0.039 A 
ATOM     33  C   UNL A   1      42.750  21.289  25.475  1.00  0.00     0.014 A 
ATOM     34  C   UNL A   1      42.221  20.924  27.813  1.00  0.00     0.014 A 
ATOM     35  C   UNL A   1      43.262  22.549  25.792  1.00  0.00     0.010 A 
ATOM     36  C   UNL A   1      42.657  22.209  28.115  1.00  0.00     0.010 A 
ATOM     37  C   UNL A   1      43.182  23.033  27.108  1.00  0.00    -0.014 A 
BRANCH  37  38
ATOM     38  C   UNL A   1      43.631  24.400  27.465  1.00  0.00     0.031 A 
ATOM     39  C   UNL A   1      42.622  25.439  27.865  1.00  0.00     0.074 A 
ATOM     40  C   UNL A   1      44.931  24.728  27.336  1.00  0.00     0.049 A 
ATOM     41  N   UNL A   1      42.797  26.717  28.087  1.00  0.00    -0.248 NA
ATOM     42  C   UNL A   1      41.226  24.990  28.003  1.00  0.00     0.031 C 
ATOM     43  C   UNL A   1      46.002  23.815  26.929  1.00  0.00     0.029 A 
ATOM     44  N   UNL A   1      45.571  25.929  27.516  1.00  0.00    -0.354 N 
ATOM     45  C   UNL A   1      41.535  27.226  28.367  1.00  0.00     0.074 A 
ATOM     46  C   UNL A   1      40.598  26.131  28.241  1.00  0.00     0.031 C 
ATOM     47  C   UNL A   1      47.166  24.483  26.908  1.00  0.00     0.029 A 
ATOM     48  C   UNL A   1      46.917  25.881  27.248  1.00  0.00     0.049 A 
ATOM     49  H   UNL A   1      45.108  26.746  27.811  1.00  0.00     0.167 HD
ATOM     50  C   UNL A   1      41.190  28.489  28.714  1.00  0.00     0.031 A 
ATOM     51  C   UNL A   1      47.844  26.856  27.253  1.00  0.00     0.031 A 
ATOM     52  C   UNL A   1      42.127  29.572  28.843  1.00  0.00     0.049 A 
ATOM     53  C   UNL A   1      47.430  28.257  27.607  1.00  0.00     0.074 A 
ATOM     54  C   UNL A   1      41.887  30.875  29.242  1.00  0.00     0.029 A 
ATOM     55  N   UNL A   1      43.484  29.479  28.569  1.00  0.00    -0.354 N 
ATOM     56  N   UNL A   1      46.244  28.710  27.933  1.00  0.00    -0.248 NA
ATOM     57  C   UNL A   1      48.484  29.282  27.601  1.00  0.00     0.031 C 
ATOM     58  C   UNL A   1      43.087  31.587  29.149  1.00  0.00     0.029 A 
ATOM     59  C   UNL A   1      44.087  30.709  28.762  1.00  0.00     0.049 A 
ATOM     60  H   UNL A   1      43.947  28.660  28.281  1.00  0.00     0.167 HD
ATOM     61  C   UNL A   1      46.415  30.062  28.203  1.00  0.00     0.074 A 
ATOM     62  C   UNL A   1      47.821  30.352  28.014  1.00  0.00     0.031 C 
ATOM     63  C   UNL A   1      45.490  30.979  28.576  1.00  0.00     0.031 A 
BRANCH  50  64
ATOM     64  C   UNL A   1      39.734  28.768  28.963  1.00  0.00    -0.014 A 
ATOM     65  C   UNL A   1      39.170  28.624  30.242  1.00  0.00     0.009 A 
ATOM     66  C   UNL A   1      38.919  29.217  27.911  1.00  0.00     0.009 A 
ATOM     67  C   UNL A   1      37.814  28.885  30.451  1.00  0.00     0.001 A 
ATOM     68  C   UNL A   1      37.572  29.508  28.131  1.00  0.00     0.001 A 
ATOM     69  C   UNL A   1      37.018  29.332  29.398  1.00  0.00     0.000 A 
ENDBRANCH  50  64
BRANCH  51  70
ATOM     70  C   UNL A   1      49.258  26.543  26.914  1.00  0.00    -0.014 A 
ATOM     71  C   UNL A   1      50.184  26.248  27.926  1.00  0.00     0.009 A 
ATOM     72  C   UNL A   1      49.692  26.544  25.579  1.00  0.00     0.009 A 
ATOM     73  C   UNL A   1      51.521  25.990  27.611  1.00  0.00     0.001 A 
ATOM     74  C   UNL A   1      51.020  26.253  25.264  1.00  0.00     0.001 A 
ATOM     75  C   UNL A   1      51.937  25.989  26.280  1.00  0.00     0.000 A 
ENDBRANCH  51  70
BRANCH  63  76
ATOM     76  C   UNL A   1      45.972  32.375  28.855  1.00  0.00    -0.014 A 
ATOM     77  C   UNL A   1      45.986  33.359  27.854  1.00  0.00     0.009 A 
ATOM     78  C   UNL A   1      46.354  32.725  30.160  1.00  0.00     0.009 A 
ATOM     79  C   UNL A   1      46.399  34.660  28.152  1.00  0.00     0.001 A 
ATOM     80  C   UNL A   1      46.736  34.033  30.461  1.00  0.00     0.001 A 
ATOM     81  C   UNL A   1      46.765  34.997  29.455  1.00  0.00     0.000 A 
ENDBRANCH  63  76
ENDBRANCH  37  38
ENDBRANCH  29  32
ENDBRANCH  27  28
ENDBRANCH   1  27
TORSDOF 12
ENDMDL
