MODEL 1
REMARK VINA RESULT:     -10.5      0.000      0.000
REMARK SMILES CCC[C@H](c1ccccc1)[C@@](C)(O)C(=O)NCCCNC(=O)c1ccc(-c2c3nc(c(-c4ccccc4)c4ccc([nH]4)c(-c4ccccc4)c4nc(c(-c5ccccc5)c5ccc2[nH]5)C=C4)C=C3)cc1
REMARK SMILES IDX 17 1 16 2 14 3 15 4 11 6 12 7 4 8 3 9 2 10 1 11 5 12 6 13
REMARK SMILES IDX 10 14 7 15 9 16 8 17 13 18 18 20 19 21 20 22 21 23 22 25
REMARK SMILES IDX 23 26 24 27 70 28 25 29 69 30 26 31 27 32 28 33 63 34 29 35
REMARK SMILES IDX 68 36 62 37 64 38 30 39 67 40 61 41 60 42 31 44 53 45 38 46
REMARK SMILES IDX 52 47 39 48 42 49 51 50 65 51 40 52 41 53 50 55 66 56 43 57
REMARK SMILES IDX 32 58 33 59 37 60 34 61 36 62 35 63 54 64 55 65 59 66 56 67
REMARK SMILES IDX 58 68 57 69 44 70 45 71 49 72 46 73 48 74 47 75
REMARK H PARENT 16 5 13 19 20 24 64 43 42 54
REMARK Flexibility Score: inf
ROOT
ATOM      1  C   UNL A   1      33.285  27.284  25.167  1.00  0.00     0.117 C 
ENDROOT
BRANCH   1   2
ATOM      2  N   UNL A   1      33.685  27.726  23.847  1.00  0.00    -0.354 N 
ATOM      3  C   UNL A   1      33.203  27.385  22.615  1.00  0.00     0.252 C 
ATOM      4  O   UNL A   1      33.845  27.808  21.650  1.00  0.00    -0.272 OA
ATOM      5  H   UNL A   1      34.423  28.377  23.834  1.00  0.00     0.163 HD
BRANCH   3   6
ATOM      6  C   UNL A   1      31.920  26.514  22.471  1.00  0.00     0.147 C 
ATOM      7  C   UNL A   1      32.242  25.020  22.645  1.00  0.00     0.053 C 
BRANCH   6   8
ATOM      8  C   UNL A   1      30.788  27.016  23.472  1.00  0.00     0.060 C 
BRANCH   8   9
ATOM      9  C   UNL A   1      30.063  25.769  24.098  1.00  0.00     0.011 C 
BRANCH   9  10
ATOM     10  C   UNL A   1      30.003  25.772  25.631  1.00  0.00    -0.003 C 
ATOM     11  C   UNL A   1      30.765  24.632  26.285  1.00  0.00     0.004 C 
ENDBRANCH   9  10
ENDBRANCH   8   9
BRANCH   8  12
ATOM     12  C   UNL A   1      29.873  28.157  22.966  1.00  0.00    -0.042 A 
ATOM     13  C   UNL A   1      28.476  28.080  23.127  1.00  0.00     0.004 A 
ATOM     14  C   UNL A   1      30.350  29.304  22.308  1.00  0.00     0.004 A 
ATOM     15  C   UNL A   1      27.619  29.122  22.754  1.00  0.00     0.000 A 
ATOM     16  C   UNL A   1      29.493  30.333  21.893  1.00  0.00     0.000 A 
ATOM     17  C   UNL A   1      28.129  30.254  22.138  1.00  0.00     0.000 A 
ENDBRANCH   8  12
ENDBRANCH   6   8
BRANCH   6  18
ATOM     18  O   UNL A   1      31.423  26.635  21.118  1.00  0.00    -0.380 OA
ATOM     19  H   UNL A   1      30.496  26.918  21.138  1.00  0.00     0.212 HD
ENDBRANCH   6  18
ENDBRANCH   3   6
ENDBRANCH   1   2
BRANCH   1  20
ATOM     20  C   UNL A   1      32.744  28.420  26.019  1.00  0.00     0.042 C 
BRANCH  20  21
ATOM     21  C   UNL A   1      33.532  28.662  27.294  1.00  0.00     0.118 C 
BRANCH  21  22
ATOM     22  N   UNL A   1      33.587  30.069  27.669  1.00  0.00    -0.352 N 
ATOM     23  C   UNL A   1      34.595  30.786  28.269  1.00  0.00     0.251 C 
ATOM     24  H   UNL A   1      32.775  30.587  27.461  1.00  0.00     0.163 HD
ATOM     25  O   UNL A   1      34.388  31.921  28.674  1.00  0.00    -0.269 OA
BRANCH  23  26
ATOM     26  C   UNL A   1      35.926  30.167  28.447  1.00  0.00     0.039 A 
ATOM     27  C   UNL A   1      36.846  30.215  27.398  1.00  0.00     0.014 A 
ATOM     28  C   UNL A   1      36.267  29.551  29.652  1.00  0.00     0.014 A 
ATOM     29  C   UNL A   1      38.137  29.718  27.590  1.00  0.00     0.010 A 
ATOM     30  C   UNL A   1      37.579  29.157  29.877  1.00  0.00     0.010 A 
ATOM     31  C   UNL A   1      38.527  29.226  28.846  1.00  0.00    -0.014 A 
BRANCH  31  32
ATOM     32  C   UNL A   1      39.908  28.747  29.106  1.00  0.00     0.031 A 
ATOM     33  C   UNL A   1      40.909  29.676  29.739  1.00  0.00     0.074 A 
ATOM     34  C   UNL A   1      40.281  27.513  28.713  1.00  0.00     0.049 A 
ATOM     35  N   UNL A   1      42.190  29.496  29.942  1.00  0.00    -0.248 NA
ATOM     36  C   UNL A   1      40.414  30.992  30.177  1.00  0.00     0.031 C 
ATOM     37  C   UNL A   1      39.415  26.525  28.064  1.00  0.00     0.029 A 
ATOM     38  N   UNL A   1      41.497  26.880  28.797  1.00  0.00    -0.354 N 
ATOM     39  C   UNL A   1      42.649  30.674  30.517  1.00  0.00     0.074 A 
ATOM     40  C   UNL A   1      41.529  31.587  30.572  1.00  0.00     0.031 C 
ATOM     41  C   UNL A   1      40.121  25.405  27.832  1.00  0.00     0.029 A 
ATOM     42  C   UNL A   1      41.498  25.611  28.268  1.00  0.00     0.049 A 
ATOM     43  H   UNL A   1      42.294  27.296  29.197  1.00  0.00     0.167 HD
ATOM     44  C   UNL A   1      43.884  30.965  30.987  1.00  0.00     0.031 A 
ATOM     45  C   UNL A   1      42.500  24.721  28.136  1.00  0.00     0.031 A 
ATOM     46  C   UNL A   1      44.996  30.055  30.947  1.00  0.00     0.049 A 
ATOM     47  C   UNL A   1      43.875  25.089  28.627  1.00  0.00     0.074 A 
ATOM     48  C   UNL A   1      46.283  30.247  31.420  1.00  0.00     0.029 A 
ATOM     49  N   UNL A   1      44.950  28.778  30.412  1.00  0.00    -0.354 N 
ATOM     50  N   UNL A   1      44.278  26.193  29.210  1.00  0.00    -0.248 NA
ATOM     51  C   UNL A   1      44.931  24.082  28.451  1.00  0.00     0.031 C 
ATOM     52  C   UNL A   1      47.027  29.101  31.131  1.00  0.00     0.029 A 
ATOM     53  C   UNL A   1      46.187  28.174  30.535  1.00  0.00     0.049 A 
ATOM     54  H   UNL A   1      44.154  28.363  30.006  1.00  0.00     0.167 HD
ATOM     55  C   UNL A   1      45.620  25.992  29.509  1.00  0.00     0.074 A 
ATOM     56  C   UNL A   1      45.959  24.660  29.056  1.00  0.00     0.031 C 
ATOM     57  C   UNL A   1      46.497  26.836  30.105  1.00  0.00     0.031 A 
BRANCH  44  58
ATOM     58  C   UNL A   1      44.094  32.319  31.605  1.00  0.00    -0.014 A 
ATOM     59  C   UNL A   1      43.939  32.511  32.987  1.00  0.00     0.009 A 
ATOM     60  C   UNL A   1      44.506  33.399  30.810  1.00  0.00     0.009 A 
ATOM     61  C   UNL A   1      44.169  33.764  33.557  1.00  0.00     0.001 A 
ATOM     62  C   UNL A   1      44.764  34.644  31.387  1.00  0.00     0.001 A 
ATOM     63  C   UNL A   1      44.588  34.827  32.758  1.00  0.00     0.000 A 
ENDBRANCH  44  58
BRANCH  45  64
ATOM     64  C   UNL A   1      42.260  23.392  27.511  1.00  0.00    -0.014 A 
ATOM     65  C   UNL A   1      41.749  22.328  28.271  1.00  0.00     0.009 A 
ATOM     66  C   UNL A   1      42.599  23.160  26.169  1.00  0.00     0.009 A 
ATOM     67  C   UNL A   1      41.631  21.050  27.717  1.00  0.00     0.001 A 
ATOM     68  C   UNL A   1      42.447  21.891  25.606  1.00  0.00     0.001 A 
ATOM     69  C   UNL A   1      41.979  20.833  26.384  1.00  0.00     0.000 A 
ENDBRANCH  45  64
BRANCH  57  70
ATOM     70  C   UNL A   1      47.883  26.322  30.369  1.00  0.00    -0.014 A 
ATOM     71  C   UNL A   1      48.247  25.794  31.616  1.00  0.00     0.009 A 
ATOM     72  C   UNL A   1      48.826  26.320  29.328  1.00  0.00     0.009 A 
ATOM     73  C   UNL A   1      49.539  25.307  31.826  1.00  0.00     0.001 A 
ATOM     74  C   UNL A   1      50.105  25.803  29.530  1.00  0.00     0.001 A 
ATOM     75  C   UNL A   1      50.464  25.305  30.782  1.00  0.00     0.000 A 
ENDBRANCH  57  70
ENDBRANCH  31  32
ENDBRANCH  23  26
ENDBRANCH  21  22
ENDBRANCH  20  21
ENDBRANCH   1  20
TORSDOF 15
ENDMDL
MODEL 2
REMARK VINA RESULT:     -10.4      3.563      8.366
REMARK SMILES CCC[C@H](c1ccccc1)[C@@](C)(O)C(=O)NCCCNC(=O)c1ccc(-c2c3nc(c(-c4ccccc4)c4ccc([nH]4)c(-c4ccccc4)c4nc(c(-c5ccccc5)c5ccc2[nH]5)C=C4)C=C3)cc1
REMARK SMILES IDX 17 1 16 2 14 3 15 4 11 6 12 7 4 8 3 9 2 10 1 11 5 12 6 13
REMARK SMILES IDX 10 14 7 15 9 16 8 17 13 18 18 20 19 21 20 22 21 23 22 25
REMARK SMILES IDX 23 26 24 27 70 28 25 29 69 30 26 31 27 32 28 33 63 34 29 35
REMARK SMILES IDX 68 36 62 37 64 38 30 39 67 40 61 41 60 42 31 44 53 45 38 46
REMARK SMILES IDX 52 47 39 48 42 49 51 50 65 51 40 52 41 53 50 55 66 56 43 57
REMARK SMILES IDX 32 58 33 59 37 60 34 61 36 62 35 63 54 64 55 65 59 66 56 67
REMARK SMILES IDX 58 68 57 69 44 70 45 71 49 72 46 73 48 74 47 75
REMARK H PARENT 16 5 13 19 20 24 64 43 42 54
REMARK Flexibility Score: inf
ROOT
ATOM      1  C   UNL A   1      34.798  23.655  25.464  1.00  0.00     0.117 C 
ENDROOT
BRANCH   1   2
ATOM      2  N   UNL A   1      34.189  23.073  26.642  1.00  0.00    -0.354 N 
ATOM      3  C   UNL A   1      32.931  22.578  26.836  1.00  0.00     0.252 C 
ATOM      4  O   UNL A   1      32.641  22.284  27.998  1.00  0.00    -0.272 OA
ATOM      5  H   UNL A   1      34.775  23.028  27.432  1.00  0.00     0.163 HD
BRANCH   3   6
ATOM      6  C   UNL A   1      31.946  22.408  25.641  1.00  0.00     0.147 C 
ATOM      7  C   UNL A   1      31.093  23.672  25.441  1.00  0.00     0.053 C 
BRANCH   6   8
ATOM      8  C   UNL A   1      32.733  21.987  24.322  1.00  0.00     0.060 C 
BRANCH   8   9
ATOM      9  C   UNL A   1      32.134  22.763  23.093  1.00  0.00     0.011 C 
BRANCH   9  10
ATOM     10  C   UNL A   1      33.179  23.447  22.203  1.00  0.00    -0.003 C 
ATOM     11  C   UNL A   1      33.217  24.960  22.337  1.00  0.00     0.004 C 
ENDBRANCH   9  10
ENDBRANCH   8   9
BRANCH   8  12
ATOM     12  C   UNL A   1      32.984  20.473  24.120  1.00  0.00    -0.042 A 
ATOM     13  C   UNL A   1      32.197  19.731  23.217  1.00  0.00     0.004 A 
ATOM     14  C   UNL A   1      33.964  19.746  24.817  1.00  0.00     0.004 A 
ATOM     15  C   UNL A   1      32.439  18.379  22.946  1.00  0.00     0.000 A 
ATOM     16  C   UNL A   1      34.184  18.381  24.582  1.00  0.00     0.000 A 
ATOM     17  C   UNL A   1      33.438  17.702  23.628  1.00  0.00     0.000 A 
ENDBRANCH   8  12
ENDBRANCH   6   8
BRANCH   6  18
ATOM     18  O   UNL A   1      30.998  21.364  25.963  1.00  0.00    -0.380 OA
ATOM     19  H   UNL A   1      31.391  20.499  25.767  1.00  0.00     0.212 HD
ENDBRANCH   6  18
ENDBRANCH   3   6
ENDBRANCH   1   2
BRANCH   1  20
ATOM     20  C   UNL A   1      36.006  22.866  24.987  1.00  0.00     0.042 C 
BRANCH  20  21
ATOM     21  C   UNL A   1      37.321  23.613  25.122  1.00  0.00     0.118 C 
BRANCH  21  22
ATOM     22  N   UNL A   1      38.431  22.745  25.499  1.00  0.00    -0.352 N 
ATOM     23  C   UNL A   1      39.575  23.030  26.206  1.00  0.00     0.251 C 
ATOM     24  H   UNL A   1      38.348  21.810  25.201  1.00  0.00     0.163 HD
ATOM     25  O   UNL A   1      40.483  22.212  26.266  1.00  0.00    -0.269 OA
BRANCH  23  26
ATOM     26  C   UNL A   1      39.716  24.343  26.870  1.00  0.00     0.039 A 
ATOM     27  C   UNL A   1      39.194  24.517  28.153  1.00  0.00     0.014 A 
ATOM     28  C   UNL A   1      40.373  25.396  26.232  1.00  0.00     0.014 A 
ATOM     29  C   UNL A   1      39.406  25.722  28.827  1.00  0.00     0.010 A 
ATOM     30  C   UNL A   1      40.676  26.550  26.940  1.00  0.00     0.010 A 
ATOM     31  C   UNL A   1      40.187  26.732  28.242  1.00  0.00    -0.014 A 
BRANCH  31  32
ATOM     32  C   UNL A   1      40.486  28.002  28.952  1.00  0.00     0.031 A 
ATOM     33  C   UNL A   1      41.792  28.153  29.685  1.00  0.00     0.074 A 
ATOM     34  C   UNL A   1      39.565  28.984  28.997  1.00  0.00     0.049 A 
ATOM     35  N   UNL A   1      42.195  29.127  30.461  1.00  0.00    -0.248 NA
ATOM     36  C   UNL A   1      42.762  27.052  29.553  1.00  0.00     0.031 C 
ATOM     37  C   UNL A   1      38.249  28.952  28.352  1.00  0.00     0.029 A 
ATOM     38  N   UNL A   1      39.593  30.205  29.626  1.00  0.00    -0.354 N 
ATOM     39  C   UNL A   1      43.454  28.750  30.914  1.00  0.00     0.074 A 
ATOM     40  C   UNL A   1      43.721  27.432  30.382  1.00  0.00     0.031 C 
ATOM     41  C   UNL A   1      37.610  30.109  28.596  1.00  0.00     0.029 A 
ATOM     42  C   UNL A   1      38.445  30.941  29.456  1.00  0.00     0.049 A 
ATOM     43  H   UNL A   1      40.363  30.523  30.149  1.00  0.00     0.167 HD
ATOM     44  C   UNL A   1      44.325  29.447  31.679  1.00  0.00     0.031 A 
ATOM     45  C   UNL A   1      38.099  32.145  29.951  1.00  0.00     0.031 A 
ATOM     46  C   UNL A   1      44.068  30.763  32.198  1.00  0.00     0.049 A 
ATOM     47  C   UNL A   1      39.070  32.878  30.837  1.00  0.00     0.074 A 
ATOM     48  C   UNL A   1      44.897  31.563  32.964  1.00  0.00     0.029 A 
ATOM     49  N   UNL A   1      42.897  31.474  31.994  1.00  0.00    -0.354 N 
ATOM     50  N   UNL A   1      40.274  32.525  31.217  1.00  0.00    -0.248 NA
ATOM     51  C   UNL A   1      38.637  34.185  31.354  1.00  0.00     0.031 C 
ATOM     52  C   UNL A   1      44.209  32.743  33.260  1.00  0.00     0.029 A 
ATOM     53  C   UNL A   1      42.978  32.701  32.627  1.00  0.00     0.049 A 
ATOM     54  H   UNL A   1      42.123  31.154  31.475  1.00  0.00     0.167 HD
ATOM     55  C   UNL A   1      40.756  33.583  31.977  1.00  0.00     0.074 A 
ATOM     56  C   UNL A   1      39.722  34.595  31.994  1.00  0.00     0.031 C 
ATOM     57  C   UNL A   1      41.949  33.707  32.608  1.00  0.00     0.031 A 
BRANCH  44  58
ATOM     58  C   UNL A   1      45.649  28.807  31.987  1.00  0.00    -0.014 A 
ATOM     59  C   UNL A   1      46.774  29.059  31.185  1.00  0.00     0.009 A 
ATOM     60  C   UNL A   1      45.791  27.993  33.120  1.00  0.00     0.009 A 
ATOM     61  C   UNL A   1      48.008  28.487  31.497  1.00  0.00     0.001 A 
ATOM     62  C   UNL A   1      47.033  27.446  33.448  1.00  0.00     0.001 A 
ATOM     63  C   UNL A   1      48.138  27.687  32.632  1.00  0.00     0.000 A 
ENDBRANCH  44  58
BRANCH  45  64
ATOM     64  C   UNL A   1      36.775  32.747  29.634  1.00  0.00    -0.014 A 
ATOM     65  C   UNL A   1      35.694  32.601  30.518  1.00  0.00     0.009 A 
ATOM     66  C   UNL A   1      36.566  33.418  28.419  1.00  0.00     0.009 A 
ATOM     67  C   UNL A   1      34.423  33.066  30.170  1.00  0.00     0.001 A 
ATOM     68  C   UNL A   1      35.303  33.915  28.089  1.00  0.00     0.001 A 
ATOM     69  C   UNL A   1      34.229  33.724  28.956  1.00  0.00     0.000 A 
ENDBRANCH  45  64
BRANCH  57  70
ATOM     70  C   UNL A   1      42.232  35.006  33.306  1.00  0.00    -0.014 A 
ATOM     71  C   UNL A   1      41.744  35.270  34.595  1.00  0.00     0.009 A 
ATOM     72  C   UNL A   1      43.046  35.963  32.678  1.00  0.00     0.009 A 
ATOM     73  C   UNL A   1      42.038  36.481  35.226  1.00  0.00     0.001 A 
ATOM     74  C   UNL A   1      43.366  37.157  33.323  1.00  0.00     0.001 A 
ATOM     75  C   UNL A   1      42.854  37.419  34.592  1.00  0.00     0.000 A 
ENDBRANCH  57  70
ENDBRANCH  31  32
ENDBRANCH  23  26
ENDBRANCH  21  22
ENDBRANCH  20  21
ENDBRANCH   1  20
TORSDOF 15
ENDMDL
MODEL 3
REMARK VINA RESULT:     -10.4      1.471      2.989
REMARK SMILES CCC[C@H](c1ccccc1)[C@@](C)(O)C(=O)NCCCNC(=O)c1ccc(-c2c3nc(c(-c4ccccc4)c4ccc([nH]4)c(-c4ccccc4)c4nc(c(-c5ccccc5)c5ccc2[nH]5)C=C4)C=C3)cc1
REMARK SMILES IDX 17 1 16 2 14 3 15 4 11 6 12 7 4 8 3 9 2 10 1 11 5 12 6 13
REMARK SMILES IDX 10 14 7 15 9 16 8 17 13 18 18 20 19 21 20 22 21 23 22 25
REMARK SMILES IDX 23 26 24 27 70 28 25 29 69 30 26 31 27 32 28 33 63 34 29 35
REMARK SMILES IDX 68 36 62 37 64 38 30 39 67 40 61 41 60 42 31 44 53 45 38 46
REMARK SMILES IDX 52 47 39 48 42 49 51 50 65 51 40 52 41 53 50 55 66 56 43 57
REMARK SMILES IDX 32 58 33 59 37 60 34 61 36 62 35 63 54 64 55 65 59 66 56 67
REMARK SMILES IDX 58 68 57 69 44 70 45 71 49 72 46 73 48 74 47 75
REMARK H PARENT 16 5 13 19 20 24 64 43 42 54
REMARK Flexibility Score: inf
ROOT
ATOM      1  C   UNL A   1      31.417  27.529  26.510  1.00  0.00     0.117 C 
ENDROOT
BRANCH   1   2
ATOM      2  N   UNL A   1      31.046  26.153  26.771  1.00  0.00    -0.354 N 
ATOM      3  C   UNL A   1      30.657  25.163  25.915  1.00  0.00     0.252 C 
ATOM      4  O   UNL A   1      30.252  24.124  26.442  1.00  0.00    -0.272 OA
ATOM      5  H   UNL A   1      31.078  25.889  27.719  1.00  0.00     0.163 HD
BRANCH   3   6
ATOM      6  C   UNL A   1      30.731  25.365  24.372  1.00  0.00     0.147 C 
ATOM      7  C   UNL A   1      29.595  26.276  23.877  1.00  0.00     0.053 C 
BRANCH   6   8
ATOM      8  C   UNL A   1      32.171  25.897  23.946  1.00  0.00     0.060 C 
BRANCH   8   9
ATOM      9  C   UNL A   1      32.073  26.573  22.530  1.00  0.00     0.011 C 
BRANCH   9  10
ATOM     10  C   UNL A   1      33.369  27.241  22.054  1.00  0.00    -0.003 C 
ATOM     11  C   UNL A   1      33.715  28.523  22.791  1.00  0.00     0.004 C 
ENDBRANCH   9  10
ENDBRANCH   8   9
BRANCH   8  12
ATOM     12  C   UNL A   1      33.358  24.928  24.163  1.00  0.00    -0.042 A 
ATOM     13  C   UNL A   1      34.249  25.116  25.237  1.00  0.00     0.004 A 
ATOM     14  C   UNL A   1      33.640  23.840  23.318  1.00  0.00     0.004 A 
ATOM     15  C   UNL A   1      35.289  24.220  25.515  1.00  0.00     0.000 A 
ATOM     16  C   UNL A   1      34.706  22.964  23.566  1.00  0.00     0.000 A 
ATOM     17  C   UNL A   1      35.516  23.139  24.679  1.00  0.00     0.000 A 
ENDBRANCH   8  12
ENDBRANCH   6   8
BRANCH   6  18
ATOM     18  O   UNL A   1      30.502  24.093  23.724  1.00  0.00    -0.380 OA
ATOM     19  H   UNL A   1      31.333  23.595  23.684  1.00  0.00     0.212 HD
ENDBRANCH   6  18
ENDBRANCH   3   6
ENDBRANCH   1   2
BRANCH   1  20
ATOM     20  C   UNL A   1      32.168  28.157  27.671  1.00  0.00     0.042 C 
BRANCH  20  21
ATOM     21  C   UNL A   1      33.470  28.829  27.270  1.00  0.00     0.118 C 
BRANCH  21  22
ATOM     22  N   UNL A   1      33.533  30.229  27.671  1.00  0.00    -0.352 N 
ATOM     23  C   UNL A   1      34.539  30.924  28.300  1.00  0.00     0.251 C 
ATOM     24  H   UNL A   1      32.731  30.760  27.459  1.00  0.00     0.163 HD
ATOM     25  O   UNL A   1      34.338  32.054  28.722  1.00  0.00    -0.269 OA
BRANCH  23  26
ATOM     26  C   UNL A   1      35.859  30.286  28.489  1.00  0.00     0.039 A 
ATOM     27  C   UNL A   1      36.772  30.283  27.432  1.00  0.00     0.014 A 
ATOM     28  C   UNL A   1      36.200  29.706  29.712  1.00  0.00     0.014 A 
ATOM     29  C   UNL A   1      38.056  29.769  27.632  1.00  0.00     0.010 A 
ATOM     30  C   UNL A   1      37.506  29.296  29.941  1.00  0.00     0.010 A 
ATOM     31  C   UNL A   1      38.446  29.312  28.901  1.00  0.00    -0.014 A 
BRANCH  31  32
ATOM     32  C   UNL A   1      39.821  28.817  29.167  1.00  0.00     0.031 A 
ATOM     33  C   UNL A   1      40.835  29.739  29.789  1.00  0.00     0.074 A 
ATOM     34  C   UNL A   1      40.177  27.573  28.789  1.00  0.00     0.049 A 
ATOM     35  N   UNL A   1      42.112  29.543  29.995  1.00  0.00    -0.248 NA
ATOM     36  C   UNL A   1      40.357  31.067  30.213  1.00  0.00     0.031 C 
ATOM     37  C   UNL A   1      39.297  26.590  28.150  1.00  0.00     0.029 A 
ATOM     38  N   UNL A   1      41.384  26.925  28.880  1.00  0.00    -0.354 N 
ATOM     39  C   UNL A   1      42.588  30.722  30.557  1.00  0.00     0.074 A 
ATOM     40  C   UNL A   1      41.480  31.650  30.601  1.00  0.00     0.031 C 
ATOM     41  C   UNL A   1      39.987  25.458  27.932  1.00  0.00     0.029 A 
ATOM     42  C   UNL A   1      41.366  25.650  28.365  1.00  0.00     0.049 A 
ATOM     43  H   UNL A   1      42.186  27.334  29.275  1.00  0.00     0.167 HD
ATOM     44  C   UNL A   1      43.827  31.000  31.024  1.00  0.00     0.031 A 
ATOM     45  C   UNL A   1      42.356  24.745  28.244  1.00  0.00     0.031 A 
ATOM     46  C   UNL A   1      44.926  30.075  30.995  1.00  0.00     0.049 A 
ATOM     47  C   UNL A   1      43.736  25.099  28.731  1.00  0.00     0.074 A 
ATOM     48  C   UNL A   1      46.215  30.254  31.466  1.00  0.00     0.029 A 
ATOM     49  N   UNL A   1      44.862  28.793  30.475  1.00  0.00    -0.354 N 
ATOM     50  N   UNL A   1      44.155  26.203  29.301  1.00  0.00    -0.248 NA
ATOM     51  C   UNL A   1      44.778  24.075  28.567  1.00  0.00     0.031 C 
ATOM     52  C   UNL A   1      46.944  29.094  31.191  1.00  0.00     0.029 A 
ATOM     53  C   UNL A   1      46.091  28.173  30.605  1.00  0.00     0.049 A 
ATOM     54  H   UNL A   1      44.060  28.384  30.073  1.00  0.00     0.167 HD
ATOM     55  C   UNL A   1      45.493  25.988  29.603  1.00  0.00     0.074 A 
ATOM     56  C   UNL A   1      45.813  24.645  29.166  1.00  0.00     0.031 C 
ATOM     57  C   UNL A   1      46.382  26.826  30.190  1.00  0.00     0.031 A 
BRANCH  44  58
ATOM     58  C   UNL A   1      44.055  32.358  31.626  1.00  0.00    -0.014 A 
ATOM     59  C   UNL A   1      43.873  32.576  33.002  1.00  0.00     0.009 A 
ATOM     60  C   UNL A   1      44.512  33.415  30.826  1.00  0.00     0.009 A 
ATOM     61  C   UNL A   1      44.121  33.831  33.558  1.00  0.00     0.001 A 
ATOM     62  C   UNL A   1      44.787  34.663  31.390  1.00  0.00     0.001 A 
ATOM     63  C   UNL A   1      44.584  34.871  32.754  1.00  0.00     0.000 A 
ENDBRANCH  44  58
BRANCH  45  64
ATOM     64  C   UNL A   1      42.098  23.411  27.634  1.00  0.00    -0.014 A 
ATOM     65  C   UNL A   1      42.374  23.182  26.277  1.00  0.00     0.009 A 
ATOM     66  C   UNL A   1      41.518  22.380  28.388  1.00  0.00     0.009 A 
ATOM     67  C   UNL A   1      42.026  21.969  25.676  1.00  0.00     0.001 A 
ATOM     68  C   UNL A   1      41.205  21.155  27.795  1.00  0.00     0.001 A 
ATOM     69  C   UNL A   1      41.444  20.956  26.436  1.00  0.00     0.000 A 
ENDBRANCH  45  64
BRANCH  57  70
ATOM     70  C   UNL A   1      47.761  26.295  30.460  1.00  0.00    -0.014 A 
ATOM     71  C   UNL A   1      48.114  25.770  31.711  1.00  0.00     0.009 A 
ATOM     72  C   UNL A   1      48.706  26.276  29.422  1.00  0.00     0.009 A 
ATOM     73  C   UNL A   1      49.400  25.267  31.927  1.00  0.00     0.001 A 
ATOM     74  C   UNL A   1      49.978  25.743  29.630  1.00  0.00     0.001 A 
ATOM     75  C   UNL A   1      50.327  25.248  30.885  1.00  0.00     0.000 A 
ENDBRANCH  57  70
ENDBRANCH  31  32
ENDBRANCH  23  26
ENDBRANCH  21  22
ENDBRANCH  20  21
ENDBRANCH   1  20
TORSDOF 15
ENDMDL
