MODEL 1
REMARK VINA RESULT:     -12.3      0.000      0.000
REMARK SMILES O=C(NCCCNC(=O)C1CCN(C2=[NH+]C(Cl)=[NH+]C3=[NH+]C=N[C@@H]32)CC1)c1ccc(-c2c3nc(c(-c4ccccc4)c4ccc([nH]4)c(-c4ccccc4)c4nc(c(-c5ccccc5)c5ccc2[nH]5)C=C4)C=C3)cc1
REMARK SMILES IDX 4 1 3 2 1 3 2 4 26 6 27 7 73 8 28 9 72 10 29 11 30 12 31 13
REMARK SMILES IDX 66 14 32 15 71 16 65 17 67 18 33 19 70 20 64 21 63 22 34 24
REMARK SMILES IDX 56 25 41 26 55 27 42 28 45 29 54 30 68 31 43 32 44 33 53 35
REMARK SMILES IDX 69 36 46 37 35 38 36 39 40 40 37 41 39 42 38 43 57 44 58 45
REMARK SMILES IDX 62 46 59 47 61 48 60 49 47 50 48 51 52 52 49 53 51 54 50 55
REMARK SMILES IDX 5 56 6 57 7 58 8 59 9 61 10 62 11 63 25 64 12 65 24 66 13 67
REMARK SMILES IDX 14 68 15 69 23 70 16 71 19 73 22 74 17 75 18 76 20 77 21 78
REMARK H PARENT 3 5 67 23 45 34 7 60 15 72 18 79 20 80
REMARK Flexibility Score: inf
ROOT
ATOM      1  C   UNL A   1      34.309  31.811  27.659  1.00  0.00     0.118 C 
ENDROOT
BRANCH   1   2
ATOM      2  N   UNL A   1      34.467  32.176  29.054  1.00  0.00    -0.352 N 
ATOM      3  O   UNL A   1      35.275  32.620  31.058  1.00  0.00    -0.269 OA
ATOM      4  C   UNL A   1      35.421  31.981  30.012  1.00  0.00     0.251 C 
ATOM      5  H   UNL A   1      33.700  32.690  29.393  1.00  0.00     0.163 HD
BRANCH   4   6
ATOM      6  C   UNL A   1      36.556  31.025  29.917  1.00  0.00     0.039 A 
ATOM      7  C   UNL A   1      36.462  29.637  30.008  1.00  0.00     0.014 A 
ATOM      8  C   UNL A   1      37.834  31.602  29.771  1.00  0.00     0.014 A 
ATOM      9  C   UNL A   1      37.612  28.852  30.060  1.00  0.00     0.010 A 
ATOM     10  C   UNL A   1      38.985  30.822  29.800  1.00  0.00     0.010 A 
ATOM     11  C   UNL A   1      38.873  29.448  29.992  1.00  0.00    -0.014 A 
BRANCH  11  12
ATOM     12  C   UNL A   1      40.049  28.586  30.059  1.00  0.00     0.031 A 
ATOM     13  C   UNL A   1      40.706  28.455  31.391  1.00  0.00     0.074 A 
ATOM     14  C   UNL A   1      40.454  27.810  29.034  1.00  0.00     0.049 A 
ATOM     15  N   UNL A   1      41.939  28.696  31.708  1.00  0.00    -0.248 NA
ATOM     16  C   UNL A   1      39.866  28.030  32.521  1.00  0.00     0.031 C 
ATOM     17  C   UNL A   1      39.756  27.557  27.772  1.00  0.00     0.029 A 
ATOM     18  N   UNL A   1      41.535  26.979  28.968  1.00  0.00    -0.354 N 
ATOM     19  C   UNL A   1      42.077  28.309  33.041  1.00  0.00     0.074 A 
ATOM     20  C   UNL A   1      40.751  28.001  33.517  1.00  0.00     0.031 C 
ATOM     21  C   UNL A   1      40.302  26.473  27.176  1.00  0.00     0.029 A 
ATOM     22  C   UNL A   1      41.460  26.048  27.944  1.00  0.00     0.049 A 
ATOM     23  H   UNL A   1      42.296  27.038  29.589  1.00  0.00     0.167 HD
ATOM     24  C   UNL A   1      43.290  28.086  33.621  1.00  0.00     0.031 A 
ATOM     25  C   UNL A   1      42.248  24.960  27.777  1.00  0.00     0.031 A 
ATOM     26  C   UNL A   1      44.372  28.675  32.883  1.00  0.00     0.049 A 
ATOM     27  C   UNL A   1      43.479  25.147  28.575  1.00  0.00     0.074 A 
ATOM     28  C   UNL A   1      44.721  29.954  32.498  1.00  0.00     0.029 A 
ATOM     29  N   UNL A   1      45.176  27.837  32.151  1.00  0.00    -0.354 N 
ATOM     30  N   UNL A   1      44.403  26.017  28.290  1.00  0.00    -0.248 NA
ATOM     31  C   UNL A   1      43.524  24.610  29.926  1.00  0.00     0.031 C 
ATOM     32  C   UNL A   1      45.346  29.799  31.226  1.00  0.00     0.029 A 
ATOM     33  C   UNL A   1      45.358  28.435  30.932  1.00  0.00     0.049 A 
ATOM     34  H   UNL A   1      45.550  26.975  32.444  1.00  0.00     0.167 HD
ATOM     35  C   UNL A   1      44.871  26.453  29.520  1.00  0.00     0.074 A 
ATOM     36  C   UNL A   1      44.389  25.464  30.479  1.00  0.00     0.031 C 
ATOM     37  C   UNL A   1      45.363  27.717  29.678  1.00  0.00     0.031 A 
BRANCH  24  38
ATOM     38  C   UNL A   1      43.532  27.022  34.664  1.00  0.00    -0.014 A 
ATOM     39  C   UNL A   1      43.511  25.668  34.276  1.00  0.00     0.009 A 
ATOM     40  C   UNL A   1      43.488  27.282  36.047  1.00  0.00     0.009 A 
ATOM     41  C   UNL A   1      43.373  24.640  35.218  1.00  0.00     0.001 A 
ATOM     42  C   UNL A   1      43.397  26.256  36.992  1.00  0.00     0.001 A 
ATOM     43  C   UNL A   1      43.309  24.937  36.575  1.00  0.00     0.000 A 
ENDBRANCH  24  38
BRANCH  25  44
ATOM     44  C   UNL A   1      41.891  23.662  27.170  1.00  0.00    -0.014 A 
ATOM     45  C   UNL A   1      42.702  23.075  26.186  1.00  0.00     0.009 A 
ATOM     46  C   UNL A   1      40.876  22.873  27.741  1.00  0.00     0.009 A 
ATOM     47  C   UNL A   1      42.517  21.739  25.810  1.00  0.00     0.001 A 
ATOM     48  C   UNL A   1      40.686  21.542  27.360  1.00  0.00     0.001 A 
ATOM     49  C   UNL A   1      41.517  20.971  26.403  1.00  0.00     0.000 A 
ENDBRANCH  25  44
BRANCH  37  50
ATOM     50  C   UNL A   1      45.621  28.534  28.437  1.00  0.00    -0.014 A 
ATOM     51  C   UNL A   1      44.632  29.343  27.847  1.00  0.00     0.009 A 
ATOM     52  C   UNL A   1      46.928  28.610  27.937  1.00  0.00     0.009 A 
ATOM     53  C   UNL A   1      44.935  30.171  26.763  1.00  0.00     0.001 A 
ATOM     54  C   UNL A   1      47.236  29.456  26.868  1.00  0.00     0.001 A 
ATOM     55  C   UNL A   1      46.239  30.230  26.277  1.00  0.00     0.000 A 
ENDBRANCH  37  50
ENDBRANCH  11  12
ENDBRANCH   4   6
ENDBRANCH   1   2
BRANCH   1  56
ATOM     56  C   UNL A   1      33.739  30.414  27.391  1.00  0.00     0.042 C 
BRANCH  56  57
ATOM     57  C   UNL A   1      32.274  30.369  26.954  1.00  0.00     0.117 C 
BRANCH  57  58
ATOM     58  N   UNL A   1      32.084  29.767  25.648  1.00  0.00    -0.356 N 
ATOM     59  C   UNL A   1      32.055  28.470  25.249  1.00  0.00     0.223 C 
ATOM     60  H   UNL A   1      31.954  30.417  24.919  1.00  0.00     0.163 HD
ATOM     61  O   UNL A   1      31.881  28.255  24.047  1.00  0.00    -0.275 OA
BRANCH  59  62
ATOM     62  C   UNL A   1      32.200  27.342  26.261  1.00  0.00     0.087 C 
ATOM     63  C   UNL A   1      33.594  26.706  26.174  1.00  0.00     0.068 C 
ATOM     64  C   UNL A   1      31.095  26.293  26.056  1.00  0.00     0.068 C 
ATOM     65  C   UNL A   1      33.762  25.786  24.973  1.00  0.00     0.277 C 
ATOM     66  C   UNL A   1      31.339  25.376  24.848  1.00  0.00     0.277 C 
ATOM     67  N   UNL A   1      32.680  24.806  24.936  1.00  0.00    -0.230 N 
ATOM     68  C   UNL A   1      32.934  23.467  24.671  1.00  0.00     0.383 C 
ATOM     69  N   UNL A   1      32.197  22.773  23.847  1.00  0.00    -0.155 N 
ATOM     70  C   UNL A   1      34.123  22.791  25.331  1.00  0.00     0.523 C 
ATOM     71  C   UNL A   1      32.552  21.471  23.576  1.00  0.00     0.414 C 
ATOM     72  H   UNL A   1      31.402  23.173  23.428  1.00  0.00     0.367 HD
ATOM     73  C   UNL A   1      33.782  21.354  25.390  1.00  0.00     0.389 C 
ATOM     74  N   UNL A   1      34.270  23.102  26.773  1.00  0.00     0.003 NA
ATOM     75  Cl  UNL A   1      31.912  20.813  22.131  1.00  0.00     0.028 Cl
ATOM     76  N   UNL A   1      33.323  20.720  24.292  1.00  0.00    -0.155 N 
ATOM     77  N   UNL A   1      33.860  20.850  26.569  1.00  0.00    -0.169 N 
ATOM     78  C   UNL A   1      34.145  21.942  27.351  1.00  0.00     0.532 C 
ATOM     79  H   UNL A   1      33.549  19.789  24.062  1.00  0.00     0.367 HD
ATOM     80  H   UNL A   1      33.744  19.913  26.845  1.00  0.00     0.365 HD
ENDBRANCH  59  62
ENDBRANCH  57  58
ENDBRANCH  56  57
ENDBRANCH   1  56
TORSDOF 10
ENDMDL
MODEL 2
REMARK VINA RESULT:     -12.2      3.063      8.102
REMARK SMILES O=C(NCCCNC(=O)C1CCN(C2=[NH+]C(Cl)=[NH+]C3=[NH+]C=N[C@@H]32)CC1)c1ccc(-c2c3nc(c(-c4ccccc4)c4ccc([nH]4)c(-c4ccccc4)c4nc(c(-c5ccccc5)c5ccc2[nH]5)C=C4)C=C3)cc1
REMARK SMILES IDX 4 1 3 2 1 3 2 4 26 6 27 7 73 8 28 9 72 10 29 11 30 12 31 13
REMARK SMILES IDX 66 14 32 15 71 16 65 17 67 18 33 19 70 20 64 21 63 22 34 24
REMARK SMILES IDX 56 25 41 26 55 27 42 28 45 29 54 30 68 31 43 32 44 33 53 35
REMARK SMILES IDX 69 36 46 37 35 38 36 39 40 40 37 41 39 42 38 43 57 44 58 45
REMARK SMILES IDX 62 46 59 47 61 48 60 49 47 50 48 51 52 52 49 53 51 54 50 55
REMARK SMILES IDX 5 56 6 57 7 58 8 59 9 61 10 62 11 63 25 64 12 65 24 66 13 67
REMARK SMILES IDX 14 68 15 69 23 70 16 71 19 73 22 74 17 75 18 76 20 77 21 78
REMARK H PARENT 3 5 67 23 45 34 7 60 15 72 18 79 20 80
REMARK Flexibility Score: inf
ROOT
ATOM      1  C   UNL A   1      38.158  21.982  25.748  1.00  0.00     0.118 C 
ENDROOT
BRANCH   1   2
ATOM      2  N   UNL A   1      39.600  21.832  25.772  1.00  0.00    -0.352 N 
ATOM      3  O   UNL A   1      41.738  21.918  26.306  1.00  0.00    -0.269 OA
ATOM      4  C   UNL A   1      40.637  22.468  26.393  1.00  0.00     0.251 C 
ATOM      5  H   UNL A   1      39.906  21.090  25.202  1.00  0.00     0.163 HD
BRANCH   4   6
ATOM      6  C   UNL A   1      40.553  23.780  27.088  1.00  0.00     0.039 A 
ATOM      7  C   UNL A   1      39.572  24.750  26.883  1.00  0.00     0.014 A 
ATOM      8  C   UNL A   1      41.595  24.063  27.994  1.00  0.00     0.014 A 
ATOM      9  C   UNL A   1      39.683  26.004  27.479  1.00  0.00     0.010 A 
ATOM     10  C   UNL A   1      41.699  25.306  28.609  1.00  0.00     0.010 A 
ATOM     11  C   UNL A   1      40.764  26.293  28.313  1.00  0.00    -0.014 A 
BRANCH  11  12
ATOM     12  C   UNL A   1      40.842  27.624  28.908  1.00  0.00     0.031 A 
ATOM     13  C   UNL A   1      41.853  28.556  28.332  1.00  0.00     0.074 A 
ATOM     14  C   UNL A   1      39.958  28.076  29.820  1.00  0.00     0.049 A 
ATOM     15  N   UNL A   1      42.814  29.177  28.938  1.00  0.00    -0.248 NA
ATOM     16  C   UNL A   1      41.802  28.796  26.881  1.00  0.00     0.031 C 
ATOM     17  C   UNL A   1      38.718  27.434  30.262  1.00  0.00     0.029 A 
ATOM     18  N   UNL A   1      39.932  29.284  30.455  1.00  0.00    -0.354 N 
ATOM     19  C   UNL A   1      43.399  30.010  27.984  1.00  0.00     0.074 A 
ATOM     20  C   UNL A   1      42.802  29.662  26.718  1.00  0.00     0.031 C 
ATOM     21  C   UNL A   1      37.954  28.347  30.903  1.00  0.00     0.029 A 
ATOM     22  C   UNL A   1      38.707  29.584  31.030  1.00  0.00     0.049 A 
ATOM     23  H   UNL A   1      40.711  29.884  30.502  1.00  0.00     0.167 HD
ATOM     24  C   UNL A   1      44.200  31.060  28.316  1.00  0.00     0.031 A 
ATOM     25  C   UNL A   1      38.308  30.785  31.512  1.00  0.00     0.031 A 
ATOM     26  C   UNL A   1      44.704  30.969  29.658  1.00  0.00     0.049 A 
ATOM     27  C   UNL A   1      39.508  31.614  31.753  1.00  0.00     0.074 A 
ATOM     28  C   UNL A   1      45.484  30.071  30.359  1.00  0.00     0.029 A 
ATOM     29  N   UNL A   1      44.151  31.794  30.606  1.00  0.00    -0.354 N 
ATOM     30  N   UNL A   1      40.372  31.380  32.697  1.00  0.00    -0.248 NA
ATOM     31  C   UNL A   1      39.959  32.513  30.703  1.00  0.00     0.031 C 
ATOM     32  C   UNL A   1      44.971  30.095  31.688  1.00  0.00     0.029 A 
ATOM     33  C   UNL A   1      43.929  31.023  31.716  1.00  0.00     0.049 A 
ATOM     34  H   UNL A   1      43.952  32.753  30.507  1.00  0.00     0.167 HD
ATOM     35  C   UNL A   1      41.596  31.744  32.155  1.00  0.00     0.074 A 
ATOM     36  C   UNL A   1      41.264  32.550  30.983  1.00  0.00     0.031 C 
ATOM     37  C   UNL A   1      42.750  31.127  32.544  1.00  0.00     0.031 A 
BRANCH  24  38
ATOM     38  C   UNL A   1      44.235  32.358  27.547  1.00  0.00    -0.014 A 
ATOM     39  C   UNL A   1      43.657  33.508  28.120  1.00  0.00     0.009 A 
ATOM     40  C   UNL A   1      44.546  32.426  26.175  1.00  0.00     0.009 A 
ATOM     41  C   UNL A   1      43.338  34.630  27.344  1.00  0.00     0.001 A 
ATOM     42  C   UNL A   1      44.271  33.562  25.408  1.00  0.00     0.001 A 
ATOM     43  C   UNL A   1      43.639  34.653  25.987  1.00  0.00     0.000 A 
ENDBRANCH  24  38
BRANCH  25  44
ATOM     44  C   UNL A   1      36.942  31.347  31.539  1.00  0.00    -0.014 A 
ATOM     45  C   UNL A   1      36.352  31.756  32.744  1.00  0.00     0.009 A 
ATOM     46  C   UNL A   1      36.308  31.716  30.338  1.00  0.00     0.009 A 
ATOM     47  C   UNL A   1      35.183  32.529  32.742  1.00  0.00     0.001 A 
ATOM     48  C   UNL A   1      35.139  32.481  30.336  1.00  0.00     0.001 A 
ATOM     49  C   UNL A   1      34.584  32.899  31.540  1.00  0.00     0.000 A 
ENDBRANCH  25  44
BRANCH  37  50
ATOM     50  C   UNL A   1      42.696  30.226  33.752  1.00  0.00    -0.014 A 
ATOM     51  C   UNL A   1      42.956  30.694  35.053  1.00  0.00     0.009 A 
ATOM     52  C   UNL A   1      42.226  28.915  33.597  1.00  0.00     0.009 A 
ATOM     53  C   UNL A   1      42.790  29.860  36.162  1.00  0.00     0.001 A 
ATOM     54  C   UNL A   1      42.038  28.088  34.708  1.00  0.00     0.001 A 
ATOM     55  C   UNL A   1      42.327  28.558  35.988  1.00  0.00     0.000 A 
ENDBRANCH  37  50
ENDBRANCH  11  12
ENDBRANCH   4   6
ENDBRANCH   1   2
BRANCH   1  56
ATOM     56  C   UNL A   1      37.386  20.925  24.951  1.00  0.00     0.042 C 
BRANCH  56  57
ATOM     57  C   UNL A   1      35.901  20.789  25.291  1.00  0.00     0.117 C 
BRANCH  57  58
ATOM     58  N   UNL A   1      35.510  21.554  26.461  1.00  0.00    -0.356 N 
ATOM     59  C   UNL A   1      34.514  22.455  26.655  1.00  0.00     0.223 C 
ATOM     60  H   UNL A   1      36.069  21.390  27.255  1.00  0.00     0.163 HD
ATOM     61  O   UNL A   1      34.426  22.962  27.777  1.00  0.00    -0.275 OA
BRANCH  59  62
ATOM     62  C   UNL A   1      33.537  22.789  25.537  1.00  0.00     0.087 C 
ATOM     63  C   UNL A   1      34.221  23.621  24.444  1.00  0.00     0.068 C 
ATOM     64  C   UNL A   1      32.305  23.514  26.101  1.00  0.00     0.068 C 
ATOM     65  C   UNL A   1      34.426  25.078  24.836  1.00  0.00     0.277 C 
ATOM     66  C   UNL A   1      32.568  24.987  26.446  1.00  0.00     0.277 C 
ATOM     67  N   UNL A   1      33.166  25.656  25.294  1.00  0.00    -0.230 N 
ATOM     68  C   UNL A   1      32.763  26.918  24.880  1.00  0.00     0.383 C 
ATOM     69  N   UNL A   1      32.271  27.795  25.711  1.00  0.00    -0.155 N 
ATOM     70  C   UNL A   1      32.925  27.308  23.420  1.00  0.00     0.523 C 
ATOM     71  C   UNL A   1      31.962  29.052  25.242  1.00  0.00     0.414 C 
ATOM     72  H   UNL A   1      32.124  27.563  26.656  1.00  0.00     0.367 HD
ATOM     73  C   UNL A   1      31.898  28.340  23.167  1.00  0.00     0.389 C 
ATOM     74  N   UNL A   1      32.505  26.255  22.464  1.00  0.00     0.003 NA
ATOM     75  Cl  UNL A   1      31.854  30.281  26.429  1.00  0.00     0.028 Cl
ATOM     76  N   UNL A   1      31.764  29.385  24.008  1.00  0.00    -0.155 N 
ATOM     77  N   UNL A   1      31.124  28.070  22.179  1.00  0.00    -0.169 N 
ATOM     78  C   UNL A   1      31.528  26.812  21.807  1.00  0.00     0.532 C 
ATOM     79  H   UNL A   1      31.541  30.299  23.717  1.00  0.00     0.367 HD
ATOM     80  H   UNL A   1      30.416  28.627  21.783  1.00  0.00     0.365 HD
ENDBRANCH  59  62
ENDBRANCH  57  58
ENDBRANCH  56  57
ENDBRANCH   1  56
TORSDOF 10
ENDMDL
MODEL 3
REMARK VINA RESULT:     -12.2      4.711      7.914
REMARK SMILES O=C(NCCCNC(=O)C1CCN(C2=[NH+]C(Cl)=[NH+]C3=[NH+]C=N[C@@H]32)CC1)c1ccc(-c2c3nc(c(-c4ccccc4)c4ccc([nH]4)c(-c4ccccc4)c4nc(c(-c5ccccc5)c5ccc2[nH]5)C=C4)C=C3)cc1
REMARK SMILES IDX 4 1 3 2 1 3 2 4 26 6 27 7 73 8 28 9 72 10 29 11 30 12 31 13
REMARK SMILES IDX 66 14 32 15 71 16 65 17 67 18 33 19 70 20 64 21 63 22 34 24
REMARK SMILES IDX 56 25 41 26 55 27 42 28 45 29 54 30 68 31 43 32 44 33 53 35
REMARK SMILES IDX 69 36 46 37 35 38 36 39 40 40 37 41 39 42 38 43 57 44 58 45
REMARK SMILES IDX 62 46 59 47 61 48 60 49 47 50 48 51 52 52 49 53 51 54 50 55
REMARK SMILES IDX 5 56 6 57 7 58 8 59 9 61 10 62 11 63 25 64 12 65 24 66 13 67
REMARK SMILES IDX 14 68 15 69 23 70 16 71 19 73 22 74 17 75 18 76 20 77 21 78
REMARK H PARENT 3 5 67 23 45 34 7 60 15 72 18 79 20 80
REMARK Flexibility Score: inf
ROOT
ATOM      1  C   UNL A   1      41.707  34.253  33.140  1.00  0.00     0.118 C 
ENDROOT
BRANCH   1   2
ATOM      2  N   UNL A   1      41.041  34.622  31.905  1.00  0.00    -0.352 N 
ATOM      3  O   UNL A   1      39.877  34.612  30.032  1.00  0.00    -0.269 OA
ATOM      4  C   UNL A   1      40.563  33.950  30.816  1.00  0.00     0.251 C 
ATOM      5  H   UNL A   1      40.899  35.593  31.835  1.00  0.00     0.163 HD
BRANCH   4   6
ATOM      6  C   UNL A   1      40.860  32.533  30.477  1.00  0.00     0.039 A 
ATOM      7  C   UNL A   1      39.979  31.461  30.614  1.00  0.00     0.014 A 
ATOM      8  C   UNL A   1      42.168  32.271  30.024  1.00  0.00     0.014 A 
ATOM      9  C   UNL A   1      40.418  30.155  30.411  1.00  0.00     0.010 A 
ATOM     10  C   UNL A   1      42.607  30.971  29.799  1.00  0.00     0.010 A 
ATOM     11  C   UNL A   1      41.741  29.908  30.038  1.00  0.00    -0.014 A 
BRANCH  11  12
ATOM     12  C   UNL A   1      42.158  28.522  29.845  1.00  0.00     0.031 A 
ATOM     13  C   UNL A   1      42.933  27.897  30.954  1.00  0.00     0.074 A 
ATOM     14  C   UNL A   1      41.746  27.767  28.807  1.00  0.00     0.049 A 
ATOM     15  N   UNL A   1      44.104  27.345  30.907  1.00  0.00    -0.248 NA
ATOM     16  C   UNL A   1      42.335  27.924  32.298  1.00  0.00     0.031 C 
ATOM     17  C   UNL A   1      40.733  28.098  27.804  1.00  0.00     0.029 A 
ATOM     18  N   UNL A   1      42.074  26.476  28.510  1.00  0.00    -0.354 N 
ATOM     19  C   UNL A   1      44.332  26.813  32.176  1.00  0.00     0.074 A 
ATOM     20  C   UNL A   1      43.258  27.285  33.016  1.00  0.00     0.031 C 
ATOM     21  C   UNL A   1      40.363  26.968  27.161  1.00  0.00     0.029 A 
ATOM     22  C   UNL A   1      41.204  25.873  27.615  1.00  0.00     0.049 A 
ATOM     23  H   UNL A   1      42.855  26.017  28.895  1.00  0.00     0.167 HD
ATOM     24  C   UNL A   1      45.284  25.870  32.419  1.00  0.00     0.031 A 
ATOM     25  C   UNL A   1      41.129  24.554  27.318  1.00  0.00     0.031 A 
ATOM     26  C   UNL A   1      46.267  25.794  31.375  1.00  0.00     0.049 A 
ATOM     27  C   UNL A   1      42.392  23.908  27.736  1.00  0.00     0.074 A 
ATOM     28  C   UNL A   1      47.182  26.665  30.818  1.00  0.00     0.029 A 
ATOM     29  N   UNL A   1      46.203  24.727  30.513  1.00  0.00    -0.354 N 
ATOM     30  N   UNL A   1      43.536  24.105  27.149  1.00  0.00    -0.248 NA
ATOM     31  C   UNL A   1      42.466  23.308  29.059  1.00  0.00     0.031 C 
ATOM     32  C   UNL A   1      47.239  26.309  29.439  1.00  0.00     0.029 A 
ATOM     33  C   UNL A   1      46.374  25.230  29.251  1.00  0.00     0.049 A 
ATOM     34  H   UNL A   1      46.063  23.783  30.755  1.00  0.00     0.167 HD
ATOM     35  C   UNL A   1      44.472  24.058  28.171  1.00  0.00     0.074 A 
ATOM     36  C   UNL A   1      43.774  23.439  29.294  1.00  0.00     0.031 C 
ATOM     37  C   UNL A   1      45.630  24.778  28.098  1.00  0.00     0.031 A 
BRANCH  24  38
ATOM     38  C   UNL A   1      45.120  24.761  33.431  1.00  0.00    -0.014 A 
ATOM     39  C   UNL A   1      44.258  23.688  33.134  1.00  0.00     0.009 A 
ATOM     40  C   UNL A   1      45.546  24.877  34.768  1.00  0.00     0.009 A 
ATOM     41  C   UNL A   1      43.788  22.829  34.137  1.00  0.00     0.001 A 
ATOM     42  C   UNL A   1      45.116  23.993  35.761  1.00  0.00     0.001 A 
ATOM     43  C   UNL A   1      44.213  22.988  35.451  1.00  0.00     0.000 A 
ENDBRANCH  24  38
BRANCH  25  44
ATOM     44  C   UNL A   1      39.937  23.775  26.926  1.00  0.00    -0.014 A 
ATOM     45  C   UNL A   1      38.707  24.406  26.688  1.00  0.00     0.009 A 
ATOM     46  C   UNL A   1      40.071  22.429  26.540  1.00  0.00     0.009 A 
ATOM     47  C   UNL A   1      37.660  23.718  26.062  1.00  0.00     0.001 A 
ATOM     48  C   UNL A   1      39.025  21.740  25.922  1.00  0.00     0.001 A 
ATOM     49  C   UNL A   1      37.822  22.391  25.670  1.00  0.00     0.000 A 
ENDBRANCH  25  44
BRANCH  37  50
ATOM     50  C   UNL A   1      45.982  25.417  26.778  1.00  0.00    -0.014 A 
ATOM     51  C   UNL A   1      45.420  26.636  26.357  1.00  0.00     0.009 A 
ATOM     52  C   UNL A   1      47.012  24.859  26.010  1.00  0.00     0.009 A 
ATOM     53  C   UNL A   1      45.849  27.256  25.181  1.00  0.00     0.001 A 
ATOM     54  C   UNL A   1      47.458  25.490  24.845  1.00  0.00     0.001 A 
ATOM     55  C   UNL A   1      46.872  26.683  24.428  1.00  0.00     0.000 A 
ENDBRANCH  37  50
ENDBRANCH  11  12
ENDBRANCH   4   6
ENDBRANCH   1   2
BRANCH   1  56
ATOM     56  C   UNL A   1      41.217  32.963  33.808  1.00  0.00     0.042 C 
BRANCH  56  57
ATOM     57  C   UNL A   1      40.402  33.147  35.088  1.00  0.00     0.117 C 
BRANCH  57  58
ATOM     58  N   UNL A   1      39.176  32.372  35.102  1.00  0.00    -0.356 N 
ATOM     59  C   UNL A   1      37.881  32.733  34.914  1.00  0.00     0.223 C 
ATOM     60  H   UNL A   1      39.306  31.413  35.280  1.00  0.00     0.163 HD
ATOM     61  O   UNL A   1      37.031  31.842  34.994  1.00  0.00    -0.275 OA
BRANCH  59  62
ATOM     62  C   UNL A   1      37.514  34.174  34.588  1.00  0.00     0.087 C 
ATOM     63  C   UNL A   1      36.023  34.429  34.846  1.00  0.00     0.068 C 
ATOM     64  C   UNL A   1      37.895  34.509  33.137  1.00  0.00     0.068 C 
ATOM     65  C   UNL A   1      35.118  33.849  33.767  1.00  0.00     0.277 C 
ATOM     66  C   UNL A   1      36.926  33.923  32.101  1.00  0.00     0.277 C 
ATOM     67  N   UNL A   1      35.558  34.297  32.449  1.00  0.00    -0.230 N 
ATOM     68  C   UNL A   1      34.646  34.737  31.500  1.00  0.00     0.383 C 
ATOM     69  N   UNL A   1      34.712  34.363  30.251  1.00  0.00    -0.155 N 
ATOM     70  C   UNL A   1      33.516  35.658  31.926  1.00  0.00     0.523 C 
ATOM     71  C   UNL A   1      33.730  34.780  29.382  1.00  0.00     0.414 C 
ATOM     72  H   UNL A   1      35.449  33.792  29.937  1.00  0.00     0.367 HD
ATOM     73  C   UNL A   1      33.147  36.423  30.716  1.00  0.00     0.389 C 
ATOM     74  N   UNL A   1      33.939  36.754  32.830  1.00  0.00     0.003 NA
ATOM     75  Cl  UNL A   1      33.558  33.850  27.955  1.00  0.00     0.028 Cl
ATOM     76  N   UNL A   1      32.931  35.784  29.549  1.00  0.00    -0.155 N 
ATOM     77  N   UNL A   1      33.175  37.696  30.879  1.00  0.00    -0.169 N 
ATOM     78  C   UNL A   1      33.663  37.832  32.155  1.00  0.00     0.532 C 
ATOM     79  H   UNL A   1      32.243  36.050  28.897  1.00  0.00     0.367 HD
ATOM     80  H   UNL A   1      32.911  38.402  30.246  1.00  0.00     0.365 HD
ENDBRANCH  59  62
ENDBRANCH  57  58
ENDBRANCH  56  57
ENDBRANCH   1  56
TORSDOF 10
ENDMDL
