MODEL 1
REMARK VINA RESULT:      -9.4      0.000      0.000
REMARK SMILES C[C@@H](NS(=O)(=O)/C=C/c1ccccc1)C(=O)NCCCNC(=O)c1ccc(-c2c3nc(c(-c4ccccc4)c4ccc([nH]4)c(-c4ccccc4)c4nc(c(-c5ccccc5)c5ccc2[nH]5)C=C4)C=C3)cc1
REMARK SMILES IDX 18 1 17 2 15 3 16 4 2 6 1 7 3 8 4 10 5 11 6 12 7 13 8 14
REMARK SMILES IDX 9 15 10 16 14 17 11 18 13 19 12 20 19 21 20 22 21 23 22 24
REMARK SMILES IDX 23 26 24 27 25 28 71 29 26 30 70 31 27 32 28 33 29 34 64 35
REMARK SMILES IDX 30 36 69 37 63 38 65 39 31 40 68 41 62 42 61 43 32 45 54 46
REMARK SMILES IDX 39 47 53 48 40 49 43 50 52 51 66 52 41 53 42 54 51 56 67 57
REMARK SMILES IDX 44 58 33 59 34 60 38 61 35 62 37 63 36 64 55 65 56 66 60 67
REMARK SMILES IDX 57 68 59 69 58 70 45 71 46 72 50 73 47 74 49 75 48 76
REMARK H PARENT 17 5 3 9 21 25 65 44 43 55
REMARK Flexibility Score: inf
ROOT
ATOM      1  C   UNL A   1      35.574  33.125  30.714  1.00  0.00     0.117 C 
ENDROOT
BRANCH   1   2
ATOM      2  N   UNL A   1      34.438  32.850  31.580  1.00  0.00    -0.355 N 
ATOM      3  C   UNL A   1      34.134  33.342  32.817  1.00  0.00     0.237 C 
ATOM      4  O   UNL A   1      33.042  33.037  33.301  1.00  0.00    -0.273 OA
ATOM      5  H   UNL A   1      33.785  32.209  31.218  1.00  0.00     0.163 HD
BRANCH   3   6
ATOM      6  C   UNL A   1      35.114  34.225  33.584  1.00  0.00     0.155 C 
ATOM      7  C   UNL A   1      34.607  35.664  33.622  1.00  0.00     0.036 C 
BRANCH   6   8
ATOM      8  N   UNL A   1      35.364  33.717  34.959  1.00  0.00    -0.199 NA
ATOM      9  H   UNL A   1      34.891  32.817  35.049  1.00  0.00     0.142 HD
BRANCH   8  10
ATOM     10  S   UNL A   1      36.996  33.491  35.396  1.00  0.00     0.234 S 
ATOM     11  O   UNL A   1      37.719  34.558  34.740  1.00  0.00    -0.208 OA
ATOM     12  O   UNL A   1      36.969  33.420  36.842  1.00  0.00    -0.208 OA
BRANCH  10  13
ATOM     13  C   UNL A   1      37.512  31.973  34.748  1.00  0.00     0.123 C 
ATOM     14  C   UNL A   1      38.775  31.845  34.320  1.00  0.00     0.021 C 
BRANCH  14  15
ATOM     15  C   UNL A   1      39.344  30.593  33.818  1.00  0.00    -0.025 A 
ATOM     16  C   UNL A   1      38.572  29.663  33.110  1.00  0.00     0.008 A 
ATOM     17  C   UNL A   1      40.669  30.279  34.134  1.00  0.00     0.008 A 
ATOM     18  C   UNL A   1      39.107  28.422  32.758  1.00  0.00     0.001 A 
ATOM     19  C   UNL A   1      41.211  29.047  33.761  1.00  0.00     0.001 A 
ATOM     20  C   UNL A   1      40.426  28.114  33.087  1.00  0.00     0.000 A 
ENDBRANCH  14  15
ENDBRANCH  10  13
ENDBRANCH   8  10
ENDBRANCH   6   8
ENDBRANCH   3   6
ENDBRANCH   1   2
BRANCH   1  21
ATOM     21  C   UNL A   1      35.179  34.000  29.533  1.00  0.00     0.042 C 
BRANCH  21  22
ATOM     22  C   UNL A   1      35.276  33.293  28.188  1.00  0.00     0.118 C 
BRANCH  22  23
ATOM     23  N   UNL A   1      34.240  32.289  27.992  1.00  0.00    -0.352 N 
ATOM     24  C   UNL A   1      34.361  30.922  27.914  1.00  0.00     0.251 C 
ATOM     25  H   UNL A   1      33.324  32.638  27.901  1.00  0.00     0.163 HD
ATOM     26  O   UNL A   1      33.398  30.232  27.593  1.00  0.00    -0.269 OA
BRANCH  24  27
ATOM     27  C   UNL A   1      35.667  30.283  28.185  1.00  0.00     0.039 A 
ATOM     28  C   UNL A   1      36.628  30.256  27.173  1.00  0.00     0.014 A 
ATOM     29  C   UNL A   1      35.953  29.736  29.439  1.00  0.00     0.014 A 
ATOM     30  C   UNL A   1      37.900  29.750  27.442  1.00  0.00     0.010 A 
ATOM     31  C   UNL A   1      37.247  29.316  29.733  1.00  0.00     0.010 A 
ATOM     32  C   UNL A   1      38.235  29.316  28.737  1.00  0.00    -0.014 A 
BRANCH  32  33
ATOM     33  C   UNL A   1      39.619  28.883  29.061  1.00  0.00     0.031 A 
ATOM     34  C   UNL A   1      40.558  29.801  29.793  1.00  0.00     0.074 A 
ATOM     35  C   UNL A   1      40.045  27.672  28.651  1.00  0.00     0.049 A 
ATOM     36  N   UNL A   1      41.794  29.586  30.170  1.00  0.00    -0.248 NA
ATOM     37  C   UNL A   1      40.056  31.145  30.124  1.00  0.00     0.031 C 
ATOM     38  C   UNL A   1      39.255  26.711  27.878  1.00  0.00     0.029 A 
ATOM     39  N   UNL A   1      41.250  27.040  28.832  1.00  0.00    -0.354 N 
ATOM     40  C   UNL A   1      42.216  30.766  30.771  1.00  0.00     0.074 A 
ATOM     41  C   UNL A   1      41.130  31.712  30.656  1.00  0.00     0.031 C 
ATOM     42  C   UNL A   1      39.978  25.594  27.694  1.00  0.00     0.029 A 
ATOM     43  C   UNL A   1      41.293  25.775  28.299  1.00  0.00     0.049 A 
ATOM     44  H   UNL A   1      42.011  27.454  29.300  1.00  0.00     0.167 HD
ATOM     45  C   UNL A   1      43.394  31.031  31.386  1.00  0.00     0.031 A 
ATOM     46  C   UNL A   1      42.277  24.856  28.304  1.00  0.00     0.031 A 
ATOM     47  C   UNL A   1      44.475  30.089  31.506  1.00  0.00     0.049 A 
ATOM     48  C   UNL A   1      43.572  25.174  28.997  1.00  0.00     0.074 A 
ATOM     49  C   UNL A   1      45.687  30.245  32.157  1.00  0.00     0.029 A 
ATOM     50  N   UNL A   1      44.477  28.816  30.957  1.00  0.00    -0.354 N 
ATOM     51  N   UNL A   1      43.925  26.266  29.630  1.00  0.00    -0.248 NA
ATOM     52  C   UNL A   1      44.597  24.121  28.991  1.00  0.00     0.031 C 
ATOM     53  C   UNL A   1      46.442  29.084  31.960  1.00  0.00     0.029 A 
ATOM     54  C   UNL A   1      45.677  28.183  31.238  1.00  0.00     0.049 A 
ATOM     55  H   UNL A   1      43.735  28.421  30.445  1.00  0.00     0.167 HD
ATOM     56  C   UNL A   1      45.201  26.021  30.122  1.00  0.00     0.074 A 
ATOM     57  C   UNL A   1      45.548  24.669  29.733  1.00  0.00     0.031 C 
ATOM     58  C   UNL A   1      46.012  26.842  30.835  1.00  0.00     0.031 A 
BRANCH  45  59
ATOM     59  C   UNL A   1      43.572  32.405  31.973  1.00  0.00    -0.014 A 
ATOM     60  C   UNL A   1      43.210  32.680  33.303  1.00  0.00     0.009 A 
ATOM     61  C   UNL A   1      44.140  33.430  31.200  1.00  0.00     0.009 A 
ATOM     62  C   UNL A   1      43.376  33.962  33.831  1.00  0.00     0.001 A 
ATOM     63  C   UNL A   1      44.333  34.702  31.741  1.00  0.00     0.001 A 
ATOM     64  C   UNL A   1      43.942  34.970  33.052  1.00  0.00     0.000 A 
ENDBRANCH  45  59
BRANCH  46  65
ATOM     65  C   UNL A   1      42.067  23.534  27.658  1.00  0.00    -0.014 A 
ATOM     66  C   UNL A   1      42.490  23.311  26.338  1.00  0.00     0.009 A 
ATOM     67  C   UNL A   1      41.437  22.490  28.354  1.00  0.00     0.009 A 
ATOM     68  C   UNL A   1      42.257  22.081  25.718  1.00  0.00     0.001 A 
ATOM     69  C   UNL A   1      41.235  21.251  27.742  1.00  0.00     0.001 A 
ATOM     70  C   UNL A   1      41.635  21.051  26.422  1.00  0.00     0.000 A 
ENDBRANCH  46  65
BRANCH  58  71
ATOM     71  C   UNL A   1      47.339  26.281  31.267  1.00  0.00    -0.014 A 
ATOM     72  C   UNL A   1      47.515  25.714  32.539  1.00  0.00     0.009 A 
ATOM     73  C   UNL A   1      48.426  26.312  30.380  1.00  0.00     0.009 A 
ATOM     74  C   UNL A   1      48.767  25.233  32.930  1.00  0.00     0.001 A 
ATOM     75  C   UNL A   1      49.667  25.800  30.761  1.00  0.00     0.001 A 
ATOM     76  C   UNL A   1      49.840  25.274  32.040  1.00  0.00     0.000 A 
ENDBRANCH  58  71
ENDBRANCH  32  33
ENDBRANCH  24  27
ENDBRANCH  22  23
ENDBRANCH  21  22
ENDBRANCH   1  21
TORSDOF 14
ENDMDL
MODEL 2
REMARK VINA RESULT:      -9.2      3.870      9.035
REMARK SMILES C[C@@H](NS(=O)(=O)/C=C/c1ccccc1)C(=O)NCCCNC(=O)c1ccc(-c2c3nc(c(-c4ccccc4)c4ccc([nH]4)c(-c4ccccc4)c4nc(c(-c5ccccc5)c5ccc2[nH]5)C=C4)C=C3)cc1
REMARK SMILES IDX 18 1 17 2 15 3 16 4 2 6 1 7 3 8 4 10 5 11 6 12 7 13 8 14
REMARK SMILES IDX 9 15 10 16 14 17 11 18 13 19 12 20 19 21 20 22 21 23 22 24
REMARK SMILES IDX 23 26 24 27 25 28 71 29 26 30 70 31 27 32 28 33 29 34 64 35
REMARK SMILES IDX 30 36 69 37 63 38 65 39 31 40 68 41 62 42 61 43 32 45 54 46
REMARK SMILES IDX 39 47 53 48 40 49 43 50 52 51 66 52 41 53 42 54 51 56 67 57
REMARK SMILES IDX 44 58 33 59 34 60 38 61 35 62 37 63 36 64 55 65 56 66 60 67
REMARK SMILES IDX 57 68 59 69 58 70 45 71 46 72 50 73 47 74 49 75 48 76
REMARK H PARENT 17 5 3 9 21 25 65 44 43 55
REMARK Flexibility Score: inf
ROOT
ATOM      1  C   UNL A   1      31.907  29.402  25.590  1.00  0.00     0.117 C 
ENDROOT
BRANCH   1   2
ATOM      2  N   UNL A   1      32.977  29.511  24.611  1.00  0.00    -0.355 N 
ATOM      3  C   UNL A   1      33.084  28.976  23.360  1.00  0.00     0.237 C 
ATOM      4  O   UNL A   1      34.052  29.313  22.674  1.00  0.00    -0.273 OA
ATOM      5  H   UNL A   1      33.746  30.056  24.895  1.00  0.00     0.163 HD
BRANCH   3   6
ATOM      6  C   UNL A   1      32.053  27.984  22.829  1.00  0.00     0.155 C 
ATOM      7  C   UNL A   1      30.749  28.706  22.499  1.00  0.00     0.036 C 
BRANCH   6   8
ATOM      8  N   UNL A   1      32.556  27.237  21.645  1.00  0.00    -0.199 NA
ATOM      9  H   UNL A   1      33.485  27.595  21.424  1.00  0.00     0.142 HD
BRANCH   8  10
ATOM     10  S   UNL A   1      32.680  25.546  21.816  1.00  0.00     0.234 S 
ATOM     11  O   UNL A   1      31.431  25.129  22.416  1.00  0.00    -0.208 OA
ATOM     12  O   UNL A   1      33.035  25.080  20.492  1.00  0.00    -0.208 OA
BRANCH  10  13
ATOM     13  C   UNL A   1      33.975  25.218  22.914  1.00  0.00     0.123 C 
ATOM     14  C   UNL A   1      34.207  23.951  23.286  1.00  0.00     0.021 C 
BRANCH  14  15
ATOM     15  C   UNL A   1      35.314  23.545  24.153  1.00  0.00    -0.025 A 
ATOM     16  C   UNL A   1      35.491  24.092  25.431  1.00  0.00     0.008 A 
ATOM     17  C   UNL A   1      36.271  22.656  23.655  1.00  0.00     0.008 A 
ATOM     18  C   UNL A   1      36.626  23.783  26.182  1.00  0.00     0.001 A 
ATOM     19  C   UNL A   1      37.395  22.329  24.416  1.00  0.00     0.001 A 
ATOM     20  C   UNL A   1      37.580  22.903  25.672  1.00  0.00     0.000 A 
ENDBRANCH  14  15
ENDBRANCH  10  13
ENDBRANCH   8  10
ENDBRANCH   6   8
ENDBRANCH   3   6
ENDBRANCH   1   2
BRANCH   1  21
ATOM     21  C   UNL A   1      32.368  28.677  26.846  1.00  0.00     0.042 C 
BRANCH  21  22
ATOM     22  C   UNL A   1      33.786  29.035  27.273  1.00  0.00     0.118 C 
BRANCH  22  23
ATOM     23  N   UNL A   1      33.864  30.292  28.004  1.00  0.00    -0.352 N 
ATOM     24  C   UNL A   1      34.914  30.812  28.723  1.00  0.00     0.251 C 
ATOM     25  H   UNL A   1      33.051  30.846  27.981  1.00  0.00     0.163 HD
ATOM     26  O   UNL A   1      34.757  31.819  29.406  1.00  0.00    -0.269 OA
BRANCH  24  27
ATOM     27  C   UNL A   1      36.228  30.134  28.700  1.00  0.00     0.039 A 
ATOM     28  C   UNL A   1      36.997  30.193  27.537  1.00  0.00     0.014 A 
ATOM     29  C   UNL A   1      36.712  29.466  29.828  1.00  0.00     0.014 A 
ATOM     30  C   UNL A   1      38.281  29.647  27.530  1.00  0.00     0.010 A 
ATOM     31  C   UNL A   1      38.024  29.003  29.849  1.00  0.00     0.010 A 
ATOM     32  C   UNL A   1      38.824  29.086  28.700  1.00  0.00    -0.014 A 
BRANCH  32  33
ATOM     33  C   UNL A   1      40.229  28.607  28.734  1.00  0.00     0.031 A 
ATOM     34  C   UNL A   1      40.562  27.183  28.384  1.00  0.00     0.074 A 
ATOM     35  C   UNL A   1      41.206  29.450  29.125  1.00  0.00     0.049 A 
ATOM     36  N   UNL A   1      41.732  26.595  28.346  1.00  0.00    -0.248 NA
ATOM     37  C   UNL A   1      39.435  26.293  28.060  1.00  0.00     0.031 C 
ATOM     38  C   UNL A   1      41.010  30.838  29.550  1.00  0.00     0.029 A 
ATOM     39  N   UNL A   1      42.561  29.262  29.224  1.00  0.00    -0.354 N 
ATOM     40  C   UNL A   1      41.480  25.272  28.005  1.00  0.00     0.074 A 
ATOM     41  C   UNL A   1      40.045  25.127  27.906  1.00  0.00     0.031 C 
ATOM     42  C   UNL A   1      42.204  31.389  29.817  1.00  0.00     0.029 A 
ATOM     43  C   UNL A   1      43.245  30.385  29.622  1.00  0.00     0.049 A 
ATOM     44  H   UNL A   1      43.003  28.403  29.029  1.00  0.00     0.167 HD
ATOM     45  C   UNL A   1      42.363  24.272  27.771  1.00  0.00     0.031 A 
ATOM     46  C   UNL A   1      44.564  30.590  29.801  1.00  0.00     0.031 A 
ATOM     47  C   UNL A   1      43.792  24.416  27.864  1.00  0.00     0.049 A 
ATOM     48  C   UNL A   1      45.523  29.466  29.530  1.00  0.00     0.074 A 
ATOM     49  C   UNL A   1      44.773  23.477  27.593  1.00  0.00     0.029 A 
ATOM     50  N   UNL A   1      44.444  25.572  28.264  1.00  0.00    -0.354 N 
ATOM     51  N   UNL A   1      45.272  28.243  29.129  1.00  0.00    -0.248 NA
ATOM     52  C   UNL A   1      46.950  29.759  29.717  1.00  0.00     0.031 C 
ATOM     53  C   UNL A   1      46.017  24.050  27.878  1.00  0.00     0.029 A 
ATOM     54  C   UNL A   1      45.814  25.364  28.267  1.00  0.00     0.049 A 
ATOM     55  H   UNL A   1      44.000  26.415  28.508  1.00  0.00     0.167 HD
ATOM     56  C   UNL A   1      46.510  27.630  28.989  1.00  0.00     0.074 A 
ATOM     57  C   UNL A   1      47.510  28.624  29.326  1.00  0.00     0.031 C 
ATOM     58  C   UNL A   1      46.796  26.358  28.614  1.00  0.00     0.031 A 
BRANCH  45  59
ATOM     59  C   UNL A   1      41.801  22.929  27.393  1.00  0.00    -0.014 A 
ATOM     60  C   UNL A   1      41.601  21.927  28.357  1.00  0.00     0.009 A 
ATOM     61  C   UNL A   1      41.437  22.670  26.062  1.00  0.00     0.009 A 
ATOM     62  C   UNL A   1      41.084  20.683  27.989  1.00  0.00     0.001 A 
ATOM     63  C   UNL A   1      40.893  21.437  25.702  1.00  0.00     0.001 A 
ATOM     64  C   UNL A   1      40.726  20.440  26.663  1.00  0.00     0.000 A 
ENDBRANCH  45  59
BRANCH  46  65
ATOM     65  C   UNL A   1      45.060  31.924  30.231  1.00  0.00    -0.014 A 
ATOM     66  C   UNL A   1      45.395  32.899  29.279  1.00  0.00     0.009 A 
ATOM     67  C   UNL A   1      45.209  32.227  31.593  1.00  0.00     0.009 A 
ATOM     68  C   UNL A   1      45.898  34.139  29.681  1.00  0.00     0.001 A 
ATOM     69  C   UNL A   1      45.683  33.477  31.993  1.00  0.00     0.001 A 
ATOM     70  C   UNL A   1      46.037  34.428  31.037  1.00  0.00     0.000 A 
ENDBRANCH  46  65
BRANCH  58  71
ATOM     71  C   UNL A   1      48.249  25.987  28.515  1.00  0.00    -0.014 A 
ATOM     72  C   UNL A   1      48.943  26.062  27.297  1.00  0.00     0.009 A 
ATOM     73  C   UNL A   1      48.937  25.565  29.664  1.00  0.00     0.009 A 
ATOM     74  C   UNL A   1      50.284  25.676  27.224  1.00  0.00     0.001 A 
ATOM     75  C   UNL A   1      50.285  25.213  29.594  1.00  0.00     0.001 A 
ATOM     76  C   UNL A   1      50.954  25.255  28.372  1.00  0.00     0.000 A 
ENDBRANCH  58  71
ENDBRANCH  32  33
ENDBRANCH  24  27
ENDBRANCH  22  23
ENDBRANCH  21  22
ENDBRANCH   1  21
TORSDOF 14
ENDMDL
MODEL 3
REMARK VINA RESULT:      -9.1      3.990      6.783
REMARK SMILES C[C@@H](NS(=O)(=O)/C=C/c1ccccc1)C(=O)NCCCNC(=O)c1ccc(-c2c3nc(c(-c4ccccc4)c4ccc([nH]4)c(-c4ccccc4)c4nc(c(-c5ccccc5)c5ccc2[nH]5)C=C4)C=C3)cc1
REMARK SMILES IDX 18 1 17 2 15 3 16 4 2 6 1 7 3 8 4 10 5 11 6 12 7 13 8 14
REMARK SMILES IDX 9 15 10 16 14 17 11 18 13 19 12 20 19 21 20 22 21 23 22 24
REMARK SMILES IDX 23 26 24 27 25 28 71 29 26 30 70 31 27 32 28 33 29 34 64 35
REMARK SMILES IDX 30 36 69 37 63 38 65 39 31 40 68 41 62 42 61 43 32 45 54 46
REMARK SMILES IDX 39 47 53 48 40 49 43 50 52 51 66 52 41 53 42 54 51 56 67 57
REMARK SMILES IDX 44 58 33 59 34 60 38 61 35 62 37 63 36 64 55 65 56 66 60 67
REMARK SMILES IDX 57 68 59 69 58 70 45 71 46 72 50 73 47 74 49 75 48 76
REMARK H PARENT 17 5 3 9 21 25 65 44 43 55
REMARK Flexibility Score: inf
ROOT
ATOM      1  C   UNL A   1      33.129  28.878  24.716  1.00  0.00     0.117 C 
ENDROOT
BRANCH   1   2
ATOM      2  N   UNL A   1      32.122  29.397  23.804  1.00  0.00    -0.355 N 
ATOM      3  C   UNL A   1      31.185  28.739  23.060  1.00  0.00     0.237 C 
ATOM      4  O   UNL A   1      30.361  29.421  22.446  1.00  0.00    -0.273 OA
ATOM      5  H   UNL A   1      32.114  30.376  23.709  1.00  0.00     0.163 HD
BRANCH   3   6
ATOM      6  C   UNL A   1      31.163  27.216  22.975  1.00  0.00     0.155 C 
ATOM      7  C   UNL A   1      29.832  26.680  23.496  1.00  0.00     0.036 C 
BRANCH   6   8
ATOM      8  N   UNL A   1      31.423  26.730  21.594  1.00  0.00    -0.199 NA
ATOM      9  H   UNL A   1      31.304  27.520  20.959  1.00  0.00     0.142 HD
BRANCH   8  10
ATOM     10  S   UNL A   1      32.965  26.063  21.306  1.00  0.00     0.234 S 
ATOM     11  O   UNL A   1      32.918  25.564  19.948  1.00  0.00    -0.208 OA
ATOM     12  O   UNL A   1      33.883  27.127  21.653  1.00  0.00    -0.208 OA
BRANCH  10  13
ATOM     13  C   UNL A   1      33.178  24.734  22.392  1.00  0.00     0.123 C 
ATOM     14  C   UNL A   1      34.005  24.874  23.437  1.00  0.00     0.021 C 
BRANCH  14  15
ATOM     15  C   UNL A   1      34.211  23.847  24.458  1.00  0.00    -0.025 A 
ATOM     16  C   UNL A   1      34.419  22.503  24.122  1.00  0.00     0.008 A 
ATOM     17  C   UNL A   1      34.107  24.203  25.806  1.00  0.00     0.008 A 
ATOM     18  C   UNL A   1      34.483  21.526  25.118  1.00  0.00     0.001 A 
ATOM     19  C   UNL A   1      34.194  23.229  26.803  1.00  0.00     0.001 A 
ATOM     20  C   UNL A   1      34.367  21.890  26.458  1.00  0.00     0.000 A 
ENDBRANCH  14  15
ENDBRANCH  10  13
ENDBRANCH   8  10
ENDBRANCH   6   8
ENDBRANCH   3   6
ENDBRANCH   1   2
BRANCH   1  21
ATOM     21  C   UNL A   1      32.536  28.546  26.077  1.00  0.00     0.042 C 
BRANCH  21  22
ATOM     22  C   UNL A   1      33.497  28.776  27.236  1.00  0.00     0.118 C 
BRANCH  22  23
ATOM     23  N   UNL A   1      33.519  30.157  27.697  1.00  0.00    -0.352 N 
ATOM     24  C   UNL A   1      34.526  30.841  28.336  1.00  0.00     0.251 C 
ATOM     25  H   UNL A   1      32.698  30.672  27.529  1.00  0.00     0.163 HD
ATOM     26  O   UNL A   1      34.321  31.961  28.792  1.00  0.00    -0.269 OA
BRANCH  24  27
ATOM     27  C   UNL A   1      35.853  30.209  28.504  1.00  0.00     0.039 A 
ATOM     28  C   UNL A   1      36.757  30.243  27.441  1.00  0.00     0.014 A 
ATOM     29  C   UNL A   1      36.214  29.607  29.713  1.00  0.00     0.014 A 
ATOM     30  C   UNL A   1      38.047  29.742  27.615  1.00  0.00     0.010 A 
ATOM     31  C   UNL A   1      37.527  29.191  29.914  1.00  0.00     0.010 A 
ATOM     32  C   UNL A   1      38.458  29.252  28.868  1.00  0.00    -0.014 A 
BRANCH  32  33
ATOM     33  C   UNL A   1      39.863  28.824  29.093  1.00  0.00     0.031 A 
ATOM     34  C   UNL A   1      40.853  29.752  29.740  1.00  0.00     0.074 A 
ATOM     35  C   UNL A   1      40.258  27.607  28.670  1.00  0.00     0.049 A 
ATOM     36  N   UNL A   1      42.113  29.542  30.027  1.00  0.00    -0.248 NA
ATOM     37  C   UNL A   1      40.376  31.101  30.088  1.00  0.00     0.031 C 
ATOM     38  C   UNL A   1      39.414  26.634  27.973  1.00  0.00     0.029 A 
ATOM     39  N   UNL A   1      41.473  26.977  28.771  1.00  0.00    -0.354 N 
ATOM     40  C   UNL A   1      42.579  30.730  30.578  1.00  0.00     0.074 A 
ATOM     41  C   UNL A   1      41.486  31.675  30.530  1.00  0.00     0.031 C 
ATOM     42  C   UNL A   1      40.121  25.515  27.752  1.00  0.00     0.029 A 
ATOM     43  C   UNL A   1      41.478  25.704  28.255  1.00  0.00     0.049 A 
ATOM     44  H   UNL A   1      42.267  27.398  29.175  1.00  0.00     0.167 HD
ATOM     45  C   UNL A   1      43.798  31.005  31.099  1.00  0.00     0.031 A 
ATOM     46  C   UNL A   1      42.461  24.785  28.199  1.00  0.00     0.031 A 
ATOM     47  C   UNL A   1      44.886  30.064  31.152  1.00  0.00     0.049 A 
ATOM     48  C   UNL A   1      43.803  25.113  28.790  1.00  0.00     0.074 A 
ATOM     49  C   UNL A   1      46.143  30.229  31.709  1.00  0.00     0.029 A 
ATOM     50  N   UNL A   1      44.848  28.783  30.624  1.00  0.00    -0.354 N 
ATOM     51  N   UNL A   1      44.202  26.214  29.379  1.00  0.00    -0.248 NA
ATOM     52  C   UNL A   1      44.826  24.060  28.723  1.00  0.00     0.031 C 
ATOM     53  C   UNL A   1      46.882  29.065  31.474  1.00  0.00     0.029 A 
ATOM     54  C   UNL A   1      46.066  28.153  30.824  1.00  0.00     0.049 A 
ATOM     55  H   UNL A   1      44.071  28.380  30.174  1.00  0.00     0.167 HD
ATOM     56  C   UNL A   1      45.510  25.976  29.778  1.00  0.00     0.074 A 
ATOM     57  C   UNL A   1      45.829  24.618  29.383  1.00  0.00     0.031 C 
ATOM     58  C   UNL A   1      46.372  26.807  30.417  1.00  0.00     0.031 A 
BRANCH  45  59
ATOM     59  C   UNL A   1      44.019  32.386  31.652  1.00  0.00    -0.014 A 
ATOM     60  C   UNL A   1      43.799  32.671  33.010  1.00  0.00     0.009 A 
ATOM     61  C   UNL A   1      44.483  33.411  30.812  1.00  0.00     0.009 A 
ATOM     62  C   UNL A   1      44.003  33.960  33.506  1.00  0.00     0.001 A 
ATOM     63  C   UNL A   1      44.715  34.692  31.318  1.00  0.00     0.001 A 
ATOM     64  C   UNL A   1      44.465  34.968  32.661  1.00  0.00     0.000 A 
ENDBRANCH  45  59
BRANCH  46  65
ATOM     65  C   UNL A   1      42.204  23.454  27.590  1.00  0.00    -0.014 A 
ATOM     66  C   UNL A   1      42.523  23.213  26.245  1.00  0.00     0.009 A 
ATOM     67  C   UNL A   1      41.633  22.419  28.348  1.00  0.00     0.009 A 
ATOM     68  C   UNL A   1      42.246  21.974  25.662  1.00  0.00     0.001 A 
ATOM     69  C   UNL A   1      41.386  21.172  27.771  1.00  0.00     0.001 A 
ATOM     70  C   UNL A   1      41.683  20.953  26.426  1.00  0.00     0.000 A 
ENDBRANCH  46  65
BRANCH  58  71
ATOM     71  C   UNL A   1      47.727  26.252  30.757  1.00  0.00    -0.014 A 
ATOM     72  C   UNL A   1      48.766  26.227  29.813  1.00  0.00     0.009 A 
ATOM     73  C   UNL A   1      47.970  25.757  32.048  1.00  0.00     0.009 A 
ATOM     74  C   UNL A   1      50.005  25.673  30.142  1.00  0.00     0.001 A 
ATOM     75  C   UNL A   1      49.220  25.235  32.383  1.00  0.00     0.001 A 
ATOM     76  C   UNL A   1      50.232  25.181  31.427  1.00  0.00     0.000 A 
ENDBRANCH  58  71
ENDBRANCH  32  33
ENDBRANCH  24  27
ENDBRANCH  22  23
ENDBRANCH  21  22
ENDBRANCH   1  21
TORSDOF 14
ENDMDL
