MODEL 1
REMARK VINA RESULT:     -11.9      0.000      0.000
REMARK SMILES O=C(NCCCNC(=O)c1ccc(NC(=O)c2ccc([N+](=O)[O-])cc2Cl)cc1Cl)c1ccc(-c2c3nc(c(-c4ccccc4)c4ccc([nH]4)c(-c4ccccc4)c4nc(c(-c5ccccc5)c5ccc2[nH]5)C=C4)C=C3)cc1
REMARK SMILES IDX 5 1 4 2 3 3 1 4 2 5 30 7 31 8 77 9 32 10 76 11 33 12 34 13
REMARK SMILES IDX 35 14 70 15 36 16 75 17 69 18 71 19 37 20 74 21 68 22 67 23
REMARK SMILES IDX 38 25 60 26 45 27 59 28 46 29 49 30 58 31 72 32 47 33 48 34
REMARK SMILES IDX 57 36 73 37 50 38 39 39 40 40 44 41 41 42 43 43 42 44 61 45
REMARK SMILES IDX 62 46 66 47 63 48 65 49 64 50 51 51 52 52 56 53 53 54 55 55
REMARK SMILES IDX 54 56 6 57 7 58 8 59 9 61 10 62 11 63 28 64 12 65 27 66
REMARK SMILES IDX 29 67 13 68 14 69 15 70 16 72 17 73 18 74 25 75 19 76 24 77
REMARK SMILES IDX 26 78 20 79 21 80 22 81 23 82
REMARK H PARENT 3 6 71 24 49 35 7 60 14 71
REMARK Flexibility Score: inf
ROOT
ATOM      1  C   UNL A   1      37.783  19.447  24.986  1.00  0.00     0.042 C 
ENDROOT
BRANCH   1   2
ATOM      2  C   UNL A   1      38.935  20.062  25.763  1.00  0.00     0.118 C 
BRANCH   2   3
ATOM      3  N   UNL A   1      40.131  19.231  25.777  1.00  0.00    -0.352 N 
ATOM      4  O   UNL A   1      42.317  18.704  25.869  1.00  0.00    -0.269 OA
ATOM      5  C   UNL A   1      41.437  19.537  26.073  1.00  0.00     0.251 C 
ATOM      6  H   UNL A   1      39.978  18.290  25.531  1.00  0.00     0.163 HD
BRANCH   5   7
ATOM      7  C   UNL A   1      41.801  20.866  26.612  1.00  0.00     0.039 A 
ATOM      8  C   UNL A   1      41.785  21.116  27.983  1.00  0.00     0.014 A 
ATOM      9  C   UNL A   1      42.206  21.873  25.729  1.00  0.00     0.014 A 
ATOM     10  C   UNL A   1      41.997  22.406  28.457  1.00  0.00     0.010 A 
ATOM     11  C   UNL A   1      42.528  23.144  26.216  1.00  0.00     0.010 A 
ATOM     12  C   UNL A   1      42.394  23.429  27.582  1.00  0.00    -0.014 A 
BRANCH  12  13
ATOM     13  C   UNL A   1      42.733  24.762  28.144  1.00  0.00     0.031 A 
ATOM     14  C   UNL A   1      44.153  25.146  28.452  1.00  0.00     0.074 A 
ATOM     15  C   UNL A   1      41.736  25.649  28.335  1.00  0.00     0.049 A 
ATOM     16  N   UNL A   1      44.615  26.286  28.900  1.00  0.00    -0.248 NA
ATOM     17  C   UNL A   1      45.189  24.123  28.237  1.00  0.00     0.031 C 
ATOM     18  C   UNL A   1      40.316  25.388  28.079  1.00  0.00     0.029 A 
ATOM     19  N   UNL A   1      41.764  26.953  28.755  1.00  0.00    -0.354 N 
ATOM     20  C   UNL A   1      45.987  26.115  29.041  1.00  0.00     0.074 A 
ATOM     21  C   UNL A   1      46.281  24.752  28.651  1.00  0.00     0.031 C 
ATOM     22  C   UNL A   1      39.619  26.514  28.287  1.00  0.00     0.029 A 
ATOM     23  C   UNL A   1      40.528  27.551  28.756  1.00  0.00     0.049 A 
ATOM     24  H   UNL A   1      42.588  27.415  29.029  1.00  0.00     0.167 HD
ATOM     25  C   UNL A   1      46.914  27.011  29.454  1.00  0.00     0.031 A 
ATOM     26  C   UNL A   1      40.157  28.796  29.108  1.00  0.00     0.031 A 
ATOM     27  C   UNL A   1      46.618  28.367  29.838  1.00  0.00     0.049 A 
ATOM     28  C   UNL A   1      41.203  29.758  29.587  1.00  0.00     0.074 A 
ATOM     29  C   UNL A   1      47.495  29.359  30.243  1.00  0.00     0.029 A 
ATOM     30  N   UNL A   1      45.348  28.921  29.870  1.00  0.00    -0.354 N 
ATOM     31  N   UNL A   1      42.497  29.584  29.685  1.00  0.00    -0.248 NA
ATOM     32  C   UNL A   1      40.733  31.084  30.008  1.00  0.00     0.031 C 
ATOM     33  C   UNL A   1      46.750  30.498  30.567  1.00  0.00     0.029 A 
ATOM     34  C   UNL A   1      45.415  30.232  30.313  1.00  0.00     0.049 A 
ATOM     35  H   UNL A   1      44.521  28.452  29.617  1.00  0.00     0.167 HD
ATOM     36  C   UNL A   1      43.002  30.783  30.169  1.00  0.00     0.074 A 
ATOM     37  C   UNL A   1      41.875  31.682  30.318  1.00  0.00     0.031 C 
ATOM     38  C   UNL A   1      44.282  31.108  30.467  1.00  0.00     0.031 A 
BRANCH  25  39
ATOM     39  C   UNL A   1      48.343  26.548  29.538  1.00  0.00    -0.014 A 
ATOM     40  C   UNL A   1      49.243  26.759  28.482  1.00  0.00     0.009 A 
ATOM     41  C   UNL A   1      48.808  25.940  30.715  1.00  0.00     0.009 A 
ATOM     42  C   UNL A   1      50.573  26.346  28.593  1.00  0.00     0.001 A 
ATOM     43  C   UNL A   1      50.143  25.550  30.833  1.00  0.00     0.001 A 
ATOM     44  C   UNL A   1      51.023  25.747  29.770  1.00  0.00     0.000 A 
ENDBRANCH  25  39
BRANCH  26  45
ATOM     45  C   UNL A   1      38.727  29.189  29.037  1.00  0.00    -0.014 A 
ATOM     46  C   UNL A   1      37.888  29.042  30.151  1.00  0.00     0.009 A 
ATOM     47  C   UNL A   1      38.199  29.729  27.854  1.00  0.00     0.009 A 
ATOM     48  C   UNL A   1      36.543  29.412  30.075  1.00  0.00     0.001 A 
ATOM     49  C   UNL A   1      36.863  30.127  27.791  1.00  0.00     0.001 A 
ATOM     50  C   UNL A   1      36.034  29.960  28.898  1.00  0.00     0.000 A 
ENDBRANCH  26  45
BRANCH  38  51
ATOM     51  C   UNL A   1      44.527  32.502  30.967  1.00  0.00    -0.014 A 
ATOM     52  C   UNL A   1      44.552  32.786  32.341  1.00  0.00     0.009 A 
ATOM     53  C   UNL A   1      44.751  33.541  30.052  1.00  0.00     0.009 A 
ATOM     54  C   UNL A   1      44.762  34.091  32.787  1.00  0.00     0.001 A 
ATOM     55  C   UNL A   1      44.988  34.841  30.502  1.00  0.00     0.001 A 
ATOM     56  C   UNL A   1      44.982  35.116  31.868  1.00  0.00     0.000 A 
ENDBRANCH  38  51
ENDBRANCH  12  13
ENDBRANCH   5   7
ENDBRANCH   2   3
ENDBRANCH   1   2
BRANCH   1  57
ATOM     57  C   UNL A   1      36.661  20.414  24.643  1.00  0.00     0.118 C 
BRANCH  57  58
ATOM     58  N   UNL A   1      35.769  20.693  25.759  1.00  0.00    -0.352 N 
ATOM     59  C   UNL A   1      34.638  21.468  25.812  1.00  0.00     0.252 C 
ATOM     60  H   UNL A   1      36.015  20.257  26.606  1.00  0.00     0.163 HD
ATOM     61  O   UNL A   1      34.037  21.607  26.874  1.00  0.00    -0.269 OA
BRANCH  59  62
ATOM     62  C   UNL A   1      34.205  22.238  24.633  1.00  0.00     0.058 A 
ATOM     63  C   UNL A   1      33.164  21.687  23.884  1.00  0.00     0.017 A 
ATOM     64  C   UNL A   1      34.758  23.455  24.237  1.00  0.00     0.055 A 
ATOM     65  C   UNL A   1      32.590  22.415  22.841  1.00  0.00     0.027 A 
ATOM     66  C   UNL A   1      34.127  24.210  23.241  1.00  0.00     0.047 A 
ATOM     67  Cl  UNL A   1      36.218  24.083  24.917  1.00  0.00    -0.083 Cl
ATOM     68  C   UNL A   1      32.988  23.725  22.583  1.00  0.00     0.043 A 
BRANCH  68  69
ATOM     69  N   UNL A   1      32.323  24.622  21.722  1.00  0.00    -0.322 N 
ATOM     70  C   UNL A   1      31.781  25.876  21.902  1.00  0.00     0.257 C 
ATOM     71  H   UNL A   1      32.224  24.282  20.803  1.00  0.00     0.170 HD
ATOM     72  O   UNL A   1      31.215  26.447  20.972  1.00  0.00    -0.269 OA
BRANCH  70  73
ATOM     73  C   UNL A   1      31.819  26.558  23.202  1.00  0.00     0.059 A 
ATOM     74  C   UNL A   1      30.886  26.132  24.159  1.00  0.00     0.022 A 
ATOM     75  C   UNL A   1      32.773  27.535  23.517  1.00  0.00     0.060 A 
ATOM     76  C   UNL A   1      30.972  26.603  25.469  1.00  0.00     0.086 A 
ATOM     77  C   UNL A   1      32.870  28.001  24.832  1.00  0.00     0.107 A 
ATOM     78  Cl  UNL A   1      33.895  28.144  22.356  1.00  0.00    -0.083 Cl
ATOM     79  C   UNL A   1      31.987  27.510  25.807  1.00  0.00     0.270 A 
BRANCH  79  80
ATOM     80  N   UNL A   1      32.161  27.908  27.209  1.00  0.00     0.062 N 
ATOM     81  O   UNL A   1      33.258  28.373  27.542  1.00  0.00    -0.258 OA
ATOM     82  O   UNL A   1      31.186  27.777  27.963  1.00  0.00    -0.258 OA
ENDBRANCH  79  80
ENDBRANCH  70  73
ENDBRANCH  68  69
ENDBRANCH  59  62
ENDBRANCH  57  58
ENDBRANCH   1  57
TORSDOF 13
ENDMDL
MODEL 2
REMARK VINA RESULT:     -11.9      3.344      8.933
REMARK SMILES O=C(NCCCNC(=O)c1ccc(NC(=O)c2ccc([N+](=O)[O-])cc2Cl)cc1Cl)c1ccc(-c2c3nc(c(-c4ccccc4)c4ccc([nH]4)c(-c4ccccc4)c4nc(c(-c5ccccc5)c5ccc2[nH]5)C=C4)C=C3)cc1
REMARK SMILES IDX 5 1 4 2 3 3 1 4 2 5 30 7 31 8 77 9 32 10 76 11 33 12 34 13
REMARK SMILES IDX 35 14 70 15 36 16 75 17 69 18 71 19 37 20 74 21 68 22 67 23
REMARK SMILES IDX 38 25 60 26 45 27 59 28 46 29 49 30 58 31 72 32 47 33 48 34
REMARK SMILES IDX 57 36 73 37 50 38 39 39 40 40 44 41 41 42 43 43 42 44 61 45
REMARK SMILES IDX 62 46 66 47 63 48 65 49 64 50 51 51 52 52 56 53 53 54 55 55
REMARK SMILES IDX 54 56 6 57 7 58 8 59 9 61 10 62 11 63 28 64 12 65 27 66
REMARK SMILES IDX 29 67 13 68 14 69 15 70 16 72 17 73 18 74 25 75 19 76 24 77
REMARK SMILES IDX 26 78 20 79 21 80 22 81 23 82
REMARK H PARENT 3 6 71 24 49 35 7 60 14 71
REMARK Flexibility Score: inf
ROOT
ATOM      1  C   UNL A   1      31.313  32.123  26.547  1.00  0.00     0.042 C 
ENDROOT
BRANCH   1   2
ATOM      2  C   UNL A   1      32.620  32.780  26.961  1.00  0.00     0.118 C 
BRANCH   2   3
ATOM      3  N   UNL A   1      32.435  34.038  27.670  1.00  0.00    -0.352 N 
ATOM      4  O   UNL A   1      32.723  35.619  29.245  1.00  0.00    -0.269 OA
ATOM      5  C   UNL A   1      33.155  34.612  28.689  1.00  0.00     0.251 C 
ATOM      6  H   UNL A   1      31.661  34.567  27.368  1.00  0.00     0.163 HD
BRANCH   5   7
ATOM      7  C   UNL A   1      34.432  34.019  29.142  1.00  0.00     0.039 A 
ATOM      8  C   UNL A   1      35.637  34.339  28.518  1.00  0.00     0.014 A 
ATOM      9  C   UNL A   1      34.430  33.153  30.242  1.00  0.00     0.014 A 
ATOM     10  C   UNL A   1      36.802  33.668  28.871  1.00  0.00     0.010 A 
ATOM     11  C   UNL A   1      35.623  32.561  30.669  1.00  0.00     0.010 A 
ATOM     12  C   UNL A   1      36.814  32.788  29.965  1.00  0.00    -0.014 A 
BRANCH  12  13
ATOM     13  C   UNL A   1      38.104  32.187  30.388  1.00  0.00     0.031 A 
ATOM     14  C   UNL A   1      38.936  32.800  31.480  1.00  0.00     0.074 A 
ATOM     15  C   UNL A   1      38.502  31.043  29.798  1.00  0.00     0.049 A 
ATOM     16  N   UNL A   1      40.060  32.369  31.995  1.00  0.00    -0.248 NA
ATOM     17  C   UNL A   1      38.451  34.059  32.068  1.00  0.00     0.031 C 
ATOM     18  C   UNL A   1      37.783  30.357  28.719  1.00  0.00     0.029 A 
ATOM     19  N   UNL A   1      39.586  30.239  30.038  1.00  0.00    -0.354 N 
ATOM     20  C   UNL A   1      40.429  33.309  32.950  1.00  0.00     0.074 A 
ATOM     21  C   UNL A   1      39.420  34.346  32.929  1.00  0.00     0.031 C 
ATOM     22  C   UNL A   1      38.409  29.206  28.436  1.00  0.00     0.029 A 
ATOM     23  C   UNL A   1      39.607  29.107  29.260  1.00  0.00     0.049 A 
ATOM     24  H   UNL A   1      40.280  30.451  30.702  1.00  0.00     0.167 HD
ATOM     25  C   UNL A   1      41.507  33.304  33.769  1.00  0.00     0.031 A 
ATOM     26  C   UNL A   1      40.500  28.102  29.200  1.00  0.00     0.031 A 
ATOM     27  C   UNL A   1      42.508  32.269  33.790  1.00  0.00     0.049 A 
ATOM     28  C   UNL A   1      41.698  28.138  30.101  1.00  0.00     0.074 A 
ATOM     29  C   UNL A   1      43.622  32.163  34.605  1.00  0.00     0.029 A 
ATOM     30  N   UNL A   1      42.519  31.163  32.953  1.00  0.00    -0.354 N 
ATOM     31  N   UNL A   1      42.012  29.021  31.016  1.00  0.00    -0.248 NA
ATOM     32  C   UNL A   1      42.664  27.043  29.955  1.00  0.00     0.031 C 
ATOM     33  C   UNL A   1      44.333  31.018  34.229  1.00  0.00     0.029 A 
ATOM     34  C   UNL A   1      43.635  30.384  33.215  1.00  0.00     0.049 A 
ATOM     35  H   UNL A   1      41.837  30.962  32.274  1.00  0.00     0.167 HD
ATOM     36  C   UNL A   1      43.209  28.583  31.565  1.00  0.00     0.074 A 
ATOM     37  C   UNL A   1      43.547  27.342  30.898  1.00  0.00     0.031 C 
ATOM     38  C   UNL A   1      43.962  29.159  32.533  1.00  0.00     0.031 A 
BRANCH  25  39
ATOM     39  C   UNL A   1      41.680  34.472  34.701  1.00  0.00    -0.014 A 
ATOM     40  C   UNL A   1      42.380  35.624  34.308  1.00  0.00     0.009 A 
ATOM     41  C   UNL A   1      41.085  34.441  35.972  1.00  0.00     0.009 A 
ATOM     42  C   UNL A   1      42.503  36.708  35.179  1.00  0.00     0.001 A 
ATOM     43  C   UNL A   1      41.190  35.536  36.833  1.00  0.00     0.001 A 
ATOM     44  C   UNL A   1      41.905  36.666  36.438  1.00  0.00     0.000 A 
ENDBRANCH  25  39
BRANCH  26  45
ATOM     45  C   UNL A   1      40.296  26.990  28.237  1.00  0.00    -0.014 A 
ATOM     46  C   UNL A   1      40.841  27.053  26.946  1.00  0.00     0.009 A 
ATOM     47  C   UNL A   1      39.568  25.851  28.614  1.00  0.00     0.009 A 
ATOM     48  C   UNL A   1      40.643  26.003  26.045  1.00  0.00     0.001 A 
ATOM     49  C   UNL A   1      39.399  24.791  27.722  1.00  0.00     0.001 A 
ATOM     50  C   UNL A   1      39.929  24.871  26.436  1.00  0.00     0.000 A 
ENDBRANCH  26  45
BRANCH  38  51
ATOM     51  C   UNL A   1      45.215  28.437  32.934  1.00  0.00    -0.014 A 
ATOM     52  C   UNL A   1      45.203  27.470  33.949  1.00  0.00     0.009 A 
ATOM     53  C   UNL A   1      46.422  28.721  32.276  1.00  0.00     0.009 A 
ATOM     54  C   UNL A   1      46.382  26.824  34.322  1.00  0.00     0.001 A 
ATOM     55  C   UNL A   1      47.594  28.054  32.632  1.00  0.00     0.001 A 
ATOM     56  C   UNL A   1      47.575  27.114  33.661  1.00  0.00     0.000 A 
ENDBRANCH  38  51
ENDBRANCH  12  13
ENDBRANCH   5   7
ENDBRANCH   2   3
ENDBRANCH   1   2
BRANCH   1  57
ATOM     57  C   UNL A   1      31.412  30.632  26.270  1.00  0.00     0.118 C 
BRANCH  57  58
ATOM     58  N   UNL A   1      32.171  30.309  25.071  1.00  0.00    -0.352 N 
ATOM     59  C   UNL A   1      32.295  29.120  24.398  1.00  0.00     0.252 C 
ATOM     60  H   UNL A   1      32.672  31.062  24.682  1.00  0.00     0.163 HD
ATOM     61  O   UNL A   1      33.024  29.044  23.413  1.00  0.00    -0.269 OA
BRANCH  59  62
ATOM     62  C   UNL A   1      31.660  27.898  24.920  1.00  0.00     0.058 A 
ATOM     63  C   UNL A   1      30.542  27.437  24.222  1.00  0.00     0.017 A 
ATOM     64  C   UNL A   1      32.103  27.192  26.038  1.00  0.00     0.055 A 
ATOM     65  C   UNL A   1      29.967  26.209  24.554  1.00  0.00     0.027 A 
ATOM     66  C   UNL A   1      31.569  25.926  26.313  1.00  0.00     0.047 A 
ATOM     67  Cl  UNL A   1      33.289  27.818  27.128  1.00  0.00    -0.083 Cl
ATOM     68  C   UNL A   1      30.542  25.391  25.525  1.00  0.00     0.043 A 
BRANCH  68  69
ATOM     69  N   UNL A   1      30.188  24.049  25.769  1.00  0.00    -0.322 N 
ATOM     70  C   UNL A   1      30.878  22.859  25.675  1.00  0.00     0.257 C 
ATOM     71  H   UNL A   1      29.257  23.937  26.067  1.00  0.00     0.170 HD
ATOM     72  O   UNL A   1      30.316  21.794  25.923  1.00  0.00    -0.269 OA
BRANCH  70  73
ATOM     73  C   UNL A   1      32.281  22.808  25.243  1.00  0.00     0.059 A 
ATOM     74  C   UNL A   1      32.517  22.964  23.868  1.00  0.00     0.022 A 
ATOM     75  C   UNL A   1      33.348  22.683  26.142  1.00  0.00     0.060 A 
ATOM     76  C   UNL A   1      33.824  23.104  23.401  1.00  0.00     0.086 A 
ATOM     77  C   UNL A   1      34.658  22.835  25.680  1.00  0.00     0.107 A 
ATOM     78  Cl  UNL A   1      33.108  22.419  27.831  1.00  0.00    -0.083 Cl
ATOM     79  C   UNL A   1      34.887  23.074  24.315  1.00  0.00     0.270 A 
BRANCH  79  80
ATOM     80  N   UNL A   1      36.250  23.349  23.845  1.00  0.00     0.062 N 
ATOM     81  O   UNL A   1      37.066  23.776  24.672  1.00  0.00    -0.258 OA
ATOM     82  O   UNL A   1      36.502  23.110  22.657  1.00  0.00    -0.258 OA
ENDBRANCH  79  80
ENDBRANCH  70  73
ENDBRANCH  68  69
ENDBRANCH  59  62
ENDBRANCH  57  58
ENDBRANCH   1  57
TORSDOF 13
ENDMDL
MODEL 3
REMARK VINA RESULT:     -11.8      3.267      8.820
REMARK SMILES O=C(NCCCNC(=O)c1ccc(NC(=O)c2ccc([N+](=O)[O-])cc2Cl)cc1Cl)c1ccc(-c2c3nc(c(-c4ccccc4)c4ccc([nH]4)c(-c4ccccc4)c4nc(c(-c5ccccc5)c5ccc2[nH]5)C=C4)C=C3)cc1
REMARK SMILES IDX 5 1 4 2 3 3 1 4 2 5 30 7 31 8 77 9 32 10 76 11 33 12 34 13
REMARK SMILES IDX 35 14 70 15 36 16 75 17 69 18 71 19 37 20 74 21 68 22 67 23
REMARK SMILES IDX 38 25 60 26 45 27 59 28 46 29 49 30 58 31 72 32 47 33 48 34
REMARK SMILES IDX 57 36 73 37 50 38 39 39 40 40 44 41 41 42 43 43 42 44 61 45
REMARK SMILES IDX 62 46 66 47 63 48 65 49 64 50 51 51 52 52 56 53 53 54 55 55
REMARK SMILES IDX 54 56 6 57 7 58 8 59 9 61 10 62 11 63 28 64 12 65 27 66
REMARK SMILES IDX 29 67 13 68 14 69 15 70 16 72 17 73 18 74 25 75 19 76 24 77
REMARK SMILES IDX 26 78 20 79 21 80 22 81 23 82
REMARK H PARENT 3 6 71 24 49 35 7 60 14 71
REMARK Flexibility Score: inf
ROOT
ATOM      1  C   UNL A   1      31.345  32.160  26.454  1.00  0.00     0.042 C 
ENDROOT
BRANCH   1   2
ATOM      2  C   UNL A   1      32.619  32.622  27.143  1.00  0.00     0.118 C 
BRANCH   2   3
ATOM      3  N   UNL A   1      32.503  33.944  27.745  1.00  0.00    -0.352 N 
ATOM      4  O   UNL A   1      32.892  35.639  29.172  1.00  0.00    -0.269 OA
ATOM      5  C   UNL A   1      33.269  34.570  28.697  1.00  0.00     0.251 C 
ATOM      6  H   UNL A   1      31.745  34.479  27.413  1.00  0.00     0.163 HD
BRANCH   5   7
ATOM      7  C   UNL A   1      34.530  33.962  29.176  1.00  0.00     0.039 A 
ATOM      8  C   UNL A   1      35.743  34.226  28.543  1.00  0.00     0.014 A 
ATOM      9  C   UNL A   1      34.503  33.140  30.309  1.00  0.00     0.014 A 
ATOM     10  C   UNL A   1      36.889  33.539  28.925  1.00  0.00     0.010 A 
ATOM     11  C   UNL A   1      35.680  32.534  30.762  1.00  0.00     0.010 A 
ATOM     12  C   UNL A   1      36.878  32.703  30.052  1.00  0.00    -0.014 A 
BRANCH  12  13
ATOM     13  C   UNL A   1      38.151  32.086  30.502  1.00  0.00     0.031 A 
ATOM     14  C   UNL A   1      38.656  30.802  29.905  1.00  0.00     0.074 A 
ATOM     15  C   UNL A   1      38.878  32.727  31.438  1.00  0.00     0.049 A 
ATOM     16  N   UNL A   1      39.771  30.163  30.157  1.00  0.00    -0.248 NA
ATOM     17  C   UNL A   1      37.803  30.146  28.902  1.00  0.00     0.031 C 
ATOM     18  C   UNL A   1      38.488  33.977  32.098  1.00  0.00     0.029 A 
ATOM     19  N   UNL A   1      40.106  32.439  31.974  1.00  0.00    -0.354 N 
ATOM     20  C   UNL A   1      39.746  29.023  29.362  1.00  0.00     0.074 A 
ATOM     21  C   UNL A   1      38.495  29.045  28.635  1.00  0.00     0.031 C 
ATOM     22  C   UNL A   1      39.483  34.380  32.900  1.00  0.00     0.029 A 
ATOM     23  C   UNL A   1      40.548  33.386  32.866  1.00  0.00     0.049 A 
ATOM     24  H   UNL A   1      40.621  31.633  31.742  1.00  0.00     0.167 HD
ATOM     25  C   UNL A   1      40.682  28.051  29.249  1.00  0.00     0.031 A 
ATOM     26  C   UNL A   1      41.679  33.445  33.592  1.00  0.00     0.031 A 
ATOM     27  C   UNL A   1      41.927  28.033  29.972  1.00  0.00     0.049 A 
ATOM     28  C   UNL A   1      42.684  32.340  33.465  1.00  0.00     0.074 A 
ATOM     29  C   UNL A   1      42.952  27.104  29.901  1.00  0.00     0.029 A 
ATOM     30  N   UNL A   1      42.316  28.985  30.901  1.00  0.00    -0.354 N 
ATOM     31  N   UNL A   1      42.654  31.286  32.687  1.00  0.00    -0.248 NA
ATOM     32  C   UNL A   1      43.874  32.431  34.320  1.00  0.00     0.031 C 
ATOM     33  C   UNL A   1      43.939  27.469  30.824  1.00  0.00     0.029 A 
ATOM     34  C   UNL A   1      43.553  28.652  31.430  1.00  0.00     0.049 A 
ATOM     35  H   UNL A   1      41.791  29.780  31.149  1.00  0.00     0.167 HD
ATOM     36  C   UNL A   1      43.826  30.592  32.950  1.00  0.00     0.074 A 
ATOM     37  C   UNL A   1      44.556  31.360  33.939  1.00  0.00     0.031 C 
ATOM     38  C   UNL A   1      44.258  29.422  32.422  1.00  0.00     0.031 A 
BRANCH  25  39
ATOM     39  C   UNL A   1      40.385  26.902  28.324  1.00  0.00    -0.014 A 
ATOM     40  C   UNL A   1      39.600  25.815  28.737  1.00  0.00     0.009 A 
ATOM     41  C   UNL A   1      40.854  26.936  27.001  1.00  0.00     0.009 A 
ATOM     42  C   UNL A   1      39.313  24.773  27.852  1.00  0.00     0.001 A 
ATOM     43  C   UNL A   1      40.547  25.906  26.111  1.00  0.00     0.001 A 
ATOM     44  C   UNL A   1      39.782  24.821  26.539  1.00  0.00     0.000 A 
ENDBRANCH  25  39
BRANCH  26  45
ATOM     45  C   UNL A   1      41.904  34.586  34.515  1.00  0.00    -0.014 A 
ATOM     46  C   UNL A   1      42.610  35.721  34.092  1.00  0.00     0.009 A 
ATOM     47  C   UNL A   1      41.397  34.549  35.824  1.00  0.00     0.009 A 
ATOM     48  C   UNL A   1      42.819  36.790  34.967  1.00  0.00     0.001 A 
ATOM     49  C   UNL A   1      41.580  35.631  36.686  1.00  0.00     0.001 A 
ATOM     50  C   UNL A   1      42.298  36.747  36.260  1.00  0.00     0.000 A 
ENDBRANCH  26  45
BRANCH  38  51
ATOM     51  C   UNL A   1      45.589  28.916  32.897  1.00  0.00    -0.014 A 
ATOM     52  C   UNL A   1      45.697  28.137  34.059  1.00  0.00     0.009 A 
ATOM     53  C   UNL A   1      46.748  29.211  32.163  1.00  0.00     0.009 A 
ATOM     54  C   UNL A   1      46.945  27.692  34.495  1.00  0.00     0.001 A 
ATOM     55  C   UNL A   1      47.991  28.741  32.587  1.00  0.00     0.001 A 
ATOM     56  C   UNL A   1      48.090  27.992  33.758  1.00  0.00     0.000 A 
ENDBRANCH  38  51
ENDBRANCH  12  13
ENDBRANCH   5   7
ENDBRANCH   2   3
ENDBRANCH   1   2
BRANCH   1  57
ATOM     57  C   UNL A   1      31.309  30.679  26.116  1.00  0.00     0.118 C 
BRANCH  57  58
ATOM     58  N   UNL A   1      32.136  30.318  24.974  1.00  0.00    -0.352 N 
ATOM     59  C   UNL A   1      32.315  29.104  24.362  1.00  0.00     0.252 C 
ATOM     60  H   UNL A   1      32.644  31.063  24.579  1.00  0.00     0.163 HD
ATOM     61  O   UNL A   1      33.096  28.999  23.420  1.00  0.00    -0.269 OA
BRANCH  59  62
ATOM     62  C   UNL A   1      31.672  27.893  24.904  1.00  0.00     0.058 A 
ATOM     63  C   UNL A   1      30.567  27.414  24.200  1.00  0.00     0.017 A 
ATOM     64  C   UNL A   1      32.099  27.216  26.045  1.00  0.00     0.055 A 
ATOM     65  C   UNL A   1      29.988  26.194  24.552  1.00  0.00     0.027 A 
ATOM     66  C   UNL A   1      31.563  25.957  26.343  1.00  0.00     0.047 A 
ATOM     67  Cl  UNL A   1      33.268  27.870  27.138  1.00  0.00    -0.083 Cl
ATOM     68  C   UNL A   1      30.548  25.401  25.552  1.00  0.00     0.043 A 
BRANCH  68  69
ATOM     69  N   UNL A   1      30.193  24.064  25.823  1.00  0.00    -0.322 N 
ATOM     70  C   UNL A   1      30.876  22.870  25.739  1.00  0.00     0.257 C 
ATOM     71  H   UNL A   1      29.265  23.962  26.135  1.00  0.00     0.170 HD
ATOM     72  O   UNL A   1      30.313  21.812  26.013  1.00  0.00    -0.269 OA
BRANCH  70  73
ATOM     73  C   UNL A   1      32.272  22.806  25.289  1.00  0.00     0.059 A 
ATOM     74  C   UNL A   1      32.489  22.921  23.906  1.00  0.00     0.022 A 
ATOM     75  C   UNL A   1      33.352  22.707  26.176  1.00  0.00     0.060 A 
ATOM     76  C   UNL A   1      33.789  23.046  23.417  1.00  0.00     0.086 A 
ATOM     77  C   UNL A   1      34.656  22.845  25.691  1.00  0.00     0.107 A 
ATOM     78  Cl  UNL A   1      33.137  22.493  27.875  1.00  0.00    -0.083 Cl
ATOM     79  C   UNL A   1      34.865  23.043  24.316  1.00  0.00     0.270 A 
BRANCH  79  80
ATOM     80  N   UNL A   1      36.221  23.304  23.819  1.00  0.00     0.062 N 
ATOM     81  O   UNL A   1      36.444  23.087  22.621  1.00  0.00    -0.258 OA
ATOM     82  O   UNL A   1      37.047  23.751  24.626  1.00  0.00    -0.258 OA
ENDBRANCH  79  80
ENDBRANCH  70  73
ENDBRANCH  68  69
ENDBRANCH  59  62
ENDBRANCH  57  58
ENDBRANCH   1  57
TORSDOF 13
ENDMDL
