MODEL 1
REMARK VINA RESULT:     -11.4      0.000      0.000
REMARK SMILES Cc1n[nH]c(C)c1CC(=O)N1CC[C@H](C(=O)NCCCNC(=O)c2ccc(-c3c4nc(c(-c5ccccc5)c5ccc([nH]5)c(-c5ccccc5)c5nc(c(-c6ccccc6)c6ccc3[nH]6)C=C5)C=C4)cc2)[C@H]1C
REMARK SMILES IDX 18 1 17 2 15 3 16 4 14 6 11 7 12 8 72 9 13 10 73 11 9 12
REMARK SMILES IDX 10 13 8 14 7 15 1 16 2 17 3 18 4 19 5 20 6 22 19 23 20 24
REMARK SMILES IDX 21 25 22 26 23 28 24 29 25 30 71 31 26 32 70 33 27 34 28 35
REMARK SMILES IDX 29 36 64 37 30 38 69 39 63 40 65 41 31 42 68 43 62 44 61 45
REMARK SMILES IDX 32 47 54 48 39 49 53 50 40 51 43 52 52 53 66 54 41 55 42 56
REMARK SMILES IDX 51 58 67 59 44 60 33 61 34 62 38 63 35 64 37 65 36 66 55 67
REMARK SMILES IDX 56 68 60 69 57 70 59 71 58 72 45 73 46 74 50 75 47 76 49 77
REMARK SMILES IDX 48 78
REMARK H PARENT 17 5 4 21 21 27 65 46 43 57
REMARK Flexibility Score: inf
ROOT
ATOM      1  C   UNL A   1      36.784  21.018  24.732  1.00  0.00     0.117 C 
ENDROOT
BRANCH   1   2
ATOM      2  N   UNL A   1      35.617  20.899  25.580  1.00  0.00    -0.356 N 
ATOM      3  C   UNL A   1      34.685  21.813  25.947  1.00  0.00     0.225 C 
ATOM      4  O   UNL A   1      33.888  21.453  26.819  1.00  0.00    -0.275 OA
ATOM      5  H   UNL A   1      35.476  20.000  25.954  1.00  0.00     0.163 HD
BRANCH   3   6
ATOM      6  C   UNL A   1      34.538  23.150  25.219  1.00  0.00     0.102 C 
ATOM      7  N   UNL A   1      32.380  24.076  25.628  1.00  0.00    -0.339 N 
ATOM      8  C   UNL A   1      32.247  23.086  24.567  1.00  0.00     0.120 C 
ATOM      9  C   UNL A   1      33.793  24.284  25.958  1.00  0.00     0.094 C 
ATOM     10  C   UNL A   1      33.647  22.964  23.979  1.00  0.00     0.037 C 
ATOM     11  C   UNL A   1      34.310  25.634  25.460  1.00  0.00     0.032 C 
BRANCH   7  12
ATOM     12  C   UNL A   1      31.273  24.422  26.384  1.00  0.00     0.227 C 
ATOM     13  O   UNL A   1      30.938  23.726  27.349  1.00  0.00    -0.275 OA
BRANCH  12  14
ATOM     14  C   UNL A   1      30.327  25.526  25.917  1.00  0.00     0.139 C 
BRANCH  14  15
ATOM     15  C   UNL A   1      30.903  26.801  25.400  1.00  0.00     0.005 A 
ATOM     16  C   UNL A   1      31.162  26.306  22.836  1.00  0.00     0.069 C 
ATOM     17  C   UNL A   1      31.244  27.144  24.060  1.00  0.00     0.063 A 
ATOM     18  N   UNL A   1      31.728  28.388  23.974  1.00  0.00    -0.181 NA
ATOM     19  N   UNL A   1      31.815  28.797  25.244  1.00  0.00    -0.282 N 
ATOM     20  C   UNL A   1      31.400  27.862  26.148  1.00  0.00     0.036 A 
ATOM     21  H   UNL A   1      32.148  29.687  25.503  1.00  0.00     0.190 HD
ATOM     22  C   UNL A   1      31.586  28.064  27.607  1.00  0.00     0.066 C 
ENDBRANCH  14  15
ENDBRANCH  12  14
ENDBRANCH   7  12
ENDBRANCH   3   6
ENDBRANCH   1   2
BRANCH   1  23
ATOM     23  C   UNL A   1      37.763  19.884  25.011  1.00  0.00     0.042 C 
BRANCH  23  24
ATOM     24  C   UNL A   1      38.998  20.291  25.807  1.00  0.00     0.118 C 
BRANCH  24  25
ATOM     25  N   UNL A   1      40.004  19.242  25.853  1.00  0.00    -0.352 N 
ATOM     26  C   UNL A   1      41.357  19.344  26.058  1.00  0.00     0.251 C 
ATOM     27  H   UNL A   1      39.666  18.327  25.719  1.00  0.00     0.163 HD
ATOM     28  O   UNL A   1      42.081  18.367  25.862  1.00  0.00    -0.269 OA
BRANCH  26  29
ATOM     29  C   UNL A   1      41.955  20.625  26.496  1.00  0.00     0.039 A 
ATOM     30  C   UNL A   1      42.391  21.535  25.529  1.00  0.00     0.014 A 
ATOM     31  C   UNL A   1      42.099  20.923  27.854  1.00  0.00     0.014 A 
ATOM     32  C   UNL A   1      42.904  22.774  25.922  1.00  0.00     0.010 A 
ATOM     33  C   UNL A   1      42.537  22.187  28.242  1.00  0.00     0.010 A 
ATOM     34  C   UNL A   1      42.943  23.126  27.281  1.00  0.00    -0.014 A 
BRANCH  34  35
ATOM     35  C   UNL A   1      43.387  24.472  27.726  1.00  0.00     0.031 A 
ATOM     36  C   UNL A   1      42.374  25.523  28.090  1.00  0.00     0.074 A 
ATOM     37  C   UNL A   1      44.697  24.782  27.706  1.00  0.00     0.049 A 
ATOM     38  N   UNL A   1      42.561  26.784  28.386  1.00  0.00    -0.248 NA
ATOM     39  C   UNL A   1      40.964  25.106  28.093  1.00  0.00     0.031 C 
ATOM     40  C   UNL A   1      45.779  23.869  27.331  1.00  0.00     0.029 A 
ATOM     41  N   UNL A   1      45.340  25.964  27.983  1.00  0.00    -0.354 N 
ATOM     42  C   UNL A   1      41.293  27.319  28.575  1.00  0.00     0.074 A 
ATOM     43  C   UNL A   1      40.345  26.255  28.323  1.00  0.00     0.031 C 
ATOM     44  C   UNL A   1      46.950  24.520  27.414  1.00  0.00     0.029 A 
ATOM     45  C   UNL A   1      46.699  25.907  27.794  1.00  0.00     0.049 A 
ATOM     46  H   UNL A   1      44.871  26.774  28.289  1.00  0.00     0.167 HD
ATOM     47  C   UNL A   1      40.947  28.579  28.933  1.00  0.00     0.031 A 
ATOM     48  C   UNL A   1      47.639  26.866  27.890  1.00  0.00     0.031 A 
ATOM     49  C   UNL A   1      41.892  29.636  29.186  1.00  0.00     0.049 A 
ATOM     50  C   UNL A   1      47.235  28.260  28.279  1.00  0.00     0.074 A 
ATOM     51  C   UNL A   1      41.646  30.925  29.624  1.00  0.00     0.029 A 
ATOM     52  N   UNL A   1      43.263  29.529  29.007  1.00  0.00    -0.354 N 
ATOM     53  N   UNL A   1      46.038  28.732  28.533  1.00  0.00    -0.248 NA
ATOM     54  C   UNL A   1      48.313  29.251  28.407  1.00  0.00     0.031 C 
ATOM     55  C   UNL A   1      42.860  31.619  29.645  1.00  0.00     0.029 A 
ATOM     56  C   UNL A   1      43.872  30.741  29.292  1.00  0.00     0.049 A 
ATOM     57  H   UNL A   1      43.734  28.713  28.721  1.00  0.00     0.167 HD
ATOM     58  C   UNL A   1      46.221  30.066  28.876  1.00  0.00     0.074 A 
ATOM     59  C   UNL A   1      47.644  30.323  28.810  1.00  0.00     0.031 C 
ATOM     60  C   UNL A   1      45.290  30.990  29.219  1.00  0.00     0.031 A 
BRANCH  47  61
ATOM     61  C   UNL A   1      39.478  28.890  29.039  1.00  0.00    -0.014 A 
ATOM     62  C   UNL A   1      38.773  28.723  30.244  1.00  0.00     0.009 A 
ATOM     63  C   UNL A   1      38.789  29.373  27.916  1.00  0.00     0.009 A 
ATOM     64  C   UNL A   1      37.402  28.983  30.304  1.00  0.00     0.001 A 
ATOM     65  C   UNL A   1      37.426  29.667  27.988  1.00  0.00     0.001 A 
ATOM     66  C   UNL A   1      36.731  29.457  29.178  1.00  0.00     0.000 A 
ENDBRANCH  47  61
BRANCH  48  67
ATOM     67  C   UNL A   1      49.060  26.531  27.606  1.00  0.00    -0.014 A 
ATOM     68  C   UNL A   1      49.913  26.102  28.634  1.00  0.00     0.009 A 
ATOM     69  C   UNL A   1      49.561  26.610  26.297  1.00  0.00     0.009 A 
ATOM     70  C   UNL A   1      51.244  25.776  28.359  1.00  0.00     0.001 A 
ATOM     71  C   UNL A   1      50.883  26.254  26.021  1.00  0.00     0.001 A 
ATOM     72  C   UNL A   1      51.725  25.845  27.053  1.00  0.00     0.000 A 
ENDBRANCH  48  67
BRANCH  60  73
ATOM     73  C   UNL A   1      45.780  32.362  29.594  1.00  0.00    -0.014 A 
ATOM     74  C   UNL A   1      46.161  32.674  30.909  1.00  0.00     0.009 A 
ATOM     75  C   UNL A   1      45.913  33.344  28.598  1.00  0.00     0.009 A 
ATOM     76  C   UNL A   1      46.636  33.949  31.222  1.00  0.00     0.001 A 
ATOM     77  C   UNL A   1      46.418  34.607  28.909  1.00  0.00     0.001 A 
ATOM     78  C   UNL A   1      46.772  34.911  30.222  1.00  0.00     0.000 A 
ENDBRANCH  60  73
ENDBRANCH  34  35
ENDBRANCH  26  29
ENDBRANCH  24  25
ENDBRANCH  23  24
ENDBRANCH   1  23
TORSDOF 13
ENDMDL
MODEL 2
REMARK VINA RESULT:     -11.3      2.349      7.704
REMARK SMILES Cc1n[nH]c(C)c1CC(=O)N1CC[C@H](C(=O)NCCCNC(=O)c2ccc(-c3c4nc(c(-c5ccccc5)c5ccc([nH]5)c(-c5ccccc5)c5nc(c(-c6ccccc6)c6ccc3[nH]6)C=C5)C=C4)cc2)[C@H]1C
REMARK SMILES IDX 18 1 17 2 15 3 16 4 14 6 11 7 12 8 72 9 13 10 73 11 9 12
REMARK SMILES IDX 10 13 8 14 7 15 1 16 2 17 3 18 4 19 5 20 6 22 19 23 20 24
REMARK SMILES IDX 21 25 22 26 23 28 24 29 25 30 71 31 26 32 70 33 27 34 28 35
REMARK SMILES IDX 29 36 64 37 30 38 69 39 63 40 65 41 31 42 68 43 62 44 61 45
REMARK SMILES IDX 32 47 54 48 39 49 53 50 40 51 43 52 52 53 66 54 41 55 42 56
REMARK SMILES IDX 51 58 67 59 44 60 33 61 34 62 38 63 35 64 37 65 36 66 55 67
REMARK SMILES IDX 56 68 60 69 57 70 59 71 58 72 45 73 46 74 50 75 47 76 49 77
REMARK SMILES IDX 48 78
REMARK H PARENT 17 5 4 21 21 27 65 46 43 57
REMARK Flexibility Score: inf
ROOT
ATOM      1  C   UNL A   1      31.624  27.428  26.415  1.00  0.00     0.117 C 
ENDROOT
BRANCH   1   2
ATOM      2  N   UNL A   1      31.360  26.055  26.789  1.00  0.00    -0.356 N 
ATOM      3  C   UNL A   1      31.726  24.886  26.207  1.00  0.00     0.225 C 
ATOM      4  O   UNL A   1      31.210  23.866  26.672  1.00  0.00    -0.275 OA
ATOM      5  H   UNL A   1      30.822  25.953  27.606  1.00  0.00     0.163 HD
BRANCH   3   6
ATOM      6  C   UNL A   1      32.823  24.826  25.143  1.00  0.00     0.102 C 
ATOM      7  N   UNL A   1      33.849  22.674  25.143  1.00  0.00    -0.339 N 
ATOM      8  C   UNL A   1      34.449  23.454  26.217  1.00  0.00     0.120 C 
ATOM      9  C   UNL A   1      32.960  23.515  24.337  1.00  0.00     0.094 C 
ATOM     10  C   UNL A   1      34.202  24.904  25.823  1.00  0.00     0.037 C 
ATOM     11  C   UNL A   1      33.552  23.831  22.962  1.00  0.00     0.032 C 
BRANCH   7  12
ATOM     12  C   UNL A   1      33.891  21.291  25.194  1.00  0.00     0.227 C 
ATOM     13  O   UNL A   1      34.980  20.703  25.199  1.00  0.00    -0.275 OA
BRANCH  12  14
ATOM     14  C   UNL A   1      32.618  20.467  25.022  1.00  0.00     0.139 C 
BRANCH  14  15
ATOM     15  C   UNL A   1      32.529  19.500  23.890  1.00  0.00     0.005 A 
ATOM     16  C   UNL A   1      33.703  17.369  24.871  1.00  0.00     0.069 C 
ATOM     17  C   UNL A   1      32.981  18.151  23.834  1.00  0.00     0.063 A 
ATOM     18  N   UNL A   1      32.718  17.587  22.650  1.00  0.00    -0.181 NA
ATOM     19  N   UNL A   1      32.220  18.585  21.913  1.00  0.00    -0.282 N 
ATOM     20  C   UNL A   1      32.148  19.774  22.581  1.00  0.00     0.036 A 
ATOM     21  H   UNL A   1      31.934  18.475  20.977  1.00  0.00     0.190 HD
ATOM     22  C   UNL A   1      31.788  21.032  21.880  1.00  0.00     0.066 C 
ENDBRANCH  14  15
ENDBRANCH  12  14
ENDBRANCH   7  12
ENDBRANCH   3   6
ENDBRANCH   1   2
BRANCH   1  23
ATOM     23  C   UNL A   1      32.278  28.179  27.569  1.00  0.00     0.042 C 
BRANCH  23  24
ATOM     24  C   UNL A   1      33.578  28.889  27.210  1.00  0.00     0.118 C 
BRANCH  24  25
ATOM     25  N   UNL A   1      33.616  30.262  27.688  1.00  0.00    -0.352 N 
ATOM     26  C   UNL A   1      34.596  30.909  28.398  1.00  0.00     0.251 C 
ATOM     27  H   UNL A   1      32.824  30.806  27.471  1.00  0.00     0.163 HD
ATOM     28  O   UNL A   1      34.367  32.013  28.891  1.00  0.00    -0.269 OA
BRANCH  26  29
ATOM     29  C   UNL A   1      35.922  30.281  28.588  1.00  0.00     0.039 A 
ATOM     30  C   UNL A   1      36.831  30.280  27.526  1.00  0.00     0.014 A 
ATOM     31  C   UNL A   1      36.265  29.680  29.803  1.00  0.00     0.014 A 
ATOM     32  C   UNL A   1      38.109  29.744  27.706  1.00  0.00     0.010 A 
ATOM     33  C   UNL A   1      37.562  29.217  30.004  1.00  0.00     0.010 A 
ATOM     34  C   UNL A   1      38.498  29.244  28.959  1.00  0.00    -0.014 A 
BRANCH  34  35
ATOM     35  C   UNL A   1      39.880  28.761  29.211  1.00  0.00     0.031 A 
ATOM     36  C   UNL A   1      40.920  29.692  29.770  1.00  0.00     0.074 A 
ATOM     37  C   UNL A   1      40.227  27.512  28.843  1.00  0.00     0.049 A 
ATOM     38  N   UNL A   1      42.201  29.490  29.948  1.00  0.00    -0.248 NA
ATOM     39  C   UNL A   1      40.463  31.037  30.152  1.00  0.00     0.031 C 
ATOM     40  C   UNL A   1      39.326  26.522  28.249  1.00  0.00     0.029 A 
ATOM     41  N   UNL A   1      41.441  26.871  28.891  1.00  0.00    -0.354 N 
ATOM     42  C   UNL A   1      42.709  30.692  30.428  1.00  0.00     0.074 A 
ATOM     43  C   UNL A   1      41.605  31.626  30.477  1.00  0.00     0.031 C 
ATOM     44  C   UNL A   1      40.014  25.398  28.000  1.00  0.00     0.029 A 
ATOM     45  C   UNL A   1      41.412  25.603  28.364  1.00  0.00     0.049 A 
ATOM     46  H   UNL A   1      42.253  27.282  29.266  1.00  0.00     0.167 HD
ATOM     47  C   UNL A   1      43.977  30.989  30.802  1.00  0.00     0.031 A 
ATOM     48  C   UNL A   1      42.402  24.711  28.172  1.00  0.00     0.031 A 
ATOM     49  C   UNL A   1      45.073  30.057  30.754  1.00  0.00     0.049 A 
ATOM     50  C   UNL A   1      43.804  25.063  28.583  1.00  0.00     0.074 A 
ATOM     51  C   UNL A   1      46.378  30.240  31.178  1.00  0.00     0.029 A 
ATOM     52  N   UNL A   1      44.997  28.772  30.238  1.00  0.00    -0.354 N 
ATOM     53  N   UNL A   1      44.255  26.176  29.110  1.00  0.00    -0.248 NA
ATOM     54  C   UNL A   1      44.832  24.031  28.385  1.00  0.00     0.031 C 
ATOM     55  C   UNL A   1      47.107  29.090  30.856  1.00  0.00     0.029 A 
ATOM     56  C   UNL A   1      46.240  28.164  30.299  1.00  0.00     0.049 A 
ATOM     57  H   UNL A   1      44.179  28.354  29.880  1.00  0.00     0.167 HD
ATOM     58  C   UNL A   1      45.611  25.970  29.332  1.00  0.00     0.074 A 
ATOM     59  C   UNL A   1      45.906  24.621  28.893  1.00  0.00     0.031 C 
ATOM     60  C   UNL A   1      46.526  26.822  29.856  1.00  0.00     0.031 A 
BRANCH  47  61
ATOM     61  C   UNL A   1      44.250  32.395  31.263  1.00  0.00    -0.014 A 
ATOM     62  C   UNL A   1      44.142  32.763  32.616  1.00  0.00     0.009 A 
ATOM     63  C   UNL A   1      44.637  33.369  30.329  1.00  0.00     0.009 A 
ATOM     64  C   UNL A   1      44.365  34.084  33.011  1.00  0.00     0.001 A 
ATOM     65  C   UNL A   1      44.894  34.681  30.732  1.00  0.00     0.001 A 
ATOM     66  C   UNL A   1      44.743  35.040  32.070  1.00  0.00     0.000 A 
ENDBRANCH  47  61
BRANCH  48  67
ATOM     67  C   UNL A   1      42.093  23.396  27.551  1.00  0.00    -0.014 A 
ATOM     68  C   UNL A   1      42.357  23.167  26.192  1.00  0.00     0.009 A 
ATOM     69  C   UNL A   1      41.560  22.352  28.324  1.00  0.00     0.009 A 
ATOM     70  C   UNL A   1      42.076  21.924  25.617  1.00  0.00     0.001 A 
ATOM     71  C   UNL A   1      41.309  21.102  27.753  1.00  0.00     0.001 A 
ATOM     72  C   UNL A   1      41.560  20.892  26.399  1.00  0.00     0.000 A 
ENDBRANCH  48  67
BRANCH  60  73
ATOM     73  C   UNL A   1      47.931  26.312  30.028  1.00  0.00    -0.014 A 
ATOM     74  C   UNL A   1      48.886  26.430  29.007  1.00  0.00     0.009 A 
ATOM     75  C   UNL A   1      48.316  25.751  31.257  1.00  0.00     0.009 A 
ATOM     76  C   UNL A   1      50.190  25.970  29.204  1.00  0.00     0.001 A 
ATOM     77  C   UNL A   1      49.628  25.322  31.462  1.00  0.00     0.001 A 
ATOM     78  C   UNL A   1      50.562  25.424  30.433  1.00  0.00     0.000 A 
ENDBRANCH  60  73
ENDBRANCH  34  35
ENDBRANCH  26  29
ENDBRANCH  24  25
ENDBRANCH  23  24
ENDBRANCH   1  23
TORSDOF 13
ENDMDL
MODEL 3
REMARK VINA RESULT:     -11.2      1.550      2.061
REMARK SMILES Cc1n[nH]c(C)c1CC(=O)N1CC[C@H](C(=O)NCCCNC(=O)c2ccc(-c3c4nc(c(-c5ccccc5)c5ccc([nH]5)c(-c5ccccc5)c5nc(c(-c6ccccc6)c6ccc3[nH]6)C=C5)C=C4)cc2)[C@H]1C
REMARK SMILES IDX 18 1 17 2 15 3 16 4 14 6 11 7 12 8 72 9 13 10 73 11 9 12
REMARK SMILES IDX 10 13 8 14 7 15 1 16 2 17 3 18 4 19 5 20 6 22 19 23 20 24
REMARK SMILES IDX 21 25 22 26 23 28 24 29 25 30 71 31 26 32 70 33 27 34 28 35
REMARK SMILES IDX 29 36 64 37 30 38 69 39 63 40 65 41 31 42 68 43 62 44 61 45
REMARK SMILES IDX 32 47 54 48 39 49 53 50 40 51 43 52 52 53 66 54 41 55 42 56
REMARK SMILES IDX 51 58 67 59 44 60 33 61 34 62 38 63 35 64 37 65 36 66 55 67
REMARK SMILES IDX 56 68 60 69 57 70 59 71 58 72 45 73 46 74 50 75 47 76 49 77
REMARK SMILES IDX 48 78
REMARK H PARENT 17 5 4 21 21 27 65 46 43 57
REMARK Flexibility Score: inf
ROOT
ATOM      1  C   UNL A   1      35.948  21.108  25.302  1.00  0.00     0.117 C 
ENDROOT
BRANCH   1   2
ATOM      2  N   UNL A   1      35.475  21.923  24.204  1.00  0.00    -0.356 N 
ATOM      3  C   UNL A   1      34.349  22.667  24.067  1.00  0.00     0.225 C 
ATOM      4  O   UNL A   1      34.139  23.128  22.941  1.00  0.00    -0.275 OA
ATOM      5  H   UNL A   1      36.072  21.941  23.423  1.00  0.00     0.163 HD
BRANCH   3   6
ATOM      6  C   UNL A   1      33.475  23.034  25.268  1.00  0.00     0.102 C 
ATOM      7  N   UNL A   1      32.138  24.940  24.758  1.00  0.00    -0.339 N 
ATOM      8  C   UNL A   1      33.464  25.414  25.135  1.00  0.00     0.120 C 
ATOM      9  C   UNL A   1      32.030  23.496  24.980  1.00  0.00     0.094 C 
ATOM     10  C   UNL A   1      34.055  24.280  25.962  1.00  0.00     0.037 C 
ATOM     11  C   UNL A   1      31.146  23.161  26.183  1.00  0.00     0.032 C 
BRANCH   7  12
ATOM     12  C   UNL A   1      31.320  25.742  23.981  1.00  0.00     0.227 C 
ATOM     13  O   UNL A   1      31.012  25.389  22.836  1.00  0.00    -0.275 OA
BRANCH  12  14
ATOM     14  C   UNL A   1      30.969  27.159  24.427  1.00  0.00     0.139 C 
BRANCH  14  15
ATOM     15  C   UNL A   1      30.845  28.232  23.397  1.00  0.00     0.005 A 
ATOM     16  C   UNL A   1      28.260  28.297  22.955  1.00  0.00     0.069 C 
ATOM     17  C   UNL A   1      29.668  28.738  22.777  1.00  0.00     0.063 A 
ATOM     18  N   UNL A   1      29.946  29.713  21.904  1.00  0.00    -0.181 NA
ATOM     19  N   UNL A   1      31.282  29.752  21.868  1.00  0.00    -0.282 N 
ATOM     20  C   UNL A   1      31.877  28.839  22.690  1.00  0.00     0.036 A 
ATOM     21  H   UNL A   1      31.789  30.378  21.302  1.00  0.00     0.190 HD
ATOM     22  C   UNL A   1      33.344  28.612  22.657  1.00  0.00     0.066 C 
ENDBRANCH  14  15
ENDBRANCH  12  14
ENDBRANCH   7  12
ENDBRANCH   3   6
ENDBRANCH   1   2
BRANCH   1  23
ATOM     23  C   UNL A   1      37.202  20.343  24.896  1.00  0.00     0.042 C 
BRANCH  23  24
ATOM     24  C   UNL A   1      38.475  20.783  25.610  1.00  0.00     0.118 C 
BRANCH  24  25
ATOM     25  N   UNL A   1      39.482  19.734  25.653  1.00  0.00    -0.352 N 
ATOM     26  C   UNL A   1      40.811  19.818  25.986  1.00  0.00     0.251 C 
ATOM     27  H   UNL A   1      39.165  18.835  25.409  1.00  0.00     0.163 HD
ATOM     28  O   UNL A   1      41.557  18.864  25.770  1.00  0.00    -0.269 OA
BRANCH  26  29
ATOM     29  C   UNL A   1      41.356  21.056  26.587  1.00  0.00     0.039 A 
ATOM     30  C   UNL A   1      41.912  22.028  25.750  1.00  0.00     0.014 A 
ATOM     31  C   UNL A   1      41.334  21.254  27.970  1.00  0.00     0.014 A 
ATOM     32  C   UNL A   1      42.378  23.228  26.293  1.00  0.00     0.010 A 
ATOM     33  C   UNL A   1      41.726  22.480  28.500  1.00  0.00     0.010 A 
ATOM     34  C   UNL A   1      42.252  23.480  27.668  1.00  0.00    -0.014 A 
BRANCH  34  35
ATOM     35  C   UNL A   1      42.644  24.785  28.261  1.00  0.00     0.031 A 
ATOM     36  C   UNL A   1      41.613  25.857  28.486  1.00  0.00     0.074 A 
ATOM     37  C   UNL A   1      43.943  25.042  28.505  1.00  0.00     0.049 A 
ATOM     38  N   UNL A   1      41.779  27.094  28.880  1.00  0.00    -0.248 NA
ATOM     39  C   UNL A   1      40.216  25.497  28.200  1.00  0.00     0.031 C 
ATOM     40  C   UNL A   1      45.048  24.105  28.292  1.00  0.00     0.029 A 
ATOM     41  N   UNL A   1      44.557  26.182  28.963  1.00  0.00    -0.354 N 
ATOM     42  C   UNL A   1      40.514  27.670  28.856  1.00  0.00     0.074 A 
ATOM     43  C   UNL A   1      39.600  26.658  28.373  1.00  0.00     0.031 C 
ATOM     44  C   UNL A   1      46.201  24.704  28.629  1.00  0.00     0.029 A 
ATOM     45  C   UNL A   1      45.925  26.079  29.030  1.00  0.00     0.049 A 
ATOM     46  H   UNL A   1      44.064  26.995  29.219  1.00  0.00     0.167 HD
ATOM     47  C   UNL A   1      40.145  28.924  29.212  1.00  0.00     0.031 A 
ATOM     48  C   UNL A   1      46.858  26.994  29.354  1.00  0.00     0.031 A 
ATOM     49  C   UNL A   1      41.057  29.928  29.695  1.00  0.00     0.049 A 
ATOM     50  C   UNL A   1      46.431  28.383  29.736  1.00  0.00     0.074 A 
ATOM     51  C   UNL A   1      40.771  31.204  30.149  1.00  0.00     0.029 A 
ATOM     52  N   UNL A   1      42.434  29.775  29.772  1.00  0.00    -0.354 N 
ATOM     53  N   UNL A   1      45.222  28.891  29.785  1.00  0.00    -0.248 NA
ATOM     54  C   UNL A   1      47.494  29.323  30.119  1.00  0.00     0.031 C 
ATOM     55  C   UNL A   1      41.980  31.846  30.436  1.00  0.00     0.029 A 
ATOM     56  C   UNL A   1      43.013  30.946  30.232  1.00  0.00     0.049 A 
ATOM     57  H   UNL A   1      42.925  28.955  29.535  1.00  0.00     0.167 HD
ATOM     58  C   UNL A   1      45.377  30.198  30.229  1.00  0.00     0.074 A 
ATOM     59  C   UNL A   1      46.794  30.400  30.447  1.00  0.00     0.031 C 
ATOM     60  C   UNL A   1      44.427  31.142  30.441  1.00  0.00     0.031 A 
BRANCH  47  61
ATOM     61  C   UNL A   1      38.693  29.288  29.056  1.00  0.00    -0.014 A 
ATOM     62  C   UNL A   1      37.793  29.207  30.132  1.00  0.00     0.009 A 
ATOM     63  C   UNL A   1      38.220  29.735  27.812  1.00  0.00     0.009 A 
ATOM     64  C   UNL A   1      36.442  29.515  29.950  1.00  0.00     0.001 A 
ATOM     65  C   UNL A   1      36.877  30.076  27.643  1.00  0.00     0.001 A 
ATOM     66  C   UNL A   1      35.987  29.952  28.708  1.00  0.00     0.000 A 
ENDBRANCH  47  61
BRANCH  48  67
ATOM     67  C   UNL A   1      48.296  26.616  29.324  1.00  0.00    -0.014 A 
ATOM     68  C   UNL A   1      49.069  26.837  28.174  1.00  0.00     0.009 A 
ATOM     69  C   UNL A   1      48.909  26.059  30.456  1.00  0.00     0.009 A 
ATOM     70  C   UNL A   1      50.424  26.492  28.155  1.00  0.00     0.001 A 
ATOM     71  C   UNL A   1      50.270  25.743  30.445  1.00  0.00     0.001 A 
ATOM     72  C   UNL A   1      51.024  25.953  29.292  1.00  0.00     0.000 A 
ENDBRANCH  48  67
BRANCH  60  73
ATOM     73  C   UNL A   1      44.878  32.473  30.976  1.00  0.00    -0.014 A 
ATOM     74  C   UNL A   1      44.973  32.718  32.355  1.00  0.00     0.009 A 
ATOM     75  C   UNL A   1      45.266  33.482  30.079  1.00  0.00     0.009 A 
ATOM     76  C   UNL A   1      45.420  33.955  32.822  1.00  0.00     0.001 A 
ATOM     77  C   UNL A   1      45.742  34.706  30.550  1.00  0.00     0.001 A 
ATOM     78  C   UNL A   1      45.811  34.945  31.921  1.00  0.00     0.000 A 
ENDBRANCH  60  73
ENDBRANCH  34  35
ENDBRANCH  26  29
ENDBRANCH  24  25
ENDBRANCH  23  24
ENDBRANCH   1  23
TORSDOF 13
ENDMDL
