MODEL 1
REMARK VINA RESULT:     -12.9      0.000      0.000
REMARK SMILES O=C(NCCCNC(=O)c1ccccc1Nc1cccc(S(F)(F)(F)(F)F)c1)c1ccc(-c2c3nc(c(-c4ccccc4)c4ccc([nH]4)c(-c4ccccc4)c4nc(c(-c5ccccc5)c5ccc2[nH]5)C=C4)C=C3)cc1
REMARK SMILES IDX 5 1 4 2 3 3 1 4 2 5 29 7 30 8 76 9 31 10 75 11 32 12 33 13
REMARK SMILES IDX 34 14 69 15 35 16 74 17 68 18 70 19 36 20 73 21 67 22 66 23
REMARK SMILES IDX 37 25 59 26 44 27 58 28 45 29 48 30 57 31 71 32 46 33 47 34
REMARK SMILES IDX 56 36 72 37 49 38 38 39 39 40 43 41 40 42 42 43 41 44 60 45
REMARK SMILES IDX 61 46 65 47 62 48 64 49 63 50 50 51 51 52 55 53 52 54 54 55
REMARK SMILES IDX 53 56 6 57 7 58 8 59 9 61 10 62 11 63 15 64 12 65 14 66
REMARK SMILES IDX 13 67 16 68 17 70 18 71 28 72 19 73 21 74 20 75 22 76 23 77
REMARK SMILES IDX 24 78 25 79 26 80 27 81
REMARK H PARENT 3 6 70 24 48 35 7 60 16 69
REMARK Flexibility Score: inf
ROOT
ATOM      1  C   UNL A   1      37.506  20.061  24.845  1.00  0.00     0.042 C 
ENDROOT
BRANCH   1   2
ATOM      2  C   UNL A   1      38.707  20.399  25.715  1.00  0.00     0.118 C 
BRANCH   2   3
ATOM      3  N   UNL A   1      39.705  19.325  25.611  1.00  0.00    -0.352 N 
ATOM      4  O   UNL A   1      41.951  18.633  25.962  1.00  0.00    -0.269 OA
ATOM      5  C   UNL A   1      41.087  19.562  26.053  1.00  0.00     0.251 C 
ATOM      6  H   UNL A   1      39.448  18.448  25.245  1.00  0.00     0.163 HD
BRANCH   5   7
ATOM      7  C   UNL A   1      41.484  20.916  26.616  1.00  0.00     0.039 A 
ATOM      8  C   UNL A   1      41.365  21.146  27.977  1.00  0.00     0.014 A 
ATOM      9  C   UNL A   1      41.938  21.856  25.796  1.00  0.00     0.014 A 
ATOM     10  C   UNL A   1      41.479  22.509  28.340  1.00  0.00     0.010 A 
ATOM     11  C   UNL A   1      42.157  23.134  26.250  1.00  0.00     0.010 A 
ATOM     12  C   UNL A   1      42.001  23.447  27.572  1.00  0.00    -0.014 A 
BRANCH  12  13
ATOM     13  C   UNL A   1      42.409  24.803  28.127  1.00  0.00     0.031 A 
ATOM     14  C   UNL A   1      43.748  24.996  28.469  1.00  0.00     0.074 A 
ATOM     15  C   UNL A   1      41.428  25.772  28.260  1.00  0.00     0.049 A 
ATOM     16  N   UNL A   1      44.317  26.108  28.936  1.00  0.00    -0.248 NA
ATOM     17  C   UNL A   1      44.784  23.957  28.361  1.00  0.00     0.031 C 
ATOM     18  C   UNL A   1      40.076  25.587  27.909  1.00  0.00     0.029 A 
ATOM     19  N   UNL A   1      41.568  27.054  28.743  1.00  0.00    -0.354 N 
ATOM     20  C   UNL A   1      45.622  25.912  29.130  1.00  0.00     0.074 A 
ATOM     21  C   UNL A   1      45.940  24.525  28.768  1.00  0.00     0.031 C 
ATOM     22  C   UNL A   1      39.409  26.738  28.186  1.00  0.00     0.029 A 
ATOM     23  C   UNL A   1      40.331  27.661  28.715  1.00  0.00     0.049 A 
ATOM     24  H   UNL A   1      42.406  27.465  29.054  1.00  0.00     0.167 HD
ATOM     25  C   UNL A   1      46.560  26.837  29.591  1.00  0.00     0.031 A 
ATOM     26  C   UNL A   1      40.007  28.944  29.125  1.00  0.00     0.031 A 
ATOM     27  C   UNL A   1      46.243  28.135  29.961  1.00  0.00     0.049 A 
ATOM     28  C   UNL A   1      40.935  29.851  29.642  1.00  0.00     0.074 A 
ATOM     29  C   UNL A   1      47.177  29.082  30.421  1.00  0.00     0.029 A 
ATOM     30  N   UNL A   1      45.002  28.734  29.955  1.00  0.00    -0.354 N 
ATOM     31  N   UNL A   1      42.247  29.668  29.798  1.00  0.00    -0.248 NA
ATOM     32  C   UNL A   1      40.596  31.201  30.109  1.00  0.00     0.031 C 
ATOM     33  C   UNL A   1      46.509  30.234  30.699  1.00  0.00     0.029 A 
ATOM     34  C   UNL A   1      45.145  30.024  30.417  1.00  0.00     0.049 A 
ATOM     35  H   UNL A   1      44.159  28.312  29.672  1.00  0.00     0.167 HD
ATOM     36  C   UNL A   1      42.807  30.768  30.304  1.00  0.00     0.074 A 
ATOM     37  C   UNL A   1      41.752  31.768  30.518  1.00  0.00     0.031 C 
ATOM     38  C   UNL A   1      44.156  30.980  30.592  1.00  0.00     0.031 A 
BRANCH  25  39
ATOM     39  C   UNL A   1      48.012  26.397  29.695  1.00  0.00    -0.014 A 
ATOM     40  C   UNL A   1      48.852  26.519  28.600  1.00  0.00     0.009 A 
ATOM     41  C   UNL A   1      48.448  25.901  30.846  1.00  0.00     0.009 A 
ATOM     42  C   UNL A   1      50.072  25.816  28.734  1.00  0.00     0.001 A 
ATOM     43  C   UNL A   1      49.703  25.351  30.940  1.00  0.00     0.001 A 
ATOM     44  C   UNL A   1      50.566  25.383  29.880  1.00  0.00     0.000 A 
ENDBRANCH  25  39
BRANCH  26  45
ATOM     45  C   UNL A   1      38.558  29.390  29.005  1.00  0.00    -0.014 A 
ATOM     46  C   UNL A   1      37.735  29.365  30.119  1.00  0.00     0.009 A 
ATOM     47  C   UNL A   1      38.112  29.811  27.828  1.00  0.00     0.009 A 
ATOM     48  C   UNL A   1      36.362  29.535  29.820  1.00  0.00     0.001 A 
ATOM     49  C   UNL A   1      36.778  30.088  27.643  1.00  0.00     0.001 A 
ATOM     50  C   UNL A   1      35.897  30.027  28.687  1.00  0.00     0.000 A 
ENDBRANCH  26  45
BRANCH  38  51
ATOM     51  C   UNL A   1      44.567  32.341  31.130  1.00  0.00    -0.014 A 
ATOM     52  C   UNL A   1      44.599  32.548  32.498  1.00  0.00     0.009 A 
ATOM     53  C   UNL A   1      44.888  33.309  30.278  1.00  0.00     0.009 A 
ATOM     54  C   UNL A   1      44.706  33.910  32.869  1.00  0.00     0.001 A 
ATOM     55  C   UNL A   1      45.112  34.588  30.725  1.00  0.00     0.001 A 
ATOM     56  C   UNL A   1      45.101  34.878  32.062  1.00  0.00     0.000 A 
ENDBRANCH  38  51
ENDBRANCH  12  13
ENDBRANCH   5   7
ENDBRANCH   2   3
ENDBRANCH   1   2
BRANCH   1  57
ATOM     57  C   UNL A   1      36.488  21.187  24.928  1.00  0.00     0.118 C 
BRANCH  57  58
ATOM     58  N   UNL A   1      35.882  21.201  26.267  1.00  0.00    -0.352 N 
ATOM     59  C   UNL A   1      34.719  22.058  26.537  1.00  0.00     0.253 C 
ATOM     60  H   UNL A   1      36.256  20.639  26.982  1.00  0.00     0.163 HD
ATOM     61  O   UNL A   1      34.194  22.071  27.696  1.00  0.00    -0.269 OA
BRANCH  59  62
ATOM     62  C   UNL A   1      34.142  22.929  25.433  1.00  0.00     0.063 A 
ATOM     63  C   UNL A   1      34.898  24.039  25.094  1.00  0.00     0.016 A 
ATOM     64  C   UNL A   1      33.019  22.636  24.786  1.00  0.00     0.051 A 
ATOM     65  C   UNL A   1      34.230  24.947  24.239  1.00  0.00     0.001 A 
ATOM     66  C   UNL A   1      32.495  23.510  23.864  1.00  0.00     0.027 A 
ATOM     67  C   UNL A   1      33.160  24.655  23.524  1.00  0.00     0.002 A 
BRANCH  64  68
ATOM     68  N   UNL A   1      32.332  21.365  25.059  1.00  0.00    -0.355 N 
ATOM     69  H   UNL A   1      31.689  21.303  25.802  1.00  0.00     0.167 HD
BRANCH  68  70
ATOM     70  C   UNL A   1      32.605  20.188  24.222  1.00  0.00     0.040 A 
ATOM     71  C   UNL A   1      32.160  20.173  22.911  1.00  0.00     0.026 A 
ATOM     72  C   UNL A   1      33.271  19.161  24.735  1.00  0.00     0.050 A 
ATOM     73  C   UNL A   1      32.216  18.898  22.300  1.00  0.00     0.004 A 
ATOM     74  C   UNL A   1      33.405  17.990  24.027  1.00  0.00     0.109 A 
ATOM     75  C   UNL A   1      32.936  17.884  22.747  1.00  0.00     0.024 A 
BRANCH  74  76
ATOM     76  S   UNL A   1      34.213  16.567  24.802  1.00  0.00     0.310 S 
ATOM     77  F   UNL A   1      34.473  16.030  23.332  1.00  0.00    -0.094 F 
ATOM     78  F   UNL A   1      32.869  15.747  24.790  1.00  0.00    -0.094 F 
ATOM     79  F   UNL A   1      34.996  15.330  25.326  1.00  0.00    -0.094 F 
ATOM     80  F   UNL A   1      35.571  17.363  24.673  1.00  0.00    -0.094 F 
ATOM     81  F   UNL A   1      33.451  17.795  24.162  1.00  0.00    -0.094 F 
ENDBRANCH  74  76
ENDBRANCH  68  70
ENDBRANCH  64  68
ENDBRANCH  59  62
ENDBRANCH  57  58
ENDBRANCH   1  57
TORSDOF 13
ENDMDL
MODEL 2
REMARK VINA RESULT:     -12.9      6.001     10.046
REMARK SMILES O=C(NCCCNC(=O)c1ccccc1Nc1cccc(S(F)(F)(F)(F)F)c1)c1ccc(-c2c3nc(c(-c4ccccc4)c4ccc([nH]4)c(-c4ccccc4)c4nc(c(-c5ccccc5)c5ccc2[nH]5)C=C4)C=C3)cc1
REMARK SMILES IDX 5 1 4 2 3 3 1 4 2 5 29 7 30 8 76 9 31 10 75 11 32 12 33 13
REMARK SMILES IDX 34 14 69 15 35 16 74 17 68 18 70 19 36 20 73 21 67 22 66 23
REMARK SMILES IDX 37 25 59 26 44 27 58 28 45 29 48 30 57 31 71 32 46 33 47 34
REMARK SMILES IDX 56 36 72 37 49 38 38 39 39 40 43 41 40 42 42 43 41 44 60 45
REMARK SMILES IDX 61 46 65 47 62 48 64 49 63 50 50 51 51 52 55 53 52 54 54 55
REMARK SMILES IDX 53 56 6 57 7 58 8 59 9 61 10 62 11 63 15 64 12 65 14 66
REMARK SMILES IDX 13 67 16 68 17 70 18 71 28 72 19 73 21 74 20 75 22 76 23 77
REMARK SMILES IDX 24 78 25 79 26 80 27 81
REMARK H PARENT 3 6 70 24 48 35 7 60 16 69
REMARK Flexibility Score: inf
ROOT
ATOM      1  C   UNL A   1      31.437  31.233  26.470  1.00  0.00     0.042 C 
ENDROOT
BRANCH   1   2
ATOM      2  C   UNL A   1      32.641  32.070  26.872  1.00  0.00     0.118 C 
BRANCH   2   3
ATOM      3  N   UNL A   1      32.191  33.402  27.300  1.00  0.00    -0.352 N 
ATOM      4  O   UNL A   1      32.627  35.347  28.593  1.00  0.00    -0.269 OA
ATOM      5  C   UNL A   1      33.016  34.195  28.223  1.00  0.00     0.251 C 
ATOM      6  H   UNL A   1      31.337  33.763  26.969  1.00  0.00     0.163 HD
BRANCH   5   7
ATOM      7  C   UNL A   1      34.334  33.637  28.735  1.00  0.00     0.039 A 
ATOM      8  C   UNL A   1      35.501  33.902  28.036  1.00  0.00     0.014 A 
ATOM      9  C   UNL A   1      34.345  32.906  29.843  1.00  0.00     0.014 A 
ATOM     10  C   UNL A   1      36.599  33.102  28.432  1.00  0.00     0.010 A 
ATOM     11  C   UNL A   1      35.491  32.262  30.244  1.00  0.00     0.010 A 
ATOM     12  C   UNL A   1      36.667  32.431  29.566  1.00  0.00    -0.014 A 
BRANCH  12  13
ATOM     13  C   UNL A   1      37.981  31.875  30.092  1.00  0.00     0.031 A 
ATOM     14  C   UNL A   1      38.662  32.610  31.062  1.00  0.00     0.074 A 
ATOM     15  C   UNL A   1      38.427  30.669  29.579  1.00  0.00     0.049 A 
ATOM     16  N   UNL A   1      39.802  32.289  31.675  1.00  0.00    -0.248 NA
ATOM     17  C   UNL A   1      38.207  33.909  31.582  1.00  0.00     0.031 C 
ATOM     18  C   UNL A   1      37.740  29.916  28.606  1.00  0.00     0.029 A 
ATOM     19  N   UNL A   1      39.582  29.990  29.900  1.00  0.00    -0.354 N 
ATOM     20  C   UNL A   1      40.134  33.235  32.556  1.00  0.00     0.074 A 
ATOM     21  C   UNL A   1      39.116  34.292  32.506  1.00  0.00     0.031 C 
ATOM     22  C   UNL A   1      38.476  28.806  28.337  1.00  0.00     0.029 A 
ATOM     23  C   UNL A   1      39.634  28.845  29.136  1.00  0.00     0.049 A 
ATOM     24  H   UNL A   1      40.253  30.274  30.561  1.00  0.00     0.167 HD
ATOM     25  C   UNL A   1      41.244  33.255  33.402  1.00  0.00     0.031 A 
ATOM     26  C   UNL A   1      40.627  27.879  29.122  1.00  0.00     0.031 A 
ATOM     27  C   UNL A   1      42.216  32.267  33.419  1.00  0.00     0.049 A 
ATOM     28  C   UNL A   1      41.768  27.928  29.927  1.00  0.00     0.074 A 
ATOM     29  C   UNL A   1      43.338  32.268  34.270  1.00  0.00     0.029 A 
ATOM     30  N   UNL A   1      42.281  31.134  32.638  1.00  0.00    -0.354 N 
ATOM     31  N   UNL A   1      42.080  28.853  30.835  1.00  0.00    -0.248 NA
ATOM     32  C   UNL A   1      42.843  26.927  29.896  1.00  0.00     0.031 C 
ATOM     33  C   UNL A   1      44.074  31.157  34.001  1.00  0.00     0.029 A 
ATOM     34  C   UNL A   1      43.424  30.443  32.975  1.00  0.00     0.049 A 
ATOM     35  H   UNL A   1      41.624  30.866  31.955  1.00  0.00     0.167 HD
ATOM     36  C   UNL A   1      43.241  28.551  31.418  1.00  0.00     0.074 A 
ATOM     37  C   UNL A   1      43.753  27.312  30.818  1.00  0.00     0.031 C 
ATOM     38  C   UNL A   1      43.894  29.258  32.430  1.00  0.00     0.031 A 
BRANCH  25  39
ATOM     39  C   UNL A   1      41.397  34.426  34.359  1.00  0.00    -0.014 A 
ATOM     40  C   UNL A   1      40.821  34.371  35.618  1.00  0.00     0.009 A 
ATOM     41  C   UNL A   1      42.087  35.489  33.963  1.00  0.00     0.009 A 
ATOM     42  C   UNL A   1      40.787  35.617  36.288  1.00  0.00     0.001 A 
ATOM     43  C   UNL A   1      42.121  36.627  34.732  1.00  0.00     0.001 A 
ATOM     44  C   UNL A   1      41.524  36.663  35.961  1.00  0.00     0.000 A 
ENDBRANCH  25  39
BRANCH  26  45
ATOM     45  C   UNL A   1      40.467  26.699  28.177  1.00  0.00    -0.014 A 
ATOM     46  C   UNL A   1      41.044  26.739  26.919  1.00  0.00     0.009 A 
ATOM     47  C   UNL A   1      39.781  25.638  28.587  1.00  0.00     0.009 A 
ATOM     48  C   UNL A   1      40.594  25.718  26.049  1.00  0.00     0.001 A 
ATOM     49  C   UNL A   1      39.493  24.612  27.718  1.00  0.00     0.001 A 
ATOM     50  C   UNL A   1      39.982  24.616  26.441  1.00  0.00     0.000 A 
ENDBRANCH  26  45
BRANCH  38  51
ATOM     51  C   UNL A   1      45.199  28.693  32.969  1.00  0.00    -0.014 A 
ATOM     52  C   UNL A   1      46.396  29.084  32.393  1.00  0.00     0.009 A 
ATOM     53  C   UNL A   1      45.168  27.834  33.982  1.00  0.00     0.009 A 
ATOM     54  C   UNL A   1      47.501  28.285  32.772  1.00  0.00     0.001 A 
ATOM     55  C   UNL A   1      46.312  27.191  34.387  1.00  0.00     0.001 A 
ATOM     56  C   UNL A   1      47.522  27.485  33.822  1.00  0.00     0.000 A 
ENDBRANCH  38  51
ENDBRANCH  12  13
ENDBRANCH   5   7
ENDBRANCH   2   3
ENDBRANCH   1   2
BRANCH   1  57
ATOM     57  C   UNL A   1      31.902  29.850  26.043  1.00  0.00     0.118 C 
BRANCH  57  58
ATOM     58  N   UNL A   1      32.825  29.972  24.906  1.00  0.00    -0.352 N 
ATOM     59  C   UNL A   1      33.231  28.774  24.158  1.00  0.00     0.253 C 
ATOM     60  H   UNL A   1      33.172  30.855  24.647  1.00  0.00     0.163 HD
ATOM     61  O   UNL A   1      34.030  28.879  23.174  1.00  0.00    -0.269 OA
BRANCH  59  62
ATOM     62  C   UNL A   1      32.697  27.408  24.559  1.00  0.00     0.063 A 
ATOM     63  C   UNL A   1      33.250  26.866  25.707  1.00  0.00     0.016 A 
ATOM     64  C   UNL A   1      31.727  26.784  23.900  1.00  0.00     0.051 A 
ATOM     65  C   UNL A   1      32.909  25.510  25.922  1.00  0.00     0.001 A 
ATOM     66  C   UNL A   1      31.351  25.509  24.251  1.00  0.00     0.027 A 
ATOM     67  C   UNL A   1      31.900  24.889  25.340  1.00  0.00     0.002 A 
BRANCH  64  68
ATOM     68  N   UNL A   1      31.050  27.462  22.786  1.00  0.00    -0.355 N 
ATOM     69  H   UNL A   1      31.431  27.419  21.878  1.00  0.00     0.167 HD
BRANCH  68  70
ATOM     70  C   UNL A   1      29.804  28.204  23.025  1.00  0.00     0.040 A 
ATOM     71  C   UNL A   1      28.647  27.504  23.323  1.00  0.00     0.026 A 
ATOM     72  C   UNL A   1      29.807  29.530  22.952  1.00  0.00     0.050 A 
ATOM     73  C   UNL A   1      27.468  28.283  23.244  1.00  0.00     0.004 A 
ATOM     74  C   UNL A   1      28.631  30.237  23.019  1.00  0.00     0.109 A 
ATOM     75  C   UNL A   1      27.441  29.604  23.251  1.00  0.00     0.024 A 
BRANCH  74  76
ATOM     76  S   UNL A   1      28.656  32.033  22.793  1.00  0.00     0.310 S 
ATOM     77  F   UNL A   1      27.215  32.045  23.455  1.00  0.00    -0.094 F 
ATOM     78  F   UNL A   1      27.939  31.908  21.397  1.00  0.00    -0.094 F 
ATOM     79  F   UNL A   1      28.572  33.584  22.730  1.00  0.00    -0.094 F 
ATOM     80  F   UNL A   1      29.248  32.133  24.254  1.00  0.00    -0.094 F 
ATOM     81  F   UNL A   1      28.645  30.458  22.922  1.00  0.00    -0.094 F 
ENDBRANCH  74  76
ENDBRANCH  68  70
ENDBRANCH  64  68
ENDBRANCH  59  62
ENDBRANCH  57  58
ENDBRANCH   1  57
TORSDOF 13
ENDMDL
MODEL 3
REMARK VINA RESULT:     -12.8      0.096      5.828
REMARK SMILES O=C(NCCCNC(=O)c1ccccc1Nc1cccc(S(F)(F)(F)(F)F)c1)c1ccc(-c2c3nc(c(-c4ccccc4)c4ccc([nH]4)c(-c4ccccc4)c4nc(c(-c5ccccc5)c5ccc2[nH]5)C=C4)C=C3)cc1
REMARK SMILES IDX 5 1 4 2 3 3 1 4 2 5 29 7 30 8 76 9 31 10 75 11 32 12 33 13
REMARK SMILES IDX 34 14 69 15 35 16 74 17 68 18 70 19 36 20 73 21 67 22 66 23
REMARK SMILES IDX 37 25 59 26 44 27 58 28 45 29 48 30 57 31 71 32 46 33 47 34
REMARK SMILES IDX 56 36 72 37 49 38 38 39 39 40 43 41 40 42 42 43 41 44 60 45
REMARK SMILES IDX 61 46 65 47 62 48 64 49 63 50 50 51 51 52 55 53 52 54 54 55
REMARK SMILES IDX 53 56 6 57 7 58 8 59 9 61 10 62 11 63 15 64 12 65 14 66
REMARK SMILES IDX 13 67 16 68 17 70 18 71 28 72 19 73 21 74 20 75 22 76 23 77
REMARK SMILES IDX 24 78 25 79 26 80 27 81
REMARK H PARENT 3 6 70 24 48 35 7 60 16 69
REMARK Flexibility Score: inf
ROOT
ATOM      1  C   UNL A   1      37.447  19.964  24.935  1.00  0.00     0.042 C 
ENDROOT
BRANCH   1   2
ATOM      2  C   UNL A   1      38.686  20.364  25.721  1.00  0.00     0.118 C 
BRANCH   2   3
ATOM      3  N   UNL A   1      39.694  19.298  25.623  1.00  0.00    -0.352 N 
ATOM      4  O   UNL A   1      41.946  18.629  25.975  1.00  0.00    -0.269 OA
ATOM      5  C   UNL A   1      41.075  19.550  26.059  1.00  0.00     0.251 C 
ATOM      6  H   UNL A   1      39.443  18.416  25.264  1.00  0.00     0.163 HD
BRANCH   5   7
ATOM      7  C   UNL A   1      41.461  20.913  26.611  1.00  0.00     0.039 A 
ATOM      8  C   UNL A   1      41.356  21.148  27.972  1.00  0.00     0.014 A 
ATOM      9  C   UNL A   1      41.892  21.854  25.780  1.00  0.00     0.014 A 
ATOM     10  C   UNL A   1      41.457  22.515  28.326  1.00  0.00     0.010 A 
ATOM     11  C   UNL A   1      42.100  23.138  26.224  1.00  0.00     0.010 A 
ATOM     12  C   UNL A   1      41.958  23.456  27.547  1.00  0.00    -0.014 A 
BRANCH  12  13
ATOM     13  C   UNL A   1      42.355  24.820  28.089  1.00  0.00     0.031 A 
ATOM     14  C   UNL A   1      41.357  25.785  28.228  1.00  0.00     0.074 A 
ATOM     15  C   UNL A   1      43.684  25.027  28.415  1.00  0.00     0.049 A 
ATOM     16  N   UNL A   1      41.483  27.022  28.712  1.00  0.00    -0.248 NA
ATOM     17  C   UNL A   1      39.951  25.578  27.850  1.00  0.00     0.031 C 
ATOM     18  C   UNL A   1      44.695  24.054  28.285  1.00  0.00     0.029 A 
ATOM     19  N   UNL A   1      44.263  26.175  28.910  1.00  0.00    -0.354 N 
ATOM     20  C   UNL A   1      40.301  27.642  28.705  1.00  0.00     0.074 A 
ATOM     21  C   UNL A   1      39.301  26.725  28.146  1.00  0.00     0.031 C 
ATOM     22  C   UNL A   1      45.868  24.611  28.685  1.00  0.00     0.029 A 
ATOM     23  C   UNL A   1      45.611  25.940  29.072  1.00  0.00     0.049 A 
ATOM     24  H   UNL A   1      43.795  27.016  29.112  1.00  0.00     0.167 HD
ATOM     25  C   UNL A   1      40.020  28.936  29.146  1.00  0.00     0.031 A 
ATOM     26  C   UNL A   1      46.577  26.824  29.527  1.00  0.00     0.031 A 
ATOM     27  C   UNL A   1      40.979  29.805  29.642  1.00  0.00     0.049 A 
ATOM     28  C   UNL A   1      46.305  28.138  29.914  1.00  0.00     0.074 A 
ATOM     29  C   UNL A   1      40.710  31.110  30.098  1.00  0.00     0.029 A 
ATOM     30  N   UNL A   1      42.331  29.579  29.782  1.00  0.00    -0.354 N 
ATOM     31  N   UNL A   1      45.118  28.745  29.944  1.00  0.00    -0.248 NA
ATOM     32  C   UNL A   1      47.325  29.092  30.367  1.00  0.00     0.031 C 
ATOM     33  C   UNL A   1      41.884  31.668  30.498  1.00  0.00     0.029 A 
ATOM     34  C   UNL A   1      42.906  30.719  30.298  1.00  0.00     0.049 A 
ATOM     35  H   UNL A   1      42.803  28.747  29.551  1.00  0.00     0.167 HD
ATOM     36  C   UNL A   1      45.252  29.996  30.389  1.00  0.00     0.074 A 
ATOM     37  C   UNL A   1      46.675  30.240  30.661  1.00  0.00     0.031 C 
ATOM     38  C   UNL A   1      44.245  30.942  30.583  1.00  0.00     0.031 A 
BRANCH  25  39
ATOM     39  C   UNL A   1      38.580  29.420  29.078  1.00  0.00    -0.014 A 
ATOM     40  C   UNL A   1      37.764  29.322  30.193  1.00  0.00     0.009 A 
ATOM     41  C   UNL A   1      38.132  29.933  27.939  1.00  0.00     0.009 A 
ATOM     42  C   UNL A   1      36.391  29.531  29.918  1.00  0.00     0.001 A 
ATOM     43  C   UNL A   1      36.802  30.240  27.786  1.00  0.00     0.001 A 
ATOM     44  C   UNL A   1      35.926  30.113  28.828  1.00  0.00     0.000 A 
ENDBRANCH  25  39
BRANCH  26  45
ATOM     45  C   UNL A   1      48.013  26.334  29.611  1.00  0.00    -0.014 A 
ATOM     46  C   UNL A   1      48.839  26.425  28.503  1.00  0.00     0.009 A 
ATOM     47  C   UNL A   1      48.456  25.837  30.761  1.00  0.00     0.009 A 
ATOM     48  C   UNL A   1      50.044  25.693  28.624  1.00  0.00     0.001 A 
ATOM     49  C   UNL A   1      49.699  25.256  30.840  1.00  0.00     0.001 A 
ATOM     50  C   UNL A   1      50.545  25.258  29.765  1.00  0.00     0.000 A 
ENDBRANCH  26  45
BRANCH  38  51
ATOM     51  C   UNL A   1      44.639  32.300  31.142  1.00  0.00    -0.014 A 
ATOM     52  C   UNL A   1      44.656  32.490  32.514  1.00  0.00     0.009 A 
ATOM     53  C   UNL A   1      44.961  33.280  30.306  1.00  0.00     0.009 A 
ATOM     54  C   UNL A   1      44.749  33.848  32.902  1.00  0.00     0.001 A 
ATOM     55  C   UNL A   1      45.171  34.555  30.771  1.00  0.00     0.001 A 
ATOM     56  C   UNL A   1      45.144  34.828  32.111  1.00  0.00     0.000 A 
ENDBRANCH  38  51
ENDBRANCH  12  13
ENDBRANCH   5   7
ENDBRANCH   2   3
ENDBRANCH   1   2
BRANCH   1  57
ATOM     57  C   UNL A   1      36.432  21.095  24.981  1.00  0.00     0.118 C 
BRANCH  57  58
ATOM     58  N   UNL A   1      35.817  21.147  26.315  1.00  0.00    -0.352 N 
ATOM     59  C   UNL A   1      34.670  22.033  26.562  1.00  0.00     0.253 C 
ATOM     60  H   UNL A   1      36.173  20.589  27.043  1.00  0.00     0.163 HD
ATOM     61  O   UNL A   1      34.139  22.079  27.716  1.00  0.00    -0.269 OA
BRANCH  59  62
ATOM     62  C   UNL A   1      34.121  22.896  25.438  1.00  0.00     0.063 A 
ATOM     63  C   UNL A   1      34.887  24.001  25.105  1.00  0.00     0.016 A 
ATOM     64  C   UNL A   1      33.012  22.601  24.769  1.00  0.00     0.051 A 
ATOM     65  C   UNL A   1      34.241  24.904  24.229  1.00  0.00     0.001 A 
ATOM     66  C   UNL A   1      32.510  23.468  23.828  1.00  0.00     0.027 A 
ATOM     67  C   UNL A   1      33.186  24.609  23.492  1.00  0.00     0.002 A 
BRANCH  64  68
ATOM     68  N   UNL A   1      32.315  21.335  25.037  1.00  0.00    -0.355 N 
ATOM     69  H   UNL A   1      31.659  21.279  25.770  1.00  0.00     0.167 HD
BRANCH  68  70
ATOM     70  C   UNL A   1      32.596  20.152  24.211  1.00  0.00     0.040 A 
ATOM     71  C   UNL A   1      32.158  20.125  22.898  1.00  0.00     0.026 A 
ATOM     72  C   UNL A   1      33.262  19.131  24.736  1.00  0.00     0.050 A 
ATOM     73  C   UNL A   1      32.221  18.845  22.298  1.00  0.00     0.004 A 
ATOM     74  C   UNL A   1      33.404  17.955  24.038  1.00  0.00     0.109 A 
ATOM     75  C   UNL A   1      32.942  17.838  22.756  1.00  0.00     0.024 A 
BRANCH  74  76
ATOM     76  S   UNL A   1      34.212  16.541  24.828  1.00  0.00     0.310 S 
ATOM     77  F   UNL A   1      34.426  15.963  23.367  1.00  0.00    -0.094 F 
ATOM     78  F   UNL A   1      32.857  15.740  24.873  1.00  0.00    -0.094 F 
ATOM     79  F   UNL A   1      34.992  15.307  25.363  1.00  0.00    -0.094 F 
ATOM     80  F   UNL A   1      35.578  17.314  24.643  1.00  0.00    -0.094 F 
ATOM     81  F   UNL A   1      33.450  17.763  24.177  1.00  0.00    -0.094 F 
ENDBRANCH  74  76
ENDBRANCH  68  70
ENDBRANCH  64  68
ENDBRANCH  59  62
ENDBRANCH  57  58
ENDBRANCH   1  57
TORSDOF 13
ENDMDL
