MODEL 1
REMARK VINA RESULT:     -11.8      0.000      0.000
REMARK SMILES O=C(NCCCNC(=O)[C@H]1C[C@](O)(c2ccccc2Cl)[C@@H](c2ccccc2Cl)O1)c1ccc(-c2c3nc(c(-c4ccccc4)c4ccc([nH]4)c(-c4ccccc4)c4nc(c(-c5ccccc5)c5ccc2[nH]5)C=C4)C=C3)cc1
REMARK SMILES IDX 4 1 3 2 1 3 2 4 30 6 31 7 77 8 32 9 76 10 33 11 34 12 35 13
REMARK SMILES IDX 70 14 36 15 75 16 69 17 71 18 37 19 74 20 68 21 67 22 38 24
REMARK SMILES IDX 60 25 45 26 59 27 46 28 49 29 58 30 72 31 47 32 48 33 57 35
REMARK SMILES IDX 73 36 50 37 39 38 40 39 44 40 41 41 43 42 42 43 61 44 62 45
REMARK SMILES IDX 66 46 63 47 65 48 64 49 51 50 52 51 56 52 53 53 55 54 54 55
REMARK SMILES IDX 5 56 6 57 7 58 8 59 9 61 10 62 11 63 29 64 12 65 21 66 14 67
REMARK SMILES IDX 15 68 19 69 16 70 18 71 20 72 17 73 13 74 22 76 23 77 27 78
REMARK SMILES IDX 24 79 26 80 28 81 25 82
REMARK H PARENT 3 5 71 23 49 34 7 60 13 75
REMARK Flexibility Score: inf
ROOT
ATOM      1  C   UNL A   1      31.947  32.029  27.156  1.00  0.00     0.118 C 
ENDROOT
BRANCH   1   2
ATOM      2  N   UNL A   1      32.028  33.469  27.365  1.00  0.00    -0.352 N 
ATOM      3  O   UNL A   1      32.706  35.406  28.286  1.00  0.00    -0.269 OA
ATOM      4  C   UNL A   1      32.937  34.214  28.070  1.00  0.00     0.251 C 
ATOM      5  H   UNL A   1      31.315  33.990  26.931  1.00  0.00     0.163 HD
BRANCH   4   6
ATOM      6  C   UNL A   1      34.187  33.614  28.584  1.00  0.00     0.039 A 
ATOM      7  C   UNL A   1      35.408  33.812  27.935  1.00  0.00     0.014 A 
ATOM      8  C   UNL A   1      34.149  32.893  29.783  1.00  0.00     0.014 A 
ATOM      9  C   UNL A   1      36.559  33.189  28.412  1.00  0.00     0.010 A 
ATOM     10  C   UNL A   1      35.320  32.335  30.305  1.00  0.00     0.010 A 
ATOM     11  C   UNL A   1      36.532  32.457  29.609  1.00  0.00    -0.014 A 
BRANCH  11  12
ATOM     12  C   UNL A   1      37.792  31.887  30.152  1.00  0.00     0.031 A 
ATOM     13  C   UNL A   1      38.367  30.607  29.611  1.00  0.00     0.074 A 
ATOM     14  C   UNL A   1      38.432  32.542  31.141  1.00  0.00     0.049 A 
ATOM     15  N   UNL A   1      39.474  29.994  29.950  1.00  0.00    -0.248 NA
ATOM     16  C   UNL A   1      37.602  29.925  28.557  1.00  0.00     0.031 C 
ATOM     17  C   UNL A   1      37.973  33.788  31.760  1.00  0.00     0.029 A 
ATOM     18  N   UNL A   1      39.609  32.263  31.788  1.00  0.00    -0.354 N 
ATOM     19  C   UNL A   1      39.529  28.848  29.167  1.00  0.00     0.074 A 
ATOM     20  C   UNL A   1      38.330  28.836  28.356  1.00  0.00     0.031 C 
ATOM     21  C   UNL A   1      38.881  34.190  32.662  1.00  0.00     0.029 A 
ATOM     22  C   UNL A   1      39.952  33.203  32.729  1.00  0.00     0.049 A 
ATOM     23  H   UNL A   1      40.155  31.467  31.595  1.00  0.00     0.167 HD
ATOM     24  C   UNL A   1      40.494  27.896  29.121  1.00  0.00     0.031 A 
ATOM     25  C   UNL A   1      41.004  33.262  33.565  1.00  0.00     0.031 A 
ATOM     26  C   UNL A   1      41.681  27.901  29.938  1.00  0.00     0.049 A 
ATOM     27  C   UNL A   1      42.031  32.169  33.530  1.00  0.00     0.074 A 
ATOM     28  C   UNL A   1      42.733  27.000  29.938  1.00  0.00     0.029 A 
ATOM     29  N   UNL A   1      41.968  28.845  30.913  1.00  0.00    -0.354 N 
ATOM     30  N   UNL A   1      42.095  31.121  32.747  1.00  0.00    -0.248 NA
ATOM     31  C   UNL A   1      43.135  32.272  34.494  1.00  0.00     0.031 C 
ATOM     32  C   UNL A   1      43.624  27.364  30.954  1.00  0.00     0.029 A 
ATOM     33  C   UNL A   1      43.162  28.530  31.542  1.00  0.00     0.049 A 
ATOM     34  H   UNL A   1      41.405  29.625  31.126  1.00  0.00     0.167 HD
ATOM     35  C   UNL A   1      43.255  30.449  33.108  1.00  0.00     0.074 A 
ATOM     36  C   UNL A   1      43.873  31.220  34.167  1.00  0.00     0.031 C 
ATOM     37  C   UNL A   1      43.762  29.297  32.604  1.00  0.00     0.031 A 
BRANCH  24  38
ATOM     38  C   UNL A   1      40.285  26.743  28.174  1.00  0.00    -0.014 A 
ATOM     39  C   UNL A   1      40.841  26.744  26.885  1.00  0.00     0.009 A 
ATOM     40  C   UNL A   1      39.545  25.626  28.592  1.00  0.00     0.009 A 
ATOM     41  C   UNL A   1      40.622  25.669  26.019  1.00  0.00     0.001 A 
ATOM     42  C   UNL A   1      39.354  24.540  27.735  1.00  0.00     0.001 A 
ATOM     43  C   UNL A   1      39.882  24.567  26.447  1.00  0.00     0.000 A 
ENDBRANCH  24  38
BRANCH  25  44
ATOM     44  C   UNL A   1      41.131  34.403  34.508  1.00  0.00    -0.014 A 
ATOM     45  C   UNL A   1      40.546  34.345  35.783  1.00  0.00     0.009 A 
ATOM     46  C   UNL A   1      41.856  35.549  34.146  1.00  0.00     0.009 A 
ATOM     47  C   UNL A   1      40.671  35.417  36.667  1.00  0.00     0.001 A 
ATOM     48  C   UNL A   1      42.005  36.607  35.045  1.00  0.00     0.001 A 
ATOM     49  C   UNL A   1      41.406  36.545  36.301  1.00  0.00     0.000 A 
ENDBRANCH  25  44
BRANCH  37  50
ATOM     50  C   UNL A   1      45.069  28.818  33.175  1.00  0.00    -0.014 A 
ATOM     51  C   UNL A   1      45.111  27.932  34.261  1.00  0.00     0.009 A 
ATOM     52  C   UNL A   1      46.275  29.242  32.594  1.00  0.00     0.009 A 
ATOM     53  C   UNL A   1      46.337  27.507  34.779  1.00  0.00     0.001 A 
ATOM     54  C   UNL A   1      47.498  28.791  33.094  1.00  0.00     0.001 A 
ATOM     55  C   UNL A   1      47.529  27.933  34.192  1.00  0.00     0.000 A 
ENDBRANCH  37  50
ENDBRANCH  11  12
ENDBRANCH   4   6
ENDBRANCH   1   2
BRANCH   1  56
ATOM     56  C   UNL A   1      33.275  31.427  26.709  1.00  0.00     0.042 C 
BRANCH  56  57
ATOM     57  C   UNL A   1      33.625  30.094  27.365  1.00  0.00     0.117 C 
BRANCH  57  58
ATOM     58  N   UNL A   1      32.480  29.225  27.556  1.00  0.00    -0.354 N 
ATOM     59  C   UNL A   1      32.266  27.963  27.083  1.00  0.00     0.249 C 
ATOM     60  H   UNL A   1      31.753  29.600  28.105  1.00  0.00     0.163 HD
ATOM     61  O   UNL A   1      31.228  27.401  27.438  1.00  0.00    -0.272 OA
BRANCH  59  62
ATOM     62  C   UNL A   1      33.326  27.278  26.185  1.00  0.00     0.211 C 
ATOM     63  C   UNL A   1      33.277  25.755  26.304  1.00  0.00     0.085 C 
ATOM     64  O   UNL A   1      33.203  27.615  24.803  1.00  0.00    -0.357 OA
ATOM     65  C   UNL A   1      33.058  25.225  24.887  1.00  0.00     0.124 C 
ATOM     66  C   UNL A   1      32.681  26.490  24.074  1.00  0.00     0.187 C 
BRANCH  65  67
ATOM     67  C   UNL A   1      34.288  24.388  24.471  1.00  0.00     0.005 A 
ATOM     68  C   UNL A   1      35.401  24.427  25.356  1.00  0.00     0.008 A 
ATOM     69  C   UNL A   1      34.461  23.628  23.297  1.00  0.00     0.047 A 
ATOM     70  C   UNL A   1      36.570  23.694  25.132  1.00  0.00     0.001 A 
ATOM     71  C   UNL A   1      35.624  22.858  23.099  1.00  0.00     0.021 A 
ATOM     72  Cl  UNL A   1      33.377  23.617  21.951  1.00  0.00    -0.084 Cl
ATOM     73  C   UNL A   1      36.670  22.884  24.015  1.00  0.00     0.002 A 
ENDBRANCH  65  67
BRANCH  65  74
ATOM     74  O   UNL A   1      31.941  24.314  24.909  1.00  0.00    -0.382 OA
ATOM     75  H   UNL A   1      32.248  23.431  25.165  1.00  0.00     0.212 HD
ENDBRANCH  65  74
BRANCH  66  76
ATOM     76  C   UNL A   1      31.225  26.816  23.740  1.00  0.00     0.003 A 
ATOM     77  C   UNL A   1      30.173  26.008  24.214  1.00  0.00     0.008 A 
ATOM     78  C   UNL A   1      30.870  27.993  23.047  1.00  0.00     0.046 A 
ATOM     79  C   UNL A   1      28.835  26.384  24.061  1.00  0.00     0.000 A 
ATOM     80  C   UNL A   1      29.528  28.359  22.882  1.00  0.00     0.021 A 
ATOM     81  Cl  UNL A   1      32.040  29.070  22.360  1.00  0.00    -0.084 Cl
ATOM     82  C   UNL A   1      28.512  27.565  23.404  1.00  0.00     0.002 A 
ENDBRANCH  66  76
ENDBRANCH  59  62
ENDBRANCH  57  58
ENDBRANCH  56  57
ENDBRANCH   1  56
TORSDOF 13
ENDMDL
MODEL 2
REMARK VINA RESULT:     -11.7      3.745      8.617
REMARK SMILES O=C(NCCCNC(=O)[C@H]1C[C@](O)(c2ccccc2Cl)[C@@H](c2ccccc2Cl)O1)c1ccc(-c2c3nc(c(-c4ccccc4)c4ccc([nH]4)c(-c4ccccc4)c4nc(c(-c5ccccc5)c5ccc2[nH]5)C=C4)C=C3)cc1
REMARK SMILES IDX 4 1 3 2 1 3 2 4 30 6 31 7 77 8 32 9 76 10 33 11 34 12 35 13
REMARK SMILES IDX 70 14 36 15 75 16 69 17 71 18 37 19 74 20 68 21 67 22 38 24
REMARK SMILES IDX 60 25 45 26 59 27 46 28 49 29 58 30 72 31 47 32 48 33 57 35
REMARK SMILES IDX 73 36 50 37 39 38 40 39 44 40 41 41 43 42 42 43 61 44 62 45
REMARK SMILES IDX 66 46 63 47 65 48 64 49 51 50 52 51 56 52 53 53 55 54 54 55
REMARK SMILES IDX 5 56 6 57 7 58 8 59 9 61 10 62 11 63 29 64 12 65 21 66 14 67
REMARK SMILES IDX 15 68 19 69 16 70 18 71 20 72 17 73 13 74 22 76 23 77 27 78
REMARK SMILES IDX 24 79 26 80 28 81 25 82
REMARK H PARENT 3 5 71 23 49 34 7 60 13 75
REMARK Flexibility Score: inf
ROOT
ATOM      1  C   UNL A   1      39.263  19.741  26.091  1.00  0.00     0.118 C 
ENDROOT
BRANCH   1   2
ATOM      2  N   UNL A   1      40.559  19.120  25.852  1.00  0.00    -0.352 N 
ATOM      3  O   UNL A   1      42.774  18.997  25.481  1.00  0.00    -0.269 OA
ATOM      4  C   UNL A   1      41.821  19.648  25.919  1.00  0.00     0.251 C 
ATOM      5  H   UNL A   1      40.522  18.169  25.602  1.00  0.00     0.163 HD
BRANCH   4   6
ATOM      6  C   UNL A   1      42.064  20.987  26.498  1.00  0.00     0.039 A 
ATOM      7  C   UNL A   1      41.960  21.213  27.873  1.00  0.00     0.014 A 
ATOM      8  C   UNL A   1      42.474  22.026  25.654  1.00  0.00     0.014 A 
ATOM      9  C   UNL A   1      42.140  22.497  28.383  1.00  0.00     0.010 A 
ATOM     10  C   UNL A   1      42.734  23.295  26.179  1.00  0.00     0.010 A 
ATOM     11  C   UNL A   1      42.544  23.549  27.546  1.00  0.00    -0.014 A 
BRANCH  11  12
ATOM     12  C   UNL A   1      42.829  24.886  28.128  1.00  0.00     0.031 A 
ATOM     13  C   UNL A   1      44.224  25.284  28.521  1.00  0.00     0.074 A 
ATOM     14  C   UNL A   1      41.813  25.755  28.294  1.00  0.00     0.049 A 
ATOM     15  N   UNL A   1      44.648  26.423  29.011  1.00  0.00    -0.248 NA
ATOM     16  C   UNL A   1      45.280  24.276  28.347  1.00  0.00     0.031 C 
ATOM     17  C   UNL A   1      40.412  25.486  27.962  1.00  0.00     0.029 A 
ATOM     18  N   UNL A   1      41.802  27.043  28.766  1.00  0.00    -0.354 N 
ATOM     19  C   UNL A   1      46.012  26.264  29.220  1.00  0.00     0.074 A 
ATOM     20  C   UNL A   1      46.340  24.909  28.831  1.00  0.00     0.031 C 
ATOM     21  C   UNL A   1      39.686  26.589  28.195  1.00  0.00     0.029 A 
ATOM     22  C   UNL A   1      40.556  27.621  28.749  1.00  0.00     0.049 A 
ATOM     23  H   UNL A   1      42.608  27.508  29.085  1.00  0.00     0.167 HD
ATOM     24  C   UNL A   1      46.911  27.167  29.685  1.00  0.00     0.031 A 
ATOM     25  C   UNL A   1      40.150  28.840  29.147  1.00  0.00     0.031 A 
ATOM     26  C   UNL A   1      46.581  28.511  30.085  1.00  0.00     0.049 A 
ATOM     27  C   UNL A   1      41.156  29.802  29.707  1.00  0.00     0.074 A 
ATOM     28  C   UNL A   1      47.429  29.510  30.536  1.00  0.00     0.029 A 
ATOM     29  N   UNL A   1      45.300  29.042  30.098  1.00  0.00    -0.354 N 
ATOM     30  N   UNL A   1      42.450  29.654  29.848  1.00  0.00    -0.248 NA
ATOM     31  C   UNL A   1      40.644  31.102  30.158  1.00  0.00     0.031 C 
ATOM     32  C   UNL A   1      46.653  30.622  30.880  1.00  0.00     0.029 A 
ATOM     33  C   UNL A   1      45.330  30.341  30.580  1.00  0.00     0.049 A 
ATOM     34  H   UNL A   1      44.489  28.565  29.808  1.00  0.00     0.167 HD
ATOM     35  C   UNL A   1      42.912  30.848  30.384  1.00  0.00     0.074 A 
ATOM     36  C   UNL A   1      41.760  31.716  30.525  1.00  0.00     0.031 C 
ATOM     37  C   UNL A   1      44.177  31.193  30.728  1.00  0.00     0.031 A 
BRANCH  24  38
ATOM     38  C   UNL A   1      48.340  26.712  29.822  1.00  0.00    -0.014 A 
ATOM     39  C   UNL A   1      49.276  26.916  28.795  1.00  0.00     0.009 A 
ATOM     40  C   UNL A   1      48.764  26.096  31.010  1.00  0.00     0.009 A 
ATOM     41  C   UNL A   1      50.594  26.474  28.939  1.00  0.00     0.001 A 
ATOM     42  C   UNL A   1      50.089  25.683  31.164  1.00  0.00     0.001 A 
ATOM     43  C   UNL A   1      50.999  25.861  30.124  1.00  0.00     0.000 A 
ENDBRANCH  24  38
BRANCH  25  44
ATOM     44  C   UNL A   1      38.717  29.214  29.028  1.00  0.00    -0.014 A 
ATOM     45  C   UNL A   1      37.852  29.084  30.125  1.00  0.00     0.009 A 
ATOM     46  C   UNL A   1      38.211  29.722  27.822  1.00  0.00     0.009 A 
ATOM     47  C   UNL A   1      36.507  29.439  30.011  1.00  0.00     0.001 A 
ATOM     48  C   UNL A   1      36.872  30.106  27.720  1.00  0.00     0.001 A 
ATOM     49  C   UNL A   1      36.019  29.957  28.811  1.00  0.00     0.000 A 
ENDBRANCH  25  44
BRANCH  37  50
ATOM     50  C   UNL A   1      44.385  32.584  31.261  1.00  0.00    -0.014 A 
ATOM     51  C   UNL A   1      44.338  32.854  32.637  1.00  0.00     0.009 A 
ATOM     52  C   UNL A   1      44.660  33.634  30.371  1.00  0.00     0.009 A 
ATOM     53  C   UNL A   1      44.527  34.155  33.108  1.00  0.00     0.001 A 
ATOM     54  C   UNL A   1      44.879  34.928  30.847  1.00  0.00     0.001 A 
ATOM     55  C   UNL A   1      44.802  35.190  32.214  1.00  0.00     0.000 A 
ENDBRANCH  37  50
ENDBRANCH  11  12
ENDBRANCH   4   6
ENDBRANCH   1   2
BRANCH   1  56
ATOM     56  C   UNL A   1      39.130  21.098  25.409  1.00  0.00     0.042 C 
BRANCH  56  57
ATOM     57  C   UNL A   1      37.715  21.672  25.399  1.00  0.00     0.117 C 
BRANCH  57  58
ATOM     58  N   UNL A   1      37.247  22.031  24.074  1.00  0.00    -0.354 N 
ATOM     59  C   UNL A   1      36.300  22.943  23.711  1.00  0.00     0.249 C 
ATOM     60  H   UNL A   1      37.674  21.546  23.330  1.00  0.00     0.163 HD
ATOM     61  O   UNL A   1      36.121  23.114  22.503  1.00  0.00    -0.272 OA
BRANCH  59  62
ATOM     62  C   UNL A   1      35.539  23.748  24.793  1.00  0.00     0.211 C 
ATOM     63  C   UNL A   1      34.755  24.914  24.192  1.00  0.00     0.085 C 
ATOM     64  O   UNL A   1      34.631  22.955  25.557  1.00  0.00    -0.357 OA
ATOM     65  C   UNL A   1      33.301  24.712  24.617  1.00  0.00     0.124 C 
ATOM     66  C   UNL A   1      33.278  23.267  25.180  1.00  0.00     0.187 C 
BRANCH  65  67
ATOM     67  C   UNL A   1      32.874  25.891  25.520  1.00  0.00     0.005 A 
ATOM     68  C   UNL A   1      33.892  26.829  25.847  1.00  0.00     0.008 A 
ATOM     69  C   UNL A   1      31.612  26.125  26.100  1.00  0.00     0.047 A 
ATOM     70  C   UNL A   1      33.652  27.965  26.625  1.00  0.00     0.001 A 
ATOM     71  C   UNL A   1      31.365  27.294  26.846  1.00  0.00     0.021 A 
ATOM     72  Cl  UNL A   1      30.285  25.018  26.073  1.00  0.00    -0.084 Cl
ATOM     73  C   UNL A   1      32.376  28.214  27.101  1.00  0.00     0.002 A 
ENDBRANCH  65  67
BRANCH  65  74
ATOM     74  O   UNL A   1      32.468  24.785  23.442  1.00  0.00    -0.382 OA
ATOM     75  H   UNL A   1      33.011  25.032  22.676  1.00  0.00     0.212 HD
ENDBRANCH  65  74
BRANCH  66  76
ATOM     76  C   UNL A   1      32.770  22.095  24.341  1.00  0.00     0.003 A 
ATOM     77  C   UNL A   1      32.357  22.281  23.008  1.00  0.00     0.008 A 
ATOM     78  C   UNL A   1      32.804  20.769  24.825  1.00  0.00     0.046 A 
ATOM     79  C   UNL A   1      32.051  21.199  22.178  1.00  0.00     0.000 A 
ATOM     80  C   UNL A   1      32.482  19.688  23.995  1.00  0.00     0.021 A 
ATOM     81  Cl  UNL A   1      33.244  20.371  26.452  1.00  0.00    -0.084 Cl
ATOM     82  C   UNL A   1      32.124  19.900  22.668  1.00  0.00     0.002 A 
ENDBRANCH  66  76
ENDBRANCH  59  62
ENDBRANCH  57  58
ENDBRANCH  56  57
ENDBRANCH   1  56
TORSDOF 13
ENDMDL
MODEL 3
REMARK VINA RESULT:     -11.7      0.265      5.879
REMARK SMILES O=C(NCCCNC(=O)[C@H]1C[C@](O)(c2ccccc2Cl)[C@@H](c2ccccc2Cl)O1)c1ccc(-c2c3nc(c(-c4ccccc4)c4ccc([nH]4)c(-c4ccccc4)c4nc(c(-c5ccccc5)c5ccc2[nH]5)C=C4)C=C3)cc1
REMARK SMILES IDX 4 1 3 2 1 3 2 4 30 6 31 7 77 8 32 9 76 10 33 11 34 12 35 13
REMARK SMILES IDX 70 14 36 15 75 16 69 17 71 18 37 19 74 20 68 21 67 22 38 24
REMARK SMILES IDX 60 25 45 26 59 27 46 28 49 29 58 30 72 31 47 32 48 33 57 35
REMARK SMILES IDX 73 36 50 37 39 38 40 39 44 40 41 41 43 42 42 43 61 44 62 45
REMARK SMILES IDX 66 46 63 47 65 48 64 49 51 50 52 51 56 52 53 53 55 54 54 55
REMARK SMILES IDX 5 56 6 57 7 58 8 59 9 61 10 62 11 63 29 64 12 65 21 66 14 67
REMARK SMILES IDX 15 68 19 69 16 70 18 71 20 72 17 73 13 74 22 76 23 77 27 78
REMARK SMILES IDX 24 79 26 80 28 81 25 82
REMARK H PARENT 3 5 71 23 49 34 7 60 13 75
REMARK Flexibility Score: inf
ROOT
ATOM      1  C   UNL A   1      32.086  32.002  27.249  1.00  0.00     0.118 C 
ENDROOT
BRANCH   1   2
ATOM      2  N   UNL A   1      32.138  33.445  27.448  1.00  0.00    -0.352 N 
ATOM      3  O   UNL A   1      32.770  35.401  28.362  1.00  0.00    -0.269 OA
ATOM      4  C   UNL A   1      33.025  34.211  28.158  1.00  0.00     0.251 C 
ATOM      5  H   UNL A   1      31.421  33.950  27.002  1.00  0.00     0.163 HD
BRANCH   4   6
ATOM      6  C   UNL A   1      34.280  33.638  28.691  1.00  0.00     0.039 A 
ATOM      7  C   UNL A   1      34.286  32.860  29.852  1.00  0.00     0.014 A 
ATOM      8  C   UNL A   1      35.468  33.824  27.975  1.00  0.00     0.014 A 
ATOM      9  C   UNL A   1      35.491  32.380  30.361  1.00  0.00     0.010 A 
ATOM     10  C   UNL A   1      36.664  33.273  28.445  1.00  0.00     0.010 A 
ATOM     11  C   UNL A   1      36.690  32.567  29.656  1.00  0.00    -0.014 A 
BRANCH  11  12
ATOM     12  C   UNL A   1      37.946  31.959  30.166  1.00  0.00     0.031 A 
ATOM     13  C   UNL A   1      38.732  32.603  31.274  1.00  0.00     0.074 A 
ATOM     14  C   UNL A   1      38.376  30.801  29.628  1.00  0.00     0.049 A 
ATOM     15  N   UNL A   1      39.829  32.185  31.857  1.00  0.00    -0.248 NA
ATOM     16  C   UNL A   1      38.227  33.883  31.793  1.00  0.00     0.031 C 
ATOM     17  C   UNL A   1      37.709  30.079  28.541  1.00  0.00     0.029 A 
ATOM     18  N   UNL A   1      39.462  30.019  29.929  1.00  0.00    -0.354 N 
ATOM     19  C   UNL A   1      40.155  33.156  32.796  1.00  0.00     0.074 A 
ATOM     20  C   UNL A   1      39.156  34.198  32.685  1.00  0.00     0.031 C 
ATOM     21  C   UNL A   1      38.373  28.939  28.300  1.00  0.00     0.029 A 
ATOM     22  C   UNL A   1      39.543  28.878  29.169  1.00  0.00     0.049 A 
ATOM     23  H   UNL A   1      40.120  30.253  30.623  1.00  0.00     0.167 HD
ATOM     24  C   UNL A   1      41.186  33.174  33.676  1.00  0.00     0.031 A 
ATOM     25  C   UNL A   1      40.461  27.895  29.158  1.00  0.00     0.031 A 
ATOM     26  C   UNL A   1      42.188  32.143  33.776  1.00  0.00     0.049 A 
ATOM     27  C   UNL A   1      41.621  27.965  30.106  1.00  0.00     0.074 A 
ATOM     28  C   UNL A   1      43.251  32.055  34.660  1.00  0.00     0.029 A 
ATOM     29  N   UNL A   1      42.261  31.027  32.955  1.00  0.00    -0.354 N 
ATOM     30  N   UNL A   1      41.885  28.862  31.023  1.00  0.00    -0.248 NA
ATOM     31  C   UNL A   1      42.609  26.881  30.020  1.00  0.00     0.031 C 
ATOM     32  C   UNL A   1      44.002  30.920  34.333  1.00  0.00     0.029 A 
ATOM     33  C   UNL A   1      43.369  30.264  33.290  1.00  0.00     0.049 A 
ATOM     34  H   UNL A   1      41.620  30.810  32.240  1.00  0.00     0.167 HD
ATOM     35  C   UNL A   1      43.057  28.442  31.638  1.00  0.00     0.074 A 
ATOM     36  C   UNL A   1      43.441  27.199  31.001  1.00  0.00     0.031 C 
ATOM     37  C   UNL A   1      43.750  29.035  32.641  1.00  0.00     0.031 A 
BRANCH  24  38
ATOM     38  C   UNL A   1      41.304  34.373  34.580  1.00  0.00    -0.014 A 
ATOM     39  C   UNL A   1      40.698  34.397  35.846  1.00  0.00     0.009 A 
ATOM     40  C   UNL A   1      42.059  35.482  34.170  1.00  0.00     0.009 A 
ATOM     41  C   UNL A   1      40.809  35.526  36.663  1.00  0.00     0.001 A 
ATOM     42  C   UNL A   1      42.195  36.597  35.001  1.00  0.00     0.001 A 
ATOM     43  C   UNL A   1      41.560  36.622  36.240  1.00  0.00     0.000 A 
ENDBRANCH  24  38
BRANCH  25  44
ATOM     44  C   UNL A   1      40.313  26.760  28.210  1.00  0.00    -0.014 A 
ATOM     45  C   UNL A   1      39.584  25.617  28.572  1.00  0.00     0.009 A 
ATOM     46  C   UNL A   1      40.885  26.824  26.930  1.00  0.00     0.009 A 
ATOM     47  C   UNL A   1      39.445  24.556  27.677  1.00  0.00     0.001 A 
ATOM     48  C   UNL A   1      40.717  25.773  26.025  1.00  0.00     0.001 A 
ATOM     49  C   UNL A   1      40.005  24.637  26.402  1.00  0.00     0.000 A 
ENDBRANCH  25  44
BRANCH  37  50
ATOM     50  C   UNL A   1      44.982  28.324  33.133  1.00  0.00    -0.014 A 
ATOM     51  C   UNL A   1      46.248  28.602  32.598  1.00  0.00     0.009 A 
ATOM     52  C   UNL A   1      44.872  27.383  34.169  1.00  0.00     0.009 A 
ATOM     53  C   UNL A   1      47.376  27.924  33.066  1.00  0.00     0.001 A 
ATOM     54  C   UNL A   1      46.005  26.730  34.656  1.00  0.00     0.001 A 
ATOM     55  C   UNL A   1      47.255  26.992  34.097  1.00  0.00     0.000 A 
ENDBRANCH  37  50
ENDBRANCH  11  12
ENDBRANCH   4   6
ENDBRANCH   1   2
BRANCH   1  56
ATOM     56  C   UNL A   1      33.440  31.415  26.870  1.00  0.00     0.042 C 
BRANCH  56  57
ATOM     57  C   UNL A   1      33.729  30.038  27.464  1.00  0.00     0.117 C 
BRANCH  57  58
ATOM     58  N   UNL A   1      32.549  29.206  27.594  1.00  0.00    -0.354 N 
ATOM     59  C   UNL A   1      32.302  27.971  27.069  1.00  0.00     0.249 C 
ATOM     60  H   UNL A   1      31.823  29.586  28.140  1.00  0.00     0.163 HD
ATOM     61  O   UNL A   1      31.235  27.435  27.378  1.00  0.00    -0.272 OA
BRANCH  59  62
ATOM     62  C   UNL A   1      33.358  27.281  26.170  1.00  0.00     0.211 C 
ATOM     63  C   UNL A   1      33.317  25.760  26.306  1.00  0.00     0.085 C 
ATOM     64  O   UNL A   1      33.223  27.604  24.786  1.00  0.00    -0.357 OA
ATOM     65  C   UNL A   1      33.090  25.213  24.896  1.00  0.00     0.124 C 
ATOM     66  C   UNL A   1      32.700  26.468  24.072  1.00  0.00     0.187 C 
BRANCH  65  67
ATOM     67  C   UNL A   1      34.320  24.377  24.479  1.00  0.00     0.005 A 
ATOM     68  C   UNL A   1      35.444  24.440  25.349  1.00  0.00     0.008 A 
ATOM     69  C   UNL A   1      34.484  23.597  23.317  1.00  0.00     0.047 A 
ATOM     70  C   UNL A   1      36.615  23.712  25.124  1.00  0.00     0.001 A 
ATOM     71  C   UNL A   1      35.649  22.832  23.118  1.00  0.00     0.021 A 
ATOM     72  Cl  UNL A   1      33.383  23.555  21.986  1.00  0.00    -0.084 Cl
ATOM     73  C   UNL A   1      36.707  22.882  24.020  1.00  0.00     0.002 A 
ENDBRANCH  65  67
BRANCH  65  74
ATOM     74  O   UNL A   1      31.977  24.298  24.936  1.00  0.00    -0.382 OA
ATOM     75  H   UNL A   1      32.189  23.556  25.523  1.00  0.00     0.212 HD
ENDBRANCH  65  74
BRANCH  66  76
ATOM     76  C   UNL A   1      31.241  26.784  23.745  1.00  0.00     0.003 A 
ATOM     77  C   UNL A   1      30.197  25.972  24.230  1.00  0.00     0.008 A 
ATOM     78  C   UNL A   1      30.875  27.956  23.050  1.00  0.00     0.046 A 
ATOM     79  C   UNL A   1      28.856  26.339  24.083  1.00  0.00     0.000 A 
ATOM     80  C   UNL A   1      29.529  28.313  22.892  1.00  0.00     0.021 A 
ATOM     81  Cl  UNL A   1      32.033  29.038  22.352  1.00  0.00    -0.084 Cl
ATOM     82  C   UNL A   1      28.522  27.516  23.423  1.00  0.00     0.002 A 
ENDBRANCH  66  76
ENDBRANCH  59  62
ENDBRANCH  57  58
ENDBRANCH  56  57
ENDBRANCH   1  56
TORSDOF 13
ENDMDL
