MODEL 1
REMARK VINA RESULT:     -12.3      0.000      0.000
REMARK SMILES COc1ccc(-n2c(SCc3cn(-c4ccc(C(=O)NCCCNC(=O)c5ccc(-c6c7nc(c(-c8ccccc8)c8ccc([nH]8)c(-c8ccccc8)c8nc(c(-c9ccccc9)c9ccc6[nH]9)C=C8)C=C7)cc5)cc4)nn3)nc3ccccc3c2=O)cc1
REMARK SMILES IDX 18 1 19 2 20 3 17 5 14 6 15 7 76 8 16 9 75 10 13 11 11 12
REMARK SMILES IDX 12 13 78 14 77 15 10 16 9 17 8 18 7 19 86 20 79 21 85 22
REMARK SMILES IDX 87 23 80 24 84 25 81 26 83 27 82 28 6 29 3 30 4 31 89 32
REMARK SMILES IDX 5 33 88 34 2 35 1 36 21 37 22 38 23 39 24 40 25 41 26 43
REMARK SMILES IDX 27 44 28 45 74 46 29 47 73 48 30 49 31 50 32 51 67 52 33 53
REMARK SMILES IDX 72 54 66 55 68 56 34 57 71 58 65 59 64 60 35 62 57 63 42 64
REMARK SMILES IDX 56 65 43 66 46 67 55 68 69 69 44 70 45 71 54 73 70 74 47 75
REMARK SMILES IDX 36 76 37 77 41 78 38 79 40 80 39 81 58 82 59 83 63 84 60 85
REMARK SMILES IDX 62 86 61 87 48 88 49 89 53 90 50 91 52 92 51 93
REMARK H PARENT 20 4 24 42 68 61 46 72
REMARK Flexibility Score: inf
ROOT
ATOM      1  C   UNL A   1      46.120  24.308  25.815  1.00  0.00     0.251 C 
ATOM      2  O   UNL A   1      46.609  24.324  24.684  1.00  0.00    -0.269 OA
ATOM      3  N   UNL A   1      46.947  24.565  26.881  1.00  0.00    -0.352 N 
ATOM      4  H   UNL A   1      47.900  24.630  26.642  1.00  0.00     0.163 HD
ENDROOT
BRANCH   1   5
ATOM      5  C   UNL A   1      44.668  24.029  25.965  1.00  0.00     0.039 A 
ATOM      6  C   UNL A   1      41.991  23.387  26.349  1.00  0.00     0.066 A 
ATOM      7  C   UNL A   1      42.910  22.356  26.171  1.00  0.00     0.029 A 
ATOM      8  C   UNL A   1      42.376  24.722  26.323  1.00  0.00     0.029 A 
ATOM      9  C   UNL A   1      44.256  22.684  26.000  1.00  0.00     0.016 A 
ATOM     10  C   UNL A   1      43.714  25.032  26.140  1.00  0.00     0.016 A 
BRANCH   6  11
ATOM     11  N   UNL A   1      40.635  23.097  26.485  1.00  0.00    -0.220 N 
ATOM     12  C   UNL A   1      38.716  22.167  26.107  1.00  0.00     0.093 A 
ATOM     13  C   UNL A   1      40.066  21.909  26.126  1.00  0.00     0.141 A 
ATOM     14  N   UNL A   1      38.514  23.483  26.435  1.00  0.00    -0.134 NA
ATOM     15  N   UNL A   1      39.697  24.055  26.598  1.00  0.00    -0.062 NA
BRANCH  12  16
ATOM     16  C   UNL A   1      37.561  21.336  25.724  1.00  0.00     0.138 C 
BRANCH  16  17
ATOM     17  S   UNL A   1      36.425  22.066  24.564  1.00  0.00    -0.081 SA
BRANCH  17  18
ATOM     18  C   UNL A   1      34.792  21.811  25.223  1.00  0.00     0.176 A 
ATOM     19  N   UNL A   1      34.024  20.880  24.544  1.00  0.00    -0.255 N 
ATOM     20  C   UNL A   1      32.990  21.374  23.768  1.00  0.00     0.266 A 
ATOM     21  N   UNL A   1      34.237  22.885  25.703  1.00  0.00    -0.223 NA
ATOM     22  C   UNL A   1      33.059  22.847  23.580  1.00  0.00     0.066 A 
ATOM     23  O   UNL A   1      32.092  20.720  23.229  1.00  0.00    -0.268 OA
ATOM     24  C   UNL A   1      33.589  23.577  24.658  1.00  0.00     0.079 A 
ATOM     25  C   UNL A   1      32.905  23.442  22.331  1.00  0.00     0.016 A 
ATOM     26  C   UNL A   1      33.823  24.943  24.530  1.00  0.00     0.029 A 
ATOM     27  C   UNL A   1      33.259  24.786  22.181  1.00  0.00     0.001 A 
ATOM     28  C   UNL A   1      33.680  25.542  23.281  1.00  0.00     0.002 A 
BRANCH  19  29
ATOM     29  C   UNL A   1      34.091  19.522  24.944  1.00  0.00     0.052 A 
ATOM     30  C   UNL A   1      33.590  16.778  24.938  1.00  0.00     0.119 A 
ATOM     31  C   UNL A   1      34.764  17.263  24.364  1.00  0.00     0.048 A 
ATOM     32  C   UNL A   1      32.775  17.634  25.677  1.00  0.00     0.048 A 
ATOM     33  C   UNL A   1      35.006  18.642  24.344  1.00  0.00     0.030 A 
ATOM     34  C   UNL A   1      33.039  19.005  25.699  1.00  0.00     0.030 A 
BRANCH  30  35
ATOM     35  O   UNL A   1      33.291  15.452  24.774  1.00  0.00    -0.497 OA
ATOM     36  C   UNL A   1      32.207  15.024  25.610  1.00  0.00     0.278 C 
ENDBRANCH  30  35
ENDBRANCH  19  29
ENDBRANCH  17  18
ENDBRANCH  16  17
ENDBRANCH  12  16
ENDBRANCH   6  11
ENDBRANCH   1   5
BRANCH   3  37
ATOM     37  C   UNL A   1      46.675  24.761  28.300  1.00  0.00     0.118 C 
BRANCH  37  38
ATOM     38  C   UNL A   1      46.908  26.211  28.754  1.00  0.00     0.042 C 
BRANCH  38  39
ATOM     39  C   UNL A   1      46.970  26.341  30.261  1.00  0.00     0.118 C 
BRANCH  39  40
ATOM     40  N   UNL A   1      46.216  25.300  30.973  1.00  0.00    -0.352 N 
ATOM     41  C   UNL A   1      44.947  25.362  31.523  1.00  0.00     0.251 C 
ATOM     42  H   UNL A   1      46.679  24.437  31.075  1.00  0.00     0.163 HD
ATOM     43  O   UNL A   1      44.586  24.531  32.367  1.00  0.00    -0.269 OA
BRANCH  41  44
ATOM     44  C   UNL A   1      44.014  26.408  31.084  1.00  0.00     0.039 A 
ATOM     45  C   UNL A   1      43.292  26.394  29.885  1.00  0.00     0.014 A 
ATOM     46  C   UNL A   1      43.850  27.465  31.946  1.00  0.00     0.014 A 
ATOM     47  C   UNL A   1      42.443  27.472  29.611  1.00  0.00     0.010 A 
ATOM     48  C   UNL A   1      42.651  28.079  31.895  1.00  0.00     0.010 A 
ATOM     49  C   UNL A   1      42.175  28.363  30.646  1.00  0.00    -0.014 A 
BRANCH  49  50
ATOM     50  C   UNL A   1      41.341  29.545  30.584  1.00  0.00     0.031 A 
ATOM     51  C   UNL A   1      42.062  30.755  30.154  1.00  0.00     0.074 A 
ATOM     52  C   UNL A   1      39.989  29.463  30.593  1.00  0.00     0.049 A 
ATOM     53  N   UNL A   1      42.444  31.730  30.904  1.00  0.00    -0.248 NA
ATOM     54  C   UNL A   1      42.596  30.804  28.784  1.00  0.00     0.031 C 
ATOM     55  C   UNL A   1      39.122  28.273  30.624  1.00  0.00     0.029 A 
ATOM     56  N   UNL A   1      39.087  30.467  30.455  1.00  0.00    -0.354 N 
ATOM     57  C   UNL A   1      43.082  32.623  30.055  1.00  0.00     0.074 A 
ATOM     58  C   UNL A   1      43.362  31.894  28.846  1.00  0.00     0.031 C 
ATOM     59  C   UNL A   1      37.856  28.620  30.284  1.00  0.00     0.029 A 
ATOM     60  C   UNL A   1      37.789  30.065  30.160  1.00  0.00     0.049 A 
ATOM     61  H   UNL A   1      39.333  31.415  30.556  1.00  0.00     0.167 HD
ATOM     62  C   UNL A   1      43.072  33.961  30.305  1.00  0.00     0.031 A 
ATOM     63  C   UNL A   1      36.761  30.877  29.801  1.00  0.00     0.031 A 
ATOM     64  C   UNL A   1      42.515  34.239  31.609  1.00  0.00     0.049 A 
ATOM     65  C   UNL A   1      37.133  32.256  30.214  1.00  0.00     0.074 A 
ATOM     66  C   UNL A   1      42.858  33.893  32.901  1.00  0.00     0.029 A 
ATOM     67  N   UNL A   1      41.182  34.589  31.646  1.00  0.00    -0.354 N 
ATOM     68  N   UNL A   1      37.254  32.614  31.461  1.00  0.00    -0.248 NA
ATOM     69  C   UNL A   1      37.864  33.080  29.260  1.00  0.00     0.031 C 
ATOM     70  C   UNL A   1      41.618  33.588  33.535  1.00  0.00     0.029 A 
ATOM     71  C   UNL A   1      40.583  33.856  32.636  1.00  0.00     0.049 A 
ATOM     72  H   UNL A   1      40.741  35.250  31.065  1.00  0.00     0.167 HD
ATOM     73  C   UNL A   1      38.405  33.392  31.497  1.00  0.00     0.074 A 
ATOM     74  C   UNL A   1      38.679  33.728  30.099  1.00  0.00     0.031 C 
ATOM     75  C   UNL A   1      39.199  33.428  32.610  1.00  0.00     0.031 A 
BRANCH  62  76
ATOM     76  C   UNL A   1      43.159  35.028  29.248  1.00  0.00    -0.014 A 
ATOM     77  C   UNL A   1      44.213  35.956  29.329  1.00  0.00     0.009 A 
ATOM     78  C   UNL A   1      42.128  35.321  28.337  1.00  0.00     0.009 A 
ATOM     79  C   UNL A   1      44.192  37.148  28.600  1.00  0.00     0.001 A 
ATOM     80  C   UNL A   1      42.124  36.492  27.575  1.00  0.00     0.001 A 
ATOM     81  C   UNL A   1      43.142  37.420  27.730  1.00  0.00     0.000 A 
ENDBRANCH  62  76
BRANCH  63  82
ATOM     82  C   UNL A   1      35.618  30.598  28.900  1.00  0.00    -0.014 A 
ATOM     83  C   UNL A   1      34.594  31.541  28.709  1.00  0.00     0.009 A 
ATOM     84  C   UNL A   1      35.667  29.505  28.015  1.00  0.00     0.009 A 
ATOM     85  C   UNL A   1      33.681  31.413  27.651  1.00  0.00     0.001 A 
ATOM     86  C   UNL A   1      34.756  29.376  26.959  1.00  0.00     0.001 A 
ATOM     87  C   UNL A   1      33.771  30.339  26.767  1.00  0.00     0.000 A 
ENDBRANCH  63  82
BRANCH  75  88
ATOM     88  C   UNL A   1      38.694  32.743  33.862  1.00  0.00    -0.014 A 
ATOM     89  C   UNL A   1      38.890  31.375  34.125  1.00  0.00     0.009 A 
ATOM     90  C   UNL A   1      38.168  33.542  34.886  1.00  0.00     0.009 A 
ATOM     91  C   UNL A   1      38.551  30.823  35.366  1.00  0.00     0.001 A 
ATOM     92  C   UNL A   1      37.848  32.998  36.132  1.00  0.00     0.001 A 
ATOM     93  C   UNL A   1      38.036  31.638  36.371  1.00  0.00     0.000 A 
ENDBRANCH  75  88
ENDBRANCH  49  50
ENDBRANCH  41  44
ENDBRANCH  39  40
ENDBRANCH  38  39
ENDBRANCH  37  38
ENDBRANCH   3  37
TORSDOF 16
ENDMDL
MODEL 2
REMARK VINA RESULT:     -12.1      3.952     11.131
REMARK SMILES COc1ccc(-n2c(SCc3cn(-c4ccc(C(=O)NCCCNC(=O)c5ccc(-c6c7nc(c(-c8ccccc8)c8ccc([nH]8)c(-c8ccccc8)c8nc(c(-c9ccccc9)c9ccc6[nH]9)C=C8)C=C7)cc5)cc4)nn3)nc3ccccc3c2=O)cc1
REMARK SMILES IDX 18 1 19 2 20 3 17 5 14 6 15 7 76 8 16 9 75 10 13 11 11 12
REMARK SMILES IDX 12 13 78 14 77 15 10 16 9 17 8 18 7 19 86 20 79 21 85 22
REMARK SMILES IDX 87 23 80 24 84 25 81 26 83 27 82 28 6 29 3 30 4 31 89 32
REMARK SMILES IDX 5 33 88 34 2 35 1 36 21 37 22 38 23 39 24 40 25 41 26 43
REMARK SMILES IDX 27 44 28 45 74 46 29 47 73 48 30 49 31 50 32 51 67 52 33 53
REMARK SMILES IDX 72 54 66 55 68 56 34 57 71 58 65 59 64 60 35 62 57 63 42 64
REMARK SMILES IDX 56 65 43 66 46 67 55 68 69 69 44 70 45 71 54 73 70 74 47 75
REMARK SMILES IDX 36 76 37 77 41 78 38 79 40 80 39 81 58 82 59 83 63 84 60 85
REMARK SMILES IDX 62 86 61 87 48 88 49 89 53 90 50 91 52 92 51 93
REMARK H PARENT 20 4 24 42 68 61 46 72
REMARK Flexibility Score: inf
ROOT
ATOM      1  C   UNL A   1      37.280  34.346  32.305  1.00  0.00     0.251 C 
ATOM      2  O   UNL A   1      36.829  35.343  32.868  1.00  0.00    -0.269 OA
ATOM      3  N   UNL A   1      38.519  33.892  32.687  1.00  0.00    -0.352 N 
ATOM      4  H   UNL A   1      38.988  34.489  33.314  1.00  0.00     0.163 HD
ENDROOT
BRANCH   1   5
ATOM      5  C   UNL A   1      36.461  33.679  31.259  1.00  0.00     0.039 A 
ATOM      6  C   UNL A   1      34.801  32.441  29.404  1.00  0.00     0.066 A 
ATOM      7  C   UNL A   1      34.731  32.046  30.738  1.00  0.00     0.029 A 
ATOM      8  C   UNL A   1      35.688  33.422  28.979  1.00  0.00     0.029 A 
ATOM      9  C   UNL A   1      35.551  32.687  31.668  1.00  0.00     0.016 A 
ATOM     10  C   UNL A   1      36.505  34.040  29.912  1.00  0.00     0.016 A 
BRANCH   6  11
ATOM     11  N   UNL A   1      34.024  31.797  28.445  1.00  0.00    -0.220 N 
ATOM     12  C   UNL A   1      33.528  30.562  26.736  1.00  0.00     0.093 A 
ATOM     13  C   UNL A   1      34.394  30.653  27.799  1.00  0.00     0.141 A 
ATOM     14  N   UNL A   1      32.685  31.642  26.761  1.00  0.00    -0.134 NA
ATOM     15  N   UNL A   1      33.041  32.422  27.770  1.00  0.00    -0.062 NA
BRANCH  12  16
ATOM     16  C   UNL A   1      33.444  29.609  25.614  1.00  0.00     0.138 C 
BRANCH  16  17
ATOM     17  S   UNL A   1      32.102  28.442  25.681  1.00  0.00    -0.081 SA
BRANCH  17  18
ATOM     18  C   UNL A   1      32.065  27.619  24.104  1.00  0.00     0.176 A 
ATOM     19  N   UNL A   1      30.846  27.053  23.767  1.00  0.00    -0.255 N 
ATOM     20  C   UNL A   1      30.765  25.673  23.823  1.00  0.00     0.266 A 
ATOM     21  N   UNL A   1      33.171  27.011  23.794  1.00  0.00    -0.223 NA
ATOM     22  C   UNL A   1      31.929  25.051  24.508  1.00  0.00     0.066 A 
ATOM     23  O   UNL A   1      29.843  24.968  23.402  1.00  0.00    -0.268 OA
ATOM     24  C   UNL A   1      33.158  25.714  24.349  1.00  0.00     0.079 A 
ATOM     25  C   UNL A   1      31.776  24.069  25.483  1.00  0.00     0.016 A 
ATOM     26  C   UNL A   1      34.277  25.291  25.060  1.00  0.00     0.029 A 
ATOM     27  C   UNL A   1      32.877  23.736  26.278  1.00  0.00     0.001 A 
ATOM     28  C   UNL A   1      34.129  24.316  26.043  1.00  0.00     0.002 A 
BRANCH  19  29
ATOM     29  C   UNL A   1      29.903  27.841  23.060  1.00  0.00     0.052 A 
ATOM     30  C   UNL A   1      28.123  29.923  22.534  1.00  0.00     0.119 A 
ATOM     31  C   UNL A   1      29.417  29.978  22.018  1.00  0.00     0.048 A 
ATOM     32  C   UNL A   1      27.669  28.752  23.138  1.00  0.00     0.048 A 
ATOM     33  C   UNL A   1      30.320  28.946  22.301  1.00  0.00     0.030 A 
ATOM     34  C   UNL A   1      28.555  27.700  23.381  1.00  0.00     0.030 A 
BRANCH  30  35
ATOM     35  O   UNL A   1      27.328  31.029  22.402  1.00  0.00    -0.497 OA
ATOM     36  C   UNL A   1      28.006  32.122  21.768  1.00  0.00     0.278 C 
ENDBRANCH  30  35
ENDBRANCH  19  29
ENDBRANCH  17  18
ENDBRANCH  16  17
ENDBRANCH  12  16
ENDBRANCH   6  11
ENDBRANCH   1   5
BRANCH   3  37
ATOM     37  C   UNL A   1      39.267  32.690  32.337  1.00  0.00     0.118 C 
BRANCH  37  38
ATOM     38  C   UNL A   1      40.318  32.942  31.244  1.00  0.00     0.042 C 
BRANCH  38  39
ATOM     39  C   UNL A   1      39.933  32.321  29.918  1.00  0.00     0.118 C 
BRANCH  39  40
ATOM     40  N   UNL A   1      38.686  31.544  29.973  1.00  0.00    -0.352 N 
ATOM     41  C   UNL A   1      38.324  30.420  29.251  1.00  0.00     0.251 C 
ATOM     42  H   UNL A   1      38.012  31.870  30.613  1.00  0.00     0.163 HD
ATOM     43  O   UNL A   1      37.136  30.083  29.165  1.00  0.00    -0.269 OA
BRANCH  41  44
ATOM     44  C   UNL A   1      39.361  29.609  28.600  1.00  0.00     0.039 A 
ATOM     45  C   UNL A   1      39.591  29.548  27.221  1.00  0.00     0.014 A 
ATOM     46  C   UNL A   1      40.160  28.872  29.440  1.00  0.00     0.014 A 
ATOM     47  C   UNL A   1      40.621  28.722  26.757  1.00  0.00     0.010 A 
ATOM     48  C   UNL A   1      41.409  28.628  28.993  1.00  0.00     0.010 A 
ATOM     49  C   UNL A   1      41.511  28.209  27.696  1.00  0.00    -0.014 A 
BRANCH  49  50
ATOM     50  C   UNL A   1      42.634  27.331  27.444  1.00  0.00     0.031 A 
ATOM     51  C   UNL A   1      42.265  25.907  27.367  1.00  0.00     0.074 A 
ATOM     52  C   UNL A   1      43.820  27.805  26.995  1.00  0.00     0.049 A 
ATOM     53  N   UNL A   1      42.468  25.010  28.269  1.00  0.00    -0.248 NA
ATOM     54  C   UNL A   1      41.401  25.464  26.261  1.00  0.00     0.031 C 
ATOM     55  C   UNL A   1      44.210  29.182  26.650  1.00  0.00     0.029 A 
ATOM     56  N   UNL A   1      44.924  27.100  26.636  1.00  0.00    -0.354 N 
ATOM     57  C   UNL A   1      41.945  23.835  27.748  1.00  0.00     0.074 A 
ATOM     58  C   UNL A   1      41.097  24.227  26.653  1.00  0.00     0.031 C 
ATOM     59  C   UNL A   1      45.360  29.166  25.933  1.00  0.00     0.029 A 
ATOM     60  C   UNL A   1      45.865  27.806  25.897  1.00  0.00     0.049 A 
ATOM     61  H   UNL A   1      45.048  26.155  26.880  1.00  0.00     0.167 HD
ATOM     62  C   UNL A   1      42.473  22.624  28.075  1.00  0.00     0.031 A 
ATOM     63  C   UNL A   1      46.952  27.280  25.274  1.00  0.00     0.031 A 
ATOM     64  C   UNL A   1      43.447  22.754  29.134  1.00  0.00     0.049 A 
ATOM     65  C   UNL A   1      47.199  25.947  25.884  1.00  0.00     0.074 A 
ATOM     66  C   UNL A   1      43.402  23.205  30.438  1.00  0.00     0.029 A 
ATOM     67  N   UNL A   1      44.768  22.821  28.748  1.00  0.00    -0.354 N 
ATOM     68  N   UNL A   1      47.576  25.794  27.123  1.00  0.00    -0.248 NA
ATOM     69  C   UNL A   1      46.539  24.792  25.290  1.00  0.00     0.031 C 
ATOM     70  C   UNL A   1      44.598  23.966  30.599  1.00  0.00     0.029 A 
ATOM     71  C   UNL A   1      45.352  23.859  29.427  1.00  0.00     0.049 A 
ATOM     72  H   UNL A   1      45.214  22.227  28.102  1.00  0.00     0.167 HD
ATOM     73  C   UNL A   1      46.815  24.733  27.596  1.00  0.00     0.074 A 
ATOM     74  C   UNL A   1      46.271  24.092  26.397  1.00  0.00     0.031 C 
ATOM     75  C   UNL A   1      46.441  24.662  28.910  1.00  0.00     0.031 A 
BRANCH  62  76
ATOM     76  C   UNL A   1      42.441  21.410  27.187  1.00  0.00    -0.014 A 
ATOM     77  C   UNL A   1      41.745  20.276  27.641  1.00  0.00     0.009 A 
ATOM     78  C   UNL A   1      43.263  21.238  26.057  1.00  0.00     0.009 A 
ATOM     79  C   UNL A   1      41.927  19.023  27.047  1.00  0.00     0.001 A 
ATOM     80  C   UNL A   1      43.415  19.996  25.436  1.00  0.00     0.001 A 
ATOM     81  C   UNL A   1      42.770  18.882  25.951  1.00  0.00     0.000 A 
ENDBRANCH  62  76
BRANCH  63  82
ATOM     82  C   UNL A   1      47.619  27.720  24.026  1.00  0.00    -0.014 A 
ATOM     83  C   UNL A   1      48.929  27.314  23.718  1.00  0.00     0.009 A 
ATOM     84  C   UNL A   1      46.871  28.325  23.000  1.00  0.00     0.009 A 
ATOM     85  C   UNL A   1      49.452  27.475  22.425  1.00  0.00     0.001 A 
ATOM     86  C   UNL A   1      47.391  28.486  21.709  1.00  0.00     0.001 A 
ATOM     87  C   UNL A   1      48.678  28.046  21.417  1.00  0.00     0.000 A 
ENDBRANCH  63  82
BRANCH  75  88
ATOM     88  C   UNL A   1      47.032  25.672  29.869  1.00  0.00    -0.014 A 
ATOM     89  C   UNL A   1      48.304  25.530  30.454  1.00  0.00     0.009 A 
ATOM     90  C   UNL A   1      46.361  26.891  30.040  1.00  0.00     0.009 A 
ATOM     91  C   UNL A   1      48.874  26.566  31.203  1.00  0.00     0.001 A 
ATOM     92  C   UNL A   1      46.938  27.934  30.769  1.00  0.00     0.001 A 
ATOM     93  C   UNL A   1      48.192  27.770  31.353  1.00  0.00     0.000 A 
ENDBRANCH  75  88
ENDBRANCH  49  50
ENDBRANCH  41  44
ENDBRANCH  39  40
ENDBRANCH  38  39
ENDBRANCH  37  38
ENDBRANCH   3  37
TORSDOF 16
ENDMDL
MODEL 3
REMARK VINA RESULT:     -12.1      4.140     10.021
REMARK SMILES COc1ccc(-n2c(SCc3cn(-c4ccc(C(=O)NCCCNC(=O)c5ccc(-c6c7nc(c(-c8ccccc8)c8ccc([nH]8)c(-c8ccccc8)c8nc(c(-c9ccccc9)c9ccc6[nH]9)C=C8)C=C7)cc5)cc4)nn3)nc3ccccc3c2=O)cc1
REMARK SMILES IDX 18 1 19 2 20 3 17 5 14 6 15 7 76 8 16 9 75 10 13 11 11 12
REMARK SMILES IDX 12 13 78 14 77 15 10 16 9 17 8 18 7 19 86 20 79 21 85 22
REMARK SMILES IDX 87 23 80 24 84 25 81 26 83 27 82 28 6 29 3 30 4 31 89 32
REMARK SMILES IDX 5 33 88 34 2 35 1 36 21 37 22 38 23 39 24 40 25 41 26 43
REMARK SMILES IDX 27 44 28 45 74 46 29 47 73 48 30 49 31 50 32 51 67 52 33 53
REMARK SMILES IDX 72 54 66 55 68 56 34 57 71 58 65 59 64 60 35 62 57 63 42 64
REMARK SMILES IDX 56 65 43 66 46 67 55 68 69 69 44 70 45 71 54 73 70 74 47 75
REMARK SMILES IDX 36 76 37 77 41 78 38 79 40 80 39 81 58 82 59 83 63 84 60 85
REMARK SMILES IDX 62 86 61 87 48 88 49 89 53 90 50 91 52 92 51 93
REMARK H PARENT 20 4 24 42 68 61 46 72
REMARK Flexibility Score: inf
ROOT
ATOM      1  C   UNL A   1      33.362  36.549  29.232  1.00  0.00     0.251 C 
ATOM      2  O   UNL A   1      33.423  37.474  28.422  1.00  0.00    -0.269 OA
ATOM      3  N   UNL A   1      33.079  36.852  30.541  1.00  0.00    -0.352 N 
ATOM      4  H   UNL A   1      33.062  37.818  30.733  1.00  0.00     0.163 HD
ENDROOT
BRANCH   1   5
ATOM      5  C   UNL A   1      33.579  35.159  28.752  1.00  0.00     0.039 A 
ATOM      6  C   UNL A   1      34.051  32.525  27.999  1.00  0.00     0.066 A 
ATOM      7  C   UNL A   1      35.043  33.214  28.691  1.00  0.00     0.029 A 
ATOM      8  C   UNL A   1      32.844  33.125  27.663  1.00  0.00     0.029 A 
ATOM      9  C   UNL A   1      34.792  34.530  29.085  1.00  0.00     0.016 A 
ATOM     10  C   UNL A   1      32.613  34.435  28.051  1.00  0.00     0.016 A 
BRANCH   6  11
ATOM     11  N   UNL A   1      34.283  31.224  27.558  1.00  0.00    -0.220 N 
ATOM     12  C   UNL A   1      33.874  29.170  27.007  1.00  0.00     0.093 A 
ATOM     13  C   UNL A   1      33.340  30.435  26.966  1.00  0.00     0.141 A 
ATOM     14  N   UNL A   1      35.096  29.228  27.625  1.00  0.00    -0.134 NA
ATOM     15  N   UNL A   1      35.303  30.476  28.016  1.00  0.00    -0.062 NA
BRANCH  12  16
ATOM     16  C   UNL A   1      33.331  27.859  26.607  1.00  0.00     0.138 C 
BRANCH  16  17
ATOM     17  S   UNL A   1      34.202  27.020  25.301  1.00  0.00    -0.081 SA
BRANCH  17  18
ATOM     18  C   UNL A   1      32.966  26.407  24.178  1.00  0.00     0.176 A 
ATOM     19  N   UNL A   1      31.679  26.860  24.419  1.00  0.00    -0.255 N 
ATOM     20  C   UNL A   1      30.791  25.946  24.959  1.00  0.00     0.266 A 
ATOM     21  N   UNL A   1      33.161  25.183  23.785  1.00  0.00    -0.223 NA
ATOM     22  C   UNL A   1      31.455  24.709  25.446  1.00  0.00     0.066 A 
ATOM     23  O   UNL A   1      29.571  26.087  25.087  1.00  0.00    -0.268 OA
ATOM     24  C   UNL A   1      32.590  24.300  24.724  1.00  0.00     0.079 A 
ATOM     25  C   UNL A   1      31.177  24.161  26.695  1.00  0.00     0.016 A 
ATOM     26  C   UNL A   1      33.362  23.235  25.180  1.00  0.00     0.029 A 
ATOM     27  C   UNL A   1      32.030  23.176  27.201  1.00  0.00     0.001 A 
ATOM     28  C   UNL A   1      33.094  22.689  26.433  1.00  0.00     0.002 A 
BRANCH  19  29
ATOM     29  C   UNL A   1      31.250  28.056  23.792  1.00  0.00     0.052 A 
ATOM     30  C   UNL A   1      29.510  30.009  22.823  1.00  0.00     0.119 A 
ATOM     31  C   UNL A   1      30.143  30.201  24.050  1.00  0.00     0.048 A 
ATOM     32  C   UNL A   1      29.894  28.949  22.005  1.00  0.00     0.048 A 
ATOM     33  C   UNL A   1      30.998  29.211  24.550  1.00  0.00     0.030 A 
ATOM     34  C   UNL A   1      30.783  27.982  22.481  1.00  0.00     0.030 A 
BRANCH  30  35
ATOM     35  O   UNL A   1      28.539  30.899  22.452  1.00  0.00    -0.497 OA
ATOM     36  C   UNL A   1      27.658  31.235  23.533  1.00  0.00     0.278 C 
ENDBRANCH  30  35
ENDBRANCH  19  29
ENDBRANCH  17  18
ENDBRANCH  16  17
ENDBRANCH  12  16
ENDBRANCH   6  11
ENDBRANCH   1   5
BRANCH   3  37
ATOM     37  C   UNL A   1      32.799  36.011  31.698  1.00  0.00     0.118 C 
BRANCH  37  38
ATOM     38  C   UNL A   1      34.018  35.841  32.618  1.00  0.00     0.042 C 
BRANCH  38  39
ATOM     39  C   UNL A   1      34.177  34.419  33.111  1.00  0.00     0.118 C 
BRANCH  39  40
ATOM     40  N   UNL A   1      34.770  34.324  34.453  1.00  0.00    -0.352 N 
ATOM     41  C   UNL A   1      35.995  33.803  34.832  1.00  0.00     0.251 C 
ATOM     42  H   UNL A   1      34.217  34.681  35.185  1.00  0.00     0.163 HD
ATOM     43  O   UNL A   1      36.208  33.493  36.012  1.00  0.00    -0.269 OA
BRANCH  41  44
ATOM     44  C   UNL A   1      37.056  33.637  33.831  1.00  0.00     0.039 A 
ATOM     45  C   UNL A   1      37.412  34.588  32.867  1.00  0.00     0.014 A 
ATOM     46  C   UNL A   1      37.745  32.450  33.878  1.00  0.00     0.014 A 
ATOM     47  C   UNL A   1      38.448  34.276  31.980  1.00  0.00     0.010 A 
ATOM     48  C   UNL A   1      39.020  32.496  33.441  1.00  0.00     0.010 A 
ATOM     49  C   UNL A   1      39.226  33.157  32.263  1.00  0.00    -0.014 A 
BRANCH  49  50
ATOM     50  C   UNL A   1      40.334  32.646  31.483  1.00  0.00     0.031 A 
ATOM     51  C   UNL A   1      40.031  31.386  30.782  1.00  0.00     0.074 A 
ATOM     52  C   UNL A   1      41.400  33.420  31.170  1.00  0.00     0.049 A 
ATOM     53  N   UNL A   1      40.431  30.207  31.113  1.00  0.00    -0.248 NA
ATOM     54  C   UNL A   1      39.016  31.402  29.717  1.00  0.00     0.031 C 
ATOM     55  C   UNL A   1      41.653  34.837  31.479  1.00  0.00     0.029 A 
ATOM     56  N   UNL A   1      42.461  33.108  30.383  1.00  0.00    -0.354 N 
ATOM     57  C   UNL A   1      39.889  29.352  30.164  1.00  0.00     0.074 A 
ATOM     58  C   UNL A   1      38.847  30.096  29.505  1.00  0.00     0.031 C 
ATOM     59  C   UNL A   1      42.664  35.301  30.703  1.00  0.00     0.029 A 
ATOM     60  C   UNL A   1      43.225  34.189  29.959  1.00  0.00     0.049 A 
ATOM     61  H   UNL A   1      42.674  32.181  30.128  1.00  0.00     0.167 HD
ATOM     62  C   UNL A   1      40.527  28.206  29.803  1.00  0.00     0.031 A 
ATOM     63  C   UNL A   1      44.216  34.154  29.029  1.00  0.00     0.031 A 
ATOM     64  C   UNL A   1      41.659  27.952  30.664  1.00  0.00     0.049 A 
ATOM     65  C   UNL A   1      44.632  32.733  28.892  1.00  0.00     0.074 A 
ATOM     66  C   UNL A   1      41.814  27.737  32.019  1.00  0.00     0.029 A 
ATOM     67  N   UNL A   1      42.890  28.356  30.195  1.00  0.00    -0.354 N 
ATOM     68  N   UNL A   1      45.222  32.072  29.848  1.00  0.00    -0.248 NA
ATOM     69  C   UNL A   1      43.941  31.912  27.907  1.00  0.00     0.031 C 
ATOM     70  C   UNL A   1      42.979  28.481  32.372  1.00  0.00     0.029 A 
ATOM     71  C   UNL A   1      43.526  29.026  31.208  1.00  0.00     0.049 A 
ATOM     72  H   UNL A   1      43.249  28.191  29.293  1.00  0.00     0.167 HD
ATOM     73  C   UNL A   1      44.608  30.826  29.849  1.00  0.00     0.074 A 
ATOM     74  C   UNL A   1      43.902  30.751  28.569  1.00  0.00     0.031 C 
ATOM     75  C   UNL A   1      44.468  30.108  31.004  1.00  0.00     0.031 A 
BRANCH  62  76
ATOM     76  C   UNL A   1      40.406  27.548  28.455  1.00  0.00    -0.014 A 
ATOM     77  C   UNL A   1      39.851  26.258  28.395  1.00  0.00     0.009 A 
ATOM     78  C   UNL A   1      41.037  28.021  27.289  1.00  0.00     0.009 A 
ATOM     79  C   UNL A   1      39.993  25.456  27.259  1.00  0.00     0.001 A 
ATOM     80  C   UNL A   1      41.144  27.238  26.137  1.00  0.00     0.001 A 
ATOM     81  C   UNL A   1      40.648  25.944  26.133  1.00  0.00     0.000 A 
ENDBRANCH  62  76
BRANCH  63  82
ATOM     82  C   UNL A   1      44.636  35.202  28.070  1.00  0.00    -0.014 A 
ATOM     83  C   UNL A   1      43.824  36.319  27.809  1.00  0.00     0.009 A 
ATOM     84  C   UNL A   1      45.964  35.244  27.606  1.00  0.00     0.009 A 
ATOM     85  C   UNL A   1      44.334  37.445  27.144  1.00  0.00     0.001 A 
ATOM     86  C   UNL A   1      46.474  36.367  26.942  1.00  0.00     0.001 A 
ATOM     87  C   UNL A   1      45.662  37.475  26.725  1.00  0.00     0.000 A 
ENDBRANCH  63  82
BRANCH  75  88
ATOM     88  C   UNL A   1      45.161  30.624  32.247  1.00  0.00    -0.014 A 
ATOM     89  C   UNL A   1      44.534  31.461  33.188  1.00  0.00     0.009 A 
ATOM     90  C   UNL A   1      46.421  30.100  32.567  1.00  0.00     0.009 A 
ATOM     91  C   UNL A   1      45.159  31.779  34.400  1.00  0.00     0.001 A 
ATOM     92  C   UNL A   1      47.037  30.399  33.785  1.00  0.00     0.001 A 
ATOM     93  C   UNL A   1      46.408  31.241  34.699  1.00  0.00     0.000 A 
ENDBRANCH  75  88
ENDBRANCH  49  50
ENDBRANCH  41  44
ENDBRANCH  39  40
ENDBRANCH  38  39
ENDBRANCH  37  38
ENDBRANCH   3  37
TORSDOF 16
ENDMDL
