MODEL 1
REMARK VINA RESULT:     -11.0      0.000      0.000
REMARK SMILES Cc1noc(-c2ccc(CCl)cc2)c1C(=O)NCCCNC(=O)c1ccc(-c2c3nc(c(-c4ccccc4)c4ccc([nH]4)c(-c4ccccc4)c4nc(c(-c5ccccc5)c5ccc2[nH]5)C=C4)C=C3)cc1
REMARK SMILES IDX 19 1 18 2 17 3 15 4 16 5 14 7 1 8 2 9 3 10 4 11 5 12 6 13
REMARK SMILES IDX 7 14 13 15 8 16 12 17 9 18 10 19 11 20 20 21 21 22 22 23
REMARK SMILES IDX 23 25 24 26 25 27 71 28 26 29 70 30 27 31 28 32 29 33 64 34
REMARK SMILES IDX 30 35 69 36 63 37 65 38 31 39 68 40 62 41 61 42 32 44 54 45
REMARK SMILES IDX 39 46 53 47 40 48 43 49 52 50 66 51 41 52 42 53 51 55 67 56
REMARK SMILES IDX 44 57 33 58 34 59 38 60 35 61 37 62 36 63 55 64 56 65 60 66
REMARK SMILES IDX 57 67 59 68 58 69 45 70 46 71 50 72 47 73 49 74 48 75
REMARK H PARENT 17 6 21 24 65 43 43 54
REMARK Flexibility Score: inf
ROOT
ATOM      1  C   UNL A   1      34.084  28.282  26.055  1.00  0.00     0.042 C 
ENDROOT
BRANCH   1   2
ATOM      2  C   UNL A   1      33.522  29.188  24.959  1.00  0.00     0.118 C 
BRANCH   2   3
ATOM      3  N   UNL A   1      33.868  28.677  23.664  1.00  0.00    -0.352 N 
ATOM      4  C   UNL A   1      33.398  27.677  22.869  1.00  0.00     0.257 C 
ATOM      5  O   UNL A   1      33.995  27.635  21.788  1.00  0.00    -0.269 OA
ATOM      6  H   UNL A   1      34.621  29.161  23.255  1.00  0.00     0.163 HD
BRANCH   4   7
ATOM      7  C   UNL A   1      32.303  26.757  23.178  1.00  0.00     0.110 A 
ATOM      8  C   UNL A   1      29.790  27.759  22.977  1.00  0.00     0.071 C 
ATOM      9  C   UNL A   1      30.861  26.756  23.195  1.00  0.00     0.094 A 
ATOM     10  N   UNL A   1      30.376  25.552  23.541  1.00  0.00    -0.084 NA
ATOM     11  O   UNL A   1      31.451  24.761  23.811  1.00  0.00    -0.355 OA
ATOM     12  C   UNL A   1      32.590  25.467  23.633  1.00  0.00     0.179 A 
BRANCH  12  13
ATOM     13  C   UNL A   1      33.790  24.714  23.966  1.00  0.00     0.021 A 
ATOM     14  C   UNL A   1      34.323  23.796  23.055  1.00  0.00     0.012 A 
ATOM     15  C   UNL A   1      34.427  24.888  25.201  1.00  0.00     0.012 A 
ATOM     16  C   UNL A   1      35.495  23.099  23.356  1.00  0.00     0.006 A 
ATOM     17  C   UNL A   1      35.602  24.197  25.502  1.00  0.00     0.006 A 
ATOM     18  C   UNL A   1      36.155  23.301  24.578  1.00  0.00    -0.033 A 
BRANCH  18  19
ATOM     19  C   UNL A   1      37.438  22.585  24.887  1.00  0.00     0.145 C 
ATOM     20  Cl  UNL A   1      37.178  20.834  25.018  1.00  0.00    -0.122 Cl
ENDBRANCH  18  19
ENDBRANCH  12  13
ENDBRANCH   4   7
ENDBRANCH   2   3
ENDBRANCH   1   2
BRANCH   1  21
ATOM     21  C   UNL A   1      33.543  28.624  27.442  1.00  0.00     0.118 C 
BRANCH  21  22
ATOM     22  N   UNL A   1      33.594  30.060  27.693  1.00  0.00    -0.352 N 
ATOM     23  C   UNL A   1      34.560  30.819  28.293  1.00  0.00     0.251 C 
ATOM     24  H   UNL A   1      32.808  30.562  27.380  1.00  0.00     0.163 HD
ATOM     25  O   UNL A   1      34.291  31.966  28.656  1.00  0.00    -0.269 OA
BRANCH  23  26
ATOM     26  C   UNL A   1      35.916  30.279  28.507  1.00  0.00     0.039 A 
ATOM     27  C   UNL A   1      36.836  30.329  27.458  1.00  0.00     0.014 A 
ATOM     28  C   UNL A   1      36.263  29.681  29.721  1.00  0.00     0.014 A 
ATOM     29  C   UNL A   1      38.123  29.823  27.644  1.00  0.00     0.010 A 
ATOM     30  C   UNL A   1      37.568  29.255  29.933  1.00  0.00     0.010 A 
ATOM     31  C   UNL A   1      38.508  29.311  28.894  1.00  0.00    -0.014 A 
BRANCH  31  32
ATOM     32  C   UNL A   1      39.888  28.829  29.132  1.00  0.00     0.031 A 
ATOM     33  C   UNL A   1      40.914  29.741  29.744  1.00  0.00     0.074 A 
ATOM     34  C   UNL A   1      40.232  27.588  28.736  1.00  0.00     0.049 A 
ATOM     35  N   UNL A   1      42.183  29.518  29.976  1.00  0.00    -0.248 NA
ATOM     36  C   UNL A   1      40.464  31.092  30.119  1.00  0.00     0.031 C 
ATOM     37  C   UNL A   1      39.334  26.624  28.095  1.00  0.00     0.029 A 
ATOM     38  N   UNL A   1      41.430  26.926  28.813  1.00  0.00    -0.354 N 
ATOM     39  C   UNL A   1      42.684  30.703  30.501  1.00  0.00     0.074 A 
ATOM     40  C   UNL A   1      41.598  31.658  30.507  1.00  0.00     0.031 C 
ATOM     41  C   UNL A   1      40.003  25.483  27.868  1.00  0.00     0.029 A 
ATOM     42  C   UNL A   1      41.386  25.650  28.304  1.00  0.00     0.049 A 
ATOM     43  H   UNL A   1      42.244  27.326  29.196  1.00  0.00     0.167 HD
ATOM     44  C   UNL A   1      43.932  30.967  30.955  1.00  0.00     0.031 A 
ATOM     45  C   UNL A   1      42.353  24.721  28.196  1.00  0.00     0.031 A 
ATOM     46  C   UNL A   1      45.005  30.008  30.959  1.00  0.00     0.049 A 
ATOM     47  C   UNL A   1      43.733  25.043  28.696  1.00  0.00     0.074 A 
ATOM     48  C   UNL A   1      46.289  30.154  31.454  1.00  0.00     0.029 A 
ATOM     49  N   UNL A   1      44.920  28.726  30.436  1.00  0.00    -0.354 N 
ATOM     50  N   UNL A   1      44.173  26.144  29.254  1.00  0.00    -0.248 NA
ATOM     51  C   UNL A   1      44.746  23.988  28.558  1.00  0.00     0.031 C 
ATOM     52  C   UNL A   1      46.999  28.982  31.177  1.00  0.00     0.029 A 
ATOM     53  C   UNL A   1      46.138  28.082  30.570  1.00  0.00     0.049 A 
ATOM     54  H   UNL A   1      44.114  28.334  30.031  1.00  0.00     0.167 HD
ATOM     55  C   UNL A   1      45.506  25.904  29.563  1.00  0.00     0.074 A 
ATOM     56  C   UNL A   1      45.795  24.548  29.144  1.00  0.00     0.031 C 
ATOM     57  C   UNL A   1      46.409  26.733  30.143  1.00  0.00     0.031 A 
BRANCH  44  58
ATOM     58  C   UNL A   1      44.206  32.351  31.474  1.00  0.00    -0.014 A 
ATOM     59  C   UNL A   1      44.651  33.377  30.624  1.00  0.00     0.009 A 
ATOM     60  C   UNL A   1      43.978  32.645  32.828  1.00  0.00     0.009 A 
ATOM     61  C   UNL A   1      44.902  34.655  31.127  1.00  0.00     0.001 A 
ATOM     62  C   UNL A   1      44.197  33.933  33.320  1.00  0.00     0.001 A 
ATOM     63  C   UNL A   1      44.669  34.934  32.473  1.00  0.00     0.000 A 
ENDBRANCH  44  58
BRANCH  45  64
ATOM     64  C   UNL A   1      42.045  23.391  27.606  1.00  0.00    -0.014 A 
ATOM     65  C   UNL A   1      42.322  23.131  26.256  1.00  0.00     0.009 A 
ATOM     66  C   UNL A   1      41.476  22.375  28.390  1.00  0.00     0.009 A 
ATOM     67  C   UNL A   1      42.010  21.890  25.695  1.00  0.00     0.001 A 
ATOM     68  C   UNL A   1      41.194  21.125  27.835  1.00  0.00     0.001 A 
ATOM     69  C   UNL A   1      41.453  20.887  26.486  1.00  0.00     0.000 A 
ENDBRANCH  45  64
BRANCH  57  70
ATOM     70  C   UNL A   1      47.785  26.182  30.393  1.00  0.00    -0.014 A 
ATOM     71  C   UNL A   1      48.760  26.163  29.384  1.00  0.00     0.009 A 
ATOM     72  C   UNL A   1      48.121  25.713  31.674  1.00  0.00     0.009 A 
ATOM     73  C   UNL A   1      50.033  25.653  29.643  1.00  0.00     0.001 A 
ATOM     74  C   UNL A   1      49.405  25.234  31.939  1.00  0.00     0.001 A 
ATOM     75  C   UNL A   1      50.355  25.196  30.921  1.00  0.00     0.000 A 
ENDBRANCH  57  70
ENDBRANCH  31  32
ENDBRANCH  23  26
ENDBRANCH  21  22
ENDBRANCH   1  21
TORSDOF 12
ENDMDL
MODEL 2
REMARK VINA RESULT:     -10.9      2.326      3.861
REMARK SMILES Cc1noc(-c2ccc(CCl)cc2)c1C(=O)NCCCNC(=O)c1ccc(-c2c3nc(c(-c4ccccc4)c4ccc([nH]4)c(-c4ccccc4)c4nc(c(-c5ccccc5)c5ccc2[nH]5)C=C4)C=C3)cc1
REMARK SMILES IDX 19 1 18 2 17 3 15 4 16 5 14 7 1 8 2 9 3 10 4 11 5 12 6 13
REMARK SMILES IDX 7 14 13 15 8 16 12 17 9 18 10 19 11 20 20 21 21 22 22 23
REMARK SMILES IDX 23 25 24 26 25 27 71 28 26 29 70 30 27 31 28 32 29 33 64 34
REMARK SMILES IDX 30 35 69 36 63 37 65 38 31 39 68 40 62 41 61 42 32 44 54 45
REMARK SMILES IDX 39 46 53 47 40 48 43 49 52 50 66 51 41 52 42 53 51 55 67 56
REMARK SMILES IDX 44 57 33 58 34 59 38 60 35 61 37 62 36 63 55 64 56 65 60 66
REMARK SMILES IDX 57 67 59 68 58 69 45 70 46 71 50 72 47 73 49 74 48 75
REMARK H PARENT 17 6 21 24 65 43 43 54
REMARK Flexibility Score: inf
ROOT
ATOM      1  C   UNL A   1      33.286  27.888  26.857  1.00  0.00     0.042 C 
ENDROOT
BRANCH   1   2
ATOM      2  C   UNL A   1      31.849  28.231  27.251  1.00  0.00     0.118 C 
BRANCH   2   3
ATOM      3  N   UNL A   1      31.001  27.085  27.089  1.00  0.00    -0.352 N 
ATOM      4  C   UNL A   1      30.840  26.140  26.123  1.00  0.00     0.257 C 
ATOM      5  O   UNL A   1      29.997  25.296  26.448  1.00  0.00    -0.269 OA
ATOM      6  H   UNL A   1      30.395  26.952  27.853  1.00  0.00     0.163 HD
BRANCH   4   7
ATOM      7  C   UNL A   1      31.565  26.052  24.856  1.00  0.00     0.110 A 
ATOM      8  C   UNL A   1      33.560  24.218  24.730  1.00  0.00     0.071 C 
ATOM      9  C   UNL A   1      32.626  25.274  24.266  1.00  0.00     0.094 A 
ATOM     10  N   UNL A   1      32.848  25.635  22.991  1.00  0.00    -0.084 NA
ATOM     11  O   UNL A   1      32.004  26.670  22.726  1.00  0.00    -0.355 OA
ATOM     12  C   UNL A   1      31.267  26.948  23.824  1.00  0.00     0.179 A 
BRANCH  12  13
ATOM     13  C   UNL A   1      30.382  28.090  23.648  1.00  0.00     0.021 A 
ATOM     14  C   UNL A   1      29.103  27.915  23.109  1.00  0.00     0.012 A 
ATOM     15  C   UNL A   1      30.794  29.378  24.007  1.00  0.00     0.012 A 
ATOM     16  C   UNL A   1      28.238  29.003  22.973  1.00  0.00     0.006 A 
ATOM     17  C   UNL A   1      29.929  30.467  23.877  1.00  0.00     0.006 A 
ATOM     18  C   UNL A   1      28.637  30.289  23.368  1.00  0.00    -0.033 A 
BRANCH  18  19
ATOM     19  C   UNL A   1      27.694  31.453  23.263  1.00  0.00     0.145 C 
ATOM     20  Cl  UNL A   1      28.553  32.929  22.777  1.00  0.00    -0.122 Cl
ENDBRANCH  18  19
ENDBRANCH  12  13
ENDBRANCH   4   7
ENDBRANCH   2   3
ENDBRANCH   1   2
BRANCH   1  21
ATOM     21  C   UNL A   1      33.942  28.972  26.003  1.00  0.00     0.118 C 
BRANCH  21  22
ATOM     22  N   UNL A   1      33.801  30.289  26.615  1.00  0.00    -0.352 N 
ATOM     23  C   UNL A   1      34.504  30.868  27.636  1.00  0.00     0.251 C 
ATOM     24  H   UNL A   1      33.089  30.849  26.233  1.00  0.00     0.163 HD
ATOM     25  O   UNL A   1      34.051  31.873  28.188  1.00  0.00    -0.269 OA
BRANCH  23  26
ATOM     26  C   UNL A   1      35.793  30.305  28.077  1.00  0.00     0.039 A 
ATOM     27  C   UNL A   1      36.903  30.420  27.237  1.00  0.00     0.014 A 
ATOM     28  C   UNL A   1      35.896  29.622  29.292  1.00  0.00     0.014 A 
ATOM     29  C   UNL A   1      38.130  29.892  27.640  1.00  0.00     0.010 A 
ATOM     30  C   UNL A   1      37.135  29.172  29.728  1.00  0.00     0.010 A 
ATOM     31  C   UNL A   1      38.262  29.293  28.903  1.00  0.00    -0.014 A 
BRANCH  31  32
ATOM     32  C   UNL A   1      39.571  28.784  29.377  1.00  0.00     0.031 A 
ATOM     33  C   UNL A   1      40.414  29.614  30.304  1.00  0.00     0.074 A 
ATOM     34  C   UNL A   1      40.026  27.602  28.918  1.00  0.00     0.049 A 
ATOM     35  N   UNL A   1      41.608  29.364  30.779  1.00  0.00    -0.248 NA
ATOM     36  C   UNL A   1      39.857  30.908  30.733  1.00  0.00     0.031 C 
ATOM     37  C   UNL A   1      39.315  26.726  27.984  1.00  0.00     0.029 A 
ATOM     38  N   UNL A   1      41.196  26.936  29.174  1.00  0.00    -0.354 N 
ATOM     39  C   UNL A   1      41.952  30.475  31.540  1.00  0.00     0.074 A 
ATOM     40  C   UNL A   1      40.865  31.421  31.424  1.00  0.00     0.031 C 
ATOM     41  C   UNL A   1      40.049  25.622  27.773  1.00  0.00     0.029 A 
ATOM     42  C   UNL A   1      41.299  25.734  28.517  1.00  0.00     0.049 A 
ATOM     43  H   UNL A   1      41.897  27.286  29.771  1.00  0.00     0.167 HD
ATOM     44  C   UNL A   1      43.064  30.680  32.285  1.00  0.00     0.031 A 
ATOM     45  C   UNL A   1      42.291  24.825  28.511  1.00  0.00     0.031 A 
ATOM     46  C   UNL A   1      44.136  29.729  32.406  1.00  0.00     0.049 A 
ATOM     47  C   UNL A   1      43.520  25.082  29.335  1.00  0.00     0.074 A 
ATOM     48  C   UNL A   1      45.277  29.812  33.184  1.00  0.00     0.029 A 
ATOM     49  N   UNL A   1      44.202  28.521  31.726  1.00  0.00    -0.354 N 
ATOM     50  N   UNL A   1      43.799  26.106  30.106  1.00  0.00    -0.248 NA
ATOM     51  C   UNL A   1      44.568  24.053  29.296  1.00  0.00     0.031 C 
ATOM     52  C   UNL A   1      46.063  28.684  32.929  1.00  0.00     0.029 A 
ATOM     53  C   UNL A   1      45.378  27.866  32.044  1.00  0.00     0.049 A 
ATOM     54  H   UNL A   1      43.513  28.182  31.110  1.00  0.00     0.167 HD
ATOM     55  C   UNL A   1      45.039  25.830  30.667  1.00  0.00     0.074 A 
ATOM     56  C   UNL A   1      45.449  24.536  30.160  1.00  0.00     0.031 C 
ATOM     57  C   UNL A   1      45.772  26.580  31.526  1.00  0.00     0.031 A 
BRANCH  44  58
ATOM     58  C   UNL A   1      43.180  31.989  33.014  1.00  0.00    -0.014 A 
ATOM     59  C   UNL A   1      43.773  33.113  32.414  1.00  0.00     0.009 A 
ATOM     60  C   UNL A   1      42.655  32.113  34.311  1.00  0.00     0.009 A 
ATOM     61  C   UNL A   1      43.873  34.319  33.110  1.00  0.00     0.001 A 
ATOM     62  C   UNL A   1      42.728  33.330  34.992  1.00  0.00     0.001 A 
ATOM     63  C   UNL A   1      43.346  34.428  34.396  1.00  0.00     0.000 A 
ENDBRANCH  44  58
BRANCH  45  64
ATOM     64  C   UNL A   1      42.154  23.579  27.711  1.00  0.00    -0.014 A 
ATOM     65  C   UNL A   1      41.565  22.436  28.271  1.00  0.00     0.009 A 
ATOM     66  C   UNL A   1      42.609  23.527  26.384  1.00  0.00     0.009 A 
ATOM     67  C   UNL A   1      41.458  21.258  27.528  1.00  0.00     0.001 A 
ATOM     68  C   UNL A   1      42.472  22.358  25.633  1.00  0.00     0.001 A 
ATOM     69  C   UNL A   1      41.905  21.221  26.209  1.00  0.00     0.000 A 
ENDBRANCH  45  64
BRANCH  57  70
ATOM     70  C   UNL A   1      47.076  26.002  32.002  1.00  0.00    -0.014 A 
ATOM     71  C   UNL A   1      47.170  25.313  33.221  1.00  0.00     0.009 A 
ATOM     72  C   UNL A   1      48.218  26.114  31.192  1.00  0.00     0.009 A 
ATOM     73  C   UNL A   1      48.391  24.780  33.636  1.00  0.00     0.001 A 
ATOM     74  C   UNL A   1      49.430  25.551  31.595  1.00  0.00     0.001 A 
ATOM     75  C   UNL A   1      49.517  24.894  32.820  1.00  0.00     0.000 A 
ENDBRANCH  57  70
ENDBRANCH  31  32
ENDBRANCH  23  26
ENDBRANCH  21  22
ENDBRANCH   1  21
TORSDOF 12
ENDMDL
MODEL 3
REMARK VINA RESULT:     -10.8      3.552      6.382
REMARK SMILES Cc1noc(-c2ccc(CCl)cc2)c1C(=O)NCCCNC(=O)c1ccc(-c2c3nc(c(-c4ccccc4)c4ccc([nH]4)c(-c4ccccc4)c4nc(c(-c5ccccc5)c5ccc2[nH]5)C=C4)C=C3)cc1
REMARK SMILES IDX 19 1 18 2 17 3 15 4 16 5 14 7 1 8 2 9 3 10 4 11 5 12 6 13
REMARK SMILES IDX 7 14 13 15 8 16 12 17 9 18 10 19 11 20 20 21 21 22 22 23
REMARK SMILES IDX 23 25 24 26 25 27 71 28 26 29 70 30 27 31 28 32 29 33 64 34
REMARK SMILES IDX 30 35 69 36 63 37 65 38 31 39 68 40 62 41 61 42 32 44 54 45
REMARK SMILES IDX 39 46 53 47 40 48 43 49 52 50 66 51 41 52 42 53 51 55 67 56
REMARK SMILES IDX 44 57 33 58 34 59 38 60 35 61 37 62 36 63 55 64 56 65 60 66
REMARK SMILES IDX 57 67 59 68 58 69 45 70 46 71 50 72 47 73 49 74 48 75
REMARK H PARENT 17 6 21 24 65 43 43 54
REMARK Flexibility Score: inf
ROOT
ATOM      1  C   UNL A   1      34.179  34.326  28.697  1.00  0.00     0.042 C 
ENDROOT
BRANCH   1   2
ATOM      2  C   UNL A   1      34.513  34.418  30.186  1.00  0.00     0.118 C 
BRANCH   2   3
ATOM      3  N   UNL A   1      35.908  34.164  30.401  1.00  0.00    -0.352 N 
ATOM      4  C   UNL A   1      36.683  33.921  31.494  1.00  0.00     0.257 C 
ATOM      5  O   UNL A   1      37.860  33.711  31.180  1.00  0.00    -0.269 OA
ATOM      6  H   UNL A   1      36.426  34.167  29.564  1.00  0.00     0.163 HD
BRANCH   4   7
ATOM      7  C   UNL A   1      36.237  33.864  32.886  1.00  0.00     0.110 A 
ATOM      8  C   UNL A   1      34.525  35.810  33.686  1.00  0.00     0.071 C 
ATOM      9  C   UNL A   1      35.354  34.582  33.771  1.00  0.00     0.094 A 
ATOM     10  N   UNL A   1      35.315  34.017  34.988  1.00  0.00    -0.084 NA
ATOM     11  O   UNL A   1      36.188  32.972  34.962  1.00  0.00    -0.355 OA
ATOM     12  C   UNL A   1      36.763  32.892  33.741  1.00  0.00     0.179 A 
BRANCH  12  13
ATOM     13  C   UNL A   1      37.764  31.839  33.646  1.00  0.00     0.021 A 
ATOM     14  C   UNL A   1      39.067  32.062  34.102  1.00  0.00     0.012 A 
ATOM     15  C   UNL A   1      37.444  30.594  33.093  1.00  0.00     0.012 A 
ATOM     16  C   UNL A   1      40.020  31.042  34.046  1.00  0.00     0.006 A 
ATOM     17  C   UNL A   1      38.393  29.571  33.040  1.00  0.00     0.006 A 
ATOM     18  C   UNL A   1      39.690  29.781  33.526  1.00  0.00    -0.033 A 
BRANCH  18  19
ATOM     19  C   UNL A   1      40.700  28.669  33.503  1.00  0.00     0.145 C 
ATOM     20  Cl  UNL A   1      42.274  29.225  34.105  1.00  0.00    -0.122 Cl
ENDBRANCH  18  19
ENDBRANCH  12  13
ENDBRANCH   4   7
ENDBRANCH   2   3
ENDBRANCH   1   2
BRANCH   1  21
ATOM     21  C   UNL A   1      34.886  33.165  28.001  1.00  0.00     0.118 C 
BRANCH  21  22
ATOM     22  N   UNL A   1      34.007  32.008  27.872  1.00  0.00    -0.352 N 
ATOM     23  C   UNL A   1      34.307  30.678  27.767  1.00  0.00     0.251 C 
ATOM     24  H   UNL A   1      33.047  32.217  27.860  1.00  0.00     0.163 HD
ATOM     25  O   UNL A   1      33.438  29.889  27.389  1.00  0.00    -0.269 OA
BRANCH  23  26
ATOM     26  C   UNL A   1      35.655  30.181  28.102  1.00  0.00     0.039 A 
ATOM     27  C   UNL A   1      36.638  30.175  27.111  1.00  0.00     0.014 A 
ATOM     28  C   UNL A   1      35.934  29.679  29.376  1.00  0.00     0.014 A 
ATOM     29  C   UNL A   1      37.918  29.709  27.412  1.00  0.00     0.010 A 
ATOM     30  C   UNL A   1      37.230  29.294  29.697  1.00  0.00     0.010 A 
ATOM     31  C   UNL A   1      38.232  29.295  28.717  1.00  0.00    -0.014 A 
BRANCH  31  32
ATOM     32  C   UNL A   1      39.602  28.858  29.074  1.00  0.00     0.031 A 
ATOM     33  C   UNL A   1      40.529  29.793  29.800  1.00  0.00     0.074 A 
ATOM     34  C   UNL A   1      40.029  27.641  28.685  1.00  0.00     0.049 A 
ATOM     35  N   UNL A   1      41.779  29.611  30.145  1.00  0.00    -0.248 NA
ATOM     36  C   UNL A   1      39.994  31.116  30.159  1.00  0.00     0.031 C 
ATOM     37  C   UNL A   1      39.234  26.662  27.942  1.00  0.00     0.029 A 
ATOM     38  N   UNL A   1      41.240  27.022  28.861  1.00  0.00    -0.354 N 
ATOM     39  C   UNL A   1      42.182  30.801  30.740  1.00  0.00     0.074 A 
ATOM     40  C   UNL A   1      41.064  31.714  30.664  1.00  0.00     0.031 C 
ATOM     41  C   UNL A   1      39.966  25.552  27.755  1.00  0.00     0.029 A 
ATOM     42  C   UNL A   1      41.294  25.760  28.323  1.00  0.00     0.049 A 
ATOM     43  H   UNL A   1      41.998  27.443  29.327  1.00  0.00     0.167 HD
ATOM     44  C   UNL A   1      43.371  31.098  31.316  1.00  0.00     0.031 A 
ATOM     45  C   UNL A   1      42.303  24.870  28.286  1.00  0.00     0.031 A 
ATOM     46  C   UNL A   1      44.475  30.181  31.400  1.00  0.00     0.049 A 
ATOM     47  C   UNL A   1      43.616  25.230  28.921  1.00  0.00     0.074 A 
ATOM     48  C   UNL A   1      45.700  30.362  32.017  1.00  0.00     0.029 A 
ATOM     49  N   UNL A   1      44.490  28.910  30.844  1.00  0.00    -0.354 N 
ATOM     50  N   UNL A   1      43.958  26.332  29.542  1.00  0.00    -0.248 NA
ATOM     51  C   UNL A   1      44.678  24.217  28.858  1.00  0.00     0.031 C 
ATOM     52  C   UNL A   1      46.479  29.224  31.784  1.00  0.00     0.029 A 
ATOM     53  C   UNL A   1      45.714  28.308  31.079  1.00  0.00     0.049 A 
ATOM     54  H   UNL A   1      43.741  28.498  30.356  1.00  0.00     0.167 HD
ATOM     55  C   UNL A   1      45.265  26.134  29.970  1.00  0.00     0.074 A 
ATOM     56  C   UNL A   1      45.645  24.801  29.551  1.00  0.00     0.031 C 
ATOM     57  C   UNL A   1      46.076  26.981  30.651  1.00  0.00     0.031 A 
BRANCH  44  58
ATOM     58  C   UNL A   1      43.540  32.479  31.887  1.00  0.00    -0.014 A 
ATOM     59  C   UNL A   1      43.186  32.770  33.215  1.00  0.00     0.009 A 
ATOM     60  C   UNL A   1      44.097  33.497  31.097  1.00  0.00     0.009 A 
ATOM     61  C   UNL A   1      43.349  34.060  33.725  1.00  0.00     0.001 A 
ATOM     62  C   UNL A   1      44.289  34.777  31.620  1.00  0.00     0.001 A 
ATOM     63  C   UNL A   1      43.905  35.060  32.929  1.00  0.00     0.000 A 
ENDBRANCH  44  58
BRANCH  45  64
ATOM     64  C   UNL A   1      42.103  23.545  27.642  1.00  0.00    -0.014 A 
ATOM     65  C   UNL A   1      42.490  23.337  26.309  1.00  0.00     0.009 A 
ATOM     66  C   UNL A   1      41.529  22.481  28.355  1.00  0.00     0.009 A 
ATOM     67  C   UNL A   1      42.281  22.100  25.696  1.00  0.00     0.001 A 
ATOM     68  C   UNL A   1      41.350  21.235  27.749  1.00  0.00     0.001 A 
ATOM     69  C   UNL A   1      41.717  21.048  26.418  1.00  0.00     0.000 A 
ENDBRANCH  45  64
BRANCH  57  70
ATOM     70  C   UNL A   1      47.444  26.475  31.017  1.00  0.00    -0.014 A 
ATOM     71  C   UNL A   1      48.539  26.634  30.153  1.00  0.00     0.009 A 
ATOM     72  C   UNL A   1      47.645  25.869  32.268  1.00  0.00     0.009 A 
ATOM     73  C   UNL A   1      49.800  26.161  30.520  1.00  0.00     0.001 A 
ATOM     74  C   UNL A   1      48.914  25.428  32.646  1.00  0.00     0.001 A 
ATOM     75  C   UNL A   1      49.987  25.566  31.768  1.00  0.00     0.000 A 
ENDBRANCH  57  70
ENDBRANCH  31  32
ENDBRANCH  23  26
ENDBRANCH  21  22
ENDBRANCH   1  21
TORSDOF 12
ENDMDL
