MODEL 1
REMARK VINA RESULT:      -9.9      0.000      0.000
REMARK SMILES CC[C@@](C)([NH2+]CCC(=O)NC(C)C)C(=O)NCCCNC(=O)c1ccc(-c2c3nc(c(-c4ccccc4)c4ccc([nH]4)c(-c4ccccc4)c4nc(c(-c5ccccc5)c5ccc2[nH]5)C=C4)C=C3)cc1
REMARK SMILES IDX 14 1 15 2 16 3 3 5 4 6 2 7 1 8 5 9 6 12 7 13 8 14 9 15 10 16
REMARK SMILES IDX 11 18 12 19 13 20 17 21 18 22 19 23 20 24 21 25 22 27 23 28
REMARK SMILES IDX 24 29 70 30 25 31 69 32 26 33 27 34 28 35 63 36 29 37 68 38
REMARK SMILES IDX 62 39 64 40 30 41 67 42 61 43 60 44 31 46 53 47 38 48 52 49
REMARK SMILES IDX 39 50 42 51 51 52 65 53 40 54 41 55 50 57 66 58 43 59 32 60
REMARK SMILES IDX 33 61 37 62 34 63 36 64 35 65 54 66 55 67 59 68 56 69 58 70
REMARK SMILES IDX 57 71 44 72 45 73 49 74 46 75 48 76 47 77
REMARK H PARENT 16 4 5 10 5 11 10 17 20 26 64 45 42 56
REMARK Flexibility Score: inf
ROOT
ATOM      1  C   UNL A   1      35.998  22.565  23.711  1.00  0.00     0.281 C 
ATOM      2  O   UNL A   1      36.421  23.314  22.823  1.00  0.00    -0.268 OA
ATOM      3  N   UNL A   1      36.873  21.611  24.134  1.00  0.00    -0.351 N 
ATOM      4  H   UNL A   1      37.793  21.729  23.806  1.00  0.00     0.163 HD
ENDROOT
BRANCH   1   5
ATOM      5  C   UNL A   1      34.557  22.706  24.304  1.00  0.00     0.172 C 
ATOM      6  C   UNL A   1      34.639  23.150  25.775  1.00  0.00     0.090 C 
BRANCH   5   7
ATOM      7  C   UNL A   1      33.819  23.848  23.503  1.00  0.00     0.075 C 
ATOM      8  C   UNL A   1      33.076  23.431  22.237  1.00  0.00     0.011 C 
ENDBRANCH   5   7
BRANCH   5   9
ATOM      9  N   UNL A   1      33.728  21.534  23.920  1.00  0.00    -0.333 N 
ATOM     10  H   UNL A   1      34.400  20.856  23.558  1.00  0.00     0.347 HD
ATOM     11  H   UNL A   1      33.028  22.028  23.368  1.00  0.00     0.347 HD
BRANCH   9  12
ATOM     12  C   UNL A   1      32.822  20.742  24.741  1.00  0.00     0.271 C 
BRANCH  12  13
ATOM     13  C   UNL A   1      33.076  19.264  25.043  1.00  0.00     0.161 C 
BRANCH  13  14
ATOM     14  C   UNL A   1      32.649  18.281  23.971  1.00  0.00     0.225 C 
ATOM     15  O   UNL A   1      32.081  18.668  22.950  1.00  0.00    -0.275 OA
ATOM     16  N   UNL A   1      32.967  16.961  24.083  1.00  0.00    -0.354 N 
ATOM     17  H   UNL A   1      32.833  16.416  23.274  1.00  0.00     0.163 HD
BRANCH  16  18
ATOM     18  C   UNL A   1      33.477  16.254  25.246  1.00  0.00     0.075 C 
ATOM     19  C   UNL A   1      32.646  15.004  25.504  1.00  0.00     0.030 C 
ATOM     20  C   UNL A   1      34.961  15.948  25.123  1.00  0.00     0.030 C 
ENDBRANCH  16  18
ENDBRANCH  13  14
ENDBRANCH  12  13
ENDBRANCH   9  12
ENDBRANCH   5   9
ENDBRANCH   1   5
BRANCH   3  21
ATOM     21  C   UNL A   1      36.684  20.457  24.983  1.00  0.00     0.118 C 
BRANCH  21  22
ATOM     22  C   UNL A   1      37.921  19.577  24.999  1.00  0.00     0.042 C 
BRANCH  22  23
ATOM     23  C   UNL A   1      39.054  20.149  25.822  1.00  0.00     0.118 C 
BRANCH  23  24
ATOM     24  N   UNL A   1      40.203  19.260  25.873  1.00  0.00    -0.352 N 
ATOM     25  C   UNL A   1      41.524  19.542  26.089  1.00  0.00     0.251 C 
ATOM     26  H   UNL A   1      39.999  18.307  25.730  1.00  0.00     0.163 HD
ATOM     27  O   UNL A   1      42.371  18.673  25.875  1.00  0.00    -0.269 OA
BRANCH  25  28
ATOM     28  C   UNL A   1      41.943  20.876  26.568  1.00  0.00     0.039 A 
ATOM     29  C   UNL A   1      41.989  21.117  27.943  1.00  0.00     0.014 A 
ATOM     30  C   UNL A   1      42.244  21.906  25.672  1.00  0.00     0.014 A 
ATOM     31  C   UNL A   1      42.352  22.380  28.412  1.00  0.00     0.010 A 
ATOM     32  C   UNL A   1      42.734  23.116  26.139  1.00  0.00     0.010 A 
ATOM     33  C   UNL A   1      42.737  23.386  27.511  1.00  0.00    -0.014 A 
BRANCH  33  34
ATOM     34  C   UNL A   1      43.048  24.756  27.980  1.00  0.00     0.031 A 
ATOM     35  C   UNL A   1      44.487  25.191  28.109  1.00  0.00     0.074 A 
ATOM     36  C   UNL A   1      42.050  25.595  28.312  1.00  0.00     0.049 A 
ATOM     37  N   UNL A   1      44.971  26.345  28.495  1.00  0.00    -0.248 NA
ATOM     38  C   UNL A   1      45.520  24.187  27.797  1.00  0.00     0.031 C 
ATOM     39  C   UNL A   1      40.622  25.270  28.287  1.00  0.00     0.029 A 
ATOM     40  N   UNL A   1      42.087  26.902  28.726  1.00  0.00    -0.354 N 
ATOM     41  C   UNL A   1      46.352  26.191  28.497  1.00  0.00     0.074 A 
ATOM     42  C   UNL A   1      46.630  24.818  28.144  1.00  0.00     0.031 C 
ATOM     43  C   UNL A   1      39.917  26.364  28.618  1.00  0.00     0.029 A 
ATOM     44  C   UNL A   1      40.843  27.454  28.906  1.00  0.00     0.049 A 
ATOM     45  H   UNL A   1      42.925  27.395  28.879  1.00  0.00     0.167 HD
ATOM     46  C   UNL A   1      47.310  27.116  28.735  1.00  0.00     0.031 A 
ATOM     47  C   UNL A   1      40.493  28.708  29.247  1.00  0.00     0.031 A 
ATOM     48  C   UNL A   1      47.032  28.490  29.048  1.00  0.00     0.049 A 
ATOM     49  C   UNL A   1      41.572  29.732  29.458  1.00  0.00     0.074 A 
ATOM     50  C   UNL A   1      47.922  29.529  29.253  1.00  0.00     0.029 A 
ATOM     51  N   UNL A   1      45.758  29.018  29.188  1.00  0.00    -0.354 N 
ATOM     52  N   UNL A   1      42.874  29.589  29.391  1.00  0.00    -0.248 NA
ATOM     53  C   UNL A   1      41.130  31.098  29.768  1.00  0.00     0.031 C 
ATOM     54  C   UNL A   1      47.186  30.679  29.551  1.00  0.00     0.029 A 
ATOM     55  C   UNL A   1      45.836  30.367  29.481  1.00  0.00     0.049 A 
ATOM     56  H   UNL A   1      44.921  28.508  29.092  1.00  0.00     0.167 HD
ATOM     57  C   UNL A   1      43.406  30.851  29.616  1.00  0.00     0.074 A 
ATOM     58  C   UNL A   1      42.284  31.748  29.804  1.00  0.00     0.031 C 
ATOM     59  C   UNL A   1      44.705  31.237  29.661  1.00  0.00     0.031 A 
BRANCH  46  60
ATOM     60  C   UNL A   1      48.742  26.663  28.657  1.00  0.00    -0.014 A 
ATOM     61  C   UNL A   1      49.441  26.662  27.438  1.00  0.00     0.009 A 
ATOM     62  C   UNL A   1      49.405  26.234  29.817  1.00  0.00     0.009 A 
ATOM     63  C   UNL A   1      50.757  26.199  27.374  1.00  0.00     0.001 A 
ATOM     64  C   UNL A   1      50.731  25.802  29.757  1.00  0.00     0.001 A 
ATOM     65  C   UNL A   1      51.402  25.774  28.534  1.00  0.00     0.000 A 
ENDBRANCH  46  60
BRANCH  47  66
ATOM     66  C   UNL A   1      39.057  29.078  29.348  1.00  0.00    -0.014 A 
ATOM     67  C   UNL A   1      38.370  28.937  30.564  1.00  0.00     0.009 A 
ATOM     68  C   UNL A   1      38.366  29.573  28.232  1.00  0.00     0.009 A 
ATOM     69  C   UNL A   1      37.014  29.256  30.654  1.00  0.00     0.001 A 
ATOM     70  C   UNL A   1      37.016  29.918  28.332  1.00  0.00     0.001 A 
ATOM     71  C   UNL A   1      36.339  29.750  29.538  1.00  0.00     0.000 A 
ENDBRANCH  47  66
BRANCH  59  72
ATOM     72  C   UNL A   1      44.972  32.698  29.880  1.00  0.00    -0.014 A 
ATOM     73  C   UNL A   1      44.765  33.641  28.861  1.00  0.00     0.009 A 
ATOM     74  C   UNL A   1      45.420  33.138  31.136  1.00  0.00     0.009 A 
ATOM     75  C   UNL A   1      45.044  34.989  29.083  1.00  0.00     0.001 A 
ATOM     76  C   UNL A   1      45.669  34.491  31.364  1.00  0.00     0.001 A 
ATOM     77  C   UNL A   1      45.492  35.414  30.333  1.00  0.00     0.000 A 
ENDBRANCH  59  72
ENDBRANCH  33  34
ENDBRANCH  25  28
ENDBRANCH  23  24
ENDBRANCH  22  23
ENDBRANCH  21  22
ENDBRANCH   3  21
TORSDOF 16
ENDMDL
MODEL 2
REMARK VINA RESULT:      -9.8      1.087      6.244
REMARK SMILES CC[C@@](C)([NH2+]CCC(=O)NC(C)C)C(=O)NCCCNC(=O)c1ccc(-c2c3nc(c(-c4ccccc4)c4ccc([nH]4)c(-c4ccccc4)c4nc(c(-c5ccccc5)c5ccc2[nH]5)C=C4)C=C3)cc1
REMARK SMILES IDX 14 1 15 2 16 3 3 5 4 6 2 7 1 8 5 9 6 12 7 13 8 14 9 15 10 16
REMARK SMILES IDX 11 18 12 19 13 20 17 21 18 22 19 23 20 24 21 25 22 27 23 28
REMARK SMILES IDX 24 29 70 30 25 31 69 32 26 33 27 34 28 35 63 36 29 37 68 38
REMARK SMILES IDX 62 39 64 40 30 41 67 42 61 43 60 44 31 46 53 47 38 48 52 49
REMARK SMILES IDX 39 50 42 51 51 52 65 53 40 54 41 55 50 57 66 58 43 59 32 60
REMARK SMILES IDX 33 61 37 62 34 63 36 64 35 65 54 66 55 67 59 68 56 69 58 70
REMARK SMILES IDX 57 71 44 72 45 73 49 74 46 75 48 76 47 77
REMARK H PARENT 16 4 5 10 5 11 10 17 20 26 64 45 42 56
REMARK Flexibility Score: inf
ROOT
ATOM      1  C   UNL A   1      36.100  22.716  25.886  1.00  0.00     0.281 C 
ATOM      2  O   UNL A   1      36.643  23.799  26.132  1.00  0.00    -0.268 OA
ATOM      3  N   UNL A   1      36.944  21.708  25.532  1.00  0.00    -0.351 N 
ATOM      4  H   UNL A   1      37.897  21.908  25.672  1.00  0.00     0.163 HD
ENDROOT
BRANCH   1   5
ATOM      5  C   UNL A   1      34.550  22.521  25.976  1.00  0.00     0.172 C 
ATOM      6  C   UNL A   1      34.184  21.863  27.318  1.00  0.00     0.090 C 
BRANCH   5   7
ATOM      7  C   UNL A   1      33.885  23.953  25.952  1.00  0.00     0.075 C 
ATOM      8  C   UNL A   1      33.688  24.597  24.583  1.00  0.00     0.011 C 
ENDBRANCH   5   7
BRANCH   5   9
ATOM      9  N   UNL A   1      34.028  21.965  24.701  1.00  0.00    -0.333 N 
ATOM     10  H   UNL A   1      34.844  21.542  24.258  1.00  0.00     0.347 HD
ATOM     11  H   UNL A   1      33.537  22.795  24.373  1.00  0.00     0.347 HD
BRANCH   9  12
ATOM     12  C   UNL A   1      32.960  20.996  24.491  1.00  0.00     0.271 C 
BRANCH  12  13
ATOM     13  C   UNL A   1      33.098  19.529  24.896  1.00  0.00     0.161 C 
BRANCH  13  14
ATOM     14  C   UNL A   1      32.667  18.507  23.862  1.00  0.00     0.225 C 
ATOM     15  O   UNL A   1      32.136  18.862  22.808  1.00  0.00    -0.275 OA
ATOM     16  N   UNL A   1      32.940  17.185  24.045  1.00  0.00    -0.354 N 
ATOM     17  H   UNL A   1      32.809  16.606  23.260  1.00  0.00     0.163 HD
BRANCH  16  18
ATOM     18  C   UNL A   1      33.399  16.521  25.253  1.00  0.00     0.075 C 
ATOM     19  C   UNL A   1      32.439  15.400  25.630  1.00  0.00     0.030 C 
ATOM     20  C   UNL A   1      34.835  16.038  25.130  1.00  0.00     0.030 C 
ENDBRANCH  16  18
ENDBRANCH  13  14
ENDBRANCH  12  13
ENDBRANCH   9  12
ENDBRANCH   5   9
ENDBRANCH   1   5
BRANCH   3  21
ATOM     21  C   UNL A   1      36.682  20.394  24.989  1.00  0.00     0.118 C 
BRANCH  21  22
ATOM     22  C   UNL A   1      37.961  19.588  24.857  1.00  0.00     0.042 C 
BRANCH  22  23
ATOM     23  C   UNL A   1      39.104  20.137  25.684  1.00  0.00     0.118 C 
BRANCH  23  24
ATOM     24  N   UNL A   1      40.146  19.148  25.909  1.00  0.00    -0.352 N 
ATOM     25  C   UNL A   1      41.485  19.318  26.134  1.00  0.00     0.251 C 
ATOM     26  H   UNL A   1      39.841  18.212  25.897  1.00  0.00     0.163 HD
ATOM     27  O   UNL A   1      42.235  18.343  26.082  1.00  0.00    -0.269 OA
BRANCH  25  28
ATOM     28  C   UNL A   1      42.036  20.657  26.432  1.00  0.00     0.039 A 
ATOM     29  C   UNL A   1      42.172  21.052  27.764  1.00  0.00     0.014 A 
ATOM     30  C   UNL A   1      42.376  21.545  25.407  1.00  0.00     0.014 A 
ATOM     31  C   UNL A   1      42.662  22.323  28.063  1.00  0.00     0.010 A 
ATOM     32  C   UNL A   1      42.987  22.753  25.704  1.00  0.00     0.010 A 
ATOM     33  C   UNL A   1      43.082  23.180  27.033  1.00  0.00    -0.014 A 
BRANCH  33  34
ATOM     34  C   UNL A   1      43.530  24.563  27.320  1.00  0.00     0.031 A 
ATOM     35  C   UNL A   1      42.519  25.599  27.742  1.00  0.00     0.074 A 
ATOM     36  C   UNL A   1      44.827  24.891  27.179  1.00  0.00     0.049 A 
ATOM     37  N   UNL A   1      42.705  26.860  28.045  1.00  0.00    -0.248 NA
ATOM     38  C   UNL A   1      41.109  25.176  27.800  1.00  0.00     0.031 C 
ATOM     39  C   UNL A   1      45.887  23.991  26.720  1.00  0.00     0.029 A 
ATOM     40  N   UNL A   1      45.475  26.075  27.421  1.00  0.00    -0.354 N 
ATOM     41  C   UNL A   1      41.439  27.376  28.297  1.00  0.00     0.074 A 
ATOM     42  C   UNL A   1      40.488  26.318  28.046  1.00  0.00     0.031 C 
ATOM     43  C   UNL A   1      47.062  24.641  26.763  1.00  0.00     0.029 A 
ATOM     44  C   UNL A   1      46.832  26.005  27.224  1.00  0.00     0.049 A 
ATOM     45  H   UNL A   1      45.012  26.894  27.708  1.00  0.00     0.167 HD
ATOM     46  C   UNL A   1      41.096  28.610  28.733  1.00  0.00     0.031 A 
ATOM     47  C   UNL A   1      47.784  26.937  27.414  1.00  0.00     0.031 A 
ATOM     48  C   UNL A   1      42.046  29.648  29.019  1.00  0.00     0.049 A 
ATOM     49  C   UNL A   1      47.386  28.285  27.947  1.00  0.00     0.074 A 
ATOM     50  C   UNL A   1      41.818  30.917  29.520  1.00  0.00     0.029 A 
ATOM     51  N   UNL A   1      43.416  29.527  28.838  1.00  0.00    -0.354 N 
ATOM     52  N   UNL A   1      46.192  28.737  28.245  1.00  0.00    -0.248 NA
ATOM     53  C   UNL A   1      48.473  29.241  28.193  1.00  0.00     0.031 C 
ATOM     54  C   UNL A   1      43.048  31.576  29.610  1.00  0.00     0.029 A 
ATOM     55  C   UNL A   1      44.046  30.699  29.213  1.00  0.00     0.049 A 
ATOM     56  H   UNL A   1      43.872  28.725  28.494  1.00  0.00     0.167 HD
ATOM     57  C   UNL A   1      46.386  30.018  28.746  1.00  0.00     0.074 A 
ATOM     58  C   UNL A   1      47.814  30.260  28.726  1.00  0.00     0.031 C 
ATOM     59  C   UNL A   1      45.468  30.914  29.185  1.00  0.00     0.031 A 
BRANCH  46  60
ATOM     60  C   UNL A   1      39.631  28.889  28.931  1.00  0.00    -0.014 A 
ATOM     61  C   UNL A   1      38.992  28.600  30.149  1.00  0.00     0.009 A 
ATOM     62  C   UNL A   1      38.879  29.453  27.890  1.00  0.00     0.009 A 
ATOM     63  C   UNL A   1      37.623  28.826  30.304  1.00  0.00     0.001 A 
ATOM     64  C   UNL A   1      37.516  29.708  28.057  1.00  0.00     0.001 A 
ATOM     65  C   UNL A   1      36.887  29.384  29.259  1.00  0.00     0.000 A 
ENDBRANCH  46  60
BRANCH  47  66
ATOM     66  C   UNL A   1      49.210  26.607  27.158  1.00  0.00    -0.014 A 
ATOM     67  C   UNL A   1      49.787  26.870  25.906  1.00  0.00     0.009 A 
ATOM     68  C   UNL A   1      50.002  26.029  28.161  1.00  0.00     0.009 A 
ATOM     69  C   UNL A   1      51.118  26.533  25.653  1.00  0.00     0.001 A 
ATOM     70  C   UNL A   1      51.341  25.719  27.915  1.00  0.00     0.001 A 
ATOM     71  C   UNL A   1      51.896  25.961  26.660  1.00  0.00     0.000 A 
ENDBRANCH  47  66
BRANCH  59  72
ATOM     72  C   UNL A   1      45.991  32.216  29.719  1.00  0.00    -0.014 A 
ATOM     73  C   UNL A   1      46.166  33.331  28.885  1.00  0.00     0.009 A 
ATOM     74  C   UNL A   1      46.294  32.331  31.085  1.00  0.00     0.009 A 
ATOM     75  C   UNL A   1      46.676  34.522  29.401  1.00  0.00     0.001 A 
ATOM     76  C   UNL A   1      46.775  33.532  31.604  1.00  0.00     0.001 A 
ATOM     77  C   UNL A   1      46.977  34.623  30.759  1.00  0.00     0.000 A 
ENDBRANCH  59  72
ENDBRANCH  33  34
ENDBRANCH  25  28
ENDBRANCH  23  24
ENDBRANCH  22  23
ENDBRANCH  21  22
ENDBRANCH   3  21
TORSDOF 16
ENDMDL
MODEL 3
REMARK VINA RESULT:      -9.7      5.673     10.255
REMARK SMILES CC[C@@](C)([NH2+]CCC(=O)NC(C)C)C(=O)NCCCNC(=O)c1ccc(-c2c3nc(c(-c4ccccc4)c4ccc([nH]4)c(-c4ccccc4)c4nc(c(-c5ccccc5)c5ccc2[nH]5)C=C4)C=C3)cc1
REMARK SMILES IDX 14 1 15 2 16 3 3 5 4 6 2 7 1 8 5 9 6 12 7 13 8 14 9 15 10 16
REMARK SMILES IDX 11 18 12 19 13 20 17 21 18 22 19 23 20 24 21 25 22 27 23 28
REMARK SMILES IDX 24 29 70 30 25 31 69 32 26 33 27 34 28 35 63 36 29 37 68 38
REMARK SMILES IDX 62 39 64 40 30 41 67 42 61 43 60 44 31 46 53 47 38 48 52 49
REMARK SMILES IDX 39 50 42 51 51 52 65 53 40 54 41 55 50 57 66 58 43 59 32 60
REMARK SMILES IDX 33 61 37 62 34 63 36 64 35 65 54 66 55 67 59 68 56 69 58 70
REMARK SMILES IDX 57 71 44 72 45 73 49 74 46 75 48 76 47 77
REMARK H PARENT 16 4 5 10 5 11 10 17 20 26 64 45 42 56
REMARK Flexibility Score: inf
ROOT
ATOM      1  C   UNL A   1      31.544  28.155  26.822  1.00  0.00     0.281 C 
ATOM      2  O   UNL A   1      31.294  27.542  27.866  1.00  0.00    -0.268 OA
ATOM      3  N   UNL A   1      31.615  29.509  26.944  1.00  0.00    -0.351 N 
ATOM      4  H   UNL A   1      31.624  29.834  27.872  1.00  0.00     0.163 HD
ENDROOT
BRANCH   1   5
ATOM      5  C   UNL A   1      31.761  27.422  25.456  1.00  0.00     0.172 C 
ATOM      6  C   UNL A   1      33.268  27.277  25.176  1.00  0.00     0.090 C 
BRANCH   5   7
ATOM      7  C   UNL A   1      31.161  25.968  25.592  1.00  0.00     0.075 C 
ATOM      8  C   UNL A   1      32.152  24.808  25.552  1.00  0.00     0.011 C 
ENDBRANCH   5   7
BRANCH   5   9
ATOM      9  N   UNL A   1      30.857  27.987  24.422  1.00  0.00    -0.333 N 
ATOM     10  H   UNL A   1      30.591  28.901  24.790  1.00  0.00     0.347 HD
ATOM     11  H   UNL A   1      30.237  27.185  24.319  1.00  0.00     0.347 HD
BRANCH   9  12
ATOM     12  C   UNL A   1      31.117  28.229  23.008  1.00  0.00     0.271 C 
BRANCH  12  13
ATOM     13  C   UNL A   1      30.208  29.111  22.151  1.00  0.00     0.161 C 
BRANCH  13  14
ATOM     14  C   UNL A   1      28.819  29.369  22.699  1.00  0.00     0.225 C 
ATOM     15  O   UNL A   1      28.146  28.452  23.171  1.00  0.00    -0.275 OA
ATOM     16  N   UNL A   1      28.327  30.639  22.758  1.00  0.00    -0.354 N 
ATOM     17  H   UNL A   1      27.511  30.760  23.294  1.00  0.00     0.163 HD
BRANCH  16  18
ATOM     18  C   UNL A   1      28.855  31.836  22.127  1.00  0.00     0.075 C 
ATOM     19  C   UNL A   1      28.142  32.088  20.805  1.00  0.00     0.030 C 
ATOM     20  C   UNL A   1      28.801  33.041  23.053  1.00  0.00     0.030 C 
ENDBRANCH  16  18
ENDBRANCH  13  14
ENDBRANCH  12  13
ENDBRANCH   9  12
ENDBRANCH   5   9
ENDBRANCH   1   5
BRANCH   3  21
ATOM     21  C   UNL A   1      31.681  30.553  25.945  1.00  0.00     0.118 C 
BRANCH  21  22
ATOM     22  C   UNL A   1      31.475  31.922  26.566  1.00  0.00     0.042 C 
BRANCH  22  23
ATOM     23  C   UNL A   1      32.733  32.498  27.179  1.00  0.00     0.118 C 
BRANCH  23  24
ATOM     24  N   UNL A   1      32.556  33.876  27.608  1.00  0.00    -0.352 N 
ATOM     25  C   UNL A   1      33.208  34.584  28.581  1.00  0.00     0.251 C 
ATOM     26  H   UNL A   1      31.860  34.377  27.125  1.00  0.00     0.163 HD
ATOM     27  O   UNL A   1      32.759  35.674  28.939  1.00  0.00    -0.269 OA
BRANCH  25  28
ATOM     28  C   UNL A   1      34.437  34.051  29.208  1.00  0.00     0.039 A 
ATOM     29  C   UNL A   1      35.670  34.313  28.607  1.00  0.00     0.014 A 
ATOM     30  C   UNL A   1      34.378  33.256  30.355  1.00  0.00     0.014 A 
ATOM     31  C   UNL A   1      36.836  33.792  29.167  1.00  0.00     0.010 A 
ATOM     32  C   UNL A   1      35.545  32.853  30.986  1.00  0.00     0.010 A 
ATOM     33  C   UNL A   1      36.783  33.066  30.368  1.00  0.00    -0.014 A 
BRANCH  33  34
ATOM     34  C   UNL A   1      37.996  32.436  30.938  1.00  0.00     0.031 A 
ATOM     35  C   UNL A   1      38.543  31.176  30.316  1.00  0.00     0.074 A 
ATOM     36  C   UNL A   1      38.586  32.976  32.020  1.00  0.00     0.049 A 
ATOM     37  N   UNL A   1      39.593  30.473  30.659  1.00  0.00    -0.248 NA
ATOM     38  C   UNL A   1      37.793  30.609  29.181  1.00  0.00     0.031 C 
ATOM     39  C   UNL A   1      38.116  34.158  32.745  1.00  0.00     0.029 A 
ATOM     40  N   UNL A   1      39.723  32.602  32.691  1.00  0.00    -0.354 N 
ATOM     41  C   UNL A   1      39.608  29.378  29.803  1.00  0.00     0.074 A 
ATOM     42  C   UNL A   1      38.429  29.467  28.974  1.00  0.00     0.031 C 
ATOM     43  C   UNL A   1      38.986  34.443  33.728  1.00  0.00     0.029 A 
ATOM     44  C   UNL A   1      40.054  33.450  33.719  1.00  0.00     0.049 A 
ATOM     45  H   UNL A   1      40.249  31.804  32.457  1.00  0.00     0.167 HD
ATOM     46  C   UNL A   1      40.537  28.401  29.690  1.00  0.00     0.031 A 
ATOM     47  C   UNL A   1      41.114  33.434  34.547  1.00  0.00     0.031 A 
ATOM     48  C   UNL A   1      41.728  28.335  30.489  1.00  0.00     0.049 A 
ATOM     49  C   UNL A   1      42.159  32.368  34.371  1.00  0.00     0.074 A 
ATOM     50  C   UNL A   1      42.766  27.423  30.423  1.00  0.00     0.029 A 
ATOM     51  N   UNL A   1      42.043  29.232  31.498  1.00  0.00    -0.354 N 
ATOM     52  N   UNL A   1      42.193  31.377  33.513  1.00  0.00    -0.248 NA
ATOM     53  C   UNL A   1      43.324  32.436  35.263  1.00  0.00     0.031 C 
ATOM     54  C   UNL A   1      43.694  27.750  31.417  1.00  0.00     0.029 A 
ATOM     55  C   UNL A   1      43.258  28.894  32.067  1.00  0.00     0.049 A 
ATOM     56  H   UNL A   1      41.486  29.997  31.770  1.00  0.00     0.167 HD
ATOM     57  C   UNL A   1      43.397  30.723  33.738  1.00  0.00     0.074 A 
ATOM     58  C   UNL A   1      44.070  31.443  34.801  1.00  0.00     0.031 C 
ATOM     59  C   UNL A   1      43.905  29.628  33.121  1.00  0.00     0.031 A 
BRANCH  46  60
ATOM     60  C   UNL A   1      40.293  27.334  28.657  1.00  0.00    -0.014 A 
ATOM     61  C   UNL A   1      39.590  26.159  28.974  1.00  0.00     0.009 A 
ATOM     62  C   UNL A   1      40.768  27.505  27.348  1.00  0.00     0.009 A 
ATOM     63  C   UNL A   1      39.407  25.161  28.016  1.00  0.00     0.001 A 
ATOM     64  C   UNL A   1      40.556  26.520  26.382  1.00  0.00     0.001 A 
ATOM     65  C   UNL A   1      39.887  25.344  26.719  1.00  0.00     0.000 A 
ENDBRANCH  46  60
BRANCH  47  66
ATOM     66  C   UNL A   1      41.271  34.496  35.576  1.00  0.00    -0.014 A 
ATOM     67  C   UNL A   1      42.004  35.658  35.291  1.00  0.00     0.009 A 
ATOM     68  C   UNL A   1      40.690  34.354  36.844  1.00  0.00     0.009 A 
ATOM     69  C   UNL A   1      42.179  36.643  36.266  1.00  0.00     0.001 A 
ATOM     70  C   UNL A   1      40.842  35.353  37.808  1.00  0.00     0.001 A 
ATOM     71  C   UNL A   1      41.594  36.491  37.522  1.00  0.00     0.000 A 
ENDBRANCH  47  66
BRANCH  59  72
ATOM     72  C   UNL A   1      45.269  29.175  33.555  1.00  0.00    -0.014 A 
ATOM     73  C   UNL A   1      45.436  28.238  34.586  1.00  0.00     0.009 A 
ATOM     74  C   UNL A   1      46.405  29.683  32.903  1.00  0.00     0.009 A 
ATOM     75  C   UNL A   1      46.715  27.852  34.986  1.00  0.00     0.001 A 
ATOM     76  C   UNL A   1      47.682  29.272  33.285  1.00  0.00     0.001 A 
ATOM     77  C   UNL A   1      47.836  28.367  34.334  1.00  0.00     0.000 A 
ENDBRANCH  59  72
ENDBRANCH  33  34
ENDBRANCH  25  28
ENDBRANCH  23  24
ENDBRANCH  22  23
ENDBRANCH  21  22
ENDBRANCH   3  21
TORSDOF 16
ENDMDL
