MODEL 1
REMARK VINA RESULT:     -12.7      0.000      0.000
REMARK SMILES Cc1cc([N+](=O)[O-])ccc1NC(=O)[C@@H]1[C@@H](C(=O)NCCCNC(=O)c2ccc(-c3c4nc(c(-c5ccccc5)c5ccc([nH]5)c(-c5ccccc5)c5nc(c(-c6ccccc6)c6ccc3[nH]6)C=C5)C=C4)cc2)[C@H]2C=C[C@@H]1C2
REMARK SMILES IDX 19 1 18 2 16 3 17 4 15 6 14 7 76 8 73 9 75 10 77 11 74 12
REMARK SMILES IDX 12 13 11 14 13 16 10 17 1 18 2 19 3 20 4 21 9 22 8 23 5 24
REMARK SMILES IDX 6 25 7 26 20 27 21 28 22 29 23 30 24 32 25 33 26 34 72 35
REMARK SMILES IDX 27 36 71 37 28 38 29 39 30 40 65 41 31 42 70 43 64 44 66 45
REMARK SMILES IDX 32 46 69 47 63 48 62 49 33 51 55 52 40 53 54 54 41 55 44 56
REMARK SMILES IDX 53 57 67 58 42 59 43 60 52 62 68 63 45 64 34 65 35 66 39 67
REMARK SMILES IDX 36 68 38 69 37 70 56 71 57 72 61 73 58 74 60 75 59 76 46 77
REMARK SMILES IDX 47 78 51 79 48 80 50 81 49 82
REMARK H PARENT 18 5 11 15 22 31 66 50 44 61
REMARK Flexibility Score: inf
ROOT
ATOM      1  C   UNL A   1      32.174  30.272  25.770  1.00  0.00     0.117 C 
ENDROOT
BRANCH   1   2
ATOM      2  N   UNL A   1      32.969  29.139  25.332  1.00  0.00    -0.356 N 
ATOM      3  C   UNL A   1      32.657  27.864  24.981  1.00  0.00     0.224 C 
ATOM      4  O   UNL A   1      33.620  27.146  24.683  1.00  0.00    -0.275 OA
ATOM      5  H   UNL A   1      33.933  29.334  25.278  1.00  0.00     0.163 HD
BRANCH   3   6
ATOM      6  C   UNL A   1      31.244  27.279  25.037  1.00  0.00     0.098 C 
ATOM      7  C   UNL A   1      31.309  25.711  24.767  1.00  0.00     0.099 C 
ATOM      8  C   UNL A   1      30.249  25.522  23.651  1.00  0.00     0.025 C 
ATOM      9  C   UNL A   1      30.216  27.727  23.975  1.00  0.00     0.025 C 
ATOM     10  C   UNL A   1      30.802  26.159  22.397  1.00  0.00    -0.027 C 
ATOM     11  C   UNL A   1      29.211  26.576  24.020  1.00  0.00     0.017 C 
ATOM     12  C   UNL A   1      30.777  27.485  22.589  1.00  0.00    -0.027 C 
BRANCH   7  13
ATOM     13  C   UNL A   1      31.016  24.831  25.974  1.00  0.00     0.228 C 
ATOM     14  N   UNL A   1      31.875  23.833  26.369  1.00  0.00    -0.326 N 
ATOM     15  H   UNL A   1      31.557  23.329  27.152  1.00  0.00     0.169 HD
ATOM     16  O   UNL A   1      29.963  24.948  26.608  1.00  0.00    -0.274 OA
BRANCH  14  17
ATOM     17  C   UNL A   1      33.121  23.384  25.877  1.00  0.00     0.044 A 
ATOM     18  C   UNL A   1      32.008  21.298  24.830  1.00  0.00     0.047 C 
ATOM     19  C   UNL A   1      33.174  22.224  25.070  1.00  0.00    -0.021 A 
ATOM     20  C   UNL A   1      34.388  21.875  24.437  1.00  0.00     0.091 A 
ATOM     21  C   UNL A   1      35.534  22.656  24.615  1.00  0.00     0.269 A 
ATOM     22  C   UNL A   1      34.317  24.068  26.136  1.00  0.00     0.033 A 
ATOM     23  C   UNL A   1      35.512  23.734  25.494  1.00  0.00     0.088 A 
BRANCH  21  24
ATOM     24  N   UNL A   1      36.762  22.346  23.878  1.00  0.00     0.062 N 
ATOM     25  O   UNL A   1      37.629  21.677  24.456  1.00  0.00    -0.258 OA
ATOM     26  O   UNL A   1      36.850  22.758  22.712  1.00  0.00    -0.258 OA
ENDBRANCH  21  24
ENDBRANCH  14  17
ENDBRANCH   7  13
ENDBRANCH   3   6
ENDBRANCH   1   2
BRANCH   1  27
ATOM     27  C   UNL A   1      32.472  30.659  27.211  1.00  0.00     0.042 C 
BRANCH  27  28
ATOM     28  C   UNL A   1      33.907  30.328  27.593  1.00  0.00     0.118 C 
BRANCH  28  29
ATOM     29  N   UNL A   1      34.516  31.294  28.508  1.00  0.00    -0.352 N 
ATOM     30  C   UNL A   1      35.735  31.227  29.173  1.00  0.00     0.251 C 
ATOM     31  H   UNL A   1      33.987  32.106  28.678  1.00  0.00     0.163 HD
ATOM     32  O   UNL A   1      36.105  32.133  29.889  1.00  0.00    -0.269 OA
BRANCH  30  33
ATOM     33  C   UNL A   1      36.632  30.080  28.881  1.00  0.00     0.039 A 
ATOM     34  C   UNL A   1      36.944  29.213  29.932  1.00  0.00     0.014 A 
ATOM     35  C   UNL A   1      37.344  30.036  27.688  1.00  0.00     0.014 A 
ATOM     36  C   UNL A   1      38.140  28.502  29.883  1.00  0.00     0.010 A 
ATOM     37  C   UNL A   1      38.581  29.426  27.686  1.00  0.00     0.010 A 
ATOM     38  C   UNL A   1      39.007  28.716  28.811  1.00  0.00    -0.014 A 
BRANCH  38  39
ATOM     39  C   UNL A   1      40.412  28.336  28.846  1.00  0.00     0.031 A 
ATOM     40  C   UNL A   1      40.850  27.057  28.259  1.00  0.00     0.074 A 
ATOM     41  C   UNL A   1      41.323  29.153  29.420  1.00  0.00     0.049 A 
ATOM     42  N   UNL A   1      41.839  26.362  28.712  1.00  0.00    -0.248 NA
ATOM     43  C   UNL A   1      40.167  26.434  27.130  1.00  0.00     0.031 C 
ATOM     44  C   UNL A   1      42.777  29.033  29.379  1.00  0.00     0.029 A 
ATOM     45  N   UNL A   1      41.089  30.161  30.350  1.00  0.00    -0.354 N 
ATOM     46  C   UNL A   1      42.094  25.376  27.791  1.00  0.00     0.074 A 
ATOM     47  C   UNL A   1      40.985  25.412  26.865  1.00  0.00     0.031 C 
ATOM     48  C   UNL A   1      43.301  29.743  30.393  1.00  0.00     0.029 A 
ATOM     49  C   UNL A   1      42.199  30.238  31.203  1.00  0.00     0.049 A 
ATOM     50  H   UNL A   1      40.283  30.723  30.400  1.00  0.00     0.167 HD
ATOM     51  C   UNL A   1      43.286  24.721  27.801  1.00  0.00     0.031 A 
ATOM     52  C   UNL A   1      42.061  30.032  32.545  1.00  0.00     0.031 A 
ATOM     53  C   UNL A   1      44.164  25.189  28.866  1.00  0.00     0.049 A 
ATOM     54  C   UNL A   1      42.789  28.800  33.047  1.00  0.00     0.074 A 
ATOM     55  C   UNL A   1      45.203  26.106  28.888  1.00  0.00     0.029 A 
ATOM     56  N   UNL A   1      43.815  24.956  30.190  1.00  0.00    -0.354 N 
ATOM     57  N   UNL A   1      43.276  27.873  32.269  1.00  0.00    -0.248 NA
ATOM     58  C   UNL A   1      42.979  28.490  34.463  1.00  0.00     0.031 C 
ATOM     59  C   UNL A   1      45.422  26.487  30.236  1.00  0.00     0.029 A 
ATOM     60  C   UNL A   1      44.541  25.777  31.032  1.00  0.00     0.049 A 
ATOM     61  H   UNL A   1      43.145  24.299  30.487  1.00  0.00     0.167 HD
ATOM     62  C   UNL A   1      43.795  26.860  33.030  1.00  0.00     0.074 A 
ATOM     63  C   UNL A   1      43.606  27.301  34.399  1.00  0.00     0.031 C 
ATOM     64  C   UNL A   1      44.320  25.733  32.469  1.00  0.00     0.031 A 
BRANCH  51  65
ATOM     65  C   UNL A   1      43.737  23.898  26.627  1.00  0.00    -0.014 A 
ATOM     66  C   UNL A   1      43.438  22.526  26.578  1.00  0.00     0.009 A 
ATOM     67  C   UNL A   1      44.510  24.413  25.572  1.00  0.00     0.009 A 
ATOM     68  C   UNL A   1      43.970  21.692  25.587  1.00  0.00     0.001 A 
ATOM     69  C   UNL A   1      45.082  23.576  24.603  1.00  0.00     0.001 A 
ATOM     70  C   UNL A   1      44.820  22.211  24.619  1.00  0.00     0.000 A 
ENDBRANCH  51  65
BRANCH  52  71
ATOM     71  C   UNL A   1      40.771  30.538  33.090  1.00  0.00    -0.014 A 
ATOM     72  C   UNL A   1      40.547  31.930  33.080  1.00  0.00     0.009 A 
ATOM     73  C   UNL A   1      39.670  29.685  33.253  1.00  0.00     0.009 A 
ATOM     74  C   UNL A   1      39.249  32.449  33.110  1.00  0.00     0.001 A 
ATOM     75  C   UNL A   1      38.371  30.211  33.291  1.00  0.00     0.001 A 
ATOM     76  C   UNL A   1      38.160  31.585  33.183  1.00  0.00     0.000 A 
ENDBRANCH  52  71
BRANCH  64  77
ATOM     77  C   UNL A   1      44.734  24.489  33.212  1.00  0.00    -0.014 A 
ATOM     78  C   UNL A   1      46.030  24.253  33.686  1.00  0.00     0.009 A 
ATOM     79  C   UNL A   1      43.736  23.562  33.589  1.00  0.00     0.009 A 
ATOM     80  C   UNL A   1      46.321  23.124  34.465  1.00  0.00     0.001 A 
ATOM     81  C   UNL A   1      44.014  22.461  34.401  1.00  0.00     0.001 A 
ATOM     82  C   UNL A   1      45.313  22.237  34.832  1.00  0.00     0.000 A 
ENDBRANCH  64  77
ENDBRANCH  38  39
ENDBRANCH  30  33
ENDBRANCH  28  29
ENDBRANCH  27  28
ENDBRANCH   1  27
TORSDOF 13
ENDMDL
MODEL 2
REMARK VINA RESULT:     -12.6      3.248      8.814
REMARK SMILES Cc1cc([N+](=O)[O-])ccc1NC(=O)[C@@H]1[C@@H](C(=O)NCCCNC(=O)c2ccc(-c3c4nc(c(-c5ccccc5)c5ccc([nH]5)c(-c5ccccc5)c5nc(c(-c6ccccc6)c6ccc3[nH]6)C=C5)C=C4)cc2)[C@H]2C=C[C@@H]1C2
REMARK SMILES IDX 19 1 18 2 16 3 17 4 15 6 14 7 76 8 73 9 75 10 77 11 74 12
REMARK SMILES IDX 12 13 11 14 13 16 10 17 1 18 2 19 3 20 4 21 9 22 8 23 5 24
REMARK SMILES IDX 6 25 7 26 20 27 21 28 22 29 23 30 24 32 25 33 26 34 72 35
REMARK SMILES IDX 27 36 71 37 28 38 29 39 30 40 65 41 31 42 70 43 64 44 66 45
REMARK SMILES IDX 32 46 69 47 63 48 62 49 33 51 55 52 40 53 54 54 41 55 44 56
REMARK SMILES IDX 53 57 67 58 42 59 43 60 52 62 68 63 45 64 34 65 35 66 39 67
REMARK SMILES IDX 36 68 38 69 37 70 56 71 57 72 61 73 58 74 60 75 59 76 46 77
REMARK SMILES IDX 47 78 51 79 48 80 50 81 49 82
REMARK H PARENT 18 5 11 15 22 31 66 50 44 61
REMARK Flexibility Score: inf
ROOT
ATOM      1  C   UNL A   1      37.441  21.381  25.272  1.00  0.00     0.117 C 
ENDROOT
BRANCH   1   2
ATOM      2  N   UNL A   1      36.547  22.359  25.866  1.00  0.00    -0.356 N 
ATOM      3  C   UNL A   1      35.281  22.759  25.576  1.00  0.00     0.224 C 
ATOM      4  O   UNL A   1      34.832  23.660  26.296  1.00  0.00    -0.275 OA
ATOM      5  H   UNL A   1      36.937  22.828  26.639  1.00  0.00     0.163 HD
BRANCH   3   6
ATOM      6  C   UNL A   1      34.468  22.240  24.388  1.00  0.00     0.098 C 
ATOM      7  C   UNL A   1      33.257  23.235  24.100  1.00  0.00     0.099 C 
ATOM      8  C   UNL A   1      32.042  22.274  24.052  1.00  0.00     0.025 C 
ATOM      9  C   UNL A   1      33.723  20.893  24.534  1.00  0.00     0.025 C 
ATOM     10  C   UNL A   1      31.811  21.775  25.459  1.00  0.00    -0.027 C 
ATOM     11  C   UNL A   1      32.656  21.017  23.446  1.00  0.00     0.017 C 
ATOM     12  C   UNL A   1      32.818  20.940  25.747  1.00  0.00    -0.027 C 
BRANCH   7  13
ATOM     13  C   UNL A   1      33.379  24.051  22.821  1.00  0.00     0.228 C 
ATOM     14  N   UNL A   1      33.151  25.407  22.801  1.00  0.00    -0.326 N 
ATOM     15  H   UNL A   1      33.245  25.808  21.908  1.00  0.00     0.169 HD
ATOM     16  O   UNL A   1      33.633  23.510  21.740  1.00  0.00    -0.274 OA
BRANCH  14  17
ATOM     17  C   UNL A   1      32.806  26.340  23.805  1.00  0.00     0.044 A 
ATOM     18  C   UNL A   1      30.327  25.614  23.693  1.00  0.00     0.047 C 
ATOM     19  C   UNL A   1      31.479  26.379  24.293  1.00  0.00    -0.021 A 
ATOM     20  C   UNL A   1      31.176  27.187  25.412  1.00  0.00     0.091 A 
ATOM     21  C   UNL A   1      32.171  27.954  26.026  1.00  0.00     0.269 A 
ATOM     22  C   UNL A   1      33.745  27.218  24.363  1.00  0.00     0.033 A 
ATOM     23  C   UNL A   1      33.450  28.000  25.482  1.00  0.00     0.088 A 
BRANCH  21  24
ATOM     24  N   UNL A   1      31.873  28.711  27.246  1.00  0.00     0.062 N 
ATOM     25  O   UNL A   1      31.084  28.208  28.058  1.00  0.00    -0.258 OA
ATOM     26  O   UNL A   1      32.441  29.802  27.397  1.00  0.00    -0.258 OA
ENDBRANCH  21  24
ENDBRANCH  14  17
ENDBRANCH   7  13
ENDBRANCH   3   6
ENDBRANCH   1   2
BRANCH   1  27
ATOM     27  C   UNL A   1      38.870  21.535  25.770  1.00  0.00     0.042 C 
BRANCH  27  28
ATOM     28  C   UNL A   1      39.170  22.970  26.177  1.00  0.00     0.118 C 
BRANCH  28  29
ATOM     29  N   UNL A   1      40.526  23.173  26.687  1.00  0.00    -0.352 N 
ATOM     30  C   UNL A   1      41.092  24.312  27.248  1.00  0.00     0.251 C 
ATOM     31  H   UNL A   1      41.123  22.393  26.622  1.00  0.00     0.163 HD
ATOM     32  O   UNL A   1      42.239  24.307  27.643  1.00  0.00    -0.269 OA
BRANCH  30  33
ATOM     33  C   UNL A   1      40.221  25.492  27.474  1.00  0.00     0.039 A 
ATOM     34  C   UNL A   1      40.471  26.642  26.719  1.00  0.00     0.014 A 
ATOM     35  C   UNL A   1      39.378  25.537  28.578  1.00  0.00     0.014 A 
ATOM     36  C   UNL A   1      40.098  27.879  27.236  1.00  0.00     0.010 A 
ATOM     37  C   UNL A   1      39.111  26.764  29.149  1.00  0.00     0.010 A 
ATOM     38  C   UNL A   1      39.533  27.933  28.510  1.00  0.00    -0.014 A 
BRANCH  38  39
ATOM     39  C   UNL A   1      39.463  29.161  29.291  1.00  0.00     0.031 A 
ATOM     40  C   UNL A   1      38.462  30.192  28.964  1.00  0.00     0.074 A 
ATOM     41  C   UNL A   1      40.319  29.363  30.317  1.00  0.00     0.049 A 
ATOM     42  N   UNL A   1      38.655  31.457  29.130  1.00  0.00    -0.248 NA
ATOM     43  C   UNL A   1      37.166  29.872  28.374  1.00  0.00     0.031 C 
ATOM     44  C   UNL A   1      40.275  30.426  31.316  1.00  0.00     0.029 A 
ATOM     45  N   UNL A   1      41.545  28.743  30.531  1.00  0.00    -0.354 N 
ATOM     46  C   UNL A   1      37.445  32.078  28.943  1.00  0.00     0.074 A 
ATOM     47  C   UNL A   1      36.568  31.066  28.401  1.00  0.00     0.031 C 
ATOM     48  C   UNL A   1      41.491  30.549  31.875  1.00  0.00     0.029 A 
ATOM     49  C   UNL A   1      42.396  29.660  31.164  1.00  0.00     0.049 A 
ATOM     50  H   UNL A   1      41.776  27.820  30.281  1.00  0.00     0.167 HD
ATOM     51  C   UNL A   1      37.247  33.344  29.401  1.00  0.00     0.031 A 
ATOM     52  C   UNL A   1      43.566  30.044  30.576  1.00  0.00     0.031 A 
ATOM     53  C   UNL A   1      38.432  33.886  30.053  1.00  0.00     0.049 A 
ATOM     54  C   UNL A   1      43.604  31.513  30.202  1.00  0.00     0.074 A 
ATOM     55  C   UNL A   1      38.813  33.970  31.383  1.00  0.00     0.029 A 
ATOM     56  N   UNL A   1      39.570  34.140  29.299  1.00  0.00    -0.354 N 
ATOM     57  N   UNL A   1      42.555  32.287  30.183  1.00  0.00    -0.248 NA
ATOM     58  C   UNL A   1      44.814  32.210  29.769  1.00  0.00     0.031 C 
ATOM     59  C   UNL A   1      40.213  34.194  31.423  1.00  0.00     0.029 A 
ATOM     60  C   UNL A   1      40.672  34.281  30.121  1.00  0.00     0.049 A 
ATOM     61  H   UNL A   1      39.590  34.210  28.317  1.00  0.00     0.167 HD
ATOM     62  C   UNL A   1      42.907  33.528  29.724  1.00  0.00     0.074 A 
ATOM     63  C   UNL A   1      44.338  33.439  29.498  1.00  0.00     0.031 C 
ATOM     64  C   UNL A   1      41.988  34.521  29.549  1.00  0.00     0.031 A 
BRANCH  51  65
ATOM     65  C   UNL A   1      35.866  33.923  29.526  1.00  0.00    -0.014 A 
ATOM     66  C   UNL A   1      35.241  34.495  28.404  1.00  0.00     0.009 A 
ATOM     67  C   UNL A   1      35.159  33.985  30.740  1.00  0.00     0.009 A 
ATOM     68  C   UNL A   1      34.028  35.184  28.508  1.00  0.00     0.001 A 
ATOM     69  C   UNL A   1      33.967  34.712  30.860  1.00  0.00     0.001 A 
ATOM     70  C   UNL A   1      33.407  35.321  29.743  1.00  0.00     0.000 A 
ENDBRANCH  51  65
BRANCH  52  71
ATOM     71  C   UNL A   1      44.225  28.953  29.805  1.00  0.00    -0.014 A 
ATOM     72  C   UNL A   1      43.822  28.748  28.470  1.00  0.00     0.009 A 
ATOM     73  C   UNL A   1      45.443  28.402  30.228  1.00  0.00     0.009 A 
ATOM     74  C   UNL A   1      44.668  28.116  27.554  1.00  0.00     0.001 A 
ATOM     75  C   UNL A   1      46.284  27.762  29.308  1.00  0.00     0.001 A 
ATOM     76  C   UNL A   1      45.914  27.651  27.968  1.00  0.00     0.000 A 
ENDBRANCH  52  71
BRANCH  64  77
ATOM     77  C   UNL A   1      42.237  35.844  28.874  1.00  0.00    -0.014 A 
ATOM     78  C   UNL A   1      43.055  36.852  29.398  1.00  0.00     0.009 A 
ATOM     79  C   UNL A   1      41.741  36.039  27.564  1.00  0.00     0.009 A 
ATOM     80  C   UNL A   1      43.331  38.015  28.666  1.00  0.00     0.001 A 
ATOM     81  C   UNL A   1      42.050  37.176  26.815  1.00  0.00     0.001 A 
ATOM     82  C   UNL A   1      42.839  38.171  27.372  1.00  0.00     0.000 A 
ENDBRANCH  64  77
ENDBRANCH  38  39
ENDBRANCH  30  33
ENDBRANCH  28  29
ENDBRANCH  27  28
ENDBRANCH   1  27
TORSDOF 13
ENDMDL
MODEL 3
REMARK VINA RESULT:     -12.6      1.169      1.567
REMARK SMILES Cc1cc([N+](=O)[O-])ccc1NC(=O)[C@@H]1[C@@H](C(=O)NCCCNC(=O)c2ccc(-c3c4nc(c(-c5ccccc5)c5ccc([nH]5)c(-c5ccccc5)c5nc(c(-c6ccccc6)c6ccc3[nH]6)C=C5)C=C4)cc2)[C@H]2C=C[C@@H]1C2
REMARK SMILES IDX 19 1 18 2 16 3 17 4 15 6 14 7 76 8 73 9 75 10 77 11 74 12
REMARK SMILES IDX 12 13 11 14 13 16 10 17 1 18 2 19 3 20 4 21 9 22 8 23 5 24
REMARK SMILES IDX 6 25 7 26 20 27 21 28 22 29 23 30 24 32 25 33 26 34 72 35
REMARK SMILES IDX 27 36 71 37 28 38 29 39 30 40 65 41 31 42 70 43 64 44 66 45
REMARK SMILES IDX 32 46 69 47 63 48 62 49 33 51 55 52 40 53 54 54 41 55 44 56
REMARK SMILES IDX 53 57 67 58 42 59 43 60 52 62 68 63 45 64 34 65 35 66 39 67
REMARK SMILES IDX 36 68 38 69 37 70 56 71 57 72 61 73 58 74 60 75 59 76 46 77
REMARK SMILES IDX 47 78 51 79 48 80 50 81 49 82
REMARK H PARENT 18 5 11 15 22 31 66 50 44 61
REMARK Flexibility Score: inf
ROOT
ATOM      1  C   UNL A   1      32.535  30.678  26.450  1.00  0.00     0.117 C 
ENDROOT
BRANCH   1   2
ATOM      2  N   UNL A   1      33.286  29.591  25.849  1.00  0.00    -0.356 N 
ATOM      3  C   UNL A   1      32.919  28.428  25.248  1.00  0.00     0.224 C 
ATOM      4  O   UNL A   1      33.853  27.710  24.870  1.00  0.00    -0.275 OA
ATOM      5  H   UNL A   1      34.261  29.723  25.882  1.00  0.00     0.163 HD
BRANCH   3   6
ATOM      6  C   UNL A   1      31.473  27.946  25.122  1.00  0.00     0.098 C 
ATOM      7  C   UNL A   1      31.461  26.408  24.708  1.00  0.00     0.099 C 
ATOM      8  C   UNL A   1      30.503  26.399  23.490  1.00  0.00     0.025 C 
ATOM      9  C   UNL A   1      30.582  28.562  24.019  1.00  0.00     0.025 C 
ATOM     10  C   UNL A   1      31.214  27.103  22.357  1.00  0.00    -0.027 C 
ATOM     11  C   UNL A   1      29.505  27.488  23.864  1.00  0.00     0.017 C 
ATOM     12  C   UNL A   1      31.256  28.405  22.672  1.00  0.00    -0.027 C 
BRANCH   7  13
ATOM     13  C   UNL A   1      30.996  25.447  25.794  1.00  0.00     0.228 C 
ATOM     14  N   UNL A   1      31.695  24.302  26.096  1.00  0.00    -0.326 N 
ATOM     15  H   UNL A   1      31.276  23.762  26.804  1.00  0.00     0.169 HD
ATOM     16  O   UNL A   1      29.940  25.637  26.405  1.00  0.00    -0.274 OA
BRANCH  14  17
ATOM     17  C   UNL A   1      32.891  23.743  25.593  1.00  0.00     0.044 A 
ATOM     18  C   UNL A   1      31.635  22.779  23.548  1.00  0.00     0.047 C 
ATOM     19  C   UNL A   1      32.881  23.093  24.337  1.00  0.00    -0.021 A 
ATOM     20  C   UNL A   1      34.105  22.689  23.756  1.00  0.00     0.091 A 
ATOM     21  C   UNL A   1      35.316  22.913  24.420  1.00  0.00     0.269 A 
ATOM     22  C   UNL A   1      34.106  23.834  26.284  1.00  0.00     0.033 A 
ATOM     23  C   UNL A   1      35.318  23.452  25.701  1.00  0.00     0.088 A 
BRANCH  21  24
ATOM     24  N   UNL A   1      36.587  22.582  23.769  1.00  0.00     0.062 N 
ATOM     25  O   UNL A   1      37.467  22.052  24.459  1.00  0.00    -0.258 OA
ATOM     26  O   UNL A   1      36.696  22.840  22.561  1.00  0.00    -0.258 OA
ENDBRANCH  21  24
ENDBRANCH  14  17
ENDBRANCH   7  13
ENDBRANCH   3   6
ENDBRANCH   1   2
BRANCH   1  27
ATOM     27  C   UNL A   1      33.316  31.369  27.560  1.00  0.00     0.042 C 
BRANCH  27  28
ATOM     28  C   UNL A   1      34.742  30.847  27.647  1.00  0.00     0.118 C 
BRANCH  28  29
ATOM     29  N   UNL A   1      35.604  31.618  28.544  1.00  0.00    -0.352 N 
ATOM     30  C   UNL A   1      36.828  31.269  29.103  1.00  0.00     0.251 C 
ATOM     31  H   UNL A   1      35.268  32.511  28.786  1.00  0.00     0.163 HD
ATOM     32  O   UNL A   1      37.428  32.042  29.818  1.00  0.00    -0.269 OA
BRANCH  30  33
ATOM     33  C   UNL A   1      37.443  29.981  28.697  1.00  0.00     0.039 A 
ATOM     34  C   UNL A   1      37.530  28.969  29.657  1.00  0.00     0.014 A 
ATOM     35  C   UNL A   1      38.148  29.889  27.502  1.00  0.00     0.014 A 
ATOM     36  C   UNL A   1      38.532  28.009  29.533  1.00  0.00     0.010 A 
ATOM     37  C   UNL A   1      39.212  29.015  27.434  1.00  0.00     0.010 A 
ATOM     38  C   UNL A   1      39.444  28.121  28.483  1.00  0.00    -0.014 A 
BRANCH  38  39
ATOM     39  C   UNL A   1      40.724  27.427  28.475  1.00  0.00     0.031 A 
ATOM     40  C   UNL A   1      40.779  25.972  28.248  1.00  0.00     0.074 A 
ATOM     41  C   UNL A   1      41.871  28.114  28.679  1.00  0.00     0.049 A 
ATOM     42  N   UNL A   1      41.666  25.197  28.775  1.00  0.00    -0.248 NA
ATOM     43  C   UNL A   1      39.794  25.265  27.435  1.00  0.00     0.031 C 
ATOM     44  C   UNL A   1      43.238  27.631  28.515  1.00  0.00     0.029 A 
ATOM     45  N   UNL A   1      42.016  29.355  29.288  1.00  0.00    -0.354 N 
ATOM     46  C   UNL A   1      41.546  23.973  28.164  1.00  0.00     0.074 A 
ATOM     47  C   UNL A   1      40.324  24.039  27.397  1.00  0.00     0.031 C 
ATOM     48  C   UNL A   1      44.067  28.429  29.211  1.00  0.00     0.029 A 
ATOM     49  C   UNL A   1      43.250  29.376  29.953  1.00  0.00     0.049 A 
ATOM     50  H   UNL A   1      41.365  30.092  29.258  1.00  0.00     0.167 HD
ATOM     51  C   UNL A   1      42.560  23.069  28.237  1.00  0.00     0.031 A 
ATOM     52  C   UNL A   1      43.310  29.569  31.303  1.00  0.00     0.031 A 
ATOM     53  C   UNL A   1      43.688  23.568  29.014  1.00  0.00     0.049 A 
ATOM     54  C   UNL A   1      43.845  28.371  32.064  1.00  0.00     0.074 A 
ATOM     55  C   UNL A   1      44.882  24.170  28.649  1.00  0.00     0.029 A 
ATOM     56  N   UNL A   1      43.537  23.783  30.377  1.00  0.00    -0.354 N 
ATOM     57  N   UNL A   1      43.985  27.182  31.547  1.00  0.00    -0.248 NA
ATOM     58  C   UNL A   1      44.212  28.405  33.479  1.00  0.00     0.031 C 
ATOM     59  C   UNL A   1      45.408  24.825  29.792  1.00  0.00     0.029 A 
ATOM     60  C   UNL A   1      44.553  24.589  30.853  1.00  0.00     0.049 A 
ATOM     61  H   UNL A   1      42.808  23.414  30.926  1.00  0.00     0.167 HD
ATOM     62  C   UNL A   1      44.409  26.308  32.511  1.00  0.00     0.074 A 
ATOM     63  C   UNL A   1      44.558  27.125  33.701  1.00  0.00     0.031 C 
ATOM     64  C   UNL A   1      44.583  24.979  32.255  1.00  0.00     0.031 A 
BRANCH  51  65
ATOM     65  C   UNL A   1      42.618  21.882  27.317  1.00  0.00    -0.014 A 
ATOM     66  C   UNL A   1      41.881  20.725  27.620  1.00  0.00     0.009 A 
ATOM     67  C   UNL A   1      43.429  21.831  26.170  1.00  0.00     0.009 A 
ATOM     68  C   UNL A   1      42.026  19.545  26.880  1.00  0.00     0.001 A 
ATOM     69  C   UNL A   1      43.613  20.640  25.453  1.00  0.00     0.001 A 
ATOM     70  C   UNL A   1      42.918  19.493  25.817  1.00  0.00     0.000 A 
ENDBRANCH  51  65
BRANCH  52  71
ATOM     71  C   UNL A   1      42.269  30.504  31.812  1.00  0.00    -0.014 A 
ATOM     72  C   UNL A   1      41.091  29.951  32.355  1.00  0.00     0.009 A 
ATOM     73  C   UNL A   1      42.576  31.840  32.102  1.00  0.00     0.009 A 
ATOM     74  C   UNL A   1      40.308  30.677  33.259  1.00  0.00     0.001 A 
ATOM     75  C   UNL A   1      41.784  32.566  33.002  1.00  0.00     0.001 A 
ATOM     76  C   UNL A   1      40.674  31.974  33.606  1.00  0.00     0.000 A 
ENDBRANCH  52  71
BRANCH  64  77
ATOM     77  C   UNL A   1      44.855  23.911  33.282  1.00  0.00    -0.014 A 
ATOM     78  C   UNL A   1      46.137  23.515  33.683  1.00  0.00     0.009 A 
ATOM     79  C   UNL A   1      43.764  23.369  33.999  1.00  0.00     0.009 A 
ATOM     80  C   UNL A   1      46.317  22.593  34.723  1.00  0.00     0.001 A 
ATOM     81  C   UNL A   1      43.943  22.484  35.065  1.00  0.00     0.001 A 
ATOM     82  C   UNL A   1      45.223  22.088  35.420  1.00  0.00     0.000 A 
ENDBRANCH  64  77
ENDBRANCH  38  39
ENDBRANCH  30  33
ENDBRANCH  28  29
ENDBRANCH  27  28
ENDBRANCH   1  27
TORSDOF 13
ENDMDL
