MODEL 1
REMARK VINA RESULT:     -11.5      0.000      0.000
REMARK SMILES CCCC(=O)Nc1cccc(C(=O)N[C@@H](C(=O)NCCCNC(=O)c2ccc(-c3c4nc(c(-c5ccccc5)c5ccc([nH]5)c(-c5ccccc5)c5nc(c(-c6ccccc6)c6ccc3[nH]6)C=C5)C=C4)cc2)C2=C(C)N=N[C@@H]2C)c1
REMARK SMILES IDX 16 1 17 2 18 3 15 5 14 6 12 7 13 8 11 10 7 11 8 12 80 13
REMARK SMILES IDX 9 14 10 15 6 16 4 17 5 18 3 20 2 21 1 22 73 23 74 24 78 25
REMARK SMILES IDX 75 26 76 27 77 28 79 29 19 30 20 31 21 32 22 33 23 34 24 36
REMARK SMILES IDX 25 37 26 38 72 39 27 40 71 41 28 42 29 43 30 44 65 45 31 46
REMARK SMILES IDX 70 47 64 48 66 49 32 50 69 51 63 52 62 53 33 55 55 56 40 57
REMARK SMILES IDX 54 58 41 59 44 60 53 61 67 62 42 63 43 64 52 66 68 67 45 68
REMARK SMILES IDX 34 69 35 70 39 71 36 72 38 73 37 74 56 75 57 76 61 77 58 78
REMARK SMILES IDX 60 79 59 80 46 81 47 82 51 83 48 84 50 85 49 86
REMARK H PARENT 18 4 14 9 6 19 22 35 66 54 44 65
REMARK Flexibility Score: inf
ROOT
ATOM      1  C   UNL A   1      33.741  20.263  24.971  1.00  0.00     0.247 C 
ATOM      2  O   UNL A   1      32.978  19.430  24.478  1.00  0.00    -0.272 OA
ATOM      3  N   UNL A   1      35.056  19.903  25.070  1.00  0.00    -0.354 N 
ATOM      4  H   UNL A   1      35.267  18.988  24.776  1.00  0.00     0.163 HD
ENDROOT
BRANCH   1   5
ATOM      5  C   UNL A   1      33.293  21.711  25.357  1.00  0.00     0.202 C 
BRANCH   5   6
ATOM      6  N   UNL A   1      31.872  21.740  25.743  1.00  0.00    -0.337 N 
ATOM      7  C   UNL A   1      30.889  22.668  26.006  1.00  0.00     0.252 C 
ATOM      8  O   UNL A   1      29.848  22.204  26.482  1.00  0.00    -0.269 OA
ATOM      9  H   UNL A   1      31.522  20.826  25.846  1.00  0.00     0.165 HD
BRANCH   7  10
ATOM     10  C   UNL A   1      30.937  24.149  25.770  1.00  0.00     0.041 A 
ATOM     11  C   UNL A   1      30.466  26.185  24.523  1.00  0.00     0.041 A 
ATOM     12  C   UNL A   1      30.946  26.984  25.547  1.00  0.00     0.026 A 
ATOM     13  C   UNL A   1      30.518  24.790  24.611  1.00  0.00     0.040 A 
ATOM     14  C   UNL A   1      31.412  26.369  26.706  1.00  0.00     0.003 A 
ATOM     15  C   UNL A   1      31.397  24.969  26.818  1.00  0.00     0.014 A 
BRANCH  11  16
ATOM     16  N   UNL A   1      29.898  26.756  23.377  1.00  0.00    -0.326 N 
ATOM     17  C   UNL A   1      30.632  27.497  22.480  1.00  0.00     0.224 C 
ATOM     18  O   UNL A   1      30.158  28.510  21.970  1.00  0.00    -0.275 OA
ATOM     19  H   UNL A   1      28.937  26.624  23.209  1.00  0.00     0.169 HD
BRANCH  17  20
ATOM     20  C   UNL A   1      32.014  26.962  22.102  1.00  0.00     0.100 C 
BRANCH  20  21
ATOM     21  C   UNL A   1      33.170  27.927  22.349  1.00  0.00     0.006 C 
ATOM     22  C   UNL A   1      33.843  27.799  23.711  1.00  0.00     0.004 C 
ENDBRANCH  20  21
ENDBRANCH  17  20
ENDBRANCH  11  16
ENDBRANCH   7  10
ENDBRANCH   5   6
BRANCH   5  23
ATOM     23  C   UNL A   1      33.570  22.632  24.206  1.00  0.00     0.011 C 
ATOM     24  C   UNL A   1      34.239  23.798  24.203  1.00  0.00     0.064 C 
ATOM     25  C   UNL A   1      33.379  22.311  22.758  1.00  0.00     0.156 C 
ATOM     26  C   UNL A   1      34.897  24.532  25.325  1.00  0.00     0.069 C 
ATOM     27  N   UNL A   1      34.411  24.306  22.941  1.00  0.00    -0.160 NA
ATOM     28  N   UNL A   1      33.953  23.508  22.084  1.00  0.00    -0.181 NA
ATOM     29  C   UNL A   1      31.943  22.149  22.279  1.00  0.00     0.040 C 
ENDBRANCH   5  23
ENDBRANCH   1   5
BRANCH   3  30
ATOM     30  C   UNL A   1      36.175  20.678  25.545  1.00  0.00     0.117 C 
BRANCH  30  31
ATOM     31  C   UNL A   1      37.441  20.397  24.750  1.00  0.00     0.042 C 
BRANCH  31  32
ATOM     32  C   UNL A   1      38.683  20.845  25.497  1.00  0.00     0.118 C 
BRANCH  32  33
ATOM     33  N   UNL A   1      39.654  19.765  25.633  1.00  0.00    -0.352 N 
ATOM     34  C   UNL A   1      40.964  19.816  26.026  1.00  0.00     0.251 C 
ATOM     35  H   UNL A   1      39.318  18.866  25.409  1.00  0.00     0.163 HD
ATOM     36  O   UNL A   1      41.688  18.834  25.886  1.00  0.00    -0.269 OA
BRANCH  34  37
ATOM     37  C   UNL A   1      41.499  21.063  26.596  1.00  0.00     0.039 A 
ATOM     38  C   UNL A   1      42.114  21.985  25.748  1.00  0.00     0.014 A 
ATOM     39  C   UNL A   1      41.370  21.326  27.963  1.00  0.00     0.014 A 
ATOM     40  C   UNL A   1      42.547  23.204  26.265  1.00  0.00     0.010 A 
ATOM     41  C   UNL A   1      41.709  22.577  28.454  1.00  0.00     0.010 A 
ATOM     42  C   UNL A   1      42.313  23.521  27.613  1.00  0.00    -0.014 A 
BRANCH  42  43
ATOM     43  C   UNL A   1      42.703  24.833  28.174  1.00  0.00     0.031 A 
ATOM     44  C   UNL A   1      41.662  25.898  28.375  1.00  0.00     0.074 A 
ATOM     45  C   UNL A   1      44.000  25.084  28.432  1.00  0.00     0.049 A 
ATOM     46  N   UNL A   1      41.813  27.132  28.784  1.00  0.00    -0.248 NA
ATOM     47  C   UNL A   1      40.272  25.541  28.046  1.00  0.00     0.031 C 
ATOM     48  C   UNL A   1      45.104  24.140  28.234  1.00  0.00     0.029 A 
ATOM     49  N   UNL A   1      44.611  26.213  28.910  1.00  0.00    -0.354 N 
ATOM     50  C   UNL A   1      40.546  27.697  28.741  1.00  0.00     0.074 A 
ATOM     51  C   UNL A   1      39.648  26.697  28.211  1.00  0.00     0.031 C 
ATOM     52  C   UNL A   1      46.251  24.720  28.622  1.00  0.00     0.029 A 
ATOM     53  C   UNL A   1      45.973  26.088  29.044  1.00  0.00     0.049 A 
ATOM     54  H   UNL A   1      44.121  27.037  29.136  1.00  0.00     0.167 HD
ATOM     55  C   UNL A   1      40.160  28.935  29.130  1.00  0.00     0.031 A 
ATOM     56  C   UNL A   1      46.892  26.981  29.452  1.00  0.00     0.031 A 
ATOM     57  C   UNL A   1      41.059  29.924  29.662  1.00  0.00     0.049 A 
ATOM     58  C   UNL A   1      46.442  28.358  29.851  1.00  0.00     0.074 A 
ATOM     59  C   UNL A   1      40.763  31.188  30.139  1.00  0.00     0.029 A 
ATOM     60  N   UNL A   1      42.430  29.759  29.781  1.00  0.00    -0.354 N 
ATOM     61  N   UNL A   1      45.229  28.856  29.878  1.00  0.00    -0.248 NA
ATOM     62  C   UNL A   1      47.488  29.293  30.285  1.00  0.00     0.031 C 
ATOM     63  C   UNL A   1      41.964  31.812  30.489  1.00  0.00     0.029 A 
ATOM     64  C   UNL A   1      43.000  30.911  30.294  1.00  0.00     0.049 A 
ATOM     65  H   UNL A   1      42.925  28.943  29.537  1.00  0.00     0.167 HD
ATOM     66  C   UNL A   1      45.362  30.152  30.355  1.00  0.00     0.074 A 
ATOM     67  C   UNL A   1      46.771  30.356  30.625  1.00  0.00     0.031 C 
ATOM     68  C   UNL A   1      44.406  31.093  30.552  1.00  0.00     0.031 A 
BRANCH  55  69
ATOM     69  C   UNL A   1      38.706  29.287  28.982  1.00  0.00    -0.014 A 
ATOM     70  C   UNL A   1      38.182  29.727  27.754  1.00  0.00     0.009 A 
ATOM     71  C   UNL A   1      37.841  29.153  30.078  1.00  0.00     0.009 A 
ATOM     72  C   UNL A   1      36.831  30.060  27.639  1.00  0.00     0.001 A 
ATOM     73  C   UNL A   1      36.483  29.454  29.951  1.00  0.00     0.001 A 
ATOM     74  C   UNL A   1      35.982  29.918  28.735  1.00  0.00     0.000 A 
ENDBRANCH  55  69
BRANCH  56  75
ATOM     75  C   UNL A   1      48.329  26.600  29.509  1.00  0.00    -0.014 A 
ATOM     76  C   UNL A   1      49.173  26.838  28.413  1.00  0.00     0.009 A 
ATOM     77  C   UNL A   1      48.863  25.991  30.656  1.00  0.00     0.009 A 
ATOM     78  C   UNL A   1      50.513  26.446  28.453  1.00  0.00     0.001 A 
ATOM     79  C   UNL A   1      50.210  25.629  30.705  1.00  0.00     0.001 A 
ATOM     80  C   UNL A   1      51.031  25.846  29.600  1.00  0.00     0.000 A 
ENDBRANCH  56  75
BRANCH  68  81
ATOM     81  C   UNL A   1      44.849  32.415  31.113  1.00  0.00    -0.014 A 
ATOM     82  C   UNL A   1      44.928  32.632  32.497  1.00  0.00     0.009 A 
ATOM     83  C   UNL A   1      45.238  33.443  30.238  1.00  0.00     0.009 A 
ATOM     84  C   UNL A   1      45.353  33.865  32.993  1.00  0.00     0.001 A 
ATOM     85  C   UNL A   1      45.695  34.662  30.738  1.00  0.00     0.001 A 
ATOM     86  C   UNL A   1      45.743  34.876  32.114  1.00  0.00     0.000 A 
ENDBRANCH  68  81
ENDBRANCH  42  43
ENDBRANCH  34  37
ENDBRANCH  32  33
ENDBRANCH  31  32
ENDBRANCH  30  31
ENDBRANCH   3  30
TORSDOF 16
ENDMDL
MODEL 2
REMARK VINA RESULT:     -11.4      3.465      8.674
REMARK SMILES CCCC(=O)Nc1cccc(C(=O)N[C@@H](C(=O)NCCCNC(=O)c2ccc(-c3c4nc(c(-c5ccccc5)c5ccc([nH]5)c(-c5ccccc5)c5nc(c(-c6ccccc6)c6ccc3[nH]6)C=C5)C=C4)cc2)C2=C(C)N=N[C@@H]2C)c1
REMARK SMILES IDX 16 1 17 2 18 3 15 5 14 6 12 7 13 8 11 10 7 11 8 12 80 13
REMARK SMILES IDX 9 14 10 15 6 16 4 17 5 18 3 20 2 21 1 22 73 23 74 24 78 25
REMARK SMILES IDX 75 26 76 27 77 28 79 29 19 30 20 31 21 32 22 33 23 34 24 36
REMARK SMILES IDX 25 37 26 38 72 39 27 40 71 41 28 42 29 43 30 44 65 45 31 46
REMARK SMILES IDX 70 47 64 48 66 49 32 50 69 51 63 52 62 53 33 55 55 56 40 57
REMARK SMILES IDX 54 58 41 59 44 60 53 61 67 62 42 63 43 64 52 66 68 67 45 68
REMARK SMILES IDX 34 69 35 70 39 71 36 72 38 73 37 74 56 75 57 76 61 77 58 78
REMARK SMILES IDX 60 79 59 80 46 81 47 82 51 83 48 84 50 85 49 86
REMARK H PARENT 18 4 14 9 6 19 22 35 66 54 44 65
REMARK Flexibility Score: inf
ROOT
ATOM      1  C   UNL A   1      30.371  28.958  23.259  1.00  0.00     0.247 C 
ATOM      2  O   UNL A   1      29.764  29.095  22.195  1.00  0.00    -0.272 OA
ATOM      3  N   UNL A   1      30.585  30.092  23.991  1.00  0.00    -0.354 N 
ATOM      4  H   UNL A   1      30.269  30.928  23.577  1.00  0.00     0.163 HD
ENDROOT
BRANCH   1   5
ATOM      5  C   UNL A   1      30.779  27.563  23.837  1.00  0.00     0.202 C 
BRANCH   5   6
ATOM      6  N   UNL A   1      31.097  27.657  25.272  1.00  0.00    -0.337 N 
ATOM      7  C   UNL A   1      31.343  26.818  26.336  1.00  0.00     0.252 C 
ATOM      8  O   UNL A   1      31.393  27.373  27.438  1.00  0.00    -0.269 OA
ATOM      9  H   UNL A   1      31.145  28.598  25.556  1.00  0.00     0.165 HD
BRANCH   7  10
ATOM     10  C   UNL A   1      31.566  25.334  26.303  1.00  0.00     0.041 A 
ATOM     11  C   UNL A   1      32.939  23.325  26.305  1.00  0.00     0.041 A 
ATOM     12  C   UNL A   1      31.829  22.505  26.419  1.00  0.00     0.026 A 
ATOM     13  C   UNL A   1      32.803  24.712  26.188  1.00  0.00     0.040 A 
ATOM     14  C   UNL A   1      30.571  23.097  26.494  1.00  0.00     0.003 A 
ATOM     15  C   UNL A   1      30.444  24.495  26.447  1.00  0.00     0.014 A 
BRANCH  11  16
ATOM     16  N   UNL A   1      34.231  22.785  26.323  1.00  0.00    -0.326 N 
ATOM     17  C   UNL A   1      34.658  21.861  25.396  1.00  0.00     0.224 C 
ATOM     18  O   UNL A   1      35.367  20.916  25.736  1.00  0.00    -0.275 OA
ATOM     19  H   UNL A   1      34.856  23.075  27.025  1.00  0.00     0.169 HD
BRANCH  17  20
ATOM     20  C   UNL A   1      34.274  22.111  23.937  1.00  0.00     0.100 C 
BRANCH  20  21
ATOM     21  C   UNL A   1      35.186  23.075  23.185  1.00  0.00     0.006 C 
ATOM     22  C   UNL A   1      36.672  22.947  23.504  1.00  0.00     0.004 C 
ENDBRANCH  20  21
ENDBRANCH  17  20
ENDBRANCH  11  16
ENDBRANCH   7  10
ENDBRANCH   5   6
BRANCH   5  23
ATOM     23  C   UNL A   1      31.938  27.027  23.050  1.00  0.00     0.011 C 
ATOM     24  C   UNL A   1      32.154  25.772  22.619  1.00  0.00     0.064 C 
ATOM     25  C   UNL A   1      32.980  27.842  22.354  1.00  0.00     0.156 C 
ATOM     26  C   UNL A   1      31.327  24.540  22.790  1.00  0.00     0.069 C 
ATOM     27  N   UNL A   1      33.260  25.672  21.814  1.00  0.00    -0.160 NA
ATOM     28  N   UNL A   1      33.763  26.808  21.623  1.00  0.00    -0.181 NA
ATOM     29  C   UNL A   1      33.944  28.618  23.241  1.00  0.00     0.040 C 
ENDBRANCH   5  23
ENDBRANCH   1   5
BRANCH   3  30
ATOM     30  C   UNL A   1      31.208  30.233  25.284  1.00  0.00     0.117 C 
BRANCH  30  31
ATOM     31  C   UNL A   1      31.012  31.627  25.861  1.00  0.00     0.042 C 
BRANCH  31  32
ATOM     32  C   UNL A   1      32.118  31.992  26.832  1.00  0.00     0.118 C 
BRANCH  32  33
ATOM     33  N   UNL A   1      32.078  33.404  27.196  1.00  0.00    -0.352 N 
ATOM     34  C   UNL A   1      32.901  34.113  28.028  1.00  0.00     0.251 C 
ATOM     35  H   UNL A   1      31.350  33.925  26.783  1.00  0.00     0.163 HD
ATOM     36  O   UNL A   1      32.594  35.250  28.376  1.00  0.00    -0.269 OA
BRANCH  34  37
ATOM     37  C   UNL A   1      34.143  33.492  28.515  1.00  0.00     0.039 A 
ATOM     38  C   UNL A   1      35.347  33.795  27.877  1.00  0.00     0.014 A 
ATOM     39  C   UNL A   1      34.117  32.628  29.614  1.00  0.00     0.014 A 
ATOM     40  C   UNL A   1      36.537  33.277  28.383  1.00  0.00     0.010 A 
ATOM     41  C   UNL A   1      35.308  32.198  30.175  1.00  0.00     0.010 A 
ATOM     42  C   UNL A   1      36.527  32.506  29.557  1.00  0.00    -0.014 A 
BRANCH  42  43
ATOM     43  C   UNL A   1      37.781  31.998  30.154  1.00  0.00     0.031 A 
ATOM     44  C   UNL A   1      38.391  30.726  29.636  1.00  0.00     0.074 A 
ATOM     45  C   UNL A   1      38.326  32.643  31.202  1.00  0.00     0.049 A 
ATOM     46  N   UNL A   1      39.443  30.079  30.071  1.00  0.00    -0.248 NA
ATOM     47  C   UNL A   1      37.715  30.077  28.500  1.00  0.00     0.031 C 
ATOM     48  C   UNL A   1      37.796  33.863  31.817  1.00  0.00     0.029 A 
ATOM     49  N   UNL A   1      39.443  32.356  31.942  1.00  0.00    -0.354 N 
ATOM     50  C   UNL A   1      39.539  28.945  29.276  1.00  0.00     0.074 A 
ATOM     51  C   UNL A   1      38.409  28.957  28.374  1.00  0.00     0.031 C 
ATOM     52  C   UNL A   1      38.609  34.239  32.818  1.00  0.00     0.029 A 
ATOM     53  C   UNL A   1      39.683  33.260  32.948  1.00  0.00     0.049 A 
ATOM     54  H   UNL A   1      40.019  31.577  31.770  1.00  0.00     0.167 HD
ATOM     55  C   UNL A   1      40.496  27.988  29.282  1.00  0.00     0.031 A 
ATOM     56  C   UNL A   1      40.655  33.289  33.878  1.00  0.00     0.031 A 
ATOM     57  C   UNL A   1      41.621  27.986  30.179  1.00  0.00     0.049 A 
ATOM     58  C   UNL A   1      41.690  32.199  33.881  1.00  0.00     0.074 A 
ATOM     59  C   UNL A   1      42.678  27.096  30.231  1.00  0.00     0.029 A 
ATOM     60  N   UNL A   1      41.828  28.918  31.184  1.00  0.00    -0.354 N 
ATOM     61  N   UNL A   1      41.813  31.173  33.075  1.00  0.00    -0.248 NA
ATOM     62  C   UNL A   1      42.726  32.278  34.920  1.00  0.00     0.031 C 
ATOM     63  C   UNL A   1      43.493  27.454  31.310  1.00  0.00     0.029 A 
ATOM     64  C   UNL A   1      42.980  28.606  31.884  1.00  0.00     0.049 A 
ATOM     65  H   UNL A   1      41.243  29.688  31.371  1.00  0.00     0.167 HD
ATOM     66  C   UNL A   1      42.952  30.498  33.490  1.00  0.00     0.074 A 
ATOM     67  C   UNL A   1      43.496  31.244  34.607  1.00  0.00     0.031 C 
ATOM     68  C   UNL A   1      43.501  29.361  32.995  1.00  0.00     0.031 A 
BRANCH  55  69
ATOM     69  C   UNL A   1      40.359  26.862  28.295  1.00  0.00    -0.014 A 
ATOM     70  C   UNL A   1      39.621  25.707  28.603  1.00  0.00     0.009 A 
ATOM     71  C   UNL A   1      40.953  26.968  27.029  1.00  0.00     0.009 A 
ATOM     72  C   UNL A   1      39.514  24.666  27.678  1.00  0.00     0.001 A 
ATOM     73  C   UNL A   1      40.815  25.941  26.092  1.00  0.00     0.001 A 
ATOM     74  C   UNL A   1      40.106  24.787  26.422  1.00  0.00     0.000 A 
ENDBRANCH  55  69
BRANCH  56  75
ATOM     75  C   UNL A   1      40.700  34.389  34.878  1.00  0.00    -0.014 A 
ATOM     76  C   UNL A   1      41.544  35.494  34.685  1.00  0.00     0.009 A 
ATOM     77  C   UNL A   1      39.904  34.338  36.034  1.00  0.00     0.009 A 
ATOM     78  C   UNL A   1      41.614  36.508  35.643  1.00  0.00     0.001 A 
ATOM     79  C   UNL A   1      39.951  35.369  36.973  1.00  0.00     0.001 A 
ATOM     80  C   UNL A   1      40.814  36.447  36.784  1.00  0.00     0.000 A 
ENDBRANCH  56  75
BRANCH  68  81
ATOM     81  C   UNL A   1      44.769  28.875  33.639  1.00  0.00    -0.014 A 
ATOM     82  C   UNL A   1      44.743  27.986  34.724  1.00  0.00     0.009 A 
ATOM     83  C   UNL A   1      46.009  29.278  33.117  1.00  0.00     0.009 A 
ATOM     84  C   UNL A   1      45.935  27.540  35.297  1.00  0.00     0.001 A 
ATOM     85  C   UNL A   1      47.198  28.803  33.671  1.00  0.00     0.001 A 
ATOM     86  C   UNL A   1      47.160  27.943  34.766  1.00  0.00     0.000 A 
ENDBRANCH  68  81
ENDBRANCH  42  43
ENDBRANCH  34  37
ENDBRANCH  32  33
ENDBRANCH  31  32
ENDBRANCH  30  31
ENDBRANCH   3  30
TORSDOF 16
ENDMDL
MODEL 3
REMARK VINA RESULT:     -11.4      3.371      8.746
REMARK SMILES CCCC(=O)Nc1cccc(C(=O)N[C@@H](C(=O)NCCCNC(=O)c2ccc(-c3c4nc(c(-c5ccccc5)c5ccc([nH]5)c(-c5ccccc5)c5nc(c(-c6ccccc6)c6ccc3[nH]6)C=C5)C=C4)cc2)C2=C(C)N=N[C@@H]2C)c1
REMARK SMILES IDX 16 1 17 2 18 3 15 5 14 6 12 7 13 8 11 10 7 11 8 12 80 13
REMARK SMILES IDX 9 14 10 15 6 16 4 17 5 18 3 20 2 21 1 22 73 23 74 24 78 25
REMARK SMILES IDX 75 26 76 27 77 28 79 29 19 30 20 31 21 32 22 33 23 34 24 36
REMARK SMILES IDX 25 37 26 38 72 39 27 40 71 41 28 42 29 43 30 44 65 45 31 46
REMARK SMILES IDX 70 47 64 48 66 49 32 50 69 51 63 52 62 53 33 55 55 56 40 57
REMARK SMILES IDX 54 58 41 59 44 60 53 61 67 62 42 63 43 64 52 66 68 67 45 68
REMARK SMILES IDX 34 69 35 70 39 71 36 72 38 73 37 74 56 75 57 76 61 77 58 78
REMARK SMILES IDX 60 79 59 80 46 81 47 82 51 83 48 84 50 85 49 86
REMARK H PARENT 18 4 14 9 6 19 22 35 66 54 44 65
REMARK Flexibility Score: inf
ROOT
ATOM      1  C   UNL A   1      31.171  29.113  23.413  1.00  0.00     0.247 C 
ATOM      2  O   UNL A   1      30.333  29.249  22.519  1.00  0.00    -0.272 OA
ATOM      3  N   UNL A   1      31.163  30.054  24.405  1.00  0.00    -0.354 N 
ATOM      4  H   UNL A   1      30.512  30.783  24.291  1.00  0.00     0.163 HD
ENDROOT
BRANCH   1   5
ATOM      5  C   UNL A   1      32.124  27.877  23.512  1.00  0.00     0.202 C 
BRANCH   5   6
ATOM      6  N   UNL A   1      32.184  27.151  22.232  1.00  0.00    -0.337 N 
ATOM      7  C   UNL A   1      32.662  25.958  21.739  1.00  0.00     0.252 C 
ATOM      8  O   UNL A   1      32.635  25.853  20.508  1.00  0.00    -0.269 OA
ATOM      9  H   UNL A   1      31.757  27.675  21.516  1.00  0.00     0.165 HD
BRANCH   7  10
ATOM     10  C   UNL A   1      33.192  24.789  22.516  1.00  0.00     0.041 A 
ATOM     11  C   UNL A   1      33.062  22.556  23.476  1.00  0.00     0.041 A 
ATOM     12  C   UNL A   1      34.393  22.586  23.856  1.00  0.00     0.026 A 
ATOM     13  C   UNL A   1      32.458  23.664  22.871  1.00  0.00     0.040 A 
ATOM     14  C   UNL A   1      35.145  23.719  23.551  1.00  0.00     0.003 A 
ATOM     15  C   UNL A   1      34.552  24.801  22.881  1.00  0.00     0.014 A 
BRANCH  11  16
ATOM     16  N   UNL A   1      32.289  21.405  23.672  1.00  0.00    -0.326 N 
ATOM     17  C   UNL A   1      32.065  20.869  24.919  1.00  0.00     0.224 C 
ATOM     18  O   UNL A   1      32.069  19.652  25.087  1.00  0.00    -0.275 OA
ATOM     19  H   UNL A   1      31.893  20.961  22.887  1.00  0.00     0.169 HD
BRANCH  17  20
ATOM     20  C   UNL A   1      31.742  21.849  26.049  1.00  0.00     0.100 C 
BRANCH  20  21
ATOM     21  C   UNL A   1      30.381  22.530  25.944  1.00  0.00     0.006 C 
ATOM     22  C   UNL A   1      29.630  22.687  27.261  1.00  0.00     0.004 C 
ENDBRANCH  20  21
ENDBRANCH  17  20
ENDBRANCH  11  16
ENDBRANCH   7  10
ENDBRANCH   5   6
BRANCH   5  23
ATOM     23  C   UNL A   1      31.658  26.989  24.627  1.00  0.00     0.011 C 
ATOM     24  C   UNL A   1      32.367  26.481  25.651  1.00  0.00     0.064 C 
ATOM     25  C   UNL A   1      30.236  26.690  24.978  1.00  0.00     0.156 C 
ATOM     26  C   UNL A   1      33.814  26.635  25.988  1.00  0.00     0.069 C 
ATOM     27  N   UNL A   1      31.584  25.815  26.558  1.00  0.00    -0.160 NA
ATOM     28  N   UNL A   1      30.372  25.904  26.235  1.00  0.00    -0.181 NA
ATOM     29  C   UNL A   1      29.450  25.847  23.983  1.00  0.00     0.040 C 
ENDBRANCH   5  23
ENDBRANCH   1   5
BRANCH   3  30
ATOM     30  C   UNL A   1      31.976  30.125  25.594  1.00  0.00     0.117 C 
BRANCH  30  31
ATOM     31  C   UNL A   1      31.569  31.281  26.493  1.00  0.00     0.042 C 
BRANCH  31  32
ATOM     32  C   UNL A   1      32.776  31.966  27.107  1.00  0.00     0.118 C 
BRANCH  32  33
ATOM     33  N   UNL A   1      32.501  33.361  27.434  1.00  0.00    -0.352 N 
ATOM     34  C   UNL A   1      33.137  34.190  28.318  1.00  0.00     0.251 C 
ATOM     35  H   UNL A   1      31.747  33.766  26.947  1.00  0.00     0.163 HD
ATOM     36  O   UNL A   1      32.641  35.274  28.612  1.00  0.00    -0.269 OA
BRANCH  34  37
ATOM     37  C   UNL A   1      34.407  33.759  28.925  1.00  0.00     0.039 A 
ATOM     38  C   UNL A   1      34.374  32.992  30.091  1.00  0.00     0.014 A 
ATOM     39  C   UNL A   1      35.625  34.097  28.328  1.00  0.00     0.014 A 
ATOM     40  C   UNL A   1      35.567  32.511  30.625  1.00  0.00     0.010 A 
ATOM     41  C   UNL A   1      36.799  33.534  28.803  1.00  0.00     0.010 A 
ATOM     42  C   UNL A   1      36.782  32.747  29.962  1.00  0.00    -0.014 A 
BRANCH  42  43
ATOM     43  C   UNL A   1      38.056  32.194  30.471  1.00  0.00     0.031 A 
ATOM     44  C   UNL A   1      38.590  30.909  29.903  1.00  0.00     0.074 A 
ATOM     45  C   UNL A   1      38.688  32.810  31.487  1.00  0.00     0.049 A 
ATOM     46  N   UNL A   1      39.647  30.225  30.263  1.00  0.00    -0.248 NA
ATOM     47  C   UNL A   1      37.821  30.294  28.808  1.00  0.00     0.031 C 
ATOM     48  C   UNL A   1      38.239  34.039  32.146  1.00  0.00     0.029 A 
ATOM     49  N   UNL A   1      39.841  32.481  32.149  1.00  0.00    -0.354 N 
ATOM     50  C   UNL A   1      39.654  29.097  29.453  1.00  0.00     0.074 A 
ATOM     51  C   UNL A   1      38.470  29.154  28.627  1.00  0.00     0.031 C 
ATOM     52  C   UNL A   1      39.127  34.379  33.094  1.00  0.00     0.029 A 
ATOM     53  C   UNL A   1      40.176  33.367  33.145  1.00  0.00     0.049 A 
ATOM     54  H   UNL A   1      40.380  31.686  31.932  1.00  0.00     0.167 HD
ATOM     55  C   UNL A   1      40.580  28.111  29.388  1.00  0.00     0.031 A 
ATOM     56  C   UNL A   1      41.207  33.355  34.009  1.00  0.00     0.031 A 
ATOM     57  C   UNL A   1      41.759  28.064  30.209  1.00  0.00     0.049 A 
ATOM     58  C   UNL A   1      42.205  32.234  33.935  1.00  0.00     0.074 A 
ATOM     59  C   UNL A   1      42.789  27.141  30.184  1.00  0.00     0.029 A 
ATOM     60  N   UNL A   1      42.061  28.979  31.206  1.00  0.00    -0.354 N 
ATOM     61  N   UNL A   1      42.241  31.212  33.113  1.00  0.00    -0.248 NA
ATOM     62  C   UNL A   1      43.309  32.269  34.903  1.00  0.00     0.031 C 
ATOM     63  C   UNL A   1      43.684  27.462  31.209  1.00  0.00     0.029 A 
ATOM     64  C   UNL A   1      43.246  28.623  31.827  1.00  0.00     0.049 A 
ATOM     65  H   UNL A   1      41.515  29.764  31.438  1.00  0.00     0.167 HD
ATOM     66  C   UNL A   1      43.384  30.498  33.447  1.00  0.00     0.074 A 
ATOM     67  C   UNL A   1      44.023  31.215  34.532  1.00  0.00     0.031 C 
ATOM     68  C   UNL A   1      43.863  29.350  32.907  1.00  0.00     0.031 A 
BRANCH  55  69
ATOM     69  C   UNL A   1      40.342  27.001  28.403  1.00  0.00    -0.014 A 
ATOM     70  C   UNL A   1      39.598  25.861  28.751  1.00  0.00     0.009 A 
ATOM     71  C   UNL A   1      40.846  27.106  27.098  1.00  0.00     0.009 A 
ATOM     72  C   UNL A   1      39.398  24.834  27.826  1.00  0.00     0.001 A 
ATOM     73  C   UNL A   1      40.615  26.094  26.164  1.00  0.00     0.001 A 
ATOM     74  C   UNL A   1      39.901  24.955  26.532  1.00  0.00     0.000 A 
ENDBRANCH  55  69
BRANCH  56  75
ATOM     75  C   UNL A   1      41.352  34.442  35.013  1.00  0.00    -0.014 A 
ATOM     76  C   UNL A   1      40.739  34.336  36.272  1.00  0.00     0.009 A 
ATOM     77  C   UNL A   1      42.097  35.595  34.717  1.00  0.00     0.009 A 
ATOM     78  C   UNL A   1      40.844  35.374  37.200  1.00  0.00     0.001 A 
ATOM     79  C   UNL A   1      42.227  36.617  35.659  1.00  0.00     0.001 A 
ATOM     80  C   UNL A   1      41.592  36.511  36.895  1.00  0.00     0.000 A 
ENDBRANCH  56  75
BRANCH  68  81
ATOM     81  C   UNL A   1      45.154  28.818  33.462  1.00  0.00    -0.014 A 
ATOM     82  C   UNL A   1      45.170  27.886  34.511  1.00  0.00     0.009 A 
ATOM     83  C   UNL A   1      46.372  29.221  32.891  1.00  0.00     0.009 A 
ATOM     84  C   UNL A   1      46.382  27.398  35.001  1.00  0.00     0.001 A 
ATOM     85  C   UNL A   1      47.580  28.705  33.360  1.00  0.00     0.001 A 
ATOM     86  C   UNL A   1      47.584  27.802  34.421  1.00  0.00     0.000 A 
ENDBRANCH  68  81
ENDBRANCH  42  43
ENDBRANCH  34  37
ENDBRANCH  32  33
ENDBRANCH  31  32
ENDBRANCH  30  31
ENDBRANCH   3  30
TORSDOF 16
ENDMDL
