MODEL 1
REMARK VINA RESULT:     -12.0      0.000      0.000
REMARK SMILES CCn1cc(S(=O)(=O)N2CCC(CCc3ccc(C(=O)NCCCNC(=O)c4ccc(-c5c6nc(c(-c7ccccc7)c7ccc([nH]7)c(-c7ccccc7)c7nc(c(-c8ccccc8)c8ccc5[nH]8)C=C7)C=C6)cc4)cc3)CC2)cn1
REMARK SMILES IDX 19 1 20 2 21 3 18 5 15 6 16 7 77 8 17 9 76 10 14 11 13 12
REMARK SMILES IDX 12 13 9 14 10 15 79 16 11 17 78 18 6 19 7 20 8 21 5 22 3 23
REMARK SMILES IDX 4 24 81 25 80 26 2 27 1 28 22 29 23 30 24 31 25 32 26 33
REMARK SMILES IDX 27 35 28 36 29 37 75 38 30 39 74 40 31 41 32 42 33 43 68 44
REMARK SMILES IDX 34 45 73 46 67 47 69 48 35 49 72 50 66 51 65 52 36 54 58 55
REMARK SMILES IDX 43 56 57 57 44 58 47 59 56 60 70 61 45 62 46 63 55 65 71 66
REMARK SMILES IDX 48 67 37 68 38 69 42 70 39 71 41 72 40 73 59 74 60 75 64 76
REMARK SMILES IDX 61 77 63 78 62 79 49 80 50 81 54 82 51 83 53 84 52 85
REMARK H PARENT 21 4 25 34 69 53 47 64
REMARK Flexibility Score: inf
ROOT
ATOM      1  C   UNL A   1      31.224  26.075  26.057  1.00  0.00     0.251 C 
ATOM      2  O   UNL A   1      30.102  25.651  25.779  1.00  0.00    -0.269 OA
ATOM      3  N   UNL A   1      31.309  27.204  26.839  1.00  0.00    -0.352 N 
ATOM      4  H   UNL A   1      30.437  27.579  27.096  1.00  0.00     0.163 HD
ENDROOT
BRANCH   1   5
ATOM      5  C   UNL A   1      32.420  25.338  25.562  1.00  0.00     0.039 A 
ATOM      6  C   UNL A   1      34.659  23.963  24.522  1.00  0.00    -0.048 A 
ATOM      7  C   UNL A   1      33.871  24.765  23.690  1.00  0.00     0.004 A 
ATOM      8  C   UNL A   1      34.314  23.857  25.866  1.00  0.00     0.004 A 
ATOM      9  C   UNL A   1      32.755  25.440  24.204  1.00  0.00     0.014 A 
ATOM     10  C   UNL A   1      33.245  24.574  26.380  1.00  0.00     0.014 A 
BRANCH   6  11
ATOM     11  C   UNL A   1      35.901  23.265  24.032  1.00  0.00     0.036 C 
BRANCH  11  12
ATOM     12  C   UNL A   1      35.983  21.794  24.477  1.00  0.00     0.008 C 
BRANCH  12  13
ATOM     13  C   UNL A   1      37.194  21.415  25.358  1.00  0.00    -0.008 C 
ATOM     14  N   UNL A   1      39.981  21.043  26.138  1.00  0.00    -0.198 NA
ATOM     15  C   UNL A   1      39.138  19.883  25.767  1.00  0.00     0.103 C 
ATOM     16  C   UNL A   1      39.270  22.295  26.510  1.00  0.00     0.103 C 
ATOM     17  C   UNL A   1      38.047  20.282  24.778  1.00  0.00     0.020 C 
ATOM     18  C   UNL A   1      38.119  22.621  25.560  1.00  0.00     0.020 C 
BRANCH  14  19
ATOM     19  S   UNL A   1      41.319  20.660  27.146  1.00  0.00     0.246 S 
ATOM     20  O   UNL A   1      40.906  19.686  28.117  1.00  0.00    -0.207 OA
ATOM     21  O   UNL A   1      41.981  21.902  27.524  1.00  0.00    -0.207 OA
BRANCH  19  22
ATOM     22  C   UNL A   1      42.517  19.839  26.232  1.00  0.00     0.120 A 
ATOM     23  N   UNL A   1      44.193  19.311  24.930  1.00  0.00    -0.272 N 
ATOM     24  C   UNL A   1      43.600  20.362  25.566  1.00  0.00     0.130 A 
ATOM     25  N   UNL A   1      43.596  18.132  25.186  1.00  0.00    -0.180 NA
ATOM     26  C   UNL A   1      42.565  18.460  25.979  1.00  0.00     0.156 A 
BRANCH  23  27
ATOM     27  C   UNL A   1      45.311  19.383  24.008  1.00  0.00     0.141 C 
ATOM     28  C   UNL A   1      46.540  20.031  24.621  1.00  0.00     0.029 C 
ENDBRANCH  23  27
ENDBRANCH  19  22
ENDBRANCH  14  19
ENDBRANCH  12  13
ENDBRANCH  11  12
ENDBRANCH   6  11
ENDBRANCH   1   5
BRANCH   3  29
ATOM     29  C   UNL A   1      32.453  27.950  27.357  1.00  0.00     0.118 C 
BRANCH  29  30
ATOM     30  C   UNL A   1      32.245  29.466  27.221  1.00  0.00     0.042 C 
BRANCH  30  31
ATOM     31  C   UNL A   1      33.537  30.203  26.975  1.00  0.00     0.118 C 
BRANCH  31  32
ATOM     32  N   UNL A   1      33.663  31.453  27.722  1.00  0.00    -0.352 N 
ATOM     33  C   UNL A   1      34.623  31.806  28.662  1.00  0.00     0.251 C 
ATOM     34  H   UNL A   1      32.978  32.134  27.535  1.00  0.00     0.163 HD
ATOM     35  O   UNL A   1      34.427  32.740  29.431  1.00  0.00    -0.269 OA
BRANCH  33  36
ATOM     36  C   UNL A   1      35.891  31.052  28.721  1.00  0.00     0.039 A 
ATOM     37  C   UNL A   1      36.068  29.756  28.229  1.00  0.00     0.014 A 
ATOM     38  C   UNL A   1      36.955  31.666  29.337  1.00  0.00     0.014 A 
ATOM     39  C   UNL A   1      37.304  29.135  28.443  1.00  0.00     0.010 A 
ATOM     40  C   UNL A   1      38.194  31.262  28.991  1.00  0.00     0.010 A 
ATOM     41  C   UNL A   1      38.365  29.913  28.905  1.00  0.00    -0.014 A 
BRANCH  41  42
ATOM     42  C   UNL A   1      39.708  29.453  29.184  1.00  0.00     0.031 A 
ATOM     43  C   UNL A   1      39.896  29.066  30.591  1.00  0.00     0.074 A 
ATOM     44  C   UNL A   1      40.598  29.138  28.213  1.00  0.00     0.049 A 
ATOM     45  N   UNL A   1      40.485  29.753  31.507  1.00  0.00    -0.248 NA
ATOM     46  C   UNL A   1      39.168  27.887  31.085  1.00  0.00     0.031 C 
ATOM     47  C   UNL A   1      40.423  29.105  26.752  1.00  0.00     0.029 A 
ATOM     48  N   UNL A   1      41.865  28.670  28.358  1.00  0.00    -0.354 N 
ATOM     49  C   UNL A   1      40.402  28.977  32.652  1.00  0.00     0.074 A 
ATOM     50  C   UNL A   1      39.383  27.992  32.397  1.00  0.00     0.031 C 
ATOM     51  C   UNL A   1      41.461  28.447  26.180  1.00  0.00     0.029 A 
ATOM     52  C   UNL A   1      42.445  28.152  27.205  1.00  0.00     0.049 A 
ATOM     53  H   UNL A   1      42.341  28.697  29.220  1.00  0.00     0.167 HD
ATOM     54  C   UNL A   1      41.389  29.009  33.588  1.00  0.00     0.031 A 
ATOM     55  C   UNL A   1      43.636  27.504  27.130  1.00  0.00     0.031 A 
ATOM     56  C   UNL A   1      42.291  30.112  33.359  1.00  0.00     0.049 A 
ATOM     57  C   UNL A   1      44.398  27.852  28.355  1.00  0.00     0.074 A 
ATOM     58  C   UNL A   1      42.151  31.485  33.291  1.00  0.00     0.029 A 
ATOM     59  N   UNL A   1      43.471  29.821  32.710  1.00  0.00    -0.354 N 
ATOM     60  N   UNL A   1      44.826  29.057  28.607  1.00  0.00    -0.248 NA
ATOM     61  C   UNL A   1      44.251  26.987  29.515  1.00  0.00     0.031 C 
ATOM     62  C   UNL A   1      42.986  31.886  32.205  1.00  0.00     0.029 A 
ATOM     63  C   UNL A   1      43.652  30.756  31.723  1.00  0.00     0.049 A 
ATOM     64  H   UNL A   1      44.077  29.073  32.918  1.00  0.00     0.167 HD
ATOM     65  C   UNL A   1      44.575  29.246  29.960  1.00  0.00     0.074 A 
ATOM     66  C   UNL A   1      44.310  27.907  30.485  1.00  0.00     0.031 C 
ATOM     67  C   UNL A   1      44.311  30.489  30.462  1.00  0.00     0.031 A 
BRANCH  54  68
ATOM     68  C   UNL A   1      41.790  27.812  34.411  1.00  0.00    -0.014 A 
ATOM     69  C   UNL A   1      41.662  27.895  35.807  1.00  0.00     0.009 A 
ATOM     70  C   UNL A   1      42.529  26.725  33.908  1.00  0.00     0.009 A 
ATOM     71  C   UNL A   1      42.307  26.985  36.652  1.00  0.00     0.001 A 
ATOM     72  C   UNL A   1      43.140  25.790  34.746  1.00  0.00     0.001 A 
ATOM     73  C   UNL A   1      43.054  25.939  36.120  1.00  0.00     0.000 A 
ENDBRANCH  54  68
BRANCH  55  74
ATOM     74  C   UNL A   1      44.038  26.383  26.247  1.00  0.00    -0.014 A 
ATOM     75  C   UNL A   1      45.293  26.371  25.617  1.00  0.00     0.009 A 
ATOM     76  C   UNL A   1      43.303  25.184  26.256  1.00  0.00     0.009 A 
ATOM     77  C   UNL A   1      45.809  25.193  25.052  1.00  0.00     0.001 A 
ATOM     78  C   UNL A   1      43.817  24.009  25.695  1.00  0.00     0.001 A 
ATOM     79  C   UNL A   1      45.076  24.009  25.106  1.00  0.00     0.000 A 
ENDBRANCH  55  74
BRANCH  67  80
ATOM     80  C   UNL A   1      44.498  31.675  29.541  1.00  0.00    -0.014 A 
ATOM     81  C   UNL A   1      43.470  32.192  28.729  1.00  0.00     0.009 A 
ATOM     82  C   UNL A   1      45.698  32.392  29.621  1.00  0.00     0.009 A 
ATOM     83  C   UNL A   1      43.651  33.377  28.006  1.00  0.00     0.001 A 
ATOM     84  C   UNL A   1      45.873  33.584  28.915  1.00  0.00     0.001 A 
ATOM     85  C   UNL A   1      44.853  34.075  28.104  1.00  0.00     0.000 A 
ENDBRANCH  67  80
ENDBRANCH  41  42
ENDBRANCH  33  36
ENDBRANCH  31  32
ENDBRANCH  30  31
ENDBRANCH  29  30
ENDBRANCH   3  29
TORSDOF 16
ENDMDL
MODEL 2
REMARK VINA RESULT:     -11.7      2.225      5.248
REMARK SMILES CCn1cc(S(=O)(=O)N2CCC(CCc3ccc(C(=O)NCCCNC(=O)c4ccc(-c5c6nc(c(-c7ccccc7)c7ccc([nH]7)c(-c7ccccc7)c7nc(c(-c8ccccc8)c8ccc5[nH]8)C=C7)C=C6)cc4)cc3)CC2)cn1
REMARK SMILES IDX 19 1 20 2 21 3 18 5 15 6 16 7 77 8 17 9 76 10 14 11 13 12
REMARK SMILES IDX 12 13 9 14 10 15 79 16 11 17 78 18 6 19 7 20 8 21 5 22 3 23
REMARK SMILES IDX 4 24 81 25 80 26 2 27 1 28 22 29 23 30 24 31 25 32 26 33
REMARK SMILES IDX 27 35 28 36 29 37 75 38 30 39 74 40 31 41 32 42 33 43 68 44
REMARK SMILES IDX 34 45 73 46 67 47 69 48 35 49 72 50 66 51 65 52 36 54 58 55
REMARK SMILES IDX 43 56 57 57 44 58 47 59 56 60 70 61 45 62 46 63 55 65 71 66
REMARK SMILES IDX 48 67 37 68 38 69 42 70 39 71 41 72 40 73 59 74 60 75 64 76
REMARK SMILES IDX 61 77 63 78 62 79 49 80 50 81 54 82 51 83 53 84 52 85
REMARK H PARENT 21 4 25 34 69 53 47 64
REMARK Flexibility Score: inf
ROOT
ATOM      1  C   UNL A   1      31.020  25.766  26.420  1.00  0.00     0.251 C 
ATOM      2  O   UNL A   1      29.927  25.202  26.489  1.00  0.00    -0.269 OA
ATOM      3  N   UNL A   1      31.107  27.058  26.883  1.00  0.00    -0.352 N 
ATOM      4  H   UNL A   1      30.258  27.419  27.223  1.00  0.00     0.163 HD
ENDROOT
BRANCH   1   5
ATOM      5  C   UNL A   1      32.187  25.020  25.870  1.00  0.00     0.039 A 
ATOM      6  C   UNL A   1      34.390  23.662  24.736  1.00  0.00    -0.048 A 
ATOM      7  C   UNL A   1      33.860  24.797  24.112  1.00  0.00     0.004 A 
ATOM      8  C   UNL A   1      33.808  23.220  25.920  1.00  0.00     0.004 A 
ATOM      9  C   UNL A   1      32.760  25.464  24.670  1.00  0.00     0.014 A 
ATOM     10  C   UNL A   1      32.760  23.919  26.498  1.00  0.00     0.014 A 
BRANCH   6  11
ATOM     11  C   UNL A   1      35.605  22.944  24.209  1.00  0.00     0.036 C 
BRANCH  11  12
ATOM     12  C   UNL A   1      35.659  21.463  24.623  1.00  0.00     0.008 C 
BRANCH  12  13
ATOM     13  C   UNL A   1      36.956  20.996  25.319  1.00  0.00    -0.008 C 
ATOM     14  N   UNL A   1      39.799  20.457  25.698  1.00  0.00    -0.198 NA
ATOM     15  C   UNL A   1      38.849  19.353  25.423  1.00  0.00     0.103 C 
ATOM     16  C   UNL A   1      39.216  21.733  26.190  1.00  0.00     0.103 C 
ATOM     17  C   UNL A   1      37.656  19.836  24.603  1.00  0.00     0.020 C 
ATOM     18  C   UNL A   1      37.966  22.146  25.416  1.00  0.00     0.020 C 
BRANCH  14  19
ATOM     19  S   UNL A   1      41.239  19.976  26.502  1.00  0.00     0.246 S 
ATOM     20  O   UNL A   1      41.544  18.620  26.138  1.00  0.00    -0.207 OA
ATOM     21  O   UNL A   1      41.157  20.408  27.890  1.00  0.00    -0.207 OA
BRANCH  19  22
ATOM     22  C   UNL A   1      42.570  20.869  25.890  1.00  0.00     0.120 A 
ATOM     23  N   UNL A   1      44.530  21.519  25.169  1.00  0.00    -0.272 N 
ATOM     24  C   UNL A   1      43.806  20.410  25.497  1.00  0.00     0.130 A 
ATOM     25  N   UNL A   1      43.825  22.661  25.270  1.00  0.00    -0.180 NA
ATOM     26  C   UNL A   1      42.627  22.260  25.719  1.00  0.00     0.156 A 
BRANCH  23  27
ATOM     27  C   UNL A   1      45.933  21.552  24.802  1.00  0.00     0.141 C 
ATOM     28  C   UNL A   1      46.535  20.167  24.646  1.00  0.00     0.029 C 
ENDBRANCH  23  27
ENDBRANCH  19  22
ENDBRANCH  14  19
ENDBRANCH  12  13
ENDBRANCH  11  12
ENDBRANCH   6  11
ENDBRANCH   1   5
BRANCH   3  29
ATOM     29  C   UNL A   1      32.225  27.994  26.964  1.00  0.00     0.118 C 
BRANCH  29  30
ATOM     30  C   UNL A   1      31.746  29.417  27.292  1.00  0.00     0.042 C 
BRANCH  30  31
ATOM     31  C   UNL A   1      32.545  30.472  26.571  1.00  0.00     0.118 C 
BRANCH  31  32
ATOM     32  N   UNL A   1      32.023  31.829  26.728  1.00  0.00    -0.352 N 
ATOM     33  C   UNL A   1      32.544  32.875  27.478  1.00  0.00     0.251 C 
ATOM     34  H   UNL A   1      31.192  32.026  26.239  1.00  0.00     0.163 HD
ATOM     35  O   UNL A   1      31.846  33.838  27.772  1.00  0.00    -0.269 OA
BRANCH  33  36
ATOM     36  C   UNL A   1      33.955  32.823  27.910  1.00  0.00     0.039 A 
ATOM     37  C   UNL A   1      34.894  33.831  27.677  1.00  0.00     0.014 A 
ATOM     38  C   UNL A   1      34.370  31.682  28.553  1.00  0.00     0.014 A 
ATOM     39  C   UNL A   1      36.219  33.598  28.063  1.00  0.00     0.010 A 
ATOM     40  C   UNL A   1      35.439  31.781  29.370  1.00  0.00     0.010 A 
ATOM     41  C   UNL A   1      36.488  32.495  28.874  1.00  0.00    -0.014 A 
BRANCH  41  42
ATOM     42  C   UNL A   1      37.786  32.092  29.371  1.00  0.00     0.031 A 
ATOM     43  C   UNL A   1      38.059  30.663  29.156  1.00  0.00     0.074 A 
ATOM     44  C   UNL A   1      38.749  32.977  29.724  1.00  0.00     0.049 A 
ATOM     45  N   UNL A   1      37.994  29.725  30.035  1.00  0.00    -0.248 NA
ATOM     46  C   UNL A   1      38.214  30.191  27.771  1.00  0.00     0.031 C 
ATOM     47  C   UNL A   1      38.758  34.445  29.627  1.00  0.00     0.029 A 
ATOM     48  N   UNL A   1      40.005  32.714  30.170  1.00  0.00    -0.354 N 
ATOM     49  C   UNL A   1      38.331  28.565  29.354  1.00  0.00     0.074 A 
ATOM     50  C   UNL A   1      38.202  28.871  27.953  1.00  0.00     0.031 C 
ATOM     51  C   UNL A   1      40.020  34.909  29.799  1.00  0.00     0.029 A 
ATOM     52  C   UNL A   1      40.876  33.797  30.174  1.00  0.00     0.049 A 
ATOM     53  H   UNL A   1      40.280  31.817  30.471  1.00  0.00     0.167 HD
ATOM     54  C   UNL A   1      38.987  27.554  29.984  1.00  0.00     0.031 A 
ATOM     55  C   UNL A   1      42.207  33.755  30.438  1.00  0.00     0.031 A 
ATOM     56  C   UNL A   1      38.992  27.744  31.415  1.00  0.00     0.049 A 
ATOM     57  C   UNL A   1      42.465  32.483  31.161  1.00  0.00     0.074 A 
ATOM     58  C   UNL A   1      38.013  27.868  32.382  1.00  0.00     0.029 A 
ATOM     59  N   UNL A   1      40.134  28.285  31.963  1.00  0.00    -0.354 N 
ATOM     60  N   UNL A   1      42.001  32.236  32.353  1.00  0.00    -0.248 NA
ATOM     61  C   UNL A   1      42.808  31.312  30.370  1.00  0.00     0.031 C 
ATOM     62  C   UNL A   1      38.486  28.895  33.253  1.00  0.00     0.029 A 
ATOM     63  C   UNL A   1      39.758  29.284  32.824  1.00  0.00     0.049 A 
ATOM     64  H   UNL A   1      41.057  28.004  31.770  1.00  0.00     0.167 HD
ATOM     65  C   UNL A   1      41.576  30.916  32.301  1.00  0.00     0.074 A 
ATOM     66  C   UNL A   1      42.184  30.370  31.088  1.00  0.00     0.031 C 
ATOM     67  C   UNL A   1      40.538  30.477  33.075  1.00  0.00     0.031 A 
BRANCH  54  68
ATOM     68  C   UNL A   1      39.989  26.662  29.298  1.00  0.00    -0.014 A 
ATOM     69  C   UNL A   1      41.298  27.142  29.130  1.00  0.00     0.009 A 
ATOM     70  C   UNL A   1      39.644  25.501  28.579  1.00  0.00     0.009 A 
ATOM     71  C   UNL A   1      42.184  26.538  28.230  1.00  0.00     0.001 A 
ATOM     72  C   UNL A   1      40.539  24.871  27.712  1.00  0.00     0.001 A 
ATOM     73  C   UNL A   1      41.800  25.409  27.514  1.00  0.00     0.000 A 
ENDBRANCH  54  68
BRANCH  55  74
ATOM     74  C   UNL A   1      43.304  34.564  29.858  1.00  0.00    -0.014 A 
ATOM     75  C   UNL A   1      43.774  34.321  28.557  1.00  0.00     0.009 A 
ATOM     76  C   UNL A   1      43.692  35.767  30.477  1.00  0.00     0.009 A 
ATOM     77  C   UNL A   1      44.569  35.265  27.886  1.00  0.00     0.001 A 
ATOM     78  C   UNL A   1      44.484  36.708  29.808  1.00  0.00     0.001 A 
ATOM     79  C   UNL A   1      44.910  36.464  28.507  1.00  0.00     0.000 A 
ENDBRANCH  55  74
BRANCH  67  80
ATOM     80  C   UNL A   1      40.000  31.419  34.130  1.00  0.00    -0.014 A 
ATOM     81  C   UNL A   1      38.885  32.253  33.925  1.00  0.00     0.009 A 
ATOM     82  C   UNL A   1      40.533  31.336  35.423  1.00  0.00     0.009 A 
ATOM     83  C   UNL A   1      38.339  32.997  34.979  1.00  0.00     0.001 A 
ATOM     84  C   UNL A   1      39.978  32.063  36.479  1.00  0.00     0.001 A 
ATOM     85  C   UNL A   1      38.884  32.896  36.257  1.00  0.00     0.000 A 
ENDBRANCH  67  80
ENDBRANCH  41  42
ENDBRANCH  33  36
ENDBRANCH  31  32
ENDBRANCH  30  31
ENDBRANCH  29  30
ENDBRANCH   3  29
TORSDOF 16
ENDMDL
MODEL 3
REMARK VINA RESULT:     -11.6      3.425      9.505
REMARK SMILES CCn1cc(S(=O)(=O)N2CCC(CCc3ccc(C(=O)NCCCNC(=O)c4ccc(-c5c6nc(c(-c7ccccc7)c7ccc([nH]7)c(-c7ccccc7)c7nc(c(-c8ccccc8)c8ccc5[nH]8)C=C7)C=C6)cc4)cc3)CC2)cn1
REMARK SMILES IDX 19 1 20 2 21 3 18 5 15 6 16 7 77 8 17 9 76 10 14 11 13 12
REMARK SMILES IDX 12 13 9 14 10 15 79 16 11 17 78 18 6 19 7 20 8 21 5 22 3 23
REMARK SMILES IDX 4 24 81 25 80 26 2 27 1 28 22 29 23 30 24 31 25 32 26 33
REMARK SMILES IDX 27 35 28 36 29 37 75 38 30 39 74 40 31 41 32 42 33 43 68 44
REMARK SMILES IDX 34 45 73 46 67 47 69 48 35 49 72 50 66 51 65 52 36 54 58 55
REMARK SMILES IDX 43 56 57 57 44 58 47 59 56 60 70 61 45 62 46 63 55 65 71 66
REMARK SMILES IDX 48 67 37 68 38 69 42 70 39 71 41 72 40 73 59 74 60 75 64 76
REMARK SMILES IDX 61 77 63 78 62 79 49 80 50 81 54 82 51 83 53 84 52 85
REMARK H PARENT 21 4 25 34 69 53 47 64
REMARK Flexibility Score: inf
ROOT
ATOM      1  C   UNL A   1      33.299  22.360  25.583  1.00  0.00     0.251 C 
ATOM      2  O   UNL A   1      32.909  21.452  26.318  1.00  0.00    -0.269 OA
ATOM      3  N   UNL A   1      34.148  22.033  24.552  1.00  0.00    -0.352 N 
ATOM      4  H   UNL A   1      34.377  21.077  24.509  1.00  0.00     0.163 HD
ENDROOT
BRANCH   1   5
ATOM      5  C   UNL A   1      32.817  23.748  25.828  1.00  0.00     0.039 A 
ATOM      6  C   UNL A   1      32.002  26.410  26.314  1.00  0.00    -0.048 A 
ATOM      7  C   UNL A   1      33.361  26.094  26.204  1.00  0.00     0.004 A 
ATOM      8  C   UNL A   1      31.067  25.388  26.181  1.00  0.00     0.004 A 
ATOM      9  C   UNL A   1      33.765  24.771  25.973  1.00  0.00     0.014 A 
ATOM     10  C   UNL A   1      31.471  24.094  25.892  1.00  0.00     0.014 A 
BRANCH   6  11
ATOM     11  C   UNL A   1      31.515  27.822  26.505  1.00  0.00     0.036 C 
BRANCH  11  12
ATOM     12  C   UNL A   1      32.027  28.790  25.423  1.00  0.00     0.008 C 
BRANCH  12  13
ATOM     13  C   UNL A   1      32.563  30.150  25.922  1.00  0.00    -0.008 C 
ATOM     14  N   UNL A   1      33.246  32.287  27.788  1.00  0.00    -0.198 NA
ATOM     15  C   UNL A   1      32.073  32.410  26.891  1.00  0.00     0.103 C 
ATOM     16  C   UNL A   1      34.272  31.278  27.411  1.00  0.00     0.103 C 
ATOM     17  C   UNL A   1      31.488  31.044  26.548  1.00  0.00     0.020 C 
ATOM     18  C   UNL A   1      33.658  29.948  26.977  1.00  0.00     0.020 C 
BRANCH  14  19
ATOM     19  S   UNL A   1      33.889  33.784  28.334  1.00  0.00     0.246 S 
ATOM     20  O   UNL A   1      32.870  34.791  28.233  1.00  0.00    -0.207 OA
ATOM     21  O   UNL A   1      35.212  33.957  27.752  1.00  0.00    -0.207 OA
BRANCH  19  22
ATOM     22  C   UNL A   1      34.207  33.697  30.018  1.00  0.00     0.120 A 
ATOM     23  N   UNL A   1      34.502  34.132  32.141  1.00  0.00    -0.272 N 
ATOM     24  C   UNL A   1      34.022  34.663  30.980  1.00  0.00     0.130 A 
ATOM     25  N   UNL A   1      34.934  32.864  32.005  1.00  0.00    -0.180 NA
ATOM     26  C   UNL A   1      34.759  32.603  30.702  1.00  0.00     0.156 A 
BRANCH  23  27
ATOM     27  C   UNL A   1      34.626  34.818  33.413  1.00  0.00     0.141 C 
ATOM     28  C   UNL A   1      34.259  36.289  33.329  1.00  0.00     0.029 C 
ENDBRANCH  23  27
ENDBRANCH  19  22
ENDBRANCH  14  19
ENDBRANCH  12  13
ENDBRANCH  11  12
ENDBRANCH   6  11
ENDBRANCH   1   5
BRANCH   3  29
ATOM     29  C   UNL A   1      34.775  22.839  23.508  1.00  0.00     0.118 C 
BRANCH  29  30
ATOM     30  C   UNL A   1      36.298  22.640  23.479  1.00  0.00     0.042 C 
BRANCH  30  31
ATOM     31  C   UNL A   1      36.853  22.264  24.829  1.00  0.00     0.118 C 
BRANCH  31  32
ATOM     32  N   UNL A   1      37.287  20.871  24.930  1.00  0.00    -0.352 N 
ATOM     33  C   UNL A   1      38.517  20.376  25.341  1.00  0.00     0.251 C 
ATOM     34  H   UNL A   1      36.618  20.196  24.673  1.00  0.00     0.163 HD
ATOM     35  O   UNL A   1      38.845  19.226  25.076  1.00  0.00    -0.269 OA
BRANCH  33  36
ATOM     36  C   UNL A   1      39.427  21.246  26.113  1.00  0.00     0.039 A 
ATOM     37  C   UNL A   1      40.500  20.790  26.883  1.00  0.00     0.014 A 
ATOM     38  C   UNL A   1      39.167  22.596  26.093  1.00  0.00     0.014 A 
ATOM     39  C   UNL A   1      41.215  21.728  27.636  1.00  0.00     0.010 A 
ATOM     40  C   UNL A   1      40.195  23.432  26.343  1.00  0.00     0.010 A 
ATOM     41  C   UNL A   1      40.990  23.083  27.393  1.00  0.00    -0.014 A 
BRANCH  41  42
ATOM     42  C   UNL A   1      41.628  24.193  28.066  1.00  0.00     0.031 A 
ATOM     43  C   UNL A   1      40.819  25.420  28.033  1.00  0.00     0.074 A 
ATOM     44  C   UNL A   1      42.701  24.045  28.880  1.00  0.00     0.049 A 
ATOM     45  N   UNL A   1      40.997  26.441  27.268  1.00  0.00    -0.248 NA
ATOM     46  C   UNL A   1      39.550  25.431  28.777  1.00  0.00     0.031 C 
ATOM     47  C   UNL A   1      43.386  22.819  29.319  1.00  0.00     0.029 A 
ATOM     48  N   UNL A   1      43.357  25.004  29.583  1.00  0.00    -0.354 N 
ATOM     49  C   UNL A   1      39.987  27.328  27.604  1.00  0.00     0.074 A 
ATOM     50  C   UNL A   1      39.006  26.563  28.328  1.00  0.00     0.031 C 
ATOM     51  C   UNL A   1      44.207  23.098  30.361  1.00  0.00     0.029 A 
ATOM     52  C   UNL A   1      44.227  24.536  30.562  1.00  0.00     0.049 A 
ATOM     53  H   UNL A   1      43.226  25.965  29.412  1.00  0.00     0.167 HD
ATOM     54  C   UNL A   1      40.188  28.671  27.533  1.00  0.00     0.031 A 
ATOM     55  C   UNL A   1      44.882  25.293  31.479  1.00  0.00     0.031 A 
ATOM     56  C   UNL A   1      41.404  28.982  26.820  1.00  0.00     0.049 A 
ATOM     57  C   UNL A   1      44.880  26.688  30.972  1.00  0.00     0.074 A 
ATOM     58  C   UNL A   1      41.876  28.726  25.547  1.00  0.00     0.029 A 
ATOM     59  N   UNL A   1      42.514  29.263  27.584  1.00  0.00    -0.354 N 
ATOM     60  N   UNL A   1      45.519  27.055  29.897  1.00  0.00    -0.248 NA
ATOM     61  C   UNL A   1      43.780  27.553  31.369  1.00  0.00     0.031 C 
ATOM     62  C   UNL A   1      43.253  28.396  25.726  1.00  0.00     0.029 A 
ATOM     63  C   UNL A   1      43.569  28.547  27.079  1.00  0.00     0.049 A 
ATOM     64  H   UNL A   1      42.545  29.871  28.358  1.00  0.00     0.167 HD
ATOM     65  C   UNL A   1      44.646  27.913  29.242  1.00  0.00     0.074 A 
ATOM     66  C   UNL A   1      43.633  28.256  30.240  1.00  0.00     0.031 C 
ATOM     67  C   UNL A   1      44.656  28.026  27.880  1.00  0.00     0.031 A 
BRANCH  54  68
ATOM     68  C   UNL A   1      39.546  29.656  28.476  1.00  0.00    -0.014 A 
ATOM     69  C   UNL A   1      40.111  29.816  29.751  1.00  0.00     0.009 A 
ATOM     70  C   UNL A   1      38.274  30.224  28.272  1.00  0.00     0.009 A 
ATOM     71  C   UNL A   1      39.405  30.441  30.786  1.00  0.00     0.001 A 
ATOM     72  C   UNL A   1      37.583  30.885  29.289  1.00  0.00     0.001 A 
ATOM     73  C   UNL A   1      38.137  30.966  30.557  1.00  0.00     0.000 A 
ENDBRANCH  54  68
BRANCH  55  74
ATOM     74  C   UNL A   1      45.235  24.968  32.881  1.00  0.00    -0.014 A 
ATOM     75  C   UNL A   1      46.428  25.438  33.456  1.00  0.00     0.009 A 
ATOM     76  C   UNL A   1      44.260  24.439  33.746  1.00  0.00     0.009 A 
ATOM     77  C   UNL A   1      46.619  25.414  34.847  1.00  0.00     0.001 A 
ATOM     78  C   UNL A   1      44.450  24.416  35.133  1.00  0.00     0.001 A 
ATOM     79  C   UNL A   1      45.623  24.918  35.685  1.00  0.00     0.000 A 
ENDBRANCH  55  74
BRANCH  67  80
ATOM     80  C   UNL A   1      45.775  27.342  27.125  1.00  0.00    -0.014 A 
ATOM     81  C   UNL A   1      45.783  25.965  26.836  1.00  0.00     0.009 A 
ATOM     82  C   UNL A   1      46.767  28.144  26.546  1.00  0.00     0.009 A 
ATOM     83  C   UNL A   1      46.768  25.408  26.011  1.00  0.00     0.001 A 
ATOM     84  C   UNL A   1      47.739  27.592  25.707  1.00  0.00     0.001 A 
ATOM     85  C   UNL A   1      47.743  26.225  25.443  1.00  0.00     0.000 A 
ENDBRANCH  67  80
ENDBRANCH  41  42
ENDBRANCH  33  36
ENDBRANCH  31  32
ENDBRANCH  30  31
ENDBRANCH  29  30
ENDBRANCH   3  29
TORSDOF 16
ENDMDL
