MODEL 1
REMARK VINA RESULT:     -10.1      0.000      0.000
REMARK SMILES CCOc1ccc(-c2cc(Cl)cc3c2O[C@H](C(F)(F)F)C(C(=O)NCCCNC(=O)c2ccc(-c4c5nc(c(-c6ccccc6)c6ccc([nH]6)c(-c6ccccc6)c6nc(c(-c7ccccc7)c7ccc4[nH]7)C=C6)C=C5)cc2)=C3)cc1
REMARK SMILES IDX 25 1 24 2 22 3 23 4 21 6 8 7 9 8 14 9 10 10 13 11 15 12
REMARK SMILES IDX 11 13 12 14 79 15 16 16 7 17 4 18 5 19 81 20 6 21 80 22 3 23
REMARK SMILES IDX 2 24 1 25 17 26 18 27 19 28 20 29 26 30 27 31 28 32 29 33
REMARK SMILES IDX 30 35 31 36 32 37 78 38 33 39 77 40 34 41 35 42 36 43 71 44
REMARK SMILES IDX 37 45 76 46 70 47 72 48 38 49 75 50 69 51 68 52 39 54 61 55
REMARK SMILES IDX 46 56 60 57 47 58 50 59 59 60 73 61 48 62 49 63 58 65 74 66
REMARK SMILES IDX 51 67 40 68 41 69 45 70 42 71 44 72 43 73 62 74 63 75 67 76
REMARK SMILES IDX 64 77 66 78 65 79 52 80 53 81 57 82 54 83 56 84 55 85
REMARK H PARENT 24 5 28 34 72 53 50 64
REMARK Flexibility Score: inf
ROOT
ATOM      1  C   UNL A   1      42.620  21.687  27.956  1.00  0.00     0.118 C 
ENDROOT
BRANCH   1   2
ATOM      2  N   UNL A   1      43.089  23.047  28.133  1.00  0.00    -0.352 N 
ATOM      3  C   UNL A   1      44.181  23.599  27.547  1.00  0.00     0.251 C 
ATOM      4  O   UNL A   1      44.924  24.329  28.193  1.00  0.00    -0.270 OA
ATOM      5  H   UNL A   1      42.564  23.626  28.732  1.00  0.00     0.163 HD
BRANCH   3   6
ATOM      6  C   UNL A   1      44.336  23.385  26.079  1.00  0.00     0.067 C 
ATOM      7  C   UNL A   1      47.150  26.207  25.249  1.00  0.00     0.026 A 
ATOM      8  C   UNL A   1      46.772  27.419  25.876  1.00  0.00     0.033 A 
ATOM      9  C   UNL A   1      46.172  25.202  25.182  1.00  0.00     0.135 A 
ATOM     10  C   UNL A   1      45.460  27.672  26.277  1.00  0.00     0.042 A 
ATOM     11  C   UNL A   1      44.826  25.514  25.492  1.00  0.00     0.019 A 
ATOM     12  O   UNL A   1      46.470  23.892  24.844  1.00  0.00    -0.475 OA
ATOM     13  Cl  UNL A   1      45.075  29.162  27.044  1.00  0.00    -0.084 Cl
ATOM     14  C   UNL A   1      44.464  26.744  26.029  1.00  0.00     0.032 A 
ATOM     15  C   UNL A   1      43.830  24.423  25.383  1.00  0.00     0.025 C 
ATOM     16  C   UNL A   1      45.719  22.899  25.658  1.00  0.00     0.314 C 
BRANCH   7  17
ATOM     17  C   UNL A   1      48.455  26.218  24.548  1.00  0.00    -0.014 A 
ATOM     18  C   UNL A   1      50.912  27.162  23.523  1.00  0.00     0.119 A 
ATOM     19  C   UNL A   1      50.882  26.476  24.734  1.00  0.00     0.047 A 
ATOM     20  C   UNL A   1      49.754  27.261  22.760  1.00  0.00     0.047 A 
ATOM     21  C   UNL A   1      49.663  26.002  25.240  1.00  0.00     0.013 A 
ATOM     22  C   UNL A   1      48.536  26.792  23.266  1.00  0.00     0.013 A 
BRANCH  18  23
ATOM     23  O   UNL A   1      52.111  27.658  23.091  1.00  0.00    -0.494 OA
BRANCH  23  24
ATOM     24  C   UNL A   1      52.960  26.670  22.487  1.00  0.00     0.226 C 
ATOM     25  C   UNL A   1      53.421  27.112  21.106  1.00  0.00     0.049 C 
ENDBRANCH  23  24
ENDBRANCH  18  23
ENDBRANCH   7  17
BRANCH  16  26
ATOM     26  C   UNL A   1      45.572  21.551  24.921  1.00  0.00     0.429 C 
ATOM     27  F   UNL A   1      46.758  20.949  24.685  1.00  0.00    -0.167 F 
ATOM     28  F   UNL A   1      44.809  20.687  25.635  1.00  0.00    -0.167 F 
ATOM     29  F   UNL A   1      44.962  21.683  23.714  1.00  0.00    -0.167 F 
ENDBRANCH  16  26
ENDBRANCH   3   6
ENDBRANCH   1   2
BRANCH   1  30
ATOM     30  C   UNL A   1      41.140  21.692  27.572  1.00  0.00     0.042 C 
BRANCH  30  31
ATOM     31  C   UNL A   1      40.875  21.908  26.083  1.00  0.00     0.118 C 
BRANCH  31  32
ATOM     32  N   UNL A   1      39.471  22.132  25.774  1.00  0.00    -0.352 N 
ATOM     33  C   UNL A   1      38.675  23.196  26.126  1.00  0.00     0.251 C 
ATOM     34  H   UNL A   1      39.033  21.428  25.242  1.00  0.00     0.163 HD
ATOM     35  O   UNL A   1      37.470  23.179  25.893  1.00  0.00    -0.269 OA
BRANCH  33  36
ATOM     36  C   UNL A   1      39.281  24.348  26.821  1.00  0.00     0.039 A 
ATOM     37  C   UNL A   1      40.049  25.255  26.088  1.00  0.00     0.014 A 
ATOM     38  C   UNL A   1      39.043  24.557  28.182  1.00  0.00     0.014 A 
ATOM     39  C   UNL A   1      40.512  26.419  26.703  1.00  0.00     0.010 A 
ATOM     40  C   UNL A   1      39.440  25.751  28.772  1.00  0.00     0.010 A 
ATOM     41  C   UNL A   1      40.174  26.697  28.037  1.00  0.00    -0.014 A 
BRANCH  41  42
ATOM     42  C   UNL A   1      40.555  27.977  28.688  1.00  0.00     0.031 A 
ATOM     43  C   UNL A   1      41.918  28.134  29.301  1.00  0.00     0.074 A 
ATOM     44  C   UNL A   1      39.641  28.959  28.817  1.00  0.00     0.049 A 
ATOM     45  N   UNL A   1      42.396  29.123  30.012  1.00  0.00    -0.248 NA
ATOM     46  C   UNL A   1      42.853  27.013  29.121  1.00  0.00     0.031 C 
ATOM     47  C   UNL A   1      38.267  28.914  28.314  1.00  0.00     0.029 A 
ATOM     48  N   UNL A   1      39.730  30.182  29.435  1.00  0.00    -0.354 N 
ATOM     49  C   UNL A   1      43.671  28.729  30.394  1.00  0.00     0.074 A 
ATOM     50  C   UNL A   1      43.875  27.394  29.873  1.00  0.00     0.031 C 
ATOM     51  C   UNL A   1      37.649  30.064  28.626  1.00  0.00     0.029 A 
ATOM     52  C   UNL A   1      38.564  30.907  29.387  1.00  0.00     0.049 A 
ATOM     53  H   UNL A   1      40.550  30.508  29.870  1.00  0.00     0.167 HD
ATOM     54  C   UNL A   1      44.597  29.419  31.101  1.00  0.00     0.031 A 
ATOM     55  C   UNL A   1      38.260  32.111  29.907  1.00  0.00     0.031 A 
ATOM     56  C   UNL A   1      44.402  30.754  31.602  1.00  0.00     0.049 A 
ATOM     57  C   UNL A   1      39.305  32.868  30.674  1.00  0.00     0.074 A 
ATOM     58  C   UNL A   1      45.305  31.568  32.262  1.00  0.00     0.029 A 
ATOM     59  N   UNL A   1      43.217  31.468  31.501  1.00  0.00    -0.354 N 
ATOM     60  N   UNL A   1      40.534  32.513  30.963  1.00  0.00    -0.248 NA
ATOM     61  C   UNL A   1      38.927  34.195  31.176  1.00  0.00     0.031 C 
ATOM     62  C   UNL A   1      44.651  32.756  32.604  1.00  0.00     0.029 A 
ATOM     63  C   UNL A   1      43.358  32.704  32.107  1.00  0.00     0.049 A 
ATOM     64  H   UNL A   1      42.398  31.143  31.062  1.00  0.00     0.167 HD
ATOM     65  C   UNL A   1      41.083  33.582  31.660  1.00  0.00     0.074 A 
ATOM     66  C   UNL A   1      40.057  34.602  31.738  1.00  0.00     0.031 C 
ATOM     67  C   UNL A   1      42.327  33.708  32.183  1.00  0.00     0.031 A 
BRANCH  54  68
ATOM     68  C   UNL A   1      45.901  28.725  31.386  1.00  0.00    -0.014 A 
ATOM     69  C   UNL A   1      46.972  28.776  30.479  1.00  0.00     0.009 A 
ATOM     70  C   UNL A   1      46.061  28.010  32.584  1.00  0.00     0.009 A 
ATOM     71  C   UNL A   1      48.155  28.081  30.740  1.00  0.00     0.001 A 
ATOM     72  C   UNL A   1      47.257  27.344  32.858  1.00  0.00     0.001 A 
ATOM     73  C   UNL A   1      48.297  27.368  31.929  1.00  0.00     0.000 A 
ENDBRANCH  54  68
BRANCH  55  74
ATOM     74  C   UNL A   1      36.904  32.680  29.698  1.00  0.00    -0.014 A 
ATOM     75  C   UNL A   1      36.645  33.514  28.600  1.00  0.00     0.009 A 
ATOM     76  C   UNL A   1      35.855  32.371  30.579  1.00  0.00     0.009 A 
ATOM     77  C   UNL A   1      35.366  34.040  28.397  1.00  0.00     0.001 A 
ATOM     78  C   UNL A   1      34.572  32.876  30.358  1.00  0.00     0.001 A 
ATOM     79  C   UNL A   1      34.330  33.716  29.271  1.00  0.00     0.000 A 
ENDBRANCH  55  74
BRANCH  67  80
ATOM     80  C   UNL A   1      42.661  35.006  32.861  1.00  0.00    -0.014 A 
ATOM     81  C   UNL A   1      42.332  35.234  34.207  1.00  0.00     0.009 A 
ATOM     82  C   UNL A   1      43.359  35.997  32.154  1.00  0.00     0.009 A 
ATOM     83  C   UNL A   1      42.670  36.442  34.820  1.00  0.00     0.001 A 
ATOM     84  C   UNL A   1      43.721  37.192  32.778  1.00  0.00     0.001 A 
ATOM     85  C   UNL A   1      43.369  37.416  34.108  1.00  0.00     0.000 A 
ENDBRANCH  67  80
ENDBRANCH  41  42
ENDBRANCH  33  36
ENDBRANCH  31  32
ENDBRANCH  30  31
ENDBRANCH   1  30
TORSDOF 14
ENDMDL
MODEL 2
REMARK VINA RESULT:     -10.1      5.333     12.027
REMARK SMILES CCOc1ccc(-c2cc(Cl)cc3c2O[C@H](C(F)(F)F)C(C(=O)NCCCNC(=O)c2ccc(-c4c5nc(c(-c6ccccc6)c6ccc([nH]6)c(-c6ccccc6)c6nc(c(-c7ccccc7)c7ccc4[nH]7)C=C6)C=C5)cc2)=C3)cc1
REMARK SMILES IDX 25 1 24 2 22 3 23 4 21 6 8 7 9 8 14 9 10 10 13 11 15 12
REMARK SMILES IDX 11 13 12 14 79 15 16 16 7 17 4 18 5 19 81 20 6 21 80 22 3 23
REMARK SMILES IDX 2 24 1 25 17 26 18 27 19 28 20 29 26 30 27 31 28 32 29 33
REMARK SMILES IDX 30 35 31 36 32 37 78 38 33 39 77 40 34 41 35 42 36 43 71 44
REMARK SMILES IDX 37 45 76 46 70 47 72 48 38 49 75 50 69 51 68 52 39 54 61 55
REMARK SMILES IDX 46 56 60 57 47 58 50 59 59 60 73 61 48 62 49 63 58 65 74 66
REMARK SMILES IDX 51 67 40 68 41 69 45 70 42 71 44 72 43 73 62 74 63 75 67 76
REMARK SMILES IDX 64 77 66 78 65 79 52 80 53 81 57 82 54 83 56 84 55 85
REMARK H PARENT 24 5 28 34 72 53 50 64
REMARK Flexibility Score: inf
ROOT
ATOM      1  C   UNL A   1      39.752  26.842  28.378  1.00  0.00     0.118 C 
ENDROOT
BRANCH   1   2
ATOM      2  N   UNL A   1      38.563  27.310  29.061  1.00  0.00    -0.352 N 
ATOM      3  C   UNL A   1      38.453  28.453  29.783  1.00  0.00     0.251 C 
ATOM      4  O   UNL A   1      37.840  28.456  30.844  1.00  0.00    -0.270 OA
ATOM      5  H   UNL A   1      37.758  26.747  28.992  1.00  0.00     0.163 HD
BRANCH   3   6
ATOM      6  C   UNL A   1      38.985  29.698  29.155  1.00  0.00     0.067 C 
ATOM      7  C   UNL A   1      35.566  31.899  28.954  1.00  0.00     0.026 A 
ATOM      8  C   UNL A   1      34.533  31.082  28.435  1.00  0.00     0.033 A 
ATOM      9  C   UNL A   1      36.876  31.409  28.833  1.00  0.00     0.135 A 
ATOM     10  C   UNL A   1      34.797  29.922  27.706  1.00  0.00     0.042 A 
ATOM     11  C   UNL A   1      37.132  30.293  28.000  1.00  0.00     0.019 A 
ATOM     12  O   UNL A   1      37.946  31.961  29.521  1.00  0.00    -0.475 OA
ATOM     13  Cl  UNL A   1      33.493  28.971  27.115  1.00  0.00    -0.084 Cl
ATOM     14  C   UNL A   1      36.102  29.554  27.431  1.00  0.00     0.032 A 
ATOM     15  C   UNL A   1      38.534  29.831  27.891  1.00  0.00     0.025 C 
ATOM     16  C   UNL A   1      38.891  30.937  30.039  1.00  0.00     0.314 C 
BRANCH   7  17
ATOM     17  C   UNL A   1      35.168  33.265  29.366  1.00  0.00    -0.014 A 
ATOM     18  C   UNL A   1      33.530  35.460  30.061  1.00  0.00     0.119 A 
ATOM     19  C   UNL A   1      34.085  34.664  31.059  1.00  0.00     0.047 A 
ATOM     20  C   UNL A   1      33.893  35.252  28.734  1.00  0.00     0.047 A 
ATOM     21  C   UNL A   1      34.903  33.578  30.715  1.00  0.00     0.013 A 
ATOM     22  C   UNL A   1      34.707  34.166  28.390  1.00  0.00     0.013 A 
BRANCH  18  23
ATOM     23  O   UNL A   1      32.693  36.474  30.434  1.00  0.00    -0.494 OA
BRANCH  23  24
ATOM     24  C   UNL A   1      32.672  36.714  31.849  1.00  0.00     0.226 C 
ATOM     25  C   UNL A   1      33.785  37.665  32.262  1.00  0.00     0.049 C 
ENDBRANCH  23  24
ENDBRANCH  18  23
ENDBRANCH   7  17
BRANCH  16  26
ATOM     26  C   UNL A   1      40.308  31.517  30.239  1.00  0.00     0.429 C 
ATOM     27  F   UNL A   1      40.399  32.816  29.881  1.00  0.00    -0.167 F 
ATOM     28  F   UNL A   1      40.694  31.420  31.535  1.00  0.00    -0.167 F 
ATOM     29  F   UNL A   1      41.247  30.852  29.515  1.00  0.00    -0.167 F 
ENDBRANCH  16  26
ENDBRANCH   3   6
ENDBRANCH   1   2
BRANCH   1  30
ATOM     30  C   UNL A   1      39.629  25.346  28.084  1.00  0.00     0.042 C 
BRANCH  30  31
ATOM     31  C   UNL A   1      39.782  24.978  26.609  1.00  0.00     0.118 C 
BRANCH  31  32
ATOM     32  N   UNL A   1      40.548  23.760  26.396  1.00  0.00    -0.352 N 
ATOM     33  C   UNL A   1      41.904  23.620  26.217  1.00  0.00     0.251 C 
ATOM     34  H   UNL A   1      40.027  22.925  26.377  1.00  0.00     0.163 HD
ATOM     35  O   UNL A   1      42.387  22.532  25.923  1.00  0.00    -0.269 OA
BRANCH  33  36
ATOM     36  C   UNL A   1      42.772  24.807  26.348  1.00  0.00     0.039 A 
ATOM     37  C   UNL A   1      43.292  25.131  27.603  1.00  0.00     0.014 A 
ATOM     38  C   UNL A   1      43.113  25.560  25.222  1.00  0.00     0.014 A 
ATOM     39  C   UNL A   1      44.221  26.166  27.716  1.00  0.00     0.010 A 
ATOM     40  C   UNL A   1      44.094  26.540  25.324  1.00  0.00     0.010 A 
ATOM     41  C   UNL A   1      44.663  26.849  26.570  1.00  0.00    -0.014 A 
BRANCH  41  42
ATOM     42  C   UNL A   1      45.731  27.877  26.640  1.00  0.00     0.031 A 
ATOM     43  C   UNL A   1      45.372  29.330  26.784  1.00  0.00     0.074 A 
ATOM     44  C   UNL A   1      47.019  27.517  26.470  1.00  0.00     0.049 A 
ATOM     45  N   UNL A   1      46.149  30.382  26.744  1.00  0.00    -0.248 NA
ATOM     46  C   UNL A   1      43.944  29.640  26.956  1.00  0.00     0.031 C 
ATOM     47  C   UNL A   1      47.499  26.148  26.269  1.00  0.00     0.029 A 
ATOM     48  N   UNL A   1      48.158  28.280  26.419  1.00  0.00    -0.354 N 
ATOM     49  C   UNL A   1      45.303  31.478  26.852  1.00  0.00     0.074 A 
ATOM     50  C   UNL A   1      43.951  30.963  26.913  1.00  0.00     0.031 C 
ATOM     51  C   UNL A   1      48.834  26.168  26.135  1.00  0.00     0.029 A 
ATOM     52  C   UNL A   1      49.300  27.549  26.197  1.00  0.00     0.049 A 
ATOM     53  H   UNL A   1      48.158  29.258  26.531  1.00  0.00     0.167 HD
ATOM     54  C   UNL A   1      45.620  32.792  26.910  1.00  0.00     0.031 A 
ATOM     55  C   UNL A   1      50.578  27.944  26.047  1.00  0.00     0.031 A 
ATOM     56  C   UNL A   1      46.965  33.302  26.869  1.00  0.00     0.049 A 
ATOM     57  C   UNL A   1      50.912  29.406  26.131  1.00  0.00     0.074 A 
ATOM     58  C   UNL A   1      47.396  34.611  26.999  1.00  0.00     0.029 A 
ATOM     59  N   UNL A   1      48.097  32.524  26.680  1.00  0.00    -0.354 N 
ATOM     60  N   UNL A   1      50.108  30.426  26.308  1.00  0.00    -0.248 NA
ATOM     61  C   UNL A   1      52.330  29.770  26.006  1.00  0.00     0.031 C 
ATOM     62  C   UNL A   1      48.785  34.631  26.838  1.00  0.00     0.029 A 
ATOM     63  C   UNL A   1      49.225  33.327  26.665  1.00  0.00     0.049 A 
ATOM     64  H   UNL A   1      48.098  31.546  26.571  1.00  0.00     0.167 HD
ATOM     65  C   UNL A   1      50.923  31.550  26.340  1.00  0.00     0.074 A 
ATOM     66  C   UNL A   1      52.285  31.084  26.177  1.00  0.00     0.031 C 
ATOM     67  C   UNL A   1      50.574  32.851  26.496  1.00  0.00     0.031 A 
BRANCH  54  68
ATOM     68  C   UNL A   1      44.481  33.770  27.007  1.00  0.00    -0.014 A 
ATOM     69  C   UNL A   1      43.904  34.340  25.859  1.00  0.00     0.009 A 
ATOM     70  C   UNL A   1      43.974  34.127  28.266  1.00  0.00     0.009 A 
ATOM     71  C   UNL A   1      42.883  35.284  25.974  1.00  0.00     0.001 A 
ATOM     72  C   UNL A   1      42.930  35.047  28.377  1.00  0.00     0.001 A 
ATOM     73  C   UNL A   1      42.396  35.635  27.231  1.00  0.00     0.000 A 
ENDBRANCH  54  68
BRANCH  55  74
ATOM     74  C   UNL A   1      51.639  26.930  25.822  1.00  0.00    -0.014 A 
ATOM     75  C   UNL A   1      51.973  26.527  24.520  1.00  0.00     0.009 A 
ATOM     76  C   UNL A   1      52.342  26.377  26.905  1.00  0.00     0.009 A 
ATOM     77  C   UNL A   1      52.979  25.582  24.307  1.00  0.00     0.001 A 
ATOM     78  C   UNL A   1      53.366  25.452  26.687  1.00  0.00     0.001 A 
ATOM     79  C   UNL A   1      53.679  25.050  25.389  1.00  0.00     0.000 A 
ENDBRANCH  55  74
BRANCH  67  80
ATOM     80  C   UNL A   1      51.684  33.863  26.528  1.00  0.00    -0.014 A 
ATOM     81  C   UNL A   1      52.137  34.489  25.356  1.00  0.00     0.009 A 
ATOM     82  C   UNL A   1      52.252  34.229  27.758  1.00  0.00     0.009 A 
ATOM     83  C   UNL A   1      53.156  35.441  25.414  1.00  0.00     0.001 A 
ATOM     84  C   UNL A   1      53.251  35.201  27.816  1.00  0.00     0.001 A 
ATOM     85  C   UNL A   1      53.708  35.800  26.643  1.00  0.00     0.000 A 
ENDBRANCH  67  80
ENDBRANCH  41  42
ENDBRANCH  33  36
ENDBRANCH  31  32
ENDBRANCH  30  31
ENDBRANCH   1  30
TORSDOF 14
ENDMDL
MODEL 3
REMARK VINA RESULT:     -10.0      5.056     10.686
REMARK SMILES CCOc1ccc(-c2cc(Cl)cc3c2O[C@H](C(F)(F)F)C(C(=O)NCCCNC(=O)c2ccc(-c4c5nc(c(-c6ccccc6)c6ccc([nH]6)c(-c6ccccc6)c6nc(c(-c7ccccc7)c7ccc4[nH]7)C=C6)C=C5)cc2)=C3)cc1
REMARK SMILES IDX 25 1 24 2 22 3 23 4 21 6 8 7 9 8 14 9 10 10 13 11 15 12
REMARK SMILES IDX 11 13 12 14 79 15 16 16 7 17 4 18 5 19 81 20 6 21 80 22 3 23
REMARK SMILES IDX 2 24 1 25 17 26 18 27 19 28 20 29 26 30 27 31 28 32 29 33
REMARK SMILES IDX 30 35 31 36 32 37 78 38 33 39 77 40 34 41 35 42 36 43 71 44
REMARK SMILES IDX 37 45 76 46 70 47 72 48 38 49 75 50 69 51 68 52 39 54 61 55
REMARK SMILES IDX 46 56 60 57 47 58 50 59 59 60 73 61 48 62 49 63 58 65 74 66
REMARK SMILES IDX 51 67 40 68 41 69 45 70 42 71 44 72 43 73 62 74 63 75 67 76
REMARK SMILES IDX 64 77 66 78 65 79 52 80 53 81 57 82 54 83 56 84 55 85
REMARK H PARENT 24 5 28 34 72 53 50 64
REMARK Flexibility Score: inf
ROOT
ATOM      1  C   UNL A   1      34.253  33.442  33.356  1.00  0.00     0.118 C 
ENDROOT
BRANCH   1   2
ATOM      2  N   UNL A   1      35.231  33.773  34.372  1.00  0.00    -0.352 N 
ATOM      3  C   UNL A   1      36.297  33.015  34.733  1.00  0.00     0.251 C 
ATOM      4  O   UNL A   1      36.596  32.895  35.915  1.00  0.00    -0.270 OA
ATOM      5  H   UNL A   1      35.112  34.629  34.844  1.00  0.00     0.163 HD
BRANCH   3   6
ATOM      6  C   UNL A   1      37.140  32.474  33.628  1.00  0.00     0.067 C 
ATOM      7  C   UNL A   1      40.806  32.654  35.387  1.00  0.00     0.026 A 
ATOM      8  C   UNL A   1      40.952  33.924  35.998  1.00  0.00     0.033 A 
ATOM      9  C   UNL A   1      39.733  32.506  34.495  1.00  0.00     0.135 A 
ATOM     10  C   UNL A   1      40.171  35.020  35.631  1.00  0.00     0.042 A 
ATOM     11  C   UNL A   1      39.025  33.650  34.054  1.00  0.00     0.019 A 
ATOM     12  O   UNL A   1      39.312  31.268  34.034  1.00  0.00    -0.475 OA
ATOM     13  Cl  UNL A   1      40.394  36.529  36.424  1.00  0.00    -0.084 Cl
ATOM     14  C   UNL A   1      39.244  34.905  34.611  1.00  0.00     0.032 A 
ATOM     15  C   UNL A   1      37.917  33.440  33.096  1.00  0.00     0.025 C 
ATOM     16  C   UNL A   1      37.831  31.155  33.954  1.00  0.00     0.314 C 
BRANCH   7  17
ATOM     17  C   UNL A   1      41.924  31.703  35.593  1.00  0.00    -0.014 A 
ATOM     18  C   UNL A   1      43.574  29.434  35.271  1.00  0.00     0.119 A 
ATOM     19  C   UNL A   1      43.904  30.628  34.637  1.00  0.00     0.047 A 
ATOM     20  C   UNL A   1      42.509  29.402  36.166  1.00  0.00     0.047 A 
ATOM     21  C   UNL A   1      43.089  31.757  34.801  1.00  0.00     0.013 A 
ATOM     22  C   UNL A   1      41.693  30.527  36.327  1.00  0.00     0.013 A 
BRANCH  18  23
ATOM     23  O   UNL A   1      44.362  28.340  35.041  1.00  0.00    -0.494 OA
BRANCH  23  24
ATOM     24  C   UNL A   1      43.657  27.234  34.457  1.00  0.00     0.226 C 
ATOM     25  C   UNL A   1      43.135  27.585  33.071  1.00  0.00     0.049 C 
ENDBRANCH  23  24
ENDBRANCH  18  23
ENDBRANCH   7  17
BRANCH  16  26
ATOM     26  C   UNL A   1      37.395  30.093  32.921  1.00  0.00     0.429 C 
ATOM     27  F   UNL A   1      37.394  28.840  33.424  1.00  0.00    -0.167 F 
ATOM     28  F   UNL A   1      36.147  30.350  32.457  1.00  0.00    -0.167 F 
ATOM     29  F   UNL A   1      38.205  30.069  31.830  1.00  0.00    -0.167 F 
ENDBRANCH  16  26
ENDBRANCH   3   6
ENDBRANCH   1   2
BRANCH   1  30
ATOM     30  C   UNL A   1      33.481  34.698  32.947  1.00  0.00     0.042 C 
BRANCH  30  31
ATOM     31  C   UNL A   1      33.968  35.344  31.651  1.00  0.00     0.118 C 
BRANCH  31  32
ATOM     32  N   UNL A   1      33.132  35.031  30.502  1.00  0.00    -0.352 N 
ATOM     33  C   UNL A   1      33.465  34.335  29.364  1.00  0.00     0.251 C 
ATOM     34  H   UNL A   1      32.206  35.360  30.545  1.00  0.00     0.163 HD
ATOM     35  O   UNL A   1      32.680  34.262  28.424  1.00  0.00    -0.269 OA
BRANCH  33  36
ATOM     36  C   UNL A   1      34.797  33.707  29.271  1.00  0.00     0.039 A 
ATOM     37  C   UNL A   1      35.792  34.334  28.517  1.00  0.00     0.014 A 
ATOM     38  C   UNL A   1      35.074  32.531  29.973  1.00  0.00     0.014 A 
ATOM     39  C   UNL A   1      37.091  33.824  28.532  1.00  0.00     0.010 A 
ATOM     40  C   UNL A   1      36.383  32.069  30.047  1.00  0.00     0.010 A 
ATOM     41  C   UNL A   1      37.406  32.714  29.332  1.00  0.00    -0.014 A 
BRANCH  41  42
ATOM     42  C   UNL A   1      38.799  32.215  29.459  1.00  0.00     0.031 A 
ATOM     43  C   UNL A   1      39.145  30.823  29.010  1.00  0.00     0.074 A 
ATOM     44  C   UNL A   1      39.728  32.974  30.071  1.00  0.00     0.049 A 
ATOM     45  N   UNL A   1      40.268  30.166  29.144  1.00  0.00    -0.248 NA
ATOM     46  C   UNL A   1      38.072  30.057  28.357  1.00  0.00     0.031 C 
ATOM     47  C   UNL A   1      39.511  34.322  30.601  1.00  0.00     0.029 A 
ATOM     48  N   UNL A   1      41.041  32.707  30.370  1.00  0.00    -0.354 N 
ATOM     49  C   UNL A   1      40.027  28.900  28.625  1.00  0.00     0.074 A 
ATOM     50  C   UNL A   1      38.639  28.868  28.217  1.00  0.00     0.031 C 
ATOM     51  C   UNL A   1      40.655  34.770  31.142  1.00  0.00     0.029 A 
ATOM     52  C   UNL A   1      41.671  33.729  31.038  1.00  0.00     0.049 A 
ATOM     53  H   UNL A   1      41.489  31.864  30.130  1.00  0.00     0.167 HD
ATOM     54  C   UNL A   1      40.885  27.862  28.487  1.00  0.00     0.031 A 
ATOM     55  C   UNL A   1      42.924  33.816  31.524  1.00  0.00     0.031 A 
ATOM     56  C   UNL A   1      42.270  27.900  28.876  1.00  0.00     0.049 A 
ATOM     57  C   UNL A   1      43.865  32.660  31.346  1.00  0.00     0.074 A 
ATOM     58  C   UNL A   1      43.241  26.928  28.707  1.00  0.00     0.029 A 
ATOM     59  N   UNL A   1      42.879  28.969  29.517  1.00  0.00    -0.354 N 
ATOM     60  N   UNL A   1      43.644  31.495  30.787  1.00  0.00    -0.248 NA
ATOM     61  C   UNL A   1      45.232  32.834  31.857  1.00  0.00     0.031 C 
ATOM     62  C   UNL A   1      44.425  27.389  29.291  1.00  0.00     0.029 A 
ATOM     63  C   UNL A   1      44.207  28.671  29.772  1.00  0.00     0.049 A 
ATOM     64  H   UNL A   1      42.433  29.813  29.755  1.00  0.00     0.167 HD
ATOM     65  C   UNL A   1      44.848  30.806  30.856  1.00  0.00     0.074 A 
ATOM     66  C   UNL A   1      45.799  31.690  31.500  1.00  0.00     0.031 C 
ATOM     67  C   UNL A   1      45.141  29.557  30.420  1.00  0.00     0.031 A 
BRANCH  54  68
ATOM     68  C   UNL A   1      40.334  26.589  27.904  1.00  0.00    -0.014 A 
ATOM     69  C   UNL A   1      40.579  26.228  26.569  1.00  0.00     0.009 A 
ATOM     70  C   UNL A   1      39.559  25.735  28.705  1.00  0.00     0.009 A 
ATOM     71  C   UNL A   1      40.015  25.068  26.034  1.00  0.00     0.001 A 
ATOM     72  C   UNL A   1      39.024  24.559  28.177  1.00  0.00     0.001 A 
ATOM     73  C   UNL A   1      39.241  24.235  26.838  1.00  0.00     0.000 A 
ENDBRANCH  54  68
BRANCH  55  74
ATOM     74  C   UNL A   1      43.361  35.060  32.209  1.00  0.00    -0.014 A 
ATOM     75  C   UNL A   1      43.192  35.205  33.594  1.00  0.00     0.009 A 
ATOM     76  C   UNL A   1      43.973  36.097  31.486  1.00  0.00     0.009 A 
ATOM     77  C   UNL A   1      43.614  36.370  34.240  1.00  0.00     0.001 A 
ATOM     78  C   UNL A   1      44.418  37.248  32.140  1.00  0.00     0.001 A 
ATOM     79  C   UNL A   1      44.232  37.387  33.514  1.00  0.00     0.000 A 
ENDBRANCH  55  74
BRANCH  67  80
ATOM     80  C   UNL A   1      46.554  29.079  30.597  1.00  0.00    -0.014 A 
ATOM     81  C   UNL A   1      46.941  28.344  31.728  1.00  0.00     0.009 A 
ATOM     82  C   UNL A   1      47.500  29.327  29.590  1.00  0.00     0.009 A 
ATOM     83  C   UNL A   1      48.256  27.894  31.860  1.00  0.00     0.001 A 
ATOM     84  C   UNL A   1      48.806  28.851  29.712  1.00  0.00     0.001 A 
ATOM     85  C   UNL A   1      49.185  28.142  30.851  1.00  0.00     0.000 A 
ENDBRANCH  67  80
ENDBRANCH  41  42
ENDBRANCH  33  36
ENDBRANCH  31  32
ENDBRANCH  30  31
ENDBRANCH   1  30
TORSDOF 14
ENDMDL
