MODEL 1
REMARK VINA RESULT:     -12.5      0.000      0.000
REMARK SMILES O=C(CCc1cn(-c2ccc(Br)cc2)nc1-c1ccccc1)NCCCNC(=O)c1ccc(-c2c3nc(c(-c4ccccc4)c4ccc([nH]4)c(-c4ccccc4)c4nc(c(-c5ccccc5)c5ccc2[nH]5)C=C4)C=C3)cc1
REMARK SMILES IDX 24 1 23 2 1 3 2 4 3 6 4 7 5 8 6 9 16 10 7 11 15 12 17 13
REMARK SMILES IDX 18 14 22 15 19 16 21 17 20 18 8 19 9 20 14 21 10 22 13 23
REMARK SMILES IDX 11 24 12 25 25 26 26 27 27 28 28 29 29 31 30 32 31 33 77 34
REMARK SMILES IDX 32 35 76 36 33 37 34 38 35 39 70 40 36 41 75 42 69 43 71 44
REMARK SMILES IDX 37 45 74 46 68 47 67 48 38 50 60 51 45 52 59 53 46 54 49 55
REMARK SMILES IDX 58 56 72 57 47 58 48 59 57 61 73 62 50 63 39 64 40 65 44 66
REMARK SMILES IDX 41 67 43 68 42 69 61 70 62 71 66 72 63 73 65 74 64 75 51 76
REMARK SMILES IDX 52 77 56 78 53 79 55 80 54 81
REMARK H PARENT 23 5 27 30 71 49 49 60
REMARK Flexibility Score: inf
ROOT
ATOM      1  C   UNL A   1      40.592  20.087  26.429  1.00  0.00     0.117 C 
ENDROOT
BRANCH   1   2
ATOM      2  N   UNL A   1      39.371  20.264  25.644  1.00  0.00    -0.356 N 
ATOM      3  O   UNL A   1      38.885  22.373  26.373  1.00  0.00    -0.275 OA
ATOM      4  C   UNL A   1      38.621  21.418  25.644  1.00  0.00     0.220 C 
ATOM      5  H   UNL A   1      39.067  19.515  25.081  1.00  0.00     0.163 HD
BRANCH   4   6
ATOM      6  C   UNL A   1      37.372  21.436  24.769  1.00  0.00     0.105 C 
BRANCH   6   7
ATOM      7  C   UNL A   1      36.329  20.347  25.000  1.00  0.00     0.049 C 
BRANCH   7   8
ATOM      8  C   UNL A   1      34.895  20.763  24.965  1.00  0.00    -0.001 A 
ATOM      9  C   UNL A   1      34.435  22.058  24.858  1.00  0.00     0.119 A 
ATOM     10  C   UNL A   1      33.710  19.973  25.004  1.00  0.00     0.096 A 
ATOM     11  N   UNL A   1      33.062  22.015  24.838  1.00  0.00    -0.240 N 
ATOM     12  N   UNL A   1      32.612  20.744  24.998  1.00  0.00    -0.168 NA
BRANCH  10  13
ATOM     13  C   UNL A   1      33.633  18.514  24.940  1.00  0.00     0.002 A 
ATOM     14  C   UNL A   1      32.741  17.832  25.783  1.00  0.00     0.010 A 
ATOM     15  C   UNL A   1      34.327  17.791  23.971  1.00  0.00     0.010 A 
ATOM     16  C   UNL A   1      32.547  16.457  25.676  1.00  0.00     0.001 A 
ATOM     17  C   UNL A   1      34.119  16.411  23.848  1.00  0.00     0.001 A 
ATOM     18  C   UNL A   1      33.233  15.746  24.699  1.00  0.00     0.000 A 
ENDBRANCH  10  13
BRANCH  11  19
ATOM     19  C   UNL A   1      32.186  23.112  24.610  1.00  0.00     0.065 A 
ATOM     20  C   UNL A   1      31.510  23.709  25.687  1.00  0.00     0.029 A 
ATOM     21  C   UNL A   1      31.992  23.605  23.313  1.00  0.00     0.029 A 
ATOM     22  C   UNL A   1      30.641  24.781  25.467  1.00  0.00     0.018 A 
ATOM     23  C   UNL A   1      31.091  24.654  23.093  1.00  0.00     0.018 A 
ATOM     24  C   UNL A   1      30.422  25.239  24.170  1.00  0.00     0.018 A 
ATOM     25  Br  UNL A   1      29.209  26.657  23.873  1.00  0.00    -0.051 Br
ENDBRANCH  11  19
ENDBRANCH   7   8
ENDBRANCH   6   7
ENDBRANCH   4   6
ENDBRANCH   1   2
BRANCH   1  26
ATOM     26  C   UNL A   1      41.561  19.039  25.853  1.00  0.00     0.042 C 
BRANCH  26  27
ATOM     27  C   UNL A   1      42.955  19.108  26.459  1.00  0.00     0.118 C 
BRANCH  27  28
ATOM     28  N   UNL A   1      44.105  19.100  25.562  1.00  0.00    -0.352 N 
ATOM     29  C   UNL A   1      44.760  20.194  24.989  1.00  0.00     0.251 C 
ATOM     30  H   UNL A   1      44.465  18.213  25.331  1.00  0.00     0.163 HD
ATOM     31  O   UNL A   1      45.591  20.020  24.114  1.00  0.00    -0.269 OA
BRANCH  29  32
ATOM     32  C   UNL A   1      44.429  21.581  25.428  1.00  0.00     0.039 A 
ATOM     33  C   UNL A   1      43.420  22.349  24.837  1.00  0.00     0.014 A 
ATOM     34  C   UNL A   1      45.159  22.144  26.459  1.00  0.00     0.014 A 
ATOM     35  C   UNL A   1      43.129  23.622  25.354  1.00  0.00     0.010 A 
ATOM     36  C   UNL A   1      44.740  23.279  27.098  1.00  0.00     0.010 A 
ATOM     37  C   UNL A   1      43.790  24.074  26.507  1.00  0.00    -0.014 A 
BRANCH  37  38
ATOM     38  C   UNL A   1      43.503  25.340  27.166  1.00  0.00     0.031 A 
ATOM     39  C   UNL A   1      44.423  26.442  26.814  1.00  0.00     0.074 A 
ATOM     40  C   UNL A   1      42.379  25.611  27.868  1.00  0.00     0.049 A 
ATOM     41  N   UNL A   1      45.358  26.925  27.558  1.00  0.00    -0.248 NA
ATOM     42  C   UNL A   1      44.387  26.996  25.453  1.00  0.00     0.031 C 
ATOM     43  C   UNL A   1      41.162  24.804  28.035  1.00  0.00     0.029 A 
ATOM     44  N   UNL A   1      42.058  26.759  28.524  1.00  0.00    -0.354 N 
ATOM     45  C   UNL A   1      45.924  27.969  26.839  1.00  0.00     0.074 A 
ATOM     46  C   UNL A   1      45.398  27.867  25.499  1.00  0.00     0.031 C 
ATOM     47  C   UNL A   1      40.173  25.568  28.550  1.00  0.00     0.029 A 
ATOM     48  C   UNL A   1      40.731  26.854  28.921  1.00  0.00     0.049 A 
ATOM     49  H   UNL A   1      42.717  27.468  28.704  1.00  0.00     0.167 HD
ATOM     50  C   UNL A   1      46.615  28.958  27.472  1.00  0.00     0.031 A 
ATOM     51  C   UNL A   1      40.139  27.925  29.501  1.00  0.00     0.031 A 
ATOM     52  C   UNL A   1      46.865  28.626  28.855  1.00  0.00     0.049 A 
ATOM     53  C   UNL A   1      41.215  28.755  30.090  1.00  0.00     0.074 A 
ATOM     54  C   UNL A   1      47.524  27.604  29.508  1.00  0.00     0.029 A 
ATOM     55  N   UNL A   1      46.031  29.194  29.792  1.00  0.00    -0.354 N 
ATOM     56  N   UNL A   1      41.938  28.376  31.105  1.00  0.00    -0.248 NA
ATOM     57  C   UNL A   1      41.788  29.815  29.277  1.00  0.00     0.031 C 
ATOM     58  C   UNL A   1      46.700  27.297  30.633  1.00  0.00     0.029 A 
ATOM     59  C   UNL A   1      45.629  28.194  30.641  1.00  0.00     0.049 A 
ATOM     60  H   UNL A   1      45.770  30.142  29.843  1.00  0.00     0.167 HD
ATOM     61  C   UNL A   1      43.221  28.806  30.801  1.00  0.00     0.074 A 
ATOM     62  C   UNL A   1      43.048  29.779  29.724  1.00  0.00     0.031 C 
ATOM     63  C   UNL A   1      44.319  28.127  31.250  1.00  0.00     0.031 A 
BRANCH  50  64
ATOM     64  C   UNL A   1      46.726  30.373  26.977  1.00  0.00    -0.014 A 
ATOM     65  C   UNL A   1      47.985  31.000  27.027  1.00  0.00     0.009 A 
ATOM     66  C   UNL A   1      45.614  31.198  26.731  1.00  0.00     0.009 A 
ATOM     67  C   UNL A   1      48.113  32.388  26.921  1.00  0.00     0.001 A 
ATOM     68  C   UNL A   1      45.743  32.582  26.581  1.00  0.00     0.001 A 
ATOM     69  C   UNL A   1      46.989  33.179  26.708  1.00  0.00     0.000 A 
ENDBRANCH  50  64
BRANCH  51  70
ATOM     70  C   UNL A   1      38.750  28.415  29.373  1.00  0.00    -0.014 A 
ATOM     71  C   UNL A   1      37.976  28.673  30.517  1.00  0.00     0.009 A 
ATOM     72  C   UNL A   1      38.290  28.915  28.143  1.00  0.00     0.009 A 
ATOM     73  C   UNL A   1      36.814  29.452  30.439  1.00  0.00     0.001 A 
ATOM     74  C   UNL A   1      37.127  29.690  28.064  1.00  0.00     0.001 A 
ATOM     75  C   UNL A   1      36.400  29.975  29.216  1.00  0.00     0.000 A 
ENDBRANCH  51  70
BRANCH  63  76
ATOM     76  C   UNL A   1      44.109  27.036  32.273  1.00  0.00    -0.014 A 
ATOM     77  C   UNL A   1      44.196  25.664  31.968  1.00  0.00     0.009 A 
ATOM     78  C   UNL A   1      43.968  27.406  33.618  1.00  0.00     0.009 A 
ATOM     79  C   UNL A   1      44.113  24.697  32.977  1.00  0.00     0.001 A 
ATOM     80  C   UNL A   1      43.906  26.442  34.628  1.00  0.00     0.001 A 
ATOM     81  C   UNL A   1      43.973  25.088  34.306  1.00  0.00     0.000 A 
ENDBRANCH  63  76
ENDBRANCH  37  38
ENDBRANCH  29  32
ENDBRANCH  27  28
ENDBRANCH  26  27
ENDBRANCH   1  26
TORSDOF 14
ENDMDL
MODEL 2
REMARK VINA RESULT:     -12.1      1.391      1.851
REMARK SMILES O=C(CCc1cn(-c2ccc(Br)cc2)nc1-c1ccccc1)NCCCNC(=O)c1ccc(-c2c3nc(c(-c4ccccc4)c4ccc([nH]4)c(-c4ccccc4)c4nc(c(-c5ccccc5)c5ccc2[nH]5)C=C4)C=C3)cc1
REMARK SMILES IDX 24 1 23 2 1 3 2 4 3 6 4 7 5 8 6 9 16 10 7 11 15 12 17 13
REMARK SMILES IDX 18 14 22 15 19 16 21 17 20 18 8 19 9 20 14 21 10 22 13 23
REMARK SMILES IDX 11 24 12 25 25 26 26 27 27 28 28 29 29 31 30 32 31 33 77 34
REMARK SMILES IDX 32 35 76 36 33 37 34 38 35 39 70 40 36 41 75 42 69 43 71 44
REMARK SMILES IDX 37 45 74 46 68 47 67 48 38 50 60 51 45 52 59 53 46 54 49 55
REMARK SMILES IDX 58 56 72 57 47 58 48 59 57 61 73 62 50 63 39 64 40 65 44 66
REMARK SMILES IDX 41 67 43 68 42 69 61 70 62 71 66 72 63 73 65 74 64 75 51 76
REMARK SMILES IDX 52 77 56 78 53 79 55 80 54 81
REMARK H PARENT 23 5 27 30 71 49 49 60
REMARK Flexibility Score: inf
ROOT
ATOM      1  C   UNL A   1      40.745  21.353  26.896  1.00  0.00     0.117 C 
ENDROOT
BRANCH   1   2
ATOM      2  N   UNL A   1      39.561  20.951  26.136  1.00  0.00    -0.356 N 
ATOM      3  O   UNL A   1      38.532  22.989  26.141  1.00  0.00    -0.275 OA
ATOM      4  C   UNL A   1      38.551  21.814  25.779  1.00  0.00     0.220 C 
ATOM      5  H   UNL A   1      39.482  20.007  25.865  1.00  0.00     0.163 HD
BRANCH   4   6
ATOM      6  C   UNL A   1      37.384  21.230  24.989  1.00  0.00     0.105 C 
BRANCH   6   7
ATOM      7  C   UNL A   1      36.633  22.162  24.043  1.00  0.00     0.049 C 
BRANCH   7   8
ATOM      8  C   UNL A   1      35.433  22.862  24.592  1.00  0.00    -0.001 A 
ATOM      9  C   UNL A   1      35.374  24.189  24.960  1.00  0.00     0.119 A 
ATOM     10  C   UNL A   1      34.117  22.373  24.835  1.00  0.00     0.096 A 
ATOM     11  N   UNL A   1      34.096  24.449  25.392  1.00  0.00    -0.240 N 
ATOM     12  N   UNL A   1      33.340  23.320  25.384  1.00  0.00    -0.168 NA
BRANCH  10  13
ATOM     13  C   UNL A   1      33.591  21.064  24.453  1.00  0.00     0.002 A 
ATOM     14  C   UNL A   1      32.619  20.979  23.443  1.00  0.00     0.010 A 
ATOM     15  C   UNL A   1      34.126  19.885  24.971  1.00  0.00     0.010 A 
ATOM     16  C   UNL A   1      32.174  19.749  22.963  1.00  0.00     0.001 A 
ATOM     17  C   UNL A   1      33.695  18.647  24.476  1.00  0.00     0.001 A 
ATOM     18  C   UNL A   1      32.722  18.580  23.475  1.00  0.00     0.000 A 
ENDBRANCH  10  13
BRANCH  11  19
ATOM     19  C   UNL A   1      33.563  25.720  25.741  1.00  0.00     0.065 A 
ATOM     20  C   UNL A   1      34.369  26.868  25.658  1.00  0.00     0.029 A 
ATOM     21  C   UNL A   1      32.235  25.837  26.169  1.00  0.00     0.029 A 
ATOM     22  C   UNL A   1      33.854  28.119  26.010  1.00  0.00     0.018 A 
ATOM     23  C   UNL A   1      31.735  27.087  26.556  1.00  0.00     0.018 A 
ATOM     24  C   UNL A   1      32.543  28.221  26.472  1.00  0.00     0.018 A 
ATOM     25  Br  UNL A   1      31.867  29.908  26.992  1.00  0.00    -0.051 Br
ENDBRANCH  11  19
ENDBRANCH   7   8
ENDBRANCH   6   7
ENDBRANCH   4   6
ENDBRANCH   1   2
BRANCH   1  26
ATOM     26  C   UNL A   1      41.839  20.272  26.969  1.00  0.00     0.042 C 
BRANCH  26  27
ATOM     27  C   UNL A   1      42.115  19.602  25.631  1.00  0.00     0.118 C 
BRANCH  27  28
ATOM     28  N   UNL A   1      43.501  19.445  25.204  1.00  0.00    -0.352 N 
ATOM     29  C   UNL A   1      44.466  20.440  25.025  1.00  0.00     0.251 C 
ATOM     30  H   UNL A   1      43.793  18.523  25.020  1.00  0.00     0.163 HD
ATOM     31  O   UNL A   1      45.528  20.173  24.487  1.00  0.00    -0.269 OA
BRANCH  29  32
ATOM     32  C   UNL A   1      44.194  21.839  25.467  1.00  0.00     0.039 A 
ATOM     33  C   UNL A   1      43.432  22.742  24.718  1.00  0.00     0.014 A 
ATOM     34  C   UNL A   1      44.728  22.273  26.666  1.00  0.00     0.014 A 
ATOM     35  C   UNL A   1      43.168  24.020  25.238  1.00  0.00     0.010 A 
ATOM     36  C   UNL A   1      44.299  23.424  27.269  1.00  0.00     0.010 A 
ATOM     37  C   UNL A   1      43.597  24.347  26.534  1.00  0.00    -0.014 A 
BRANCH  37  38
ATOM     38  C   UNL A   1      43.304  25.611  27.194  1.00  0.00     0.031 A 
ATOM     39  C   UNL A   1      44.180  26.734  26.793  1.00  0.00     0.074 A 
ATOM     40  C   UNL A   1      42.203  25.860  27.939  1.00  0.00     0.049 A 
ATOM     41  N   UNL A   1      45.131  27.248  27.492  1.00  0.00    -0.248 NA
ATOM     42  C   UNL A   1      44.072  27.272  25.430  1.00  0.00     0.031 C 
ATOM     43  C   UNL A   1      41.016  25.024  28.164  1.00  0.00     0.029 A 
ATOM     44  N   UNL A   1      41.880  27.007  28.598  1.00  0.00    -0.354 N 
ATOM     45  C   UNL A   1      45.639  28.299  26.742  1.00  0.00     0.074 A 
ATOM     46  C   UNL A   1      45.061  28.169  25.426  1.00  0.00     0.031 C 
ATOM     47  C   UNL A   1      40.029  25.768  28.712  1.00  0.00     0.029 A 
ATOM     48  C   UNL A   1      40.569  27.072  29.048  1.00  0.00     0.049 A 
ATOM     49  H   UNL A   1      42.527  27.734  28.743  1.00  0.00     0.167 HD
ATOM     50  C   UNL A   1      46.330  29.312  27.336  1.00  0.00     0.031 A 
ATOM     51  C   UNL A   1      39.973  28.133  29.643  1.00  0.00     0.031 A 
ATOM     52  C   UNL A   1      46.646  29.001  28.710  1.00  0.00     0.049 A 
ATOM     53  C   UNL A   1      41.051  28.996  30.178  1.00  0.00     0.074 A 
ATOM     54  C   UNL A   1      47.358  28.002  29.345  1.00  0.00     0.029 A 
ATOM     55  N   UNL A   1      45.837  29.556  29.675  1.00  0.00    -0.354 N 
ATOM     56  N   UNL A   1      41.824  28.647  31.166  1.00  0.00    -0.248 NA
ATOM     57  C   UNL A   1      41.562  30.062  29.333  1.00  0.00     0.031 C 
ATOM     58  C   UNL A   1      46.589  27.686  30.506  1.00  0.00     0.029 A 
ATOM     59  C   UNL A   1      45.497  28.555  30.550  1.00  0.00     0.049 A 
ATOM     60  H   UNL A   1      45.554  30.498  29.729  1.00  0.00     0.167 HD
ATOM     61  C   UNL A   1      43.082  29.106  30.805  1.00  0.00     0.074 A 
ATOM     62  C   UNL A   1      42.839  30.063  29.727  1.00  0.00     0.031 C 
ATOM     63  C   UNL A   1      44.215  28.460  31.214  1.00  0.00     0.031 A 
BRANCH  50  64
ATOM     64  C   UNL A   1      46.383  30.724  26.824  1.00  0.00    -0.014 A 
ATOM     65  C   UNL A   1      47.605  31.418  26.907  1.00  0.00     0.009 A 
ATOM     66  C   UNL A   1      45.239  31.485  26.527  1.00  0.00     0.009 A 
ATOM     67  C   UNL A   1      47.663  32.809  26.784  1.00  0.00     0.001 A 
ATOM     68  C   UNL A   1      45.299  32.872  26.361  1.00  0.00     0.001 A 
ATOM     69  C   UNL A   1      46.507  33.536  26.521  1.00  0.00     0.000 A 
ENDBRANCH  50  64
BRANCH  51  70
ATOM     70  C   UNL A   1      38.568  28.586  29.568  1.00  0.00    -0.014 A 
ATOM     71  C   UNL A   1      37.873  28.951  30.734  1.00  0.00     0.009 A 
ATOM     72  C   UNL A   1      38.008  28.946  28.330  1.00  0.00     0.009 A 
ATOM     73  C   UNL A   1      36.690  29.700  30.662  1.00  0.00     0.001 A 
ATOM     74  C   UNL A   1      36.825  29.691  28.258  1.00  0.00     0.001 A 
ATOM     75  C   UNL A   1      36.177  30.085  29.425  1.00  0.00     0.000 A 
ENDBRANCH  51  70
BRANCH  63  76
ATOM     76  C   UNL A   1      44.077  27.375  32.255  1.00  0.00    -0.014 A 
ATOM     77  C   UNL A   1      43.687  27.626  33.584  1.00  0.00     0.009 A 
ATOM     78  C   UNL A   1      44.197  26.040  31.842  1.00  0.00     0.009 A 
ATOM     79  C   UNL A   1      43.458  26.572  34.476  1.00  0.00     0.001 A 
ATOM     80  C   UNL A   1      43.947  24.988  32.726  1.00  0.00     0.001 A 
ATOM     81  C   UNL A   1      43.584  25.254  34.045  1.00  0.00     0.000 A 
ENDBRANCH  63  76
ENDBRANCH  37  38
ENDBRANCH  29  32
ENDBRANCH  27  28
ENDBRANCH  26  27
ENDBRANCH   1  26
TORSDOF 14
ENDMDL
MODEL 3
REMARK VINA RESULT:     -11.9      1.779      3.554
REMARK SMILES O=C(CCc1cn(-c2ccc(Br)cc2)nc1-c1ccccc1)NCCCNC(=O)c1ccc(-c2c3nc(c(-c4ccccc4)c4ccc([nH]4)c(-c4ccccc4)c4nc(c(-c5ccccc5)c5ccc2[nH]5)C=C4)C=C3)cc1
REMARK SMILES IDX 24 1 23 2 1 3 2 4 3 6 4 7 5 8 6 9 16 10 7 11 15 12 17 13
REMARK SMILES IDX 18 14 22 15 19 16 21 17 20 18 8 19 9 20 14 21 10 22 13 23
REMARK SMILES IDX 11 24 12 25 25 26 26 27 27 28 28 29 29 31 30 32 31 33 77 34
REMARK SMILES IDX 32 35 76 36 33 37 34 38 35 39 70 40 36 41 75 42 69 43 71 44
REMARK SMILES IDX 37 45 74 46 68 47 67 48 38 50 60 51 45 52 59 53 46 54 49 55
REMARK SMILES IDX 58 56 72 57 47 58 48 59 57 61 73 62 50 63 39 64 40 65 44 66
REMARK SMILES IDX 41 67 43 68 42 69 61 70 62 71 66 72 63 73 65 74 64 75 51 76
REMARK SMILES IDX 52 77 56 78 53 79 55 80 54 81
REMARK H PARENT 23 5 27 30 71 49 49 60
REMARK Flexibility Score: inf
ROOT
ATOM      1  C   UNL A   1      40.483  21.359  26.940  1.00  0.00     0.117 C 
ENDROOT
BRANCH   1   2
ATOM      2  N   UNL A   1      39.179  21.875  26.522  1.00  0.00    -0.356 N 
ATOM      3  O   UNL A   1      39.772  24.078  26.448  1.00  0.00    -0.275 OA
ATOM      4  C   UNL A   1      38.928  23.203  26.268  1.00  0.00     0.220 C 
ATOM      5  H   UNL A   1      38.439  21.234  26.415  1.00  0.00     0.163 HD
BRANCH   4   6
ATOM      6  C   UNL A   1      37.510  23.573  25.842  1.00  0.00     0.105 C 
BRANCH   6   7
ATOM      7  C   UNL A   1      37.031  23.088  24.478  1.00  0.00     0.049 C 
BRANCH   7   8
ATOM      8  C   UNL A   1      35.827  22.203  24.457  1.00  0.00    -0.001 A 
ATOM      9  C   UNL A   1      35.835  20.831  24.592  1.00  0.00     0.119 A 
ATOM     10  C   UNL A   1      34.448  22.534  24.325  1.00  0.00     0.096 A 
ATOM     11  N   UNL A   1      34.532  20.397  24.541  1.00  0.00    -0.240 N 
ATOM     12  N   UNL A   1      33.683  21.431  24.306  1.00  0.00    -0.168 NA
BRANCH  10  13
ATOM     13  C   UNL A   1      33.871  23.877  24.326  1.00  0.00     0.002 A 
ATOM     14  C   UNL A   1      33.767  24.583  25.536  1.00  0.00     0.010 A 
ATOM     15  C   UNL A   1      33.544  24.530  23.138  1.00  0.00     0.010 A 
ATOM     16  C   UNL A   1      33.335  25.908  25.570  1.00  0.00     0.001 A 
ATOM     17  C   UNL A   1      33.130  25.868  23.168  1.00  0.00     0.001 A 
ATOM     18  C   UNL A   1      33.025  26.554  24.380  1.00  0.00     0.000 A 
ENDBRANCH  10  13
BRANCH  11  19
ATOM     19  C   UNL A   1      34.074  19.071  24.768  1.00  0.00     0.065 A 
ATOM     20  C   UNL A   1      32.904  18.848  25.513  1.00  0.00     0.029 A 
ATOM     21  C   UNL A   1      34.783  17.979  24.251  1.00  0.00     0.029 A 
ATOM     22  C   UNL A   1      32.454  17.546  25.747  1.00  0.00     0.018 A 
ATOM     23  C   UNL A   1      34.349  16.675  24.521  1.00  0.00     0.018 A 
ATOM     24  C   UNL A   1      33.187  16.464  25.264  1.00  0.00     0.018 A 
ATOM     25  Br  UNL A   1      32.600  14.704  25.625  1.00  0.00    -0.051 Br
ENDBRANCH  11  19
ENDBRANCH   7   8
ENDBRANCH   6   7
ENDBRANCH   4   6
ENDBRANCH   1   2
BRANCH   1  26
ATOM     26  C   UNL A   1      40.924  20.089  26.191  1.00  0.00     0.042 C 
BRANCH  26  27
ATOM     27  C   UNL A   1      42.283  19.567  26.634  1.00  0.00     0.118 C 
BRANCH  27  28
ATOM     28  N   UNL A   1      43.335  19.429  25.633  1.00  0.00    -0.352 N 
ATOM     29  C   UNL A   1      44.064  20.441  25.002  1.00  0.00     0.251 C 
ATOM     30  H   UNL A   1      43.560  18.507  25.370  1.00  0.00     0.163 HD
ATOM     31  O   UNL A   1      44.782  20.176  24.053  1.00  0.00    -0.269 OA
BRANCH  29  32
ATOM     32  C   UNL A   1      43.948  21.853  25.470  1.00  0.00     0.039 A 
ATOM     33  C   UNL A   1      43.165  22.811  24.818  1.00  0.00     0.014 A 
ATOM     34  C   UNL A   1      44.656  22.242  26.592  1.00  0.00     0.014 A 
ATOM     35  C   UNL A   1      43.059  24.102  25.362  1.00  0.00     0.010 A 
ATOM     36  C   UNL A   1      44.387  23.417  27.239  1.00  0.00     0.010 A 
ATOM     37  C   UNL A   1      43.667  24.391  26.594  1.00  0.00    -0.014 A 
BRANCH  37  38
ATOM     38  C   UNL A   1      43.549  25.670  27.280  1.00  0.00     0.031 A 
ATOM     39  C   UNL A   1      44.567  26.672  26.899  1.00  0.00     0.074 A 
ATOM     40  C   UNL A   1      42.492  26.050  28.035  1.00  0.00     0.049 A 
ATOM     41  N   UNL A   1      45.580  27.038  27.605  1.00  0.00    -0.248 NA
ATOM     42  C   UNL A   1      44.532  27.247  25.547  1.00  0.00     0.031 C 
ATOM     43  C   UNL A   1      41.203  25.378  28.246  1.00  0.00     0.029 A 
ATOM     44  N   UNL A   1      42.327  27.216  28.717  1.00  0.00    -0.354 N 
ATOM     45  C   UNL A   1      46.225  28.026  26.874  1.00  0.00     0.074 A 
ATOM     46  C   UNL A   1      45.633  28.003  25.558  1.00  0.00     0.031 C 
ATOM     47  C   UNL A   1      40.326  26.237  28.813  1.00  0.00     0.029 A 
ATOM     48  C   UNL A   1      41.037  27.448  29.174  1.00  0.00     0.049 A 
ATOM     49  H   UNL A   1      43.066  27.846  28.875  1.00  0.00     0.167 HD
ATOM     50  C   UNL A   1      47.046  28.924  27.486  1.00  0.00     0.031 A 
ATOM     51  C   UNL A   1      40.591  28.568  29.792  1.00  0.00     0.031 A 
ATOM     52  C   UNL A   1      47.319  28.545  28.852  1.00  0.00     0.049 A 
ATOM     53  C   UNL A   1      41.776  29.266  30.341  1.00  0.00     0.074 A 
ATOM     54  C   UNL A   1      47.890  27.447  29.464  1.00  0.00     0.029 A 
ATOM     55  N   UNL A   1      46.593  29.185  29.832  1.00  0.00    -0.354 N 
ATOM     56  N   UNL A   1      42.496  28.795  31.318  1.00  0.00    -0.248 NA
ATOM     57  C   UNL A   1      42.425  30.270  29.515  1.00  0.00     0.031 C 
ATOM     58  C   UNL A   1      47.087  27.213  30.621  1.00  0.00     0.029 A 
ATOM     59  C   UNL A   1      46.122  28.221  30.687  1.00  0.00     0.049 A 
ATOM     60  H   UNL A   1      46.440  30.154  29.905  1.00  0.00     0.167 HD
ATOM     61  C   UNL A   1      43.804  29.088  30.962  1.00  0.00     0.074 A 
ATOM     62  C   UNL A   1      43.691  30.091  29.904  1.00  0.00     0.031 C 
ATOM     63  C   UNL A   1      44.840  28.286  31.353  1.00  0.00     0.031 A 
BRANCH  50  64
ATOM     64  C   UNL A   1      47.290  30.326  27.002  1.00  0.00    -0.014 A 
ATOM     65  C   UNL A   1      48.581  30.866  27.146  1.00  0.00     0.009 A 
ATOM     66  C   UNL A   1      46.258  31.224  26.675  1.00  0.00     0.009 A 
ATOM     67  C   UNL A   1      48.811  32.242  27.051  1.00  0.00     0.001 A 
ATOM     68  C   UNL A   1      46.491  32.595  26.538  1.00  0.00     0.001 A 
ATOM     69  C   UNL A   1      47.762  33.107  26.756  1.00  0.00     0.000 A 
ENDBRANCH  50  64
BRANCH  51  70
ATOM     70  C   UNL A   1      39.260  29.207  29.732  1.00  0.00    -0.014 A 
ATOM     71  C   UNL A   1      38.761  29.704  28.515  1.00  0.00     0.009 A 
ATOM     72  C   UNL A   1      38.357  29.060  30.799  1.00  0.00     0.009 A 
ATOM     73  C   UNL A   1      37.398  29.988  28.358  1.00  0.00     0.001 A 
ATOM     74  C   UNL A   1      36.996  29.345  30.643  1.00  0.00     0.001 A 
ATOM     75  C   UNL A   1      36.513  29.790  29.416  1.00  0.00     0.000 A 
ENDBRANCH  51  70
BRANCH  63  76
ATOM     76  C   UNL A   1      44.557  27.208  32.373  1.00  0.00    -0.014 A 
ATOM     77  C   UNL A   1      44.283  25.872  32.027  1.00  0.00     0.009 A 
ATOM     78  C   UNL A   1      44.721  27.519  33.730  1.00  0.00     0.009 A 
ATOM     79  C   UNL A   1      44.147  24.888  33.013  1.00  0.00     0.001 A 
ATOM     80  C   UNL A   1      44.607  26.534  34.714  1.00  0.00     0.001 A 
ATOM     81  C   UNL A   1      44.314  25.220  34.355  1.00  0.00     0.000 A 
ENDBRANCH  63  76
ENDBRANCH  37  38
ENDBRANCH  29  32
ENDBRANCH  27  28
ENDBRANCH  26  27
ENDBRANCH   1  26
TORSDOF 14
ENDMDL
