MODEL 1
REMARK VINA RESULT:     -11.9      0.000      0.000
REMARK SMILES O=C1C[C@H](C(=O)NCCCNC(=O)c2ccc(-c3c4nc(c(-c5ccccc5)c5ccc([nH]5)c(-c5ccccc5)c5nc(c(-c6ccccc6)c6ccc3[nH]6)C=C5)C=C4)cc2)c2c(nc(N3CCSCC3)[nH]c2=O)N1
REMARK SMILES IDX 9 1 8 2 7 3 5 4 6 5 4 7 1 8 2 9 3 10 75 11 63 12 62 14 64 15
REMARK SMILES IDX 73 16 65 17 72 18 74 19 66 21 67 22 71 23 68 24 70 25 69 26
REMARK SMILES IDX 10 27 11 28 12 29 13 31 14 32 15 33 61 34 16 35 60 36 17 37
REMARK SMILES IDX 18 38 19 39 54 40 20 41 59 42 53 43 55 44 21 45 58 46 52 47
REMARK SMILES IDX 51 48 22 50 44 51 29 52 43 53 30 54 33 55 42 56 56 57 31 58
REMARK SMILES IDX 32 59 41 61 57 62 34 63 23 64 24 65 28 66 25 67 27 68 26 69
REMARK SMILES IDX 45 70 46 71 50 72 47 73 49 74 48 75 35 76 36 77 40 78 37 79
REMARK SMILES IDX 39 80 38 81
REMARK H PARENT 7 6 75 13 72 20 11 30 55 49 33 60
REMARK Flexibility Score: inf
ROOT
ATOM      1  C   UNL A   1      31.400  32.301  26.583  1.00  0.00     0.042 C 
ENDROOT
BRANCH   1   2
ATOM      2  C   UNL A   1      31.356  30.791  26.771  1.00  0.00     0.117 C 
BRANCH   2   3
ATOM      3  N   UNL A   1      32.689  30.226  26.899  1.00  0.00    -0.355 N 
ATOM      4  C   UNL A   1      33.318  29.222  26.227  1.00  0.00     0.228 C 
ATOM      5  O   UNL A   1      34.407  28.848  26.669  1.00  0.00    -0.274 OA
ATOM      6  H   UNL A   1      33.238  30.644  27.601  1.00  0.00     0.163 HD
BRANCH   4   7
ATOM      7  C   UNL A   1      32.688  28.524  25.019  1.00  0.00     0.127 C 
ATOM      8  O   UNL A   1      34.137  27.900  21.667  1.00  0.00    -0.275 OA
ATOM      9  C   UNL A   1      33.699  27.710  22.800  1.00  0.00     0.226 C 
ATOM     10  C   UNL A   1      33.510  28.852  23.771  1.00  0.00     0.119 C 
ATOM     11  N   UNL A   1      33.444  26.448  23.247  1.00  0.00    -0.310 N 
ATOM     12  C   UNL A   1      32.889  26.108  24.441  1.00  0.00     0.146 A 
ATOM     13  H   UNL A   1      33.687  25.708  22.646  1.00  0.00     0.171 HD
ATOM     14  C   UNL A   1      32.478  27.066  25.276  1.00  0.00     0.073 A 
ATOM     15  N   UNL A   1      32.829  24.765  24.679  1.00  0.00    -0.196 NA
ATOM     16  C   UNL A   1      31.816  26.616  26.513  1.00  0.00     0.258 A 
ATOM     17  C   UNL A   1      32.267  24.376  25.780  1.00  0.00     0.207 A 
ATOM     18  N   UNL A   1      31.748  25.268  26.672  1.00  0.00    -0.292 N 
ATOM     19  O   UNL A   1      31.369  27.390  27.348  1.00  0.00    -0.269 OA
ATOM     20  H   UNL A   1      31.299  24.916  27.474  1.00  0.00     0.173 HD
BRANCH  17  21
ATOM     21  N   UNL A   1      32.186  23.060  26.149  1.00  0.00    -0.341 N 
ATOM     22  C   UNL A   1      31.358  22.093  25.423  1.00  0.00     0.130 C 
ATOM     23  C   UNL A   1      33.061  22.514  27.193  1.00  0.00     0.130 C 
ATOM     24  C   UNL A   1      32.218  21.067  24.679  1.00  0.00     0.091 C 
ATOM     25  C   UNL A   1      34.072  21.506  26.652  1.00  0.00     0.091 C 
ATOM     26  S   UNL A   1      33.259  20.099  25.822  1.00  0.00    -0.158 SA
ENDBRANCH  17  21
ENDBRANCH   4   7
ENDBRANCH   2   3
ENDBRANCH   1   2
BRANCH   1  27
ATOM     27  C   UNL A   1      32.668  32.940  27.131  1.00  0.00     0.118 C 
BRANCH  27  28
ATOM     28  N   UNL A   1      32.421  34.262  27.691  1.00  0.00    -0.352 N 
ATOM     29  C   UNL A   1      33.036  34.881  28.752  1.00  0.00     0.251 C 
ATOM     30  H   UNL A   1      31.716  34.785  27.247  1.00  0.00     0.163 HD
ATOM     31  O   UNL A   1      32.566  35.906  29.232  1.00  0.00    -0.269 OA
BRANCH  29  32
ATOM     32  C   UNL A   1      34.260  34.289  29.326  1.00  0.00     0.039 A 
ATOM     33  C   UNL A   1      34.157  33.474  30.455  1.00  0.00     0.014 A 
ATOM     34  C   UNL A   1      35.505  34.538  28.741  1.00  0.00     0.014 A 
ATOM     35  C   UNL A   1      35.302  32.856  30.961  1.00  0.00     0.010 A 
ATOM     36  C   UNL A   1      36.632  33.868  29.204  1.00  0.00     0.010 A 
ATOM     37  C   UNL A   1      36.541  33.030  30.324  1.00  0.00    -0.014 A 
BRANCH  37  38
ATOM     38  C   UNL A   1      37.762  32.371  30.840  1.00  0.00     0.031 A 
ATOM     39  C   UNL A   1      38.436  32.910  32.068  1.00  0.00     0.074 A 
ATOM     40  C   UNL A   1      38.278  31.310  30.191  1.00  0.00     0.049 A 
ATOM     41  N   UNL A   1      39.516  32.481  32.667  1.00  0.00    -0.248 NA
ATOM     42  C   UNL A   1      37.828  34.094  32.698  1.00  0.00     0.031 C 
ATOM     43  C   UNL A   1      37.728  30.710  28.974  1.00  0.00     0.029 A 
ATOM     44  N   UNL A   1      39.383  30.544  30.470  1.00  0.00    -0.354 N 
ATOM     45  C   UNL A   1      39.716  33.340  33.738  1.00  0.00     0.074 A 
ATOM     46  C   UNL A   1      38.679  34.344  33.683  1.00  0.00     0.031 C 
ATOM     47  C   UNL A   1      38.477  29.649  28.632  1.00  0.00     0.029 A 
ATOM     48  C   UNL A   1      39.574  29.511  29.587  1.00  0.00     0.049 A 
ATOM     49  H   UNL A   1      39.981  30.720  31.232  1.00  0.00     0.167 HD
ATOM     50  C   UNL A   1      40.663  33.279  34.702  1.00  0.00     0.031 A 
ATOM     51  C   UNL A   1      40.521  28.554  29.553  1.00  0.00     0.031 A 
ATOM     52  C   UNL A   1      41.682  32.271  34.772  1.00  0.00     0.049 A 
ATOM     53  C   UNL A   1      41.581  28.526  30.617  1.00  0.00     0.074 A 
ATOM     54  C   UNL A   1      42.655  32.103  35.740  1.00  0.00     0.029 A 
ATOM     55  N   UNL A   1      41.854  31.260  33.841  1.00  0.00    -0.354 N 
ATOM     56  N   UNL A   1      41.729  29.318  31.650  1.00  0.00    -0.248 NA
ATOM     57  C   UNL A   1      42.601  27.471  30.517  1.00  0.00     0.031 C 
ATOM     58  C   UNL A   1      43.443  31.009  35.375  1.00  0.00     0.029 A 
ATOM     59  C   UNL A   1      42.932  30.474  34.202  1.00  0.00     0.049 A 
ATOM     60  H   UNL A   1      41.294  31.122  33.044  1.00  0.00     0.167 HD
ATOM     61  C   UNL A   1      42.844  28.851  32.331  1.00  0.00     0.074 A 
ATOM     62  C   UNL A   1      43.334  27.701  31.599  1.00  0.00     0.031 C 
ATOM     63  C   UNL A   1      43.407  29.333  33.465  1.00  0.00     0.031 A 
BRANCH  50  64
ATOM     64  C   UNL A   1      40.630  34.322  35.778  1.00  0.00    -0.014 A 
ATOM     65  C   UNL A   1      41.369  35.507  35.648  1.00  0.00     0.009 A 
ATOM     66  C   UNL A   1      39.794  34.154  36.893  1.00  0.00     0.009 A 
ATOM     67  C   UNL A   1      41.282  36.503  36.622  1.00  0.00     0.001 A 
ATOM     68  C   UNL A   1      39.694  35.160  37.855  1.00  0.00     0.001 A 
ATOM     69  C   UNL A   1      40.439  36.332  37.720  1.00  0.00     0.000 A 
ENDBRANCH  50  64
BRANCH  51  70
ATOM     70  C   UNL A   1      40.477  27.521  28.489  1.00  0.00    -0.014 A 
ATOM     71  C   UNL A   1      39.747  26.340  28.685  1.00  0.00     0.009 A 
ATOM     72  C   UNL A   1      41.121  27.730  27.259  1.00  0.00     0.009 A 
ATOM     73  C   UNL A   1      39.665  25.384  27.668  1.00  0.00     0.001 A 
ATOM     74  C   UNL A   1      41.021  26.781  26.240  1.00  0.00     0.001 A 
ATOM     75  C   UNL A   1      40.295  25.608  26.446  1.00  0.00     0.000 A 
ENDBRANCH  51  70
BRANCH  63  76
ATOM     76  C   UNL A   1      44.613  28.630  34.009  1.00  0.00    -0.014 A 
ATOM     77  C   UNL A   1      44.473  27.525  34.860  1.00  0.00     0.009 A 
ATOM     78  C   UNL A   1      45.891  28.986  33.550  1.00  0.00     0.009 A 
ATOM     79  C   UNL A   1      45.595  26.786  35.241  1.00  0.00     0.001 A 
ATOM     80  C   UNL A   1      47.007  28.234  33.917  1.00  0.00     0.001 A 
ATOM     81  C   UNL A   1      46.858  27.134  34.760  1.00  0.00     0.000 A 
ENDBRANCH  63  76
ENDBRANCH  37  38
ENDBRANCH  29  32
ENDBRANCH  27  28
ENDBRANCH   1  27
TORSDOF 11
ENDMDL
MODEL 2
REMARK VINA RESULT:     -11.9      4.975     10.049
REMARK SMILES O=C1C[C@H](C(=O)NCCCNC(=O)c2ccc(-c3c4nc(c(-c5ccccc5)c5ccc([nH]5)c(-c5ccccc5)c5nc(c(-c6ccccc6)c6ccc3[nH]6)C=C5)C=C4)cc2)c2c(nc(N3CCSCC3)[nH]c2=O)N1
REMARK SMILES IDX 9 1 8 2 7 3 5 4 6 5 4 7 1 8 2 9 3 10 75 11 63 12 62 14 64 15
REMARK SMILES IDX 73 16 65 17 72 18 74 19 66 21 67 22 71 23 68 24 70 25 69 26
REMARK SMILES IDX 10 27 11 28 12 29 13 31 14 32 15 33 61 34 16 35 60 36 17 37
REMARK SMILES IDX 18 38 19 39 54 40 20 41 59 42 53 43 55 44 21 45 58 46 52 47
REMARK SMILES IDX 51 48 22 50 44 51 29 52 43 53 30 54 33 55 42 56 56 57 31 58
REMARK SMILES IDX 32 59 41 61 57 62 34 63 23 64 24 65 28 66 25 67 27 68 26 69
REMARK SMILES IDX 45 70 46 71 50 72 47 73 49 74 48 75 35 76 36 77 40 78 37 79
REMARK SMILES IDX 39 80 38 81
REMARK H PARENT 7 6 75 13 72 20 11 30 55 49 33 60
REMARK Flexibility Score: inf
ROOT
ATOM      1  C   UNL A   1      38.116  19.308  25.010  1.00  0.00     0.042 C 
ENDROOT
BRANCH   1   2
ATOM      2  C   UNL A   1      37.164  20.386  24.511  1.00  0.00     0.117 C 
BRANCH   2   3
ATOM      3  N   UNL A   1      37.351  21.640  25.222  1.00  0.00    -0.355 N 
ATOM      4  C   UNL A   1      36.462  22.558  25.693  1.00  0.00     0.228 C 
ATOM      5  O   UNL A   1      36.925  23.619  26.119  1.00  0.00    -0.274 OA
ATOM      6  H   UNL A   1      38.293  21.868  25.395  1.00  0.00     0.163 HD
BRANCH   4   7
ATOM      7  C   UNL A   1      34.948  22.335  25.640  1.00  0.00     0.127 C 
ATOM      8  O   UNL A   1      32.461  22.539  28.377  1.00  0.00    -0.275 OA
ATOM      9  C   UNL A   1      33.093  22.802  27.356  1.00  0.00     0.226 C 
ATOM     10  C   UNL A   1      34.423  22.147  27.064  1.00  0.00     0.119 C 
ATOM     11  N   UNL A   1      32.653  23.758  26.491  1.00  0.00    -0.310 N 
ATOM     12  C   UNL A   1      33.211  24.089  25.296  1.00  0.00     0.146 A 
ATOM     13  H   UNL A   1      31.849  24.260  26.757  1.00  0.00     0.171 HD
ATOM     14  C   UNL A   1      34.266  23.403  24.846  1.00  0.00     0.073 A 
ATOM     15  N   UNL A   1      32.624  25.148  24.667  1.00  0.00    -0.196 NA
ATOM     16  C   UNL A   1      34.763  23.771  23.509  1.00  0.00     0.258 A 
ATOM     17  C   UNL A   1      33.081  25.482  23.501  1.00  0.00     0.207 A 
ATOM     18  N   UNL A   1      34.109  24.804  22.916  1.00  0.00    -0.292 N 
ATOM     19  O   UNL A   1      35.703  23.203  22.970  1.00  0.00    -0.269 OA
ATOM     20  H   UNL A   1      34.393  25.076  22.013  1.00  0.00     0.173 HD
BRANCH  17  21
ATOM     21  N   UNL A   1      32.604  26.552  22.792  1.00  0.00    -0.341 N 
ATOM     22  C   UNL A   1      31.310  26.519  22.103  1.00  0.00     0.130 C 
ATOM     23  C   UNL A   1      33.290  27.849  22.830  1.00  0.00     0.130 C 
ATOM     24  C   UNL A   1      30.296  27.451  22.774  1.00  0.00     0.091 C 
ATOM     25  C   UNL A   1      32.476  28.930  23.537  1.00  0.00     0.091 C 
ATOM     26  S   UNL A   1      30.850  29.188  22.749  1.00  0.00    -0.158 SA
ENDBRANCH  17  21
ENDBRANCH   4   7
ENDBRANCH   2   3
ENDBRANCH   1   2
BRANCH   1  27
ATOM     27  C   UNL A   1      39.305  19.864  25.783  1.00  0.00     0.118 C 
BRANCH  27  28
ATOM     28  N   UNL A   1      40.405  18.912  25.861  1.00  0.00    -0.352 N 
ATOM     29  C   UNL A   1      41.747  19.154  26.025  1.00  0.00     0.251 C 
ATOM     30  H   UNL A   1      40.152  17.965  25.787  1.00  0.00     0.163 HD
ATOM     31  O   UNL A   1      42.566  18.257  25.854  1.00  0.00    -0.269 OA
BRANCH  29  32
ATOM     32  C   UNL A   1      42.201  20.510  26.388  1.00  0.00     0.039 A 
ATOM     33  C   UNL A   1      42.566  21.400  25.377  1.00  0.00     0.014 A 
ATOM     34  C   UNL A   1      42.257  20.898  27.730  1.00  0.00     0.014 A 
ATOM     35  C   UNL A   1      42.929  22.706  25.709  1.00  0.00     0.010 A 
ATOM     36  C   UNL A   1      42.553  22.218  28.055  1.00  0.00     0.010 A 
ATOM     37  C   UNL A   1      42.901  23.129  27.048  1.00  0.00    -0.014 A 
BRANCH  37  38
ATOM     38  C   UNL A   1      43.270  24.514  27.417  1.00  0.00     0.031 A 
ATOM     39  C   UNL A   1      44.708  24.941  27.357  1.00  0.00     0.074 A 
ATOM     40  C   UNL A   1      42.321  25.375  27.831  1.00  0.00     0.049 A 
ATOM     41  N   UNL A   1      45.232  26.104  27.650  1.00  0.00    -0.248 NA
ATOM     42  C   UNL A   1      45.688  23.930  26.928  1.00  0.00     0.031 C 
ATOM     43  C   UNL A   1      40.895  25.070  27.954  1.00  0.00     0.029 A 
ATOM     44  N   UNL A   1      42.417  26.688  28.220  1.00  0.00    -0.354 N 
ATOM     45  C   UNL A   1      46.596  25.961  27.442  1.00  0.00     0.074 A 
ATOM     46  C   UNL A   1      46.831  24.591  27.047  1.00  0.00     0.031 C 
ATOM     47  C   UNL A   1      40.245  26.174  28.356  1.00  0.00     0.029 A 
ATOM     48  C   UNL A   1      41.209  27.255  28.545  1.00  0.00     0.049 A 
ATOM     49  H   UNL A   1      43.270  27.177  28.262  1.00  0.00     0.167 HD
ATOM     50  C   UNL A   1      47.566  26.899  27.541  1.00  0.00     0.031 A 
ATOM     51  C   UNL A   1      40.910  28.506  28.942  1.00  0.00     0.031 A 
ATOM     52  C   UNL A   1      47.334  28.265  27.912  1.00  0.00     0.049 A 
ATOM     53  C   UNL A   1      42.009  29.522  29.075  1.00  0.00     0.074 A 
ATOM     54  C   UNL A   1      48.251  29.298  27.992  1.00  0.00     0.029 A 
ATOM     55  N   UNL A   1      46.100  28.789  28.258  1.00  0.00    -0.354 N 
ATOM     56  N   UNL A   1      43.288  29.383  28.830  1.00  0.00    -0.248 NA
ATOM     57  C   UNL A   1      41.625  30.865  29.533  1.00  0.00     0.031 C 
ATOM     58  C   UNL A   1      47.577  30.442  28.426  1.00  0.00     0.029 A 
ATOM     59  C   UNL A   1      46.234  30.128  28.573  1.00  0.00     0.049 A 
ATOM     60  H   UNL A   1      45.256  28.284  28.278  1.00  0.00     0.167 HD
ATOM     61  C   UNL A   1      43.860  30.622  29.087  1.00  0.00     0.074 A 
ATOM     62  C   UNL A   1      42.789  31.504  29.502  1.00  0.00     0.031 C 
ATOM     63  C   UNL A   1      45.159  30.992  28.983  1.00  0.00     0.031 A 
BRANCH  50  64
ATOM     64  C   UNL A   1      48.971  26.485  27.220  1.00  0.00    -0.014 A 
ATOM     65  C   UNL A   1      49.831  26.029  28.231  1.00  0.00     0.009 A 
ATOM     66  C   UNL A   1      49.414  26.477  25.889  1.00  0.00     0.009 A 
ATOM     67  C   UNL A   1      51.114  25.582  27.917  1.00  0.00     0.001 A 
ATOM     68  C   UNL A   1      50.691  26.011  25.575  1.00  0.00     0.001 A 
ATOM     69  C   UNL A   1      51.541  25.567  26.589  1.00  0.00     0.000 A 
ENDBRANCH  50  64
BRANCH  51  70
ATOM     70  C   UNL A   1      39.495  28.871  29.203  1.00  0.00    -0.014 A 
ATOM     71  C   UNL A   1      38.694  29.369  28.164  1.00  0.00     0.009 A 
ATOM     72  C   UNL A   1      38.926  28.678  30.471  1.00  0.00     0.009 A 
ATOM     73  C   UNL A   1      37.349  29.670  28.393  1.00  0.00     0.001 A 
ATOM     74  C   UNL A   1      37.577  28.963  30.691  1.00  0.00     0.001 A 
ATOM     75  C   UNL A   1      36.790  29.462  29.653  1.00  0.00     0.000 A 
ENDBRANCH  51  70
BRANCH  63  76
ATOM     76  C   UNL A   1      45.518  32.410  29.309  1.00  0.00    -0.014 A 
ATOM     77  C   UNL A   1      45.420  33.415  28.337  1.00  0.00     0.009 A 
ATOM     78  C   UNL A   1      45.814  32.763  30.635  1.00  0.00     0.009 A 
ATOM     79  C   UNL A   1      45.611  34.752  28.688  1.00  0.00     0.001 A 
ATOM     80  C   UNL A   1      45.985  34.103  30.986  1.00  0.00     0.001 A 
ATOM     81  C   UNL A   1      45.882  35.096  30.014  1.00  0.00     0.000 A 
ENDBRANCH  63  76
ENDBRANCH  37  38
ENDBRANCH  29  32
ENDBRANCH  27  28
ENDBRANCH   1  27
TORSDOF 11
ENDMDL
MODEL 3
REMARK VINA RESULT:     -11.8      0.440      5.908
REMARK SMILES O=C1C[C@H](C(=O)NCCCNC(=O)c2ccc(-c3c4nc(c(-c5ccccc5)c5ccc([nH]5)c(-c5ccccc5)c5nc(c(-c6ccccc6)c6ccc3[nH]6)C=C5)C=C4)cc2)c2c(nc(N3CCSCC3)[nH]c2=O)N1
REMARK SMILES IDX 9 1 8 2 7 3 5 4 6 5 4 7 1 8 2 9 3 10 75 11 63 12 62 14 64 15
REMARK SMILES IDX 73 16 65 17 72 18 74 19 66 21 67 22 71 23 68 24 70 25 69 26
REMARK SMILES IDX 10 27 11 28 12 29 13 31 14 32 15 33 61 34 16 35 60 36 17 37
REMARK SMILES IDX 18 38 19 39 54 40 20 41 59 42 53 43 55 44 21 45 58 46 52 47
REMARK SMILES IDX 51 48 22 50 44 51 29 52 43 53 30 54 33 55 42 56 56 57 31 58
REMARK SMILES IDX 32 59 41 61 57 62 34 63 23 64 24 65 28 66 25 67 27 68 26 69
REMARK SMILES IDX 45 70 46 71 50 72 47 73 49 74 48 75 35 76 36 77 40 78 37 79
REMARK SMILES IDX 39 80 38 81
REMARK H PARENT 7 6 75 13 72 20 11 30 55 49 33 60
REMARK Flexibility Score: inf
ROOT
ATOM      1  C   UNL A   1      31.408  32.383  26.553  1.00  0.00     0.042 C 
ENDROOT
BRANCH   1   2
ATOM      2  C   UNL A   1      31.373  30.861  26.549  1.00  0.00     0.117 C 
BRANCH   2   3
ATOM      3  N   UNL A   1      32.702  30.292  26.696  1.00  0.00    -0.355 N 
ATOM      4  C   UNL A   1      33.323  29.260  26.061  1.00  0.00     0.228 C 
ATOM      5  O   UNL A   1      34.410  28.895  26.515  1.00  0.00    -0.274 OA
ATOM      6  H   UNL A   1      33.255  30.732  27.381  1.00  0.00     0.163 HD
BRANCH   4   7
ATOM      7  C   UNL A   1      32.686  28.523  24.879  1.00  0.00     0.127 C 
ATOM      8  O   UNL A   1      34.114  27.795  21.539  1.00  0.00    -0.275 OA
ATOM      9  C   UNL A   1      33.684  27.641  22.681  1.00  0.00     0.226 C 
ATOM     10  C   UNL A   1      33.500  28.812  23.616  1.00  0.00     0.119 C 
ATOM     11  N   UNL A   1      33.435  26.393  23.169  1.00  0.00    -0.310 N 
ATOM     12  C   UNL A   1      32.888  26.090  24.377  1.00  0.00     0.146 A 
ATOM     13  H   UNL A   1      33.675  25.635  22.590  1.00  0.00     0.171 HD
ATOM     14  C   UNL A   1      32.481  27.073  25.184  1.00  0.00     0.073 A 
ATOM     15  N   UNL A   1      32.833  24.756  24.658  1.00  0.00    -0.196 NA
ATOM     16  C   UNL A   1      31.829  26.662  26.439  1.00  0.00     0.258 A 
ATOM     17  C   UNL A   1      32.278  24.400  25.774  1.00  0.00     0.207 A 
ATOM     18  N   UNL A   1      31.765  25.319  26.641  1.00  0.00    -0.292 N 
ATOM     19  O   UNL A   1      31.386  27.461  27.252  1.00  0.00    -0.269 OA
ATOM     20  H   UNL A   1      31.321  24.992  27.457  1.00  0.00     0.173 HD
BRANCH  17  21
ATOM     21  N   UNL A   1      32.203  23.096  26.186  1.00  0.00    -0.341 N 
ATOM     22  C   UNL A   1      31.321  22.122  25.537  1.00  0.00     0.130 C 
ATOM     23  C   UNL A   1      33.131  22.568  27.193  1.00  0.00     0.130 C 
ATOM     24  C   UNL A   1      32.124  21.063  24.775  1.00  0.00     0.091 C 
ATOM     25  C   UNL A   1      34.095  21.531  26.624  1.00  0.00     0.091 C 
ATOM     26  S   UNL A   1      33.218  20.112  25.883  1.00  0.00    -0.158 SA
ENDBRANCH  17  21
ENDBRANCH   4   7
ENDBRANCH   2   3
ENDBRANCH   1   2
BRANCH   1  27
ATOM     27  C   UNL A   1      32.627  32.956  27.263  1.00  0.00     0.118 C 
BRANCH  27  28
ATOM     28  N   UNL A   1      32.440  34.351  27.640  1.00  0.00    -0.352 N 
ATOM     29  C   UNL A   1      33.062  35.069  28.632  1.00  0.00     0.251 C 
ATOM     30  H   UNL A   1      31.777  34.848  27.110  1.00  0.00     0.163 HD
ATOM     31  O   UNL A   1      32.637  36.172  28.961  1.00  0.00    -0.269 OA
BRANCH  29  32
ATOM     32  C   UNL A   1      34.236  34.494  29.316  1.00  0.00     0.039 A 
ATOM     33  C   UNL A   1      34.058  33.828  30.530  1.00  0.00     0.014 A 
ATOM     34  C   UNL A   1      35.509  34.613  28.751  1.00  0.00     0.014 A 
ATOM     35  C   UNL A   1      35.153  33.222  31.147  1.00  0.00     0.010 A 
ATOM     36  C   UNL A   1      36.586  33.952  29.331  1.00  0.00     0.010 A 
ATOM     37  C   UNL A   1      36.418  33.260  30.539  1.00  0.00    -0.014 A 
BRANCH  37  38
ATOM     38  C   UNL A   1      37.588  32.611  31.173  1.00  0.00     0.031 A 
ATOM     39  C   UNL A   1      38.219  31.414  30.522  1.00  0.00     0.074 A 
ATOM     40  C   UNL A   1      38.062  33.077  32.344  1.00  0.00     0.049 A 
ATOM     41  N   UNL A   1      39.239  30.702  30.926  1.00  0.00    -0.248 NA
ATOM     42  C   UNL A   1      37.619  30.945  29.262  1.00  0.00     0.031 C 
ATOM     43  C   UNL A   1      37.519  34.216  33.085  1.00  0.00     0.029 A 
ATOM     44  N   UNL A   1      39.116  32.650  33.114  1.00  0.00    -0.354 N 
ATOM     45  C   UNL A   1      39.400  29.706  29.974  1.00  0.00     0.074 A 
ATOM     46  C   UNL A   1      38.347  29.870  28.998  1.00  0.00     0.031 C 
ATOM     47  C   UNL A   1      38.264  34.419  34.184  1.00  0.00     0.029 A 
ATOM     48  C   UNL A   1      39.319  33.410  34.239  1.00  0.00     0.049 A 
ATOM     49  H   UNL A   1      39.673  31.873  32.880  1.00  0.00     0.167 HD
ATOM     50  C   UNL A   1      40.360  28.757  29.902  1.00  0.00     0.031 A 
ATOM     51  C   UNL A   1      40.253  33.310  35.204  1.00  0.00     0.031 A 
ATOM     52  C   UNL A   1      41.420  28.604  30.858  1.00  0.00     0.049 A 
ATOM     53  C   UNL A   1      41.291  32.227  35.118  1.00  0.00     0.074 A 
ATOM     54  C   UNL A   1      42.465  27.699  30.839  1.00  0.00     0.029 A 
ATOM     55  N   UNL A   1      41.570  29.378  31.996  1.00  0.00    -0.354 N 
ATOM     56  N   UNL A   1      41.456  31.321  34.187  1.00  0.00    -0.248 NA
ATOM     57  C   UNL A   1      42.272  32.154  36.211  1.00  0.00     0.031 C 
ATOM     58  C   UNL A   1      43.231  27.900  31.990  1.00  0.00     0.029 A 
ATOM     59  C   UNL A   1      42.683  28.958  32.700  1.00  0.00     0.049 A 
ATOM     60  H   UNL A   1      40.976  30.115  32.264  1.00  0.00     0.167 HD
ATOM     61  C   UNL A   1      42.567  30.582  34.569  1.00  0.00     0.074 A 
ATOM     62  C   UNL A   1      43.041  31.147  35.816  1.00  0.00     0.031 C 
ATOM     63  C   UNL A   1      43.142  29.530  33.938  1.00  0.00     0.031 A 
BRANCH  50  64
ATOM     64  C   UNL A   1      40.325  27.817  28.734  1.00  0.00    -0.014 A 
ATOM     65  C   UNL A   1      41.012  28.122  27.549  1.00  0.00     0.009 A 
ATOM     66  C   UNL A   1      39.665  26.584  28.845  1.00  0.00     0.009 A 
ATOM     67  C   UNL A   1      41.030  27.214  26.491  1.00  0.00     0.001 A 
ATOM     68  C   UNL A   1      39.701  25.669  27.792  1.00  0.00     0.001 A 
ATOM     69  C   UNL A   1      40.381  25.985  26.616  1.00  0.00     0.000 A 
ENDBRANCH  50  64
BRANCH  51  70
ATOM     70  C   UNL A   1      40.265  34.296  36.313  1.00  0.00    -0.014 A 
ATOM     71  C   UNL A   1      40.960  35.506  36.170  1.00  0.00     0.009 A 
ATOM     72  C   UNL A   1      39.546  34.057  37.494  1.00  0.00     0.009 A 
ATOM     73  C   UNL A   1      40.937  36.457  37.194  1.00  0.00     0.001 A 
ATOM     74  C   UNL A   1      39.511  35.018  38.506  1.00  0.00     0.001 A 
ATOM     75  C   UNL A   1      40.209  36.216  38.357  1.00  0.00     0.000 A 
ENDBRANCH  51  70
BRANCH  63  76
ATOM     76  C   UNL A   1      44.356  28.910  34.561  1.00  0.00    -0.014 A 
ATOM     77  C   UNL A   1      44.235  27.809  35.421  1.00  0.00     0.009 A 
ATOM     78  C   UNL A   1      45.634  29.339  34.169  1.00  0.00     0.009 A 
ATOM     79  C   UNL A   1      45.376  27.146  35.876  1.00  0.00     0.001 A 
ATOM     80  C   UNL A   1      46.771  28.662  34.611  1.00  0.00     0.001 A 
ATOM     81  C   UNL A   1      46.642  27.566  35.462  1.00  0.00     0.000 A 
ENDBRANCH  63  76
ENDBRANCH  37  38
ENDBRANCH  29  32
ENDBRANCH  27  28
ENDBRANCH   1  27
TORSDOF 11
ENDMDL
