MODEL 1
REMARK VINA RESULT:     -11.3      0.000      0.000
REMARK SMILES COCC[C@@]1(C(=O)NCCCNC(=O)c2ccc(-c3c4nc(c(-c5ccccc5)c5ccc([nH]5)c(-c5ccccc5)c5nc(c(-c6ccccc6)c6ccc3[nH]6)C=C5)C=C4)cc2)CCC[N@@H+](Cc2cccc3c2OC(C)(C)C3)C1
REMARK SMILES IDX 9 1 8 2 6 3 7 4 5 6 63 7 79 8 64 9 66 10 65 11 4 13 3 14
REMARK SMILES IDX 2 15 1 16 67 17 68 18 69 19 73 20 70 21 72 22 74 23 71 24
REMARK SMILES IDX 78 25 75 26 76 27 77 28 10 29 11 30 12 31 13 32 14 34 15 35
REMARK SMILES IDX 16 36 62 37 17 38 61 39 18 40 19 41 20 42 55 43 21 44 60 45
REMARK SMILES IDX 54 46 56 47 22 48 59 49 53 50 52 51 23 53 45 54 30 55 44 56
REMARK SMILES IDX 31 57 34 58 43 59 57 60 32 61 33 62 42 64 58 65 35 66 24 67
REMARK SMILES IDX 25 68 29 69 26 70 28 71 27 72 46 73 47 74 51 75 48 76 50 77
REMARK SMILES IDX 49 78 36 79 37 80 41 81 38 82 40 83 39 84
REMARK H PARENT 8 5 66 12 12 33 56 52 34 63
REMARK Flexibility Score: inf
ROOT
ATOM      1  C   UNL A   1      36.434  21.455  24.335  1.00  0.00     0.117 C 
ENDROOT
BRANCH   1   2
ATOM      2  N   UNL A   1      35.968  22.236  25.448  1.00  0.00    -0.355 N 
ATOM      3  C   UNL A   1      34.739  22.508  25.933  1.00  0.00     0.232 C 
ATOM      4  O   UNL A   1      34.760  23.386  26.812  1.00  0.00    -0.274 OA
ATOM      5  H   UNL A   1      36.694  22.657  25.962  1.00  0.00     0.163 HD
BRANCH   3   6
ATOM      6  C   UNL A   1      33.374  21.929  25.426  1.00  0.00     0.100 C 
ATOM      7  C   UNL A   1      33.165  21.846  23.887  1.00  0.00     0.029 C 
ATOM      8  C   UNL A   1      32.265  22.786  26.140  1.00  0.00     0.279 C 
ATOM      9  C   UNL A   1      32.344  22.929  23.196  1.00  0.00     0.063 C 
ATOM     10  N   UNL A   1      31.840  23.991  25.401  1.00  0.00    -0.330 N 
ATOM     11  C   UNL A   1      31.333  23.642  24.075  1.00  0.00     0.262 C 
ATOM     12  H   UNL A   1      32.681  24.551  25.258  1.00  0.00     0.348 HD
BRANCH   6  13
ATOM     13  C   UNL A   1      33.461  20.388  25.888  1.00  0.00     0.051 C 
BRANCH  13  14
ATOM     14  C   UNL A   1      33.253  19.266  24.879  1.00  0.00     0.161 C 
BRANCH  14  15
ATOM     15  O   UNL A   1      32.152  18.430  25.232  1.00  0.00    -0.385 OA
ATOM     16  C   UNL A   1      32.502  17.070  25.387  1.00  0.00     0.194 C 
ENDBRANCH  14  15
ENDBRANCH  13  14
ENDBRANCH   6  13
BRANCH  10  17
ATOM     17  C   UNL A   1      30.953  24.932  26.179  1.00  0.00     0.303 C 
BRANCH  17  18
ATOM     18  C   UNL A   1      31.308  26.414  26.124  1.00  0.00     0.049 A 
ATOM     19  C   UNL A   1      31.120  27.221  27.250  1.00  0.00     0.013 A 
ATOM     20  C   UNL A   1      32.197  26.903  25.190  1.00  0.00     0.132 A 
ATOM     21  C   UNL A   1      32.037  28.244  27.536  1.00  0.00     0.001 A 
ATOM     22  C   UNL A   1      33.236  27.733  25.542  1.00  0.00    -0.001 A 
ATOM     23  O   UNL A   1      31.945  26.992  23.839  1.00  0.00    -0.487 OA
ATOM     24  C   UNL A   1      33.173  28.424  26.734  1.00  0.00     0.008 A 
ATOM     25  C   UNL A   1      34.177  27.785  24.401  1.00  0.00     0.087 C 
ATOM     26  C   UNL A   1      33.161  27.566  23.259  1.00  0.00     0.108 C 
ATOM     27  C   UNL A   1      32.996  28.937  22.575  1.00  0.00     0.057 C 
ATOM     28  C   UNL A   1      33.502  26.509  22.210  1.00  0.00     0.057 C 
ENDBRANCH  17  18
ENDBRANCH  10  17
ENDBRANCH   3   6
ENDBRANCH   1   2
BRANCH   1  29
ATOM     29  C   UNL A   1      37.322  20.306  24.785  1.00  0.00     0.042 C 
BRANCH  29  30
ATOM     30  C   UNL A   1      38.458  20.731  25.692  1.00  0.00     0.118 C 
BRANCH  30  31
ATOM     31  N   UNL A   1      39.527  19.747  25.743  1.00  0.00    -0.352 N 
ATOM     32  C   UNL A   1      40.852  19.880  26.028  1.00  0.00     0.251 C 
ATOM     33  H   UNL A   1      39.244  18.827  25.536  1.00  0.00     0.163 HD
ATOM     34  O   UNL A   1      41.596  18.904  25.835  1.00  0.00    -0.269 OA
BRANCH  32  35
ATOM     35  C   UNL A   1      41.425  21.136  26.553  1.00  0.00     0.039 A 
ATOM     36  C   UNL A   1      41.389  21.355  27.935  1.00  0.00     0.014 A 
ATOM     37  C   UNL A   1      41.928  22.133  25.716  1.00  0.00     0.014 A 
ATOM     38  C   UNL A   1      41.843  22.562  28.462  1.00  0.00     0.010 A 
ATOM     39  C   UNL A   1      42.508  23.277  26.251  1.00  0.00     0.010 A 
ATOM     40  C   UNL A   1      42.410  23.533  27.623  1.00  0.00    -0.014 A 
BRANCH  40  41
ATOM     41  C   UNL A   1      42.796  24.866  28.143  1.00  0.00     0.031 A 
ATOM     42  C   UNL A   1      41.734  25.917  28.357  1.00  0.00     0.074 A 
ATOM     43  C   UNL A   1      44.088  25.136  28.404  1.00  0.00     0.049 A 
ATOM     44  N   UNL A   1      41.862  27.146  28.789  1.00  0.00    -0.248 NA
ATOM     45  C   UNL A   1      40.348  25.551  28.011  1.00  0.00     0.031 C 
ATOM     46  C   UNL A   1      45.209  24.215  28.195  1.00  0.00     0.029 A 
ATOM     47  N   UNL A   1      44.676  26.265  28.913  1.00  0.00    -0.354 N 
ATOM     48  C   UNL A   1      40.587  27.698  28.734  1.00  0.00     0.074 A 
ATOM     49  C   UNL A   1      39.712  26.701  28.166  1.00  0.00     0.031 C 
ATOM     50  C   UNL A   1      46.341  24.802  28.615  1.00  0.00     0.029 A 
ATOM     51  C   UNL A   1      46.033  26.147  29.085  1.00  0.00     0.049 A 
ATOM     52  H   UNL A   1      44.173  27.082  29.133  1.00  0.00     0.167 HD
ATOM     53  C   UNL A   1      40.170  28.917  29.152  1.00  0.00     0.031 A 
ATOM     54  C   UNL A   1      46.924  27.028  29.576  1.00  0.00     0.031 A 
ATOM     55  C   UNL A   1      41.037  29.892  29.751  1.00  0.00     0.049 A 
ATOM     56  C   UNL A   1      46.433  28.367  30.053  1.00  0.00     0.074 A 
ATOM     57  C   UNL A   1      40.714  31.135  30.264  1.00  0.00     0.029 A 
ATOM     58  N   UNL A   1      42.402  29.725  29.927  1.00  0.00    -0.354 N 
ATOM     59  N   UNL A   1      45.213  28.849  30.055  1.00  0.00    -0.248 NA
ATOM     60  C   UNL A   1      47.442  29.272  30.619  1.00  0.00     0.031 C 
ATOM     61  C   UNL A   1      41.894  31.741  30.706  1.00  0.00     0.029 A 
ATOM     62  C   UNL A   1      42.939  30.849  30.528  1.00  0.00     0.049 A 
ATOM     63  H   UNL A   1      42.913  28.926  29.663  1.00  0.00     0.167 HD
ATOM     64  C   UNL A   1      45.302  30.099  30.655  1.00  0.00     0.074 A 
ATOM     65  C   UNL A   1      46.691  30.288  31.020  1.00  0.00     0.031 C 
ATOM     66  C   UNL A   1      44.324  31.009  30.887  1.00  0.00     0.031 A 
BRANCH  53  67
ATOM     67  C   UNL A   1      38.714  29.255  28.975  1.00  0.00    -0.014 A 
ATOM     68  C   UNL A   1      38.214  29.715  27.746  1.00  0.00     0.009 A 
ATOM     69  C   UNL A   1      37.824  29.086  30.047  1.00  0.00     0.009 A 
ATOM     70  C   UNL A   1      36.861  30.035  27.605  1.00  0.00     0.001 A 
ATOM     71  C   UNL A   1      36.466  29.375  29.894  1.00  0.00     0.001 A 
ATOM     72  C   UNL A   1      35.988  29.859  28.677  1.00  0.00     0.000 A 
ENDBRANCH  53  67
BRANCH  54  73
ATOM     73  C   UNL A   1      48.363  26.664  29.672  1.00  0.00    -0.014 A 
ATOM     74  C   UNL A   1      49.263  27.030  28.659  1.00  0.00     0.009 A 
ATOM     75  C   UNL A   1      48.842  25.934  30.772  1.00  0.00     0.009 A 
ATOM     76  C   UNL A   1      50.602  26.637  28.725  1.00  0.00     0.001 A 
ATOM     77  C   UNL A   1      50.188  25.572  30.850  1.00  0.00     0.001 A 
ATOM     78  C   UNL A   1      51.064  25.912  29.821  1.00  0.00     0.000 A 
ENDBRANCH  54  73
BRANCH  66  79
ATOM     79  C   UNL A   1      44.717  32.263  31.616  1.00  0.00    -0.014 A 
ATOM     80  C   UNL A   1      44.634  32.358  33.014  1.00  0.00     0.009 A 
ATOM     81  C   UNL A   1      45.201  33.360  30.887  1.00  0.00     0.009 A 
ATOM     82  C   UNL A   1      44.982  33.544  33.661  1.00  0.00     0.001 A 
ATOM     83  C   UNL A   1      45.583  34.532  31.539  1.00  0.00     0.001 A 
ATOM     84  C   UNL A   1      45.460  34.628  32.923  1.00  0.00     0.000 A 
ENDBRANCH  66  79
ENDBRANCH  40  41
ENDBRANCH  32  35
ENDBRANCH  30  31
ENDBRANCH  29  30
ENDBRANCH   1  29
TORSDOF 15
ENDMDL
MODEL 2
REMARK VINA RESULT:     -11.1      0.574      5.791
REMARK SMILES COCC[C@@]1(C(=O)NCCCNC(=O)c2ccc(-c3c4nc(c(-c5ccccc5)c5ccc([nH]5)c(-c5ccccc5)c5nc(c(-c6ccccc6)c6ccc3[nH]6)C=C5)C=C4)cc2)CCC[N@@H+](Cc2cccc3c2OC(C)(C)C3)C1
REMARK SMILES IDX 9 1 8 2 6 3 7 4 5 6 63 7 79 8 64 9 66 10 65 11 4 13 3 14
REMARK SMILES IDX 2 15 1 16 67 17 68 18 69 19 73 20 70 21 72 22 74 23 71 24
REMARK SMILES IDX 78 25 75 26 76 27 77 28 10 29 11 30 12 31 13 32 14 34 15 35
REMARK SMILES IDX 16 36 62 37 17 38 61 39 18 40 19 41 20 42 55 43 21 44 60 45
REMARK SMILES IDX 54 46 56 47 22 48 59 49 53 50 52 51 23 53 45 54 30 55 44 56
REMARK SMILES IDX 31 57 34 58 43 59 57 60 32 61 33 62 42 64 58 65 35 66 24 67
REMARK SMILES IDX 25 68 29 69 26 70 28 71 27 72 46 73 47 74 51 75 48 76 50 77
REMARK SMILES IDX 49 78 36 79 37 80 41 81 38 82 40 83 39 84
REMARK H PARENT 8 5 66 12 12 33 56 52 34 63
REMARK Flexibility Score: inf
ROOT
ATOM      1  C   UNL A   1      36.142  20.956  24.514  1.00  0.00     0.117 C 
ENDROOT
BRANCH   1   2
ATOM      2  N   UNL A   1      35.640  21.727  25.619  1.00  0.00    -0.355 N 
ATOM      3  C   UNL A   1      34.398  22.083  26.004  1.00  0.00     0.232 C 
ATOM      4  O   UNL A   1      34.408  22.918  26.925  1.00  0.00    -0.274 OA
ATOM      5  H   UNL A   1      36.346  22.062  26.216  1.00  0.00     0.163 HD
BRANCH   3   6
ATOM      6  C   UNL A   1      33.043  21.646  25.349  1.00  0.00     0.100 C 
ATOM      7  C   UNL A   1      32.964  21.673  23.796  1.00  0.00     0.029 C 
ATOM      8  C   UNL A   1      31.942  22.543  26.025  1.00  0.00     0.279 C 
ATOM      9  C   UNL A   1      32.289  22.858  23.114  1.00  0.00     0.063 C 
ATOM     10  N   UNL A   1      31.674  23.821  25.336  1.00  0.00    -0.330 N 
ATOM     11  C   UNL A   1      31.260  23.595  23.952  1.00  0.00     0.262 C 
ATOM     12  H   UNL A   1      32.562  24.320  25.301  1.00  0.00     0.348 HD
BRANCH   6  13
ATOM     13  C   UNL A   1      32.975  20.078  25.712  1.00  0.00     0.051 C 
BRANCH  13  14
ATOM     14  C   UNL A   1      32.873  19.033  24.608  1.00  0.00     0.161 C 
BRANCH  14  15
ATOM     15  O   UNL A   1      33.977  18.130  24.626  1.00  0.00    -0.385 OA
ATOM     16  C   UNL A   1      34.044  17.295  23.488  1.00  0.00     0.194 C 
ENDBRANCH  14  15
ENDBRANCH  13  14
ENDBRANCH   6  13
BRANCH  10  17
ATOM     17  C   UNL A   1      30.794  24.780  26.100  1.00  0.00     0.303 C 
BRANCH  17  18
ATOM     18  C   UNL A   1      31.188  26.253  26.061  1.00  0.00     0.049 A 
ATOM     19  C   UNL A   1      30.972  27.064  27.180  1.00  0.00     0.013 A 
ATOM     20  C   UNL A   1      32.129  26.719  25.168  1.00  0.00     0.132 A 
ATOM     21  C   UNL A   1      31.902  28.064  27.506  1.00  0.00     0.001 A 
ATOM     22  C   UNL A   1      33.172  27.523  25.566  1.00  0.00    -0.001 A 
ATOM     23  O   UNL A   1      31.938  26.815  23.807  1.00  0.00    -0.487 OA
ATOM     24  C   UNL A   1      33.075  28.215  26.754  1.00  0.00     0.008 A 
ATOM     25  C   UNL A   1      34.164  27.551  24.466  1.00  0.00     0.087 C 
ATOM     26  C   UNL A   1      33.193  27.358  23.281  1.00  0.00     0.108 C 
ATOM     27  C   UNL A   1      33.092  28.732  22.592  1.00  0.00     0.057 C 
ATOM     28  C   UNL A   1      33.551  26.292  22.246  1.00  0.00     0.057 C 
ENDBRANCH  17  18
ENDBRANCH  10  17
ENDBRANCH   3   6
ENDBRANCH   1   2
BRANCH   1  29
ATOM     29  C   UNL A   1      37.186  19.945  24.961  1.00  0.00     0.042 C 
BRANCH  29  30
ATOM     30  C   UNL A   1      38.437  20.574  25.538  1.00  0.00     0.118 C 
BRANCH  30  31
ATOM     31  N   UNL A   1      39.543  19.634  25.622  1.00  0.00    -0.352 N 
ATOM     32  C   UNL A   1      40.847  19.816  25.973  1.00  0.00     0.251 C 
ATOM     33  H   UNL A   1      39.311  18.707  25.385  1.00  0.00     0.163 HD
ATOM     34  O   UNL A   1      41.640  18.876  25.798  1.00  0.00    -0.269 OA
BRANCH  32  35
ATOM     35  C   UNL A   1      41.341  21.084  26.549  1.00  0.00     0.039 A 
ATOM     36  C   UNL A   1      41.253  21.262  27.934  1.00  0.00     0.014 A 
ATOM     37  C   UNL A   1      41.818  22.127  25.754  1.00  0.00     0.014 A 
ATOM     38  C   UNL A   1      41.630  22.475  28.507  1.00  0.00     0.010 A 
ATOM     39  C   UNL A   1      42.323  23.283  26.337  1.00  0.00     0.010 A 
ATOM     40  C   UNL A   1      42.172  23.495  27.712  1.00  0.00    -0.014 A 
BRANCH  40  41
ATOM     41  C   UNL A   1      42.475  24.830  28.278  1.00  0.00     0.031 A 
ATOM     42  C   UNL A   1      43.892  25.164  28.680  1.00  0.00     0.074 A 
ATOM     43  C   UNL A   1      41.487  25.728  28.446  1.00  0.00     0.049 A 
ATOM     44  N   UNL A   1      44.364  26.265  29.206  1.00  0.00    -0.248 NA
ATOM     45  C   UNL A   1      44.907  24.111  28.498  1.00  0.00     0.031 C 
ATOM     46  C   UNL A   1      40.073  25.504  28.136  1.00  0.00     0.029 A 
ATOM     47  N   UNL A   1      41.526  27.017  28.911  1.00  0.00    -0.354 N 
ATOM     48  C   UNL A   1      45.713  26.021  29.441  1.00  0.00     0.074 A 
ATOM     49  C   UNL A   1      45.972  24.652  29.067  1.00  0.00     0.031 C 
ATOM     50  C   UNL A   1      39.388  26.634  28.376  1.00  0.00     0.029 A 
ATOM     51  C   UNL A   1      40.304  27.643  28.893  1.00  0.00     0.049 A 
ATOM     52  H   UNL A   1      42.350  27.451  29.229  1.00  0.00     0.167 HD
ATOM     53  C   UNL A   1      46.664  26.871  29.896  1.00  0.00     0.031 A 
ATOM     54  C   UNL A   1      39.967  28.897  29.248  1.00  0.00     0.031 A 
ATOM     55  C   UNL A   1      46.409  28.245  30.231  1.00  0.00     0.049 A 
ATOM     56  C   UNL A   1      41.045  29.829  29.729  1.00  0.00     0.074 A 
ATOM     57  C   UNL A   1      47.306  29.213  30.645  1.00  0.00     0.029 A 
ATOM     58  N   UNL A   1      45.161  28.846  30.178  1.00  0.00    -0.354 N 
ATOM     59  N   UNL A   1      42.328  29.602  29.884  1.00  0.00    -0.248 NA
ATOM     60  C   UNL A   1      40.630  31.198  30.061  1.00  0.00     0.031 C 
ATOM     61  C   UNL A   1      46.591  30.389  30.891  1.00  0.00     0.029 A 
ATOM     62  C   UNL A   1      45.262  30.170  30.566  1.00  0.00     0.049 A 
ATOM     63  H   UNL A   1      44.328  28.398  29.905  1.00  0.00     0.167 HD
ATOM     64  C   UNL A   1      42.878  30.809  30.295  1.00  0.00     0.074 A 
ATOM     65  C   UNL A   1      41.793  31.766  30.346  1.00  0.00     0.031 C 
ATOM     66  C   UNL A   1      44.166  31.104  30.601  1.00  0.00     0.031 A 
BRANCH  53  67
ATOM     67  C   UNL A   1      48.061  26.336  30.051  1.00  0.00    -0.014 A 
ATOM     68  C   UNL A   1      48.977  26.363  28.986  1.00  0.00     0.009 A 
ATOM     69  C   UNL A   1      48.478  25.822  31.288  1.00  0.00     0.009 A 
ATOM     70  C   UNL A   1      50.267  25.850  29.146  1.00  0.00     0.001 A 
ATOM     71  C   UNL A   1      49.779  25.342  31.456  1.00  0.00     0.001 A 
ATOM     72  C   UNL A   1      50.669  25.346  30.383  1.00  0.00     0.000 A 
ENDBRANCH  53  67
BRANCH  54  73
ATOM     73  C   UNL A   1      38.558  29.357  29.131  1.00  0.00    -0.014 A 
ATOM     74  C   UNL A   1      38.065  29.854  27.914  1.00  0.00     0.009 A 
ATOM     75  C   UNL A   1      37.700  29.316  30.242  1.00  0.00     0.009 A 
ATOM     76  C   UNL A   1      36.758  30.337  27.822  1.00  0.00     0.001 A 
ATOM     77  C   UNL A   1      36.383  29.769  30.138  1.00  0.00     0.001 A 
ATOM     78  C   UNL A   1      35.917  30.292  28.933  1.00  0.00     0.000 A 
ENDBRANCH  54  73
BRANCH  66  79
ATOM     79  C   UNL A   1      44.474  32.529  30.963  1.00  0.00    -0.014 A 
ATOM     80  C   UNL A   1      44.815  33.479  29.987  1.00  0.00     0.009 A 
ATOM     81  C   UNL A   1      44.396  32.930  32.306  1.00  0.00     0.009 A 
ATOM     82  C   UNL A   1      45.120  34.789  30.357  1.00  0.00     0.001 A 
ATOM     83  C   UNL A   1      44.666  34.249  32.668  1.00  0.00     0.001 A 
ATOM     84  C   UNL A   1      45.041  35.174  31.696  1.00  0.00     0.000 A 
ENDBRANCH  66  79
ENDBRANCH  40  41
ENDBRANCH  32  35
ENDBRANCH  30  31
ENDBRANCH  29  30
ENDBRANCH   1  29
TORSDOF 15
ENDMDL
MODEL 3
REMARK VINA RESULT:     -11.1      1.997      7.658
REMARK SMILES COCC[C@@]1(C(=O)NCCCNC(=O)c2ccc(-c3c4nc(c(-c5ccccc5)c5ccc([nH]5)c(-c5ccccc5)c5nc(c(-c6ccccc6)c6ccc3[nH]6)C=C5)C=C4)cc2)CCC[N@@H+](Cc2cccc3c2OC(C)(C)C3)C1
REMARK SMILES IDX 9 1 8 2 6 3 7 4 5 6 63 7 79 8 64 9 66 10 65 11 4 13 3 14
REMARK SMILES IDX 2 15 1 16 67 17 68 18 69 19 73 20 70 21 72 22 74 23 71 24
REMARK SMILES IDX 78 25 75 26 76 27 77 28 10 29 11 30 12 31 13 32 14 34 15 35
REMARK SMILES IDX 16 36 62 37 17 38 61 39 18 40 19 41 20 42 55 43 21 44 60 45
REMARK SMILES IDX 54 46 56 47 22 48 59 49 53 50 52 51 23 53 45 54 30 55 44 56
REMARK SMILES IDX 31 57 34 58 43 59 57 60 32 61 33 62 42 64 58 65 35 66 24 67
REMARK SMILES IDX 25 68 29 69 26 70 28 71 27 72 46 73 47 74 51 75 48 76 50 77
REMARK SMILES IDX 49 78 36 79 37 80 41 81 38 82 40 83 39 84
REMARK H PARENT 8 5 66 12 12 33 56 52 34 63
REMARK Flexibility Score: inf
ROOT
ATOM      1  C   UNL A   1      33.381  29.568  25.088  1.00  0.00     0.117 C 
ENDROOT
BRANCH   1   2
ATOM      2  N   UNL A   1      33.533  28.976  23.787  1.00  0.00    -0.355 N 
ATOM      3  C   UNL A   1      32.760  28.147  23.055  1.00  0.00     0.232 C 
ATOM      4  O   UNL A   1      33.346  27.718  22.047  1.00  0.00    -0.274 OA
ATOM      5  H   UNL A   1      34.372  29.227  23.338  1.00  0.00     0.163 HD
BRANCH   3   6
ATOM      6  C   UNL A   1      31.325  27.629  23.415  1.00  0.00     0.100 C 
ATOM      7  C   UNL A   1      30.650  28.230  24.681  1.00  0.00     0.029 C 
ATOM      8  C   UNL A   1      31.450  26.063  23.484  1.00  0.00     0.279 C 
ATOM      9  C   UNL A   1      30.677  27.430  25.979  1.00  0.00     0.063 C 
ATOM     10  N   UNL A   1      31.799  25.526  24.814  1.00  0.00    -0.330 N 
ATOM     11  C   UNL A   1      30.814  25.928  25.817  1.00  0.00     0.262 C 
ATOM     12  H   UNL A   1      32.683  25.962  25.076  1.00  0.00     0.348 HD
BRANCH   6  13
ATOM     13  C   UNL A   1      30.438  28.200  22.197  1.00  0.00     0.051 C 
BRANCH  13  14
ATOM     14  C   UNL A   1      29.954  29.644  22.204  1.00  0.00     0.161 C 
BRANCH  14  15
ATOM     15  O   UNL A   1      29.017  29.897  21.159  1.00  0.00    -0.385 OA
ATOM     16  C   UNL A   1      28.234  31.054  21.369  1.00  0.00     0.194 C 
ENDBRANCH  14  15
ENDBRANCH  13  14
ENDBRANCH   6  13
BRANCH  10  17
ATOM     17  C   UNL A   1      32.145  24.057  24.833  1.00  0.00     0.303 C 
BRANCH  17  18
ATOM     18  C   UNL A   1      33.130  23.597  25.902  1.00  0.00     0.049 A 
ATOM     19  C   UNL A   1      32.672  23.278  27.185  1.00  0.00     0.013 A 
ATOM     20  C   UNL A   1      34.356  23.063  25.564  1.00  0.00     0.132 A 
ATOM     21  C   UNL A   1      33.263  22.220  27.893  1.00  0.00     0.001 A 
ATOM     22  C   UNL A   1      34.812  21.889  26.115  1.00  0.00    -0.001 A 
ATOM     23  O   UNL A   1      35.399  23.780  25.021  1.00  0.00    -0.487 OA
ATOM     24  C   UNL A   1      34.267  21.442  27.300  1.00  0.00     0.008 A 
ATOM     25  C   UNL A   1      35.961  21.427  25.302  1.00  0.00     0.087 C 
ATOM     26  C   UNL A   1      36.478  22.806  24.838  1.00  0.00     0.108 C 
ATOM     27  C   UNL A   1      37.762  23.067  25.647  1.00  0.00     0.057 C 
ATOM     28  C   UNL A   1      36.768  22.981  23.348  1.00  0.00     0.057 C 
ENDBRANCH  17  18
ENDBRANCH  10  17
ENDBRANCH   3   6
ENDBRANCH   1   2
BRANCH   1  29
ATOM     29  C   UNL A   1      34.024  28.718  26.172  1.00  0.00     0.042 C 
BRANCH  29  30
ATOM     30  C   UNL A   1      33.442  28.943  27.551  1.00  0.00     0.118 C 
BRANCH  30  31
ATOM     31  N   UNL A   1      33.608  30.313  28.009  1.00  0.00    -0.352 N 
ATOM     32  C   UNL A   1      34.676  30.945  28.571  1.00  0.00     0.251 C 
ATOM     33  H   UNL A   1      32.813  30.882  27.892  1.00  0.00     0.163 HD
ATOM     34  O   UNL A   1      34.507  32.085  29.036  1.00  0.00    -0.269 OA
BRANCH  32  35
ATOM     35  C   UNL A   1      36.013  30.322  28.646  1.00  0.00     0.039 A 
ATOM     36  C   UNL A   1      36.395  29.714  29.847  1.00  0.00     0.014 A 
ATOM     37  C   UNL A   1      36.926  30.387  27.591  1.00  0.00     0.014 A 
ATOM     38  C   UNL A   1      37.679  29.189  29.985  1.00  0.00     0.010 A 
ATOM     39  C   UNL A   1      38.153  29.743  27.681  1.00  0.00     0.010 A 
ATOM     40  C   UNL A   1      38.568  29.197  28.900  1.00  0.00    -0.014 A 
BRANCH  40  41
ATOM     41  C   UNL A   1      39.972  28.748  29.055  1.00  0.00     0.031 A 
ATOM     42  C   UNL A   1      40.989  29.683  29.665  1.00  0.00     0.074 A 
ATOM     43  C   UNL A   1      40.334  27.521  28.638  1.00  0.00     0.049 A 
ATOM     44  N   UNL A   1      42.266  29.491  29.876  1.00  0.00    -0.248 NA
ATOM     45  C   UNL A   1      40.517  31.023  30.061  1.00  0.00     0.031 C 
ATOM     46  C   UNL A   1      39.450  26.546  27.994  1.00  0.00     0.029 A 
ATOM     47  N   UNL A   1      41.544  26.880  28.705  1.00  0.00    -0.354 N 
ATOM     48  C   UNL A   1      42.745  30.689  30.395  1.00  0.00     0.074 A 
ATOM     49  C   UNL A   1      41.644  31.622  30.405  1.00  0.00     0.031 C 
ATOM     50  C   UNL A   1      40.138  25.416  27.767  1.00  0.00     0.029 A 
ATOM     51  C   UNL A   1      41.514  25.599  28.211  1.00  0.00     0.049 A 
ATOM     52  H   UNL A   1      42.357  27.299  29.070  1.00  0.00     0.167 HD
ATOM     53  C   UNL A   1      43.984  30.980  30.857  1.00  0.00     0.031 A 
ATOM     54  C   UNL A   1      42.491  24.676  28.136  1.00  0.00     0.031 A 
ATOM     55  C   UNL A   1      45.067  30.036  30.880  1.00  0.00     0.049 A 
ATOM     56  C   UNL A   1      43.853  25.016  28.675  1.00  0.00     0.074 A 
ATOM     57  C   UNL A   1      46.347  30.202  31.377  1.00  0.00     0.029 A 
ATOM     58  N   UNL A   1      44.989  28.741  30.390  1.00  0.00    -0.354 N 
ATOM     59  N   UNL A   1      44.272  26.132  29.223  1.00  0.00    -0.248 NA
ATOM     60  C   UNL A   1      44.868  23.957  28.607  1.00  0.00     0.031 C 
ATOM     61  C   UNL A   1      47.058  29.022  31.144  1.00  0.00     0.029 A 
ATOM     62  C   UNL A   1      46.202  28.101  30.561  1.00  0.00     0.049 A 
ATOM     63  H   UNL A   1      44.189  28.338  29.982  1.00  0.00     0.167 HD
ATOM     64  C   UNL A   1      45.589  25.896  29.598  1.00  0.00     0.074 A 
ATOM     65  C   UNL A   1      45.888  24.528  29.232  1.00  0.00     0.031 C 
ATOM     66  C   UNL A   1      46.472  26.735  30.195  1.00  0.00     0.031 A 
BRANCH  53  67
ATOM     67  C   UNL A   1      44.227  32.371  31.375  1.00  0.00    -0.014 A 
ATOM     68  C   UNL A   1      44.739  33.382  30.544  1.00  0.00     0.009 A 
ATOM     69  C   UNL A   1      43.916  32.684  32.707  1.00  0.00     0.009 A 
ATOM     70  C   UNL A   1      44.969  34.665  31.047  1.00  0.00     0.001 A 
ATOM     71  C   UNL A   1      44.115  33.977  33.198  1.00  0.00     0.001 A 
ATOM     72  C   UNL A   1      44.652  34.963  32.371  1.00  0.00     0.000 A 
ENDBRANCH  53  67
BRANCH  54  73
ATOM     73  C   UNL A   1      42.211  23.335  27.558  1.00  0.00    -0.014 A 
ATOM     74  C   UNL A   1      42.593  23.028  26.243  1.00  0.00     0.009 A 
ATOM     75  C   UNL A   1      41.546  22.357  28.315  1.00  0.00     0.009 A 
ATOM     76  C   UNL A   1      42.278  21.787  25.684  1.00  0.00     0.001 A 
ATOM     77  C   UNL A   1      41.263  21.105  27.764  1.00  0.00     0.001 A 
ATOM     78  C   UNL A   1      41.617  20.826  26.446  1.00  0.00     0.000 A 
ENDBRANCH  54  73
BRANCH  66  79
ATOM     79  C   UNL A   1      47.824  26.173  30.536  1.00  0.00    -0.014 A 
ATOM     80  C   UNL A   1      48.853  26.103  29.584  1.00  0.00     0.009 A 
ATOM     81  C   UNL A   1      48.074  25.728  31.844  1.00  0.00     0.009 A 
ATOM     82  C   UNL A   1      50.089  25.553  29.924  1.00  0.00     0.001 A 
ATOM     83  C   UNL A   1      49.322  25.213  32.191  1.00  0.00     0.001 A 
ATOM     84  C   UNL A   1      50.323  25.112  31.227  1.00  0.00     0.000 A 
ENDBRANCH  66  79
ENDBRANCH  40  41
ENDBRANCH  32  35
ENDBRANCH  30  31
ENDBRANCH  29  30
ENDBRANCH   1  29
TORSDOF 15
ENDMDL
