MODEL 1
REMARK VINA RESULT:     -11.5      0.000      0.000
REMARK SMILES Cc1cc(NC(=O)CCC(=O)NCCCNC(=O)c2ccc(-c3c4nc(c(-c5ccccc5)c5ccc([nH]5)c(-c5ccccc5)c5nc(c(-c6ccccc6)c6ccc3[nH]6)C=C5)C=C4)cc2)ccc1S(=O)(=O)[O-]
REMARK SMILES IDX 13 1 12 2 10 3 11 4 9 6 8 7 6 8 5 9 7 11 4 12 1 13 2 14 3 15
REMARK SMILES IDX 69 16 68 17 67 18 70 19 71 20 72 21 73 22 14 23 15 24 16 25
REMARK SMILES IDX 17 26 18 28 19 29 20 30 66 31 21 32 65 33 22 34 23 35 24 36
REMARK SMILES IDX 59 37 25 38 64 39 58 40 60 41 26 42 63 43 57 44 56 45 27 47
REMARK SMILES IDX 49 48 34 49 48 50 35 51 38 52 47 53 61 54 36 55 37 56 46 58
REMARK SMILES IDX 62 59 39 60 28 61 29 62 33 63 30 64 32 65 31 66 50 67 51 68
REMARK SMILES IDX 55 69 52 70 54 71 53 72 40 73 41 74 45 75 42 76 44 77 43 78
REMARK H PARENT 12 5 5 10 16 27 60 46 38 57
REMARK Flexibility Score: inf
ROOT
ATOM      1  C   UNL A   1      31.785  29.122  27.229  1.00  0.00     0.117 C 
ENDROOT
BRANCH   1   2
ATOM      2  N   UNL A   1      31.383  27.729  27.342  1.00  0.00    -0.356 N 
ATOM      3  C   UNL A   1      31.502  26.711  26.448  1.00  0.00     0.220 C 
ATOM      4  O   UNL A   1      31.403  25.556  26.864  1.00  0.00    -0.275 OA
ATOM      5  H   UNL A   1      30.959  27.486  28.197  1.00  0.00     0.163 HD
BRANCH   3   6
ATOM      6  C   UNL A   1      31.768  26.981  24.984  1.00  0.00     0.110 C 
BRANCH   6   7
ATOM      7  C   UNL A   1      33.209  26.889  24.490  1.00  0.00     0.110 C 
BRANCH   7   8
ATOM      8  C   UNL A   1      33.454  26.709  23.006  1.00  0.00     0.224 C 
ATOM      9  N   UNL A   1      33.623  25.498  22.401  1.00  0.00    -0.326 N 
ATOM     10  H   UNL A   1      33.683  25.550  21.419  1.00  0.00     0.169 HD
ATOM     11  O   UNL A   1      33.449  27.705  22.273  1.00  0.00    -0.275 OA
BRANCH   9  12
ATOM     12  C   UNL A   1      33.724  24.195  22.907  1.00  0.00     0.041 A 
ATOM     13  C   UNL A   1      36.262  22.022  24.666  1.00  0.00     0.046 C 
ATOM     14  C   UNL A   1      34.943  22.402  24.059  1.00  0.00    -0.032 A 
ATOM     15  C   UNL A   1      34.912  23.632  23.367  1.00  0.00     0.030 A 
ATOM     16  C   UNL A   1      33.731  21.718  24.230  1.00  0.00     0.057 A 
ATOM     17  C   UNL A   1      32.551  22.221  23.653  1.00  0.00     0.021 A 
ATOM     18  C   UNL A   1      32.552  23.445  22.985  1.00  0.00     0.027 A 
BRANCH  16  19
ATOM     19  S   UNL A   1      33.511  20.231  25.185  1.00  0.00     0.124 S 
ATOM     20  O   UNL A   1      34.392  19.233  24.650  1.00  0.00    -0.237 OA
ATOM     21  O   UNL A   1      33.567  20.625  26.587  1.00  0.00    -0.237 OA
ATOM     22  O   UNL A   1      32.007  19.697  24.982  1.00  0.00    -0.744 OA
ENDBRANCH  16  19
ENDBRANCH   9  12
ENDBRANCH   7   8
ENDBRANCH   6   7
ENDBRANCH   3   6
ENDBRANCH   1   2
BRANCH   1  23
ATOM     23  C   UNL A   1      33.262  29.368  27.488  1.00  0.00     0.042 C 
BRANCH  23  24
ATOM     24  C   UNL A   1      33.807  30.681  26.955  1.00  0.00     0.118 C 
BRANCH  24  25
ATOM     25  N   UNL A   1      34.356  31.562  27.975  1.00  0.00    -0.352 N 
ATOM     26  C   UNL A   1      35.383  31.360  28.877  1.00  0.00     0.251 C 
ATOM     27  H   UNL A   1      33.925  32.446  28.032  1.00  0.00     0.163 HD
ATOM     28  O   UNL A   1      35.601  32.216  29.732  1.00  0.00    -0.269 OA
BRANCH  26  29
ATOM     29  C   UNL A   1      36.330  30.226  28.720  1.00  0.00     0.039 A 
ATOM     30  C   UNL A   1      36.511  29.381  29.827  1.00  0.00     0.014 A 
ATOM     31  C   UNL A   1      37.194  30.127  27.637  1.00  0.00     0.014 A 
ATOM     32  C   UNL A   1      37.700  28.674  29.965  1.00  0.00     0.010 A 
ATOM     33  C   UNL A   1      38.420  29.537  27.821  1.00  0.00     0.010 A 
ATOM     34  C   UNL A   1      38.694  28.874  29.016  1.00  0.00    -0.014 A 
BRANCH  34  35
ATOM     35  C   UNL A   1      40.069  28.446  29.155  1.00  0.00     0.031 A 
ATOM     36  C   UNL A   1      40.469  27.152  28.587  1.00  0.00     0.074 A 
ATOM     37  C   UNL A   1      40.981  29.319  29.632  1.00  0.00     0.049 A 
ATOM     38  N   UNL A   1      41.549  26.537  28.910  1.00  0.00    -0.248 NA
ATOM     39  C   UNL A   1      39.641  26.415  27.638  1.00  0.00     0.031 C 
ATOM     40  C   UNL A   1      42.432  29.261  29.500  1.00  0.00     0.029 A 
ATOM     41  N   UNL A   1      40.756  30.361  30.532  1.00  0.00    -0.354 N 
ATOM     42  C   UNL A   1      41.715  25.512  28.012  1.00  0.00     0.074 A 
ATOM     43  C   UNL A   1      40.454  25.404  27.319  1.00  0.00     0.031 C 
ATOM     44  C   UNL A   1      42.984  30.028  30.456  1.00  0.00     0.029 A 
ATOM     45  C   UNL A   1      41.910  30.450  31.340  1.00  0.00     0.049 A 
ATOM     46  H   UNL A   1      39.950  30.924  30.591  1.00  0.00     0.167 HD
ATOM     47  C   UNL A   1      42.954  24.969  27.866  1.00  0.00     0.031 A 
ATOM     48  C   UNL A   1      41.842  30.168  32.677  1.00  0.00     0.031 A 
ATOM     49  C   UNL A   1      43.908  25.555  28.807  1.00  0.00     0.049 A 
ATOM     50  C   UNL A   1      42.686  28.984  33.112  1.00  0.00     0.074 A 
ATOM     51  C   UNL A   1      44.906  26.508  28.697  1.00  0.00     0.029 A 
ATOM     52  N   UNL A   1      43.680  25.391  30.161  1.00  0.00    -0.354 N 
ATOM     53  N   UNL A   1      43.286  28.169  32.291  1.00  0.00    -0.248 NA
ATOM     54  C   UNL A   1      42.839  28.568  34.507  1.00  0.00     0.031 C 
ATOM     55  C   UNL A   1      45.289  26.897  30.014  1.00  0.00     0.029 A 
ATOM     56  C   UNL A   1      44.541  26.161  30.913  1.00  0.00     0.049 A 
ATOM     57  H   UNL A   1      42.991  24.800  30.539  1.00  0.00     0.167 HD
ATOM     58  C   UNL A   1      43.837  27.128  32.989  1.00  0.00     0.074 A 
ATOM     59  C   UNL A   1      43.531  27.422  34.377  1.00  0.00     0.031 C 
ATOM     60  C   UNL A   1      44.455  26.085  32.362  1.00  0.00     0.031 A 
BRANCH  47  61
ATOM     61  C   UNL A   1      43.373  24.071  26.732  1.00  0.00    -0.014 A 
ATOM     62  C   UNL A   1      43.246  22.679  26.886  1.00  0.00     0.009 A 
ATOM     63  C   UNL A   1      43.924  24.507  25.516  1.00  0.00     0.009 A 
ATOM     64  C   UNL A   1      43.712  21.777  25.922  1.00  0.00     0.001 A 
ATOM     65  C   UNL A   1      44.416  23.612  24.556  1.00  0.00     0.001 A 
ATOM     66  C   UNL A   1      44.318  22.245  24.765  1.00  0.00     0.000 A 
ENDBRANCH  47  61
BRANCH  48  67
ATOM     67  C   UNL A   1      40.513  30.515  33.264  1.00  0.00    -0.014 A 
ATOM     68  C   UNL A   1      40.164  31.878  33.359  1.00  0.00     0.009 A 
ATOM     69  C   UNL A   1      39.489  29.556  33.294  1.00  0.00     0.009 A 
ATOM     70  C   UNL A   1      38.823  32.274  33.327  1.00  0.00     0.001 A 
ATOM     71  C   UNL A   1      38.148  29.960  33.281  1.00  0.00     0.001 A 
ATOM     72  C   UNL A   1      37.818  31.315  33.248  1.00  0.00     0.000 A 
ENDBRANCH  48  67
BRANCH  60  73
ATOM     73  C   UNL A   1      45.005  24.862  33.049  1.00  0.00    -0.014 A 
ATOM     74  C   UNL A   1      44.262  23.696  33.257  1.00  0.00     0.009 A 
ATOM     75  C   UNL A   1      46.299  24.900  33.617  1.00  0.00     0.009 A 
ATOM     76  C   UNL A   1      44.810  22.602  33.944  1.00  0.00     0.001 A 
ATOM     77  C   UNL A   1      46.840  23.824  34.321  1.00  0.00     0.001 A 
ATOM     78  C   UNL A   1      46.098  22.665  34.473  1.00  0.00     0.000 A 
ENDBRANCH  60  73
ENDBRANCH  34  35
ENDBRANCH  26  29
ENDBRANCH  24  25
ENDBRANCH  23  24
ENDBRANCH   1  23
TORSDOF 14
ENDMDL
MODEL 2
REMARK VINA RESULT:     -11.4      3.217      8.607
REMARK SMILES Cc1cc(NC(=O)CCC(=O)NCCCNC(=O)c2ccc(-c3c4nc(c(-c5ccccc5)c5ccc([nH]5)c(-c5ccccc5)c5nc(c(-c6ccccc6)c6ccc3[nH]6)C=C5)C=C4)cc2)ccc1S(=O)(=O)[O-]
REMARK SMILES IDX 13 1 12 2 10 3 11 4 9 6 8 7 6 8 5 9 7 11 4 12 1 13 2 14 3 15
REMARK SMILES IDX 69 16 68 17 67 18 70 19 71 20 72 21 73 22 14 23 15 24 16 25
REMARK SMILES IDX 17 26 18 28 19 29 20 30 66 31 21 32 65 33 22 34 23 35 24 36
REMARK SMILES IDX 59 37 25 38 64 39 58 40 60 41 26 42 63 43 57 44 56 45 27 47
REMARK SMILES IDX 49 48 34 49 48 50 35 51 38 52 47 53 61 54 36 55 37 56 46 58
REMARK SMILES IDX 62 59 39 60 28 61 29 62 33 63 30 64 32 65 31 66 50 67 51 68
REMARK SMILES IDX 55 69 52 70 54 71 53 72 40 73 41 74 45 75 42 76 44 77 43 78
REMARK H PARENT 12 5 5 10 16 27 60 46 38 57
REMARK Flexibility Score: inf
ROOT
ATOM      1  C   UNL A   1      37.051  23.507  25.417  1.00  0.00     0.117 C 
ENDROOT
BRANCH   1   2
ATOM      2  N   UNL A   1      36.222  23.501  24.223  1.00  0.00    -0.356 N 
ATOM      3  C   UNL A   1      34.974  24.005  24.024  1.00  0.00     0.220 C 
ATOM      4  O   UNL A   1      34.596  24.185  22.866  1.00  0.00    -0.275 OA
ATOM      5  H   UNL A   1      36.625  23.066  23.438  1.00  0.00     0.163 HD
BRANCH   3   6
ATOM      6  C   UNL A   1      34.076  24.353  25.189  1.00  0.00     0.110 C 
BRANCH   6   7
ATOM      7  C   UNL A   1      32.910  23.417  25.499  1.00  0.00     0.110 C 
BRANCH   7   8
ATOM      8  C   UNL A   1      32.119  23.643  26.771  1.00  0.00     0.224 C 
ATOM      9  N   UNL A   1      31.298  24.712  26.979  1.00  0.00    -0.326 N 
ATOM     10  H   UNL A   1      30.789  24.663  27.822  1.00  0.00     0.169 HD
ATOM     11  O   UNL A   1      32.166  22.789  27.665  1.00  0.00    -0.275 OA
BRANCH   9  12
ATOM     12  C   UNL A   1      31.035  25.863  26.226  1.00  0.00     0.041 A 
ATOM     13  C   UNL A   1      32.466  29.323  25.737  1.00  0.00     0.046 C 
ATOM     14  C   UNL A   1      31.553  28.154  25.510  1.00  0.00    -0.032 A 
ATOM     15  C   UNL A   1      31.687  27.079  26.415  1.00  0.00     0.030 A 
ATOM     16  C   UNL A   1      30.687  27.986  24.420  1.00  0.00     0.057 A 
ATOM     17  C   UNL A   1      29.929  26.807  24.298  1.00  0.00     0.021 A 
ATOM     18  C   UNL A   1      30.094  25.759  25.203  1.00  0.00     0.027 A 
BRANCH  16  19
ATOM     19  S   UNL A   1      30.470  29.145  23.086  1.00  0.00     0.124 S 
ATOM     20  O   UNL A   1      29.833  30.314  23.620  1.00  0.00    -0.237 OA
ATOM     21  O   UNL A   1      31.749  29.224  22.391  1.00  0.00    -0.237 OA
ATOM     22  O   UNL A   1      29.467  28.510  22.000  1.00  0.00    -0.744 OA
ENDBRANCH  16  19
ENDBRANCH   9  12
ENDBRANCH   7   8
ENDBRANCH   6   7
ENDBRANCH   3   6
ENDBRANCH   1   2
BRANCH   1  23
ATOM     23  C   UNL A   1      37.727  22.180  25.715  1.00  0.00     0.042 C 
BRANCH  23  24
ATOM     24  C   UNL A   1      39.134  22.276  26.277  1.00  0.00     0.118 C 
BRANCH  24  25
ATOM     25  N   UNL A   1      39.962  21.105  26.030  1.00  0.00    -0.352 N 
ATOM     26  C   UNL A   1      41.335  20.956  26.055  1.00  0.00     0.251 C 
ATOM     27  H   UNL A   1      39.462  20.285  25.807  1.00  0.00     0.163 HD
ATOM     28  O   UNL A   1      41.824  19.887  25.697  1.00  0.00    -0.269 OA
BRANCH  26  29
ATOM     29  C   UNL A   1      42.208  21.989  26.671  1.00  0.00     0.039 A 
ATOM     30  C   UNL A   1      42.324  21.981  28.071  1.00  0.00     0.014 A 
ATOM     31  C   UNL A   1      42.694  23.073  25.952  1.00  0.00     0.014 A 
ATOM     32  C   UNL A   1      42.645  23.157  28.740  1.00  0.00     0.010 A 
ATOM     33  C   UNL A   1      42.886  24.267  26.603  1.00  0.00     0.010 A 
ATOM     34  C   UNL A   1      42.788  24.317  27.992  1.00  0.00    -0.014 A 
BRANCH  34  35
ATOM     35  C   UNL A   1      42.840  25.655  28.542  1.00  0.00     0.031 A 
ATOM     36  C   UNL A   1      41.625  26.479  28.516  1.00  0.00     0.074 A 
ATOM     37  C   UNL A   1      43.938  26.038  29.227  1.00  0.00     0.049 A 
ATOM     38  N   UNL A   1      41.626  27.753  28.680  1.00  0.00    -0.248 NA
ATOM     39  C   UNL A   1      40.301  25.930  28.243  1.00  0.00     0.031 C 
ATOM     40  C   UNL A   1      44.066  27.141  30.172  1.00  0.00     0.029 A 
ATOM     41  N   UNL A   1      45.246  25.596  29.031  1.00  0.00    -0.354 N 
ATOM     42  C   UNL A   1      40.320  28.142  28.847  1.00  0.00     0.074 A 
ATOM     43  C   UNL A   1      39.530  27.001  28.453  1.00  0.00     0.031 C 
ATOM     44  C   UNL A   1      45.365  27.465  30.285  1.00  0.00     0.029 A 
ATOM     45  C   UNL A   1      46.086  26.703  29.278  1.00  0.00     0.049 A 
ATOM     46  H   UNL A   1      45.529  24.689  28.772  1.00  0.00     0.167 HD
ATOM     47  C   UNL A   1      40.068  29.342  29.435  1.00  0.00     0.031 A 
ATOM     48  C   UNL A   1      46.826  27.251  28.266  1.00  0.00     0.031 A 
ATOM     49  C   UNL A   1      41.305  30.068  29.717  1.00  0.00     0.049 A 
ATOM     50  C   UNL A   1      46.476  28.691  27.940  1.00  0.00     0.074 A 
ATOM     51  C   UNL A   1      42.059  30.278  30.860  1.00  0.00     0.029 A 
ATOM     52  N   UNL A   1      42.109  30.434  28.654  1.00  0.00    -0.354 N 
ATOM     53  N   UNL A   1      45.445  29.324  28.427  1.00  0.00    -0.248 NA
ATOM     54  C   UNL A   1      47.204  29.501  26.962  1.00  0.00     0.031 C 
ATOM     55  C   UNL A   1      43.324  30.800  30.462  1.00  0.00     0.029 A 
ATOM     56  C   UNL A   1      43.323  30.926  29.085  1.00  0.00     0.049 A 
ATOM     57  H   UNL A   1      41.849  30.353  27.709  1.00  0.00     0.167 HD
ATOM     58  C   UNL A   1      45.325  30.548  27.826  1.00  0.00     0.074 A 
ATOM     59  C   UNL A   1      46.453  30.615  26.914  1.00  0.00     0.031 C 
ATOM     60  C   UNL A   1      44.280  31.384  28.092  1.00  0.00     0.031 A 
BRANCH  47  61
ATOM     61  C   UNL A   1      38.728  29.776  29.966  1.00  0.00    -0.014 A 
ATOM     62  C   UNL A   1      38.086  30.877  29.370  1.00  0.00     0.009 A 
ATOM     63  C   UNL A   1      38.057  29.188  31.051  1.00  0.00     0.009 A 
ATOM     64  C   UNL A   1      36.892  31.406  29.874  1.00  0.00     0.001 A 
ATOM     65  C   UNL A   1      36.875  29.726  31.579  1.00  0.00     0.001 A 
ATOM     66  C   UNL A   1      36.297  30.842  30.994  1.00  0.00     0.000 A 
ENDBRANCH  47  61
BRANCH  48  67
ATOM     67  C   UNL A   1      47.240  26.235  27.252  1.00  0.00    -0.014 A 
ATOM     68  C   UNL A   1      46.286  25.820  26.299  1.00  0.00     0.009 A 
ATOM     69  C   UNL A   1      48.600  26.046  26.966  1.00  0.00     0.009 A 
ATOM     70  C   UNL A   1      46.688  25.374  25.037  1.00  0.00     0.001 A 
ATOM     71  C   UNL A   1      48.995  25.581  25.705  1.00  0.00     0.001 A 
ATOM     72  C   UNL A   1      48.043  25.292  24.728  1.00  0.00     0.000 A 
ENDBRANCH  48  67
BRANCH  60  73
ATOM     73  C   UNL A   1      44.027  32.703  27.410  1.00  0.00    -0.014 A 
ATOM     74  C   UNL A   1      43.666  33.868  28.094  1.00  0.00     0.009 A 
ATOM     75  C   UNL A   1      44.042  32.776  25.998  1.00  0.00     0.009 A 
ATOM     76  C   UNL A   1      43.397  35.060  27.403  1.00  0.00     0.001 A 
ATOM     77  C   UNL A   1      43.752  33.951  25.305  1.00  0.00     0.001 A 
ATOM     78  C   UNL A   1      43.443  35.101  26.011  1.00  0.00     0.000 A 
ENDBRANCH  60  73
ENDBRANCH  34  35
ENDBRANCH  26  29
ENDBRANCH  24  25
ENDBRANCH  23  24
ENDBRANCH   1  23
TORSDOF 14
ENDMDL
MODEL 3
REMARK VINA RESULT:     -11.4      1.886      3.375
REMARK SMILES Cc1cc(NC(=O)CCC(=O)NCCCNC(=O)c2ccc(-c3c4nc(c(-c5ccccc5)c5ccc([nH]5)c(-c5ccccc5)c5nc(c(-c6ccccc6)c6ccc3[nH]6)C=C5)C=C4)cc2)ccc1S(=O)(=O)[O-]
REMARK SMILES IDX 13 1 12 2 10 3 11 4 9 6 8 7 6 8 5 9 7 11 4 12 1 13 2 14 3 15
REMARK SMILES IDX 69 16 68 17 67 18 70 19 71 20 72 21 73 22 14 23 15 24 16 25
REMARK SMILES IDX 17 26 18 28 19 29 20 30 66 31 21 32 65 33 22 34 23 35 24 36
REMARK SMILES IDX 59 37 25 38 64 39 58 40 60 41 26 42 63 43 57 44 56 45 27 47
REMARK SMILES IDX 49 48 34 49 48 50 35 51 38 52 47 53 61 54 36 55 37 56 46 58
REMARK SMILES IDX 62 59 39 60 28 61 29 62 33 63 30 64 32 65 31 66 50 67 51 68
REMARK SMILES IDX 55 69 52 70 54 71 53 72 40 73 41 74 45 75 42 76 44 77 43 78
REMARK H PARENT 12 5 5 10 16 27 60 46 38 57
REMARK Flexibility Score: inf
ROOT
ATOM      1  C   UNL A   1      32.833  29.127  25.346  1.00  0.00     0.117 C 
ENDROOT
BRANCH   1   2
ATOM      2  N   UNL A   1      31.878  28.161  25.864  1.00  0.00    -0.356 N 
ATOM      3  C   UNL A   1      32.062  26.865  26.238  1.00  0.00     0.220 C 
ATOM      4  O   UNL A   1      31.207  26.338  26.950  1.00  0.00    -0.275 OA
ATOM      5  H   UNL A   1      30.957  28.495  25.958  1.00  0.00     0.163 HD
BRANCH   3   6
ATOM      6  C   UNL A   1      33.290  26.094  25.811  1.00  0.00     0.110 C 
BRANCH   6   7
ATOM      7  C   UNL A   1      33.215  24.569  25.819  1.00  0.00     0.110 C 
BRANCH   7   8
ATOM      8  C   UNL A   1      33.299  23.834  24.497  1.00  0.00     0.224 C 
ATOM      9  N   UNL A   1      32.667  24.238  23.358  1.00  0.00    -0.326 N 
ATOM     10  H   UNL A   1      32.896  23.699  22.565  1.00  0.00     0.169 HD
ATOM     11  O   UNL A   1      34.025  22.835  24.412  1.00  0.00    -0.275 OA
BRANCH   9  12
ATOM     12  C   UNL A   1      31.758  25.271  23.096  1.00  0.00     0.041 A 
ATOM     13  C   UNL A   1      28.299  26.346  24.164  1.00  0.00     0.046 C 
ATOM     14  C   UNL A   1      29.619  26.423  23.453  1.00  0.00    -0.032 A 
ATOM     15  C   UNL A   1      30.442  25.280  23.553  1.00  0.00     0.030 A 
ATOM     16  C   UNL A   1      30.149  27.557  22.821  1.00  0.00     0.057 A 
ATOM     17  C   UNL A   1      31.431  27.507  22.245  1.00  0.00     0.021 A 
ATOM     18  C   UNL A   1      32.224  26.366  22.371  1.00  0.00     0.027 A 
BRANCH  16  19
ATOM     19  S   UNL A   1      29.349  29.143  22.706  1.00  0.00     0.124 S 
ATOM     20  O   UNL A   1      27.950  28.913  22.484  1.00  0.00    -0.237 OA
ATOM     21  O   UNL A   1      29.822  29.930  23.838  1.00  0.00    -0.237 OA
ATOM     22  O   UNL A   1      29.914  29.921  21.417  1.00  0.00    -0.744 OA
ENDBRANCH  16  19
ENDBRANCH   9  12
ENDBRANCH   7   8
ENDBRANCH   6   7
ENDBRANCH   3   6
ENDBRANCH   1   2
BRANCH   1  23
ATOM     23  C   UNL A   1      32.916  30.414  26.149  1.00  0.00     0.042 C 
BRANCH  23  24
ATOM     24  C   UNL A   1      33.359  30.256  27.592  1.00  0.00     0.118 C 
BRANCH  24  25
ATOM     25  N   UNL A   1      34.107  31.387  28.120  1.00  0.00    -0.352 N 
ATOM     26  C   UNL A   1      35.348  31.439  28.723  1.00  0.00     0.251 C 
ATOM     27  H   UNL A   1      33.653  32.258  28.033  1.00  0.00     0.163 HD
ATOM     28  O   UNL A   1      35.735  32.504  29.198  1.00  0.00    -0.269 OA
BRANCH  26  29
ATOM     29  C   UNL A   1      36.286  30.288  28.648  1.00  0.00     0.039 A 
ATOM     30  C   UNL A   1      36.437  29.506  29.805  1.00  0.00     0.014 A 
ATOM     31  C   UNL A   1      37.168  30.120  27.590  1.00  0.00     0.014 A 
ATOM     32  C   UNL A   1      37.615  28.796  30.004  1.00  0.00     0.010 A 
ATOM     33  C   UNL A   1      38.385  29.529  27.830  1.00  0.00     0.010 A 
ATOM     34  C   UNL A   1      38.629  28.932  29.065  1.00  0.00    -0.014 A 
BRANCH  34  35
ATOM     35  C   UNL A   1      39.996  28.499  29.255  1.00  0.00     0.031 A 
ATOM     36  C   UNL A   1      40.409  27.200  28.709  1.00  0.00     0.074 A 
ATOM     37  C   UNL A   1      40.895  29.371  29.757  1.00  0.00     0.049 A 
ATOM     38  N   UNL A   1      41.475  26.582  29.073  1.00  0.00    -0.248 NA
ATOM     39  C   UNL A   1      39.612  26.459  27.737  1.00  0.00     0.031 C 
ATOM     40  C   UNL A   1      42.350  29.306  29.676  1.00  0.00     0.029 A 
ATOM     41  N   UNL A   1      40.644  30.420  30.642  1.00  0.00    -0.354 N 
ATOM     42  C   UNL A   1      41.668  25.550  28.189  1.00  0.00     0.074 A 
ATOM     43  C   UNL A   1      40.431  25.443  27.453  1.00  0.00     0.031 C 
ATOM     44  C   UNL A   1      42.871  30.077  30.646  1.00  0.00     0.029 A 
ATOM     45  C   UNL A   1      41.769  30.509  31.489  1.00  0.00     0.049 A 
ATOM     46  H   UNL A   1      39.839  30.987  30.669  1.00  0.00     0.167 HD
ATOM     47  C   UNL A   1      42.908  25.001  28.090  1.00  0.00     0.031 A 
ATOM     48  C   UNL A   1      41.654  30.236  32.825  1.00  0.00     0.031 A 
ATOM     49  C   UNL A   1      43.831  25.588  29.059  1.00  0.00     0.049 A 
ATOM     50  C   UNL A   1      42.477  29.052  33.297  1.00  0.00     0.074 A 
ATOM     51  C   UNL A   1      44.837  26.537  28.978  1.00  0.00     0.029 A 
ATOM     52  N   UNL A   1      43.556  25.434  30.405  1.00  0.00    -0.354 N 
ATOM     53  N   UNL A   1      43.101  28.228  32.502  1.00  0.00    -0.248 NA
ATOM     54  C   UNL A   1      42.580  28.644  34.699  1.00  0.00     0.031 C 
ATOM     55  C   UNL A   1      45.176  26.933  30.304  1.00  0.00     0.029 A 
ATOM     56  C   UNL A   1      44.393  26.206  31.182  1.00  0.00     0.049 A 
ATOM     57  H   UNL A   1      42.851  24.849  30.763  1.00  0.00     0.167 HD
ATOM     58  C   UNL A   1      43.623  27.190  33.226  1.00  0.00     0.074 A 
ATOM     59  C   UNL A   1      43.271  27.494  34.600  1.00  0.00     0.031 C 
ATOM     60  C   UNL A   1      44.257  26.140  32.627  1.00  0.00     0.031 A 
BRANCH  47  61
ATOM     61  C   UNL A   1      43.362  24.094  26.977  1.00  0.00    -0.014 A 
ATOM     62  C   UNL A   1      43.846  24.668  25.787  1.00  0.00     0.009 A 
ATOM     63  C   UNL A   1      43.314  22.690  27.006  1.00  0.00     0.009 A 
ATOM     64  C   UNL A   1      44.186  23.895  24.671  1.00  0.00     0.001 A 
ATOM     65  C   UNL A   1      43.627  21.909  25.885  1.00  0.00     0.001 A 
ATOM     66  C   UNL A   1      44.055  22.514  24.713  1.00  0.00     0.000 A 
ENDBRANCH  47  61
BRANCH  48  67
ATOM     67  C   UNL A   1      40.307  30.593  33.363  1.00  0.00    -0.014 A 
ATOM     68  C   UNL A   1      39.978  31.960  33.478  1.00  0.00     0.009 A 
ATOM     69  C   UNL A   1      39.267  29.653  33.325  1.00  0.00     0.009 A 
ATOM     70  C   UNL A   1      38.647  32.381  33.398  1.00  0.00     0.001 A 
ATOM     71  C   UNL A   1      37.934  30.082  33.264  1.00  0.00     0.001 A 
ATOM     72  C   UNL A   1      37.629  31.442  33.252  1.00  0.00     0.000 A 
ENDBRANCH  48  67
BRANCH  60  73
ATOM     73  C   UNL A   1      44.778  24.919  33.341  1.00  0.00    -0.014 A 
ATOM     74  C   UNL A   1      46.129  24.718  33.638  1.00  0.00     0.009 A 
ATOM     75  C   UNL A   1      43.896  23.856  33.642  1.00  0.00     0.009 A 
ATOM     76  C   UNL A   1      46.565  23.539  34.263  1.00  0.00     0.001 A 
ATOM     77  C   UNL A   1      44.327  22.673  34.243  1.00  0.00     0.001 A 
ATOM     78  C   UNL A   1      45.664  22.520  34.567  1.00  0.00     0.000 A 
ENDBRANCH  60  73
ENDBRANCH  34  35
ENDBRANCH  26  29
ENDBRANCH  24  25
ENDBRANCH  23  24
ENDBRANCH   1  23
TORSDOF 14
ENDMDL
