MODEL 1
REMARK VINA RESULT:     -15.4      0.000      0.000
REMARK SMILES Cc1ccccc1NC(=S)NN1C(=O)CS[C@H]1c1ccccc1C(=O)NCCCNC(=O)c1ccc(-c2c3nc(c(-c4ccccc4)c4ccc([nH]4)c(-c4ccccc4)c4nc(c(-c5ccccc5)c5ccc2[nH]5)C=C4)C=C3)cc1
REMARK SMILES IDX 24 1 25 2 26 3 23 5 18 6 19 7 20 8 22 9 21 10 17 11 12 12
REMARK SMILES IDX 13 13 14 14 15 15 16 16 11 17 9 19 10 20 8 21 7 23 1 24 2 25
REMARK SMILES IDX 3 26 4 27 6 28 5 29 27 30 28 31 29 32 30 33 31 34 32 36
REMARK SMILES IDX 33 37 34 38 80 39 35 40 79 41 36 42 37 43 38 44 73 45 39 46
REMARK SMILES IDX 78 47 72 48 74 49 40 50 77 51 71 52 70 53 41 55 63 56 48 57
REMARK SMILES IDX 62 58 49 59 52 60 61 61 75 62 50 63 51 64 60 66 76 67 53 68
REMARK SMILES IDX 42 69 43 70 47 71 44 72 46 73 45 74 64 75 65 76 69 77 66 78
REMARK SMILES IDX 68 79 67 80 54 81 55 82 59 83 56 84 58 85 57 86
REMARK H PARENT 26 4 11 18 8 22 30 35 74 54 52 65
REMARK Flexibility Score: inf
ROOT
ATOM      1  C   UNL A   1      33.245  26.385  22.318  1.00  0.00     0.251 C 
ATOM      2  O   UNL A   1      33.633  25.570  21.474  1.00  0.00    -0.269 OA
ATOM      3  N   UNL A   1      33.848  27.890  22.206  1.00  0.00    -0.352 N 
ATOM      4  H   UNL A   1      34.338  28.101  21.378  1.00  0.00     0.163 HD
ENDROOT
BRANCH   1   5
ATOM      5  C   UNL A   1      32.091  25.820  23.532  1.00  0.00     0.046 A 
ATOM      6  C   UNL A   1      32.407  25.338  24.942  1.00  0.00    -0.001 A 
ATOM      7  C   UNL A   1      31.400  25.077  25.876  1.00  0.00     0.007 A 
ATOM      8  C   UNL A   1      30.074  25.234  25.493  1.00  0.00     0.000 A 
ATOM      9  C   UNL A   1      30.732  25.917  23.211  1.00  0.00     0.014 A 
ATOM     10  C   UNL A   1      29.745  25.623  24.183  1.00  0.00     0.001 A 
BRANCH   6  11
ATOM     11  C   UNL A   1      33.833  24.881  25.246  1.00  0.00     0.197 C 
ATOM     12  N   UNL A   1      33.376  23.770  26.075  1.00  0.00    -0.236 N 
ATOM     13  C   UNL A   1      34.434  22.740  27.288  1.00  0.00     0.252 C 
ATOM     14  O   UNL A   1      34.157  22.308  28.391  1.00  0.00    -0.272 OA
ATOM     15  C   UNL A   1      35.994  22.281  25.842  1.00  0.00     0.174 C 
ATOM     16  S   UNL A   1      35.312  23.771  24.074  1.00  0.00    -0.120 SA
BRANCH  12  17
ATOM     17  N   UNL A   1      32.565  22.855  24.555  1.00  0.00    -0.270 N 
ATOM     18  H   UNL A   1      32.168  23.495  23.921  1.00  0.00     0.191 HD
BRANCH  17  19
ATOM     19  C   UNL A   1      32.378  21.414  24.081  1.00  0.00     0.189 C 
ATOM     20  S   UNL A   1      32.139  21.205  22.427  1.00  0.00    -0.039 S 
BRANCH  19  21
ATOM     21  N   UNL A   1      32.199  20.277  24.941  1.00  0.00    -0.331 N 
ATOM     22  H   UNL A   1      31.370  20.298  25.472  1.00  0.00     0.169 HD
BRANCH  21  23
ATOM     23  C   UNL A   1      33.054  19.057  25.178  1.00  0.00     0.043 A 
ATOM     24  C   UNL A   1      35.660  19.168  24.681  1.00  0.00     0.046 C 
ATOM     25  C   UNL A   1      34.213  18.719  24.381  1.00  0.00    -0.028 A 
ATOM     26  C   UNL A   1      34.369  17.420  23.837  1.00  0.00     0.005 A 
ATOM     27  C   UNL A   1      33.697  16.378  24.438  1.00  0.00     0.000 A 
ATOM     28  C   UNL A   1      32.470  17.985  25.836  1.00  0.00     0.026 A 
ATOM     29  C   UNL A   1      32.811  16.660  25.483  1.00  0.00     0.002 A 
ENDBRANCH  21  23
ENDBRANCH  19  21
ENDBRANCH  17  19
ENDBRANCH  12  17
ENDBRANCH   6  11
ENDBRANCH   1   5
BRANCH   3  30
ATOM     30  C   UNL A   1      33.720  29.320  23.511  1.00  0.00     0.118 C 
BRANCH  30  31
ATOM     31  C   UNL A   1      31.804  29.305  24.688  1.00  0.00     0.042 C 
BRANCH  31  32
ATOM     32  C   UNL A   1      31.888  30.383  26.266  1.00  0.00     0.118 C 
BRANCH  32  33
ATOM     33  N   UNL A   1      33.288  30.782  26.664  1.00  0.00    -0.352 N 
ATOM     34  C   UNL A   1      33.957  31.612  27.541  1.00  0.00     0.251 C 
ATOM     35  H   UNL A   1      33.941  30.288  26.117  1.00  0.00     0.163 HD
ATOM     36  O   UNL A   1      33.600  32.682  27.986  1.00  0.00    -0.269 OA
BRANCH  34  37
ATOM     37  C   UNL A   1      35.282  30.936  27.849  1.00  0.00     0.039 A 
ATOM     38  C   UNL A   1      35.485  29.635  28.310  1.00  0.00     0.014 A 
ATOM     39  C   UNL A   1      36.314  31.878  27.969  1.00  0.00     0.014 A 
ATOM     40  C   UNL A   1      36.688  29.353  28.991  1.00  0.00     0.010 A 
ATOM     41  C   UNL A   1      37.316  31.682  28.879  1.00  0.00     0.010 A 
ATOM     42  C   UNL A   1      37.542  30.404  29.369  1.00  0.00    -0.014 A 
BRANCH  42  43
ATOM     43  C   UNL A   1      38.912  30.288  29.866  1.00  0.00     0.031 A 
ATOM     44  C   UNL A   1      39.692  29.236  29.159  1.00  0.00     0.074 A 
ATOM     45  C   UNL A   1      39.475  31.197  30.702  1.00  0.00     0.049 A 
ATOM     46  N   UNL A   1      40.559  28.469  29.722  1.00  0.00    -0.248 NA
ATOM     47  C   UNL A   1      39.426  28.849  27.759  1.00  0.00     0.031 C 
ATOM     48  C   UNL A   1      40.893  31.490  30.889  1.00  0.00     0.029 A 
ATOM     49  N   UNL A   1      38.865  32.027  31.654  1.00  0.00    -0.354 N 
ATOM     50  C   UNL A   1      41.207  27.815  28.690  1.00  0.00     0.074 A 
ATOM     51  C   UNL A   1      40.324  27.884  27.560  1.00  0.00     0.031 C 
ATOM     52  C   UNL A   1      41.055  32.193  32.028  1.00  0.00     0.029 A 
ATOM     53  C   UNL A   1      39.778  32.228  32.725  1.00  0.00     0.049 A 
ATOM     54  H   UNL A   1      37.959  32.406  31.592  1.00  0.00     0.167 HD
ATOM     55  C   UNL A   1      42.539  27.560  28.794  1.00  0.00     0.031 A 
ATOM     56  C   UNL A   1      39.594  31.832  34.036  1.00  0.00     0.031 A 
ATOM     57  C   UNL A   1      43.041  28.060  30.065  1.00  0.00     0.049 A 
ATOM     58  C   UNL A   1      40.585  30.819  34.508  1.00  0.00     0.074 A 
ATOM     59  C   UNL A   1      43.639  29.269  30.377  1.00  0.00     0.029 A 
ATOM     60  N   UNL A   1      42.597  27.507  31.255  1.00  0.00    -0.354 N 
ATOM     61  N   UNL A   1      41.390  30.191  33.716  1.00  0.00    -0.248 NA
ATOM     62  C   UNL A   1      40.515  30.248  35.852  1.00  0.00     0.031 C 
ATOM     63  C   UNL A   1      43.499  29.467  31.768  1.00  0.00     0.029 A 
ATOM     64  C   UNL A   1      42.839  28.374  32.303  1.00  0.00     0.049 A 
ATOM     65  H   UNL A   1      42.172  26.622  31.340  1.00  0.00     0.167 HD
ATOM     66  C   UNL A   1      41.771  29.042  34.337  1.00  0.00     0.074 A 
ATOM     67  C   UNL A   1      41.271  29.155  35.694  1.00  0.00     0.031 C 
ATOM     68  C   UNL A   1      42.379  28.046  33.643  1.00  0.00     0.031 A 
BRANCH  55  69
ATOM     69  C   UNL A   1      43.454  27.253  27.633  1.00  0.00    -0.014 A 
ATOM     70  C   UNL A   1      43.911  25.929  27.480  1.00  0.00     0.009 A 
ATOM     71  C   UNL A   1      43.929  28.180  26.691  1.00  0.00     0.009 A 
ATOM     72  C   UNL A   1      44.836  25.562  26.499  1.00  0.00     0.001 A 
ATOM     73  C   UNL A   1      44.872  27.823  25.713  1.00  0.00     0.001 A 
ATOM     74  C   UNL A   1      45.329  26.516  25.621  1.00  0.00     0.000 A 
ENDBRANCH  55  69
BRANCH  56  75
ATOM     75  C   UNL A   1      38.208  31.613  34.600  1.00  0.00    -0.014 A 
ATOM     76  C   UNL A   1      38.055  31.954  35.934  1.00  0.00     0.009 A 
ATOM     77  C   UNL A   1      37.217  31.979  33.683  1.00  0.00     0.009 A 
ATOM     78  C   UNL A   1      37.485  33.180  36.163  1.00  0.00     0.001 A 
ATOM     79  C   UNL A   1      36.684  33.226  33.878  1.00  0.00     0.001 A 
ATOM     80  C   UNL A   1      36.986  33.885  35.069  1.00  0.00     0.000 A 
ENDBRANCH  56  75
BRANCH  68  81
ATOM     81  C   UNL A   1      42.681  26.721  34.253  1.00  0.00    -0.014 A 
ATOM     82  C   UNL A   1      43.895  26.041  34.095  1.00  0.00     0.009 A 
ATOM     83  C   UNL A   1      41.683  26.111  35.030  1.00  0.00     0.009 A 
ATOM     84  C   UNL A   1      44.028  24.721  34.524  1.00  0.00     0.001 A 
ATOM     85  C   UNL A   1      41.841  24.823  35.526  1.00  0.00     0.001 A 
ATOM     86  C   UNL A   1      42.993  24.109  35.225  1.00  0.00     0.000 A 
ENDBRANCH  68  81
ENDBRANCH  42  43
ENDBRANCH  34  37
ENDBRANCH  32  33
ENDBRANCH  31  32
ENDBRANCH  30  31
ENDBRANCH   3  30
TORSDOF 15
ENDMDL
MODEL 2
REMARK VINA RESULT:     -15.3      3.085      9.109
REMARK SMILES Cc1ccccc1NC(=S)NN1C(=O)CS[C@H]1c1ccccc1C(=O)NCCCNC(=O)c1ccc(-c2c3nc(c(-c4ccccc4)c4ccc([nH]4)c(-c4ccccc4)c4nc(c(-c5ccccc5)c5ccc2[nH]5)C=C4)C=C3)cc1
REMARK SMILES IDX 24 1 25 2 26 3 23 5 18 6 19 7 20 8 22 9 21 10 17 11 12 12
REMARK SMILES IDX 13 13 14 14 15 15 16 16 11 17 9 19 10 20 8 21 7 23 1 24 2 25
REMARK SMILES IDX 3 26 4 27 6 28 5 29 27 30 28 31 29 32 30 33 31 34 32 36
REMARK SMILES IDX 33 37 34 38 80 39 35 40 79 41 36 42 37 43 38 44 73 45 39 46
REMARK SMILES IDX 78 47 72 48 74 49 40 50 77 51 71 52 70 53 41 55 63 56 48 57
REMARK SMILES IDX 62 58 49 59 52 60 61 61 75 62 50 63 51 64 60 66 76 67 53 68
REMARK SMILES IDX 42 69 43 70 47 71 44 72 46 73 45 74 64 75 65 76 69 77 66 78
REMARK SMILES IDX 68 79 67 80 54 81 55 82 59 83 56 84 58 85 57 86
REMARK H PARENT 26 4 11 18 8 22 30 35 74 54 52 65
REMARK Flexibility Score: inf
ROOT
ATOM      1  C   UNL A   1      31.861  23.315  26.677  1.00  0.00     0.251 C 
ATOM      2  O   UNL A   1      30.840  23.839  27.134  1.00  0.00    -0.269 OA
ATOM      3  N   UNL A   1      32.793  22.496  27.728  1.00  0.00    -0.352 N 
ATOM      4  H   UNL A   1      32.397  22.321  28.613  1.00  0.00     0.163 HD
ENDROOT
BRANCH   1   5
ATOM      5  C   UNL A   1      32.181  23.514  24.950  1.00  0.00     0.046 A 
ATOM      6  C   UNL A   1      33.093  24.548  24.301  1.00  0.00    -0.001 A 
ATOM      7  C   UNL A   1      33.405  24.505  22.939  1.00  0.00     0.007 A 
ATOM      8  C   UNL A   1      32.841  23.508  22.153  1.00  0.00     0.000 A 
ATOM      9  C   UNL A   1      31.623  22.566  24.086  1.00  0.00     0.014 A 
ATOM     10  C   UNL A   1      31.951  22.572  22.708  1.00  0.00     0.001 A 
BRANCH   6  11
ATOM     11  C   UNL A   1      33.453  25.798  25.102  1.00  0.00     0.197 C 
ATOM     12  N   UNL A   1      33.383  26.659  23.926  1.00  0.00    -0.236 N 
ATOM     13  C   UNL A   1      34.055  28.441  23.773  1.00  0.00     0.252 C 
ATOM     14  O   UNL A   1      34.622  28.983  22.843  1.00  0.00    -0.272 OA
ATOM     15  C   UNL A   1      33.058  29.177  25.562  1.00  0.00     0.174 C 
ATOM     16  S   UNL A   1      32.295  27.072  26.455  1.00  0.00    -0.120 SA
BRANCH  12  17
ATOM     17  N   UNL A   1      31.463  26.378  23.727  1.00  0.00    -0.270 N 
ATOM     18  H   UNL A   1      31.210  25.454  23.952  1.00  0.00     0.191 HD
BRANCH  17  19
ATOM     19  C   UNL A   1      30.244  27.204  23.317  1.00  0.00     0.189 C 
ATOM     20  S   UNL A   1      28.756  26.659  23.887  1.00  0.00    -0.039 S 
BRANCH  19  21
ATOM     21  N   UNL A   1      30.251  28.264  22.346  1.00  0.00    -0.331 N 
ATOM     22  H   UNL A   1      30.614  28.006  21.468  1.00  0.00     0.169 HD
BRANCH  21  23
ATOM     23  C   UNL A   1      29.805  29.702  22.432  1.00  0.00     0.043 A 
ATOM     24  C   UNL A   1      30.192  31.061  24.681  1.00  0.00     0.046 C 
ATOM     25  C   UNL A   1      29.317  30.323  23.644  1.00  0.00    -0.028 A 
ATOM     26  C   UNL A   1      28.101  31.050  23.651  1.00  0.00     0.005 A 
ATOM     27  C   UNL A   1      27.643  31.563  22.457  1.00  0.00     0.000 A 
ATOM     28  C   UNL A   1      29.389  30.314  21.259  1.00  0.00     0.026 A 
ATOM     29  C   UNL A   1      28.334  31.254  21.281  1.00  0.00     0.002 A 
ENDBRANCH  21  23
ENDBRANCH  19  21
ENDBRANCH  17  19
ENDBRANCH  12  17
ENDBRANCH   6  11
ENDBRANCH   1   5
BRANCH   3  30
ATOM     30  C   UNL A   1      34.591  21.826  27.448  1.00  0.00     0.118 C 
BRANCH  30  31
ATOM     31  C   UNL A   1      35.126  21.540  25.283  1.00  0.00     0.042 C 
BRANCH  31  32
ATOM     32  C   UNL A   1      36.950  21.026  25.026  1.00  0.00     0.118 C 
BRANCH  32  33
ATOM     33  N   UNL A   1      37.911  21.655  26.006  1.00  0.00    -0.352 N 
ATOM     34  C   UNL A   1      39.261  21.742  26.277  1.00  0.00     0.251 C 
ATOM     35  H   UNL A   1      37.408  22.177  26.674  1.00  0.00     0.163 HD
ATOM     36  O   UNL A   1      40.126  20.919  26.066  1.00  0.00    -0.269 OA
BRANCH  34  37
ATOM     37  C   UNL A   1      39.483  23.093  26.934  1.00  0.00     0.039 A 
ATOM     38  C   UNL A   1      39.055  24.340  26.478  1.00  0.00     0.014 A 
ATOM     39  C   UNL A   1      40.498  23.025  27.899  1.00  0.00     0.014 A 
ATOM     40  C   UNL A   1      39.749  25.484  26.925  1.00  0.00     0.010 A 
ATOM     41  C   UNL A   1      41.342  24.086  28.081  1.00  0.00     0.010 A 
ATOM     42  C   UNL A   1      40.955  25.340  27.632  1.00  0.00    -0.014 A 
BRANCH  42  43
ATOM     43  C   UNL A   1      41.679  26.382  28.358  1.00  0.00     0.031 A 
ATOM     44  C   UNL A   1      40.772  27.404  28.950  1.00  0.00     0.074 A 
ATOM     45  C   UNL A   1      42.999  26.292  28.663  1.00  0.00     0.049 A 
ATOM     46  N   UNL A   1      41.041  28.661  29.023  1.00  0.00    -0.248 NA
ATOM     47  C   UNL A   1      39.389  27.100  29.365  1.00  0.00     0.031 C 
ATOM     48  C   UNL A   1      43.721  26.959  29.742  1.00  0.00     0.029 A 
ATOM     49  N   UNL A   1      44.023  25.613  27.986  1.00  0.00    -0.354 N 
ATOM     50  C   UNL A   1      40.062  29.205  29.835  1.00  0.00     0.074 A 
ATOM     51  C   UNL A   1      38.961  28.285  29.803  1.00  0.00     0.031 C 
ATOM     52  C   UNL A   1      45.045  26.884  29.503  1.00  0.00     0.029 A 
ATOM     53  C   UNL A   1      45.236  26.331  28.171  1.00  0.00     0.049 A 
ATOM     54  H   UNL A   1      43.920  24.781  27.471  1.00  0.00     0.167 HD
ATOM     55  C   UNL A   1      40.390  30.207  30.694  1.00  0.00     0.031 A 
ATOM     56  C   UNL A   1      45.984  26.931  27.176  1.00  0.00     0.031 A 
ATOM     57  C   UNL A   1      41.806  30.524  30.568  1.00  0.00     0.049 A 
ATOM     58  C   UNL A   1      46.081  28.416  27.303  1.00  0.00     0.074 A 
ATOM     59  C   UNL A   1      42.893  30.065  31.292  1.00  0.00     0.029 A 
ATOM     60  N   UNL A   1      42.297  31.052  29.386  1.00  0.00    -0.354 N 
ATOM     61  N   UNL A   1      45.351  29.108  28.114  1.00  0.00    -0.248 NA
ATOM     62  C   UNL A   1      46.792  29.225  26.314  1.00  0.00     0.031 C 
ATOM     63  C   UNL A   1      44.047  30.271  30.504  1.00  0.00     0.029 A 
ATOM     64  C   UNL A   1      43.666  30.872  29.316  1.00  0.00     0.049 A 
ATOM     65  H   UNL A   1      41.750  31.493  28.696  1.00  0.00     0.167 HD
ATOM     66  C   UNL A   1      45.310  30.386  27.648  1.00  0.00     0.074 A 
ATOM     67  C   UNL A   1      46.284  30.435  26.575  1.00  0.00     0.031 C 
ATOM     68  C   UNL A   1      44.394  31.269  28.122  1.00  0.00     0.031 A 
BRANCH  55  69
ATOM     69  C   UNL A   1      39.583  30.607  31.906  1.00  0.00    -0.014 A 
ATOM     70  C   UNL A   1      38.903  31.841  31.872  1.00  0.00     0.009 A 
ATOM     71  C   UNL A   1      39.465  29.873  33.097  1.00  0.00     0.009 A 
ATOM     72  C   UNL A   1      38.209  32.347  32.975  1.00  0.00     0.001 A 
ATOM     73  C   UNL A   1      38.784  30.382  34.215  1.00  0.00     0.001 A 
ATOM     74  C   UNL A   1      38.162  31.621  34.155  1.00  0.00     0.000 A 
ENDBRANCH  55  69
BRANCH  56  75
ATOM     75  C   UNL A   1      45.899  26.463  25.741  1.00  0.00    -0.014 A 
ATOM     76  C   UNL A   1      46.291  25.152  25.525  1.00  0.00     0.009 A 
ATOM     77  C   UNL A   1      44.745  26.944  25.113  1.00  0.00     0.009 A 
ATOM     78  C   UNL A   1      45.269  24.243  25.428  1.00  0.00     0.001 A 
ATOM     79  C   UNL A   1      43.703  26.055  25.064  1.00  0.00     0.001 A 
ATOM     80  C   UNL A   1      43.961  24.728  25.405  1.00  0.00     0.000 A 
ENDBRANCH  56  75
BRANCH  68  81
ATOM     81  C   UNL A   1      44.225  32.629  27.539  1.00  0.00    -0.014 A 
ATOM     82  C   UNL A   1      43.934  32.876  26.191  1.00  0.00     0.009 A 
ATOM     83  C   UNL A   1      44.374  33.734  28.391  1.00  0.00     0.009 A 
ATOM     84  C   UNL A   1      43.994  34.172  25.680  1.00  0.00     0.001 A 
ATOM     85  C   UNL A   1      44.357  35.033  27.898  1.00  0.00     0.001 A 
ATOM     86  C   UNL A   1      44.222  35.247  26.533  1.00  0.00     0.000 A 
ENDBRANCH  68  81
ENDBRANCH  42  43
ENDBRANCH  34  37
ENDBRANCH  32  33
ENDBRANCH  31  32
ENDBRANCH  30  31
ENDBRANCH   3  30
TORSDOF 15
ENDMDL
MODEL 3
REMARK VINA RESULT:     -14.4      3.050      8.488
REMARK SMILES Cc1ccccc1NC(=S)NN1C(=O)CS[C@H]1c1ccccc1C(=O)NCCCNC(=O)c1ccc(-c2c3nc(c(-c4ccccc4)c4ccc([nH]4)c(-c4ccccc4)c4nc(c(-c5ccccc5)c5ccc2[nH]5)C=C4)C=C3)cc1
REMARK SMILES IDX 24 1 25 2 26 3 23 5 18 6 19 7 20 8 22 9 21 10 17 11 12 12
REMARK SMILES IDX 13 13 14 14 15 15 16 16 11 17 9 19 10 20 8 21 7 23 1 24 2 25
REMARK SMILES IDX 3 26 4 27 6 28 5 29 27 30 28 31 29 32 30 33 31 34 32 36
REMARK SMILES IDX 33 37 34 38 80 39 35 40 79 41 36 42 37 43 38 44 73 45 39 46
REMARK SMILES IDX 78 47 72 48 74 49 40 50 77 51 71 52 70 53 41 55 63 56 48 57
REMARK SMILES IDX 62 58 49 59 52 60 61 61 75 62 50 63 51 64 60 66 76 67 53 68
REMARK SMILES IDX 42 69 43 70 47 71 44 72 46 73 45 74 64 75 65 76 69 77 66 78
REMARK SMILES IDX 68 79 67 80 54 81 55 82 59 83 56 84 58 85 57 86
REMARK H PARENT 26 4 11 18 8 22 30 35 74 54 52 65
REMARK Flexibility Score: inf
ROOT
ATOM      1  C   UNL A   1      31.990  23.474  26.639  1.00  0.00     0.251 C 
ATOM      2  O   UNL A   1      30.896  23.870  27.054  1.00  0.00    -0.269 OA
ATOM      3  N   UNL A   1      33.010  22.863  27.748  1.00  0.00    -0.352 N 
ATOM      4  H   UNL A   1      32.628  22.684  28.638  1.00  0.00     0.163 HD
ENDROOT
BRANCH   1   5
ATOM      5  C   UNL A   1      32.309  23.615  24.906  1.00  0.00     0.046 A 
ATOM      6  C   UNL A   1      33.272  24.582  24.229  1.00  0.00    -0.001 A 
ATOM      7  C   UNL A   1      33.573  24.491  22.867  1.00  0.00     0.007 A 
ATOM      8  C   UNL A   1      32.951  23.508  22.108  1.00  0.00     0.000 A 
ATOM      9  C   UNL A   1      31.695  22.678  24.068  1.00  0.00     0.014 A 
ATOM     10  C   UNL A   1      32.015  22.635  22.689  1.00  0.00     0.001 A 
BRANCH   6  11
ATOM     11  C   UNL A   1      33.704  25.829  24.998  1.00  0.00     0.197 C 
ATOM     12  N   UNL A   1      33.473  26.703  23.853  1.00  0.00    -0.236 N 
ATOM     13  C   UNL A   1      34.087  28.501  23.646  1.00  0.00     0.252 C 
ATOM     14  O   UNL A   1      34.525  29.067  22.662  1.00  0.00    -0.272 OA
ATOM     15  C   UNL A   1      33.305  29.193  25.555  1.00  0.00     0.174 C 
ATOM     16  S   UNL A   1      32.698  27.062  26.503  1.00  0.00    -0.120 SA
BRANCH  12  17
ATOM     17  N   UNL A   1      31.549  26.385  23.887  1.00  0.00    -0.270 N 
ATOM     18  H   UNL A   1      31.337  25.445  23.690  1.00  0.00     0.191 HD
BRANCH  17  19
ATOM     19  C   UNL A   1      30.281  27.200  24.139  1.00  0.00     0.189 C 
ATOM     20  S   UNL A   1      28.823  26.397  23.886  1.00  0.00    -0.039 S 
BRANCH  19  21
ATOM     21  N   UNL A   1      30.241  28.618  24.376  1.00  0.00    -0.331 N 
ATOM     22  H   UNL A   1      30.492  28.881  25.291  1.00  0.00     0.169 HD
BRANCH  21  23
ATOM     23  C   UNL A   1      29.884  29.773  23.476  1.00  0.00     0.043 A 
ATOM     24  C   UNL A   1      29.873  32.241  24.455  1.00  0.00     0.046 C 
ATOM     25  C   UNL A   1      29.191  30.961  23.925  1.00  0.00    -0.028 A 
ATOM     26  C   UNL A   1      28.054  31.446  23.235  1.00  0.00     0.005 A 
ATOM     27  C   UNL A   1      27.896  31.093  21.912  1.00  0.00     0.000 A 
ATOM     28  C   UNL A   1      29.769  29.515  22.117  1.00  0.00     0.026 A 
ATOM     29  C   UNL A   1      28.800  30.190  21.343  1.00  0.00     0.002 A 
ENDBRANCH  21  23
ENDBRANCH  19  21
ENDBRANCH  17  19
ENDBRANCH  12  17
ENDBRANCH   6  11
ENDBRANCH   1   5
BRANCH   3  30
ATOM     30  C   UNL A   1      34.891  22.445  27.527  1.00  0.00     0.118 C 
BRANCH  30  31
ATOM     31  C   UNL A   1      35.469  21.955  25.410  1.00  0.00     0.042 C 
BRANCH  31  32
ATOM     32  C   UNL A   1      37.343  22.157  25.081  1.00  0.00     0.118 C 
BRANCH  32  33
ATOM     33  N   UNL A   1      38.055  23.020  26.094  1.00  0.00    -0.352 N 
ATOM     34  C   UNL A   1      39.292  23.179  26.684  1.00  0.00     0.251 C 
ATOM     35  H   UNL A   1      37.431  23.693  26.452  1.00  0.00     0.163 HD
ATOM     36  O   UNL A   1      40.127  22.333  26.923  1.00  0.00    -0.269 OA
BRANCH  34  37
ATOM     37  C   UNL A   1      39.424  24.655  27.020  1.00  0.00     0.039 A 
ATOM     38  C   UNL A   1      40.184  25.614  26.351  1.00  0.00     0.014 A 
ATOM     39  C   UNL A   1      38.973  24.919  28.321  1.00  0.00     0.014 A 
ATOM     40  C   UNL A   1      40.571  26.769  27.063  1.00  0.00     0.010 A 
ATOM     41  C   UNL A   1      39.596  25.870  29.081  1.00  0.00     0.010 A 
ATOM     42  C   UNL A   1      40.370  26.835  28.452  1.00  0.00    -0.014 A 
BRANCH  42  43
ATOM     43  C   UNL A   1      40.494  28.017  29.303  1.00  0.00     0.031 A 
ATOM     44  C   UNL A   1      39.464  29.050  29.003  1.00  0.00     0.074 A 
ATOM     45  C   UNL A   1      41.295  28.061  30.398  1.00  0.00     0.049 A 
ATOM     46  N   UNL A   1      39.674  30.320  29.039  1.00  0.00    -0.248 NA
ATOM     47  C   UNL A   1      38.130  28.716  28.467  1.00  0.00     0.031 C 
ATOM     48  C   UNL A   1      41.173  28.923  31.569  1.00  0.00     0.029 A 
ATOM     49  N   UNL A   1      42.484  27.363  30.658  1.00  0.00    -0.354 N 
ATOM     50  C   UNL A   1      38.427  30.908  28.931  1.00  0.00     0.074 A 
ATOM     51  C   UNL A   1      37.571  29.920  28.337  1.00  0.00     0.031 C 
ATOM     52  C   UNL A   1      42.331  28.905  32.258  1.00  0.00     0.029 A 
ATOM     53  C   UNL A   1      43.316  28.180  31.469  1.00  0.00     0.049 A 
ATOM     54  H   UNL A   1      42.704  26.460  30.334  1.00  0.00     0.167 HD
ATOM     55  C   UNL A   1      38.161  32.042  29.632  1.00  0.00     0.031 A 
ATOM     56  C   UNL A   1      44.556  28.680  31.118  1.00  0.00     0.031 A 
ATOM     57  C   UNL A   1      39.333  32.432  30.404  1.00  0.00     0.049 A 
ATOM     58  C   UNL A   1      44.610  30.171  31.048  1.00  0.00     0.074 A 
ATOM     59  C   UNL A   1      39.670  32.157  31.718  1.00  0.00     0.029 A 
ATOM     60  N   UNL A   1      40.495  32.818  29.757  1.00  0.00    -0.354 N 
ATOM     61  N   UNL A   1      43.559  30.922  31.076  1.00  0.00    -0.248 NA
ATOM     62  C   UNL A   1      45.826  30.875  30.644  1.00  0.00     0.031 C 
ATOM     63  C   UNL A   1      41.067  32.325  31.842  1.00  0.00     0.029 A 
ATOM     64  C   UNL A   1      41.573  32.722  30.616  1.00  0.00     0.049 A 
ATOM     65  H   UNL A   1      40.545  33.117  28.820  1.00  0.00     0.167 HD
ATOM     66  C   UNL A   1      43.883  32.114  30.506  1.00  0.00     0.074 A 
ATOM     67  C   UNL A   1      45.322  32.073  30.326  1.00  0.00     0.031 C 
ATOM     68  C   UNL A   1      42.917  32.992  30.133  1.00  0.00     0.031 A 
BRANCH  55  69
ATOM     69  C   UNL A   1      36.779  32.557  29.955  1.00  0.00    -0.014 A 
ATOM     70  C   UNL A   1      36.225  33.542  29.113  1.00  0.00     0.009 A 
ATOM     71  C   UNL A   1      35.989  32.167  31.048  1.00  0.00     0.009 A 
ATOM     72  C   UNL A   1      34.996  34.152  29.379  1.00  0.00     0.001 A 
ATOM     73  C   UNL A   1      34.761  32.787  31.332  1.00  0.00     0.001 A 
ATOM     74  C   UNL A   1      34.268  33.784  30.501  1.00  0.00     0.000 A 
ENDBRANCH  55  69
BRANCH  56  75
ATOM     75  C   UNL A   1      45.401  28.006  30.061  1.00  0.00    -0.014 A 
ATOM     76  C   UNL A   1      45.783  26.707  30.353  1.00  0.00     0.009 A 
ATOM     77  C   UNL A   1      44.952  28.314  28.772  1.00  0.00     0.009 A 
ATOM     78  C   UNL A   1      45.029  25.728  29.758  1.00  0.00     0.001 A 
ATOM     79  C   UNL A   1      44.155  27.360  28.197  1.00  0.00     0.001 A 
ATOM     80  C   UNL A   1      44.072  26.116  28.822  1.00  0.00     0.000 A 
ENDBRANCH  56  75
BRANCH  68  81
ATOM     81  C   UNL A   1      43.225  34.239  29.380  1.00  0.00    -0.014 A 
ATOM     82  C   UNL A   1      43.183  35.524  29.935  1.00  0.00     0.009 A 
ATOM     83  C   UNL A   1      43.570  34.121  28.024  1.00  0.00     0.009 A 
ATOM     84  C   UNL A   1      43.282  36.652  29.120  1.00  0.00     0.001 A 
ATOM     85  C   UNL A   1      43.747  35.242  27.224  1.00  0.00     0.001 A 
ATOM     86  C   UNL A   1      43.547  36.507  27.762  1.00  0.00     0.000 A 
ENDBRANCH  68  81
ENDBRANCH  42  43
ENDBRANCH  34  37
ENDBRANCH  32  33
ENDBRANCH  31  32
ENDBRANCH  30  31
ENDBRANCH   3  30
TORSDOF 15
ENDMDL
