MODEL 1
REMARK VINA RESULT:     -10.4      0.000      0.000
REMARK SMILES O=C(C[N@H+](C[C@@H]1COc2ccccc2O1)CC(F)(F)F)NCCCNC(=O)c1ccc(-c2c3nc(c(-c4ccccc4)c4ccc([nH]4)c(-c4ccccc4)c4nc(c(-c5ccccc5)c5ccc2[nH]5)C=C4)C=C3)cc1
REMARK SMILES IDX 22 1 21 2 1 3 2 4 3 6 4 7 5 9 6 10 7 11 15 12 8 13 14 14
REMARK SMILES IDX 9 15 13 16 10 17 12 18 11 19 16 20 17 21 18 22 19 23 20 24
REMARK SMILES IDX 23 25 24 26 25 27 26 28 27 30 28 31 29 32 75 33 30 34 74 35
REMARK SMILES IDX 31 36 32 37 33 38 68 39 34 40 73 41 67 42 69 43 35 44 72 45
REMARK SMILES IDX 66 46 65 47 36 49 58 50 43 51 57 52 44 53 47 54 56 55 70 56
REMARK SMILES IDX 45 57 46 58 55 60 71 61 48 62 37 63 38 64 42 65 39 66 41 67
REMARK SMILES IDX 40 68 59 69 60 70 64 71 61 72 63 73 62 74 49 75 50 76 54 77
REMARK SMILES IDX 51 78 53 79 52 80
REMARK H PARENT 21 5 4 8 25 29 69 48 47 59
REMARK Flexibility Score: inf
ROOT
ATOM      1  C   UNL A   1      37.809  21.825  25.045  1.00  0.00     0.118 C 
ENDROOT
BRANCH   1   2
ATOM      2  N   UNL A   1      36.666  21.936  25.926  1.00  0.00    -0.351 N 
ATOM      3  O   UNL A   1      35.956  23.933  25.086  1.00  0.00    -0.269 OA
ATOM      4  C   UNL A   1      35.823  23.024  25.899  1.00  0.00     0.275 C 
ATOM      5  H   UNL A   1      36.486  21.210  26.566  1.00  0.00     0.163 HD
BRANCH   4   6
ATOM      6  C   UNL A   1      34.700  22.944  26.953  1.00  0.00     0.363 C 
BRANCH   6   7
ATOM      7  N   UNL A   1      33.422  22.570  26.342  1.00  0.00    -0.316 N 
ATOM      8  H   UNL A   1      33.437  22.996  25.416  1.00  0.00     0.348 HD
BRANCH   7   9
ATOM      9  C   UNL A   1      32.250  23.191  26.968  1.00  0.00     0.312 C 
BRANCH   9  10
ATOM     10  C   UNL A   1      31.359  24.073  26.039  1.00  0.00     0.265 C 
ATOM     11  C   UNL A   1      31.921  24.339  24.644  1.00  0.00     0.281 C 
ATOM     12  O   UNL A   1      30.953  25.302  26.670  1.00  0.00    -0.477 OA
ATOM     13  O   UNL A   1      33.062  25.198  24.673  1.00  0.00    -0.486 OA
ATOM     14  C   UNL A   1      31.830  26.330  26.441  1.00  0.00     0.162 A 
ATOM     15  C   UNL A   1      32.890  26.245  25.537  1.00  0.00     0.161 A 
ATOM     16  C   UNL A   1      31.664  27.477  27.216  1.00  0.00     0.050 A 
ATOM     17  C   UNL A   1      33.869  27.235  25.523  1.00  0.00     0.050 A 
ATOM     18  C   UNL A   1      32.619  28.493  27.164  1.00  0.00     0.004 A 
ATOM     19  C   UNL A   1      33.740  28.355  26.345  1.00  0.00     0.004 A 
ENDBRANCH   9  10
ENDBRANCH   7   9
BRANCH   7  20
ATOM     20  C   UNL A   1      33.299  21.125  26.044  1.00  0.00     0.379 C 
BRANCH  20  21
ATOM     21  C   UNL A   1      33.167  20.748  24.554  1.00  0.00     0.438 C 
ATOM     22  F   UNL A   1      33.688  19.542  24.258  1.00  0.00    -0.165 F 
ATOM     23  F   UNL A   1      31.860  20.721  24.197  1.00  0.00    -0.165 F 
ATOM     24  F   UNL A   1      33.773  21.671  23.769  1.00  0.00    -0.165 F 
ENDBRANCH  20  21
ENDBRANCH   7  20
ENDBRANCH   6   7
ENDBRANCH   4   6
ENDBRANCH   1   2
BRANCH   1  25
ATOM     25  C   UNL A   1      38.211  20.372  24.834  1.00  0.00     0.042 C 
BRANCH  25  26
ATOM     26  C   UNL A   1      38.807  19.703  26.066  1.00  0.00     0.118 C 
BRANCH  26  27
ATOM     27  N   UNL A   1      40.088  19.063  25.812  1.00  0.00    -0.352 N 
ATOM     28  C   UNL A   1      41.356  19.577  25.916  1.00  0.00     0.251 C 
ATOM     29  H   UNL A   1      40.039  18.123  25.523  1.00  0.00     0.163 HD
ATOM     30  O   UNL A   1      42.317  18.926  25.527  1.00  0.00    -0.269 OA
BRANCH  28  31
ATOM     31  C   UNL A   1      41.551  20.930  26.472  1.00  0.00     0.039 A 
ATOM     32  C   UNL A   1      41.408  21.113  27.848  1.00  0.00     0.014 A 
ATOM     33  C   UNL A   1      41.884  22.008  25.645  1.00  0.00     0.014 A 
ATOM     34  C   UNL A   1      41.647  22.369  28.402  1.00  0.00     0.010 A 
ATOM     35  C   UNL A   1      42.208  23.237  26.211  1.00  0.00     0.010 A 
ATOM     36  C   UNL A   1      42.082  23.433  27.593  1.00  0.00    -0.014 A 
BRANCH  36  37
ATOM     37  C   UNL A   1      42.401  24.753  28.190  1.00  0.00     0.031 A 
ATOM     38  C   UNL A   1      43.803  25.069  28.634  1.00  0.00     0.074 A 
ATOM     39  C   UNL A   1      41.417  25.659  28.358  1.00  0.00     0.049 A 
ATOM     40  N   UNL A   1      44.273  26.176  29.151  1.00  0.00    -0.248 NA
ATOM     41  C   UNL A   1      44.804  23.998  28.500  1.00  0.00     0.031 C 
ATOM     42  C   UNL A   1      40.008  25.454  28.016  1.00  0.00     0.029 A 
ATOM     43  N   UNL A   1      41.457  26.939  28.851  1.00  0.00    -0.354 N 
ATOM     44  C   UNL A   1      45.616  25.931  29.412  1.00  0.00     0.074 A 
ATOM     45  C   UNL A   1      45.870  24.553  29.055  1.00  0.00     0.031 C 
ATOM     46  C   UNL A   1      39.327  26.584  28.264  1.00  0.00     0.029 A 
ATOM     47  C   UNL A   1      40.240  27.576  28.821  1.00  0.00     0.049 A 
ATOM     48  H   UNL A   1      42.277  27.359  29.194  1.00  0.00     0.167 HD
ATOM     49  C   UNL A   1      46.559  26.782  29.882  1.00  0.00     0.031 A 
ATOM     50  C   UNL A   1      39.898  28.824  29.196  1.00  0.00     0.031 A 
ATOM     51  C   UNL A   1      46.303  28.152  30.236  1.00  0.00     0.049 A 
ATOM     52  C   UNL A   1      40.961  29.744  29.728  1.00  0.00     0.074 A 
ATOM     53  C   UNL A   1      47.200  29.111  30.672  1.00  0.00     0.029 A 
ATOM     54  N   UNL A   1      45.057  28.757  30.199  1.00  0.00    -0.354 N 
ATOM     55  N   UNL A   1      42.243  29.521  29.891  1.00  0.00    -0.248 NA
ATOM     56  C   UNL A   1      40.531  31.095  30.110  1.00  0.00     0.031 C 
ATOM     57  C   UNL A   1      46.487  30.279  30.958  1.00  0.00     0.029 A 
ATOM     58  C   UNL A   1      45.156  30.070  30.632  1.00  0.00     0.049 A 
ATOM     59  H   UNL A   1      44.224  28.321  29.909  1.00  0.00     0.167 HD
ATOM     60  C   UNL A   1      42.776  30.712  30.367  1.00  0.00     0.074 A 
ATOM     61  C   UNL A   1      41.683  31.659  30.443  1.00  0.00     0.031 C 
ATOM     62  C   UNL A   1      44.057  30.997  30.709  1.00  0.00     0.031 A 
BRANCH  49  63
ATOM     63  C   UNL A   1      47.955  26.246  30.047  1.00  0.00    -0.014 A 
ATOM     64  C   UNL A   1      48.861  26.225  28.973  1.00  0.00     0.009 A 
ATOM     65  C   UNL A   1      48.384  25.785  31.301  1.00  0.00     0.009 A 
ATOM     66  C   UNL A   1      50.151  25.718  29.143  1.00  0.00     0.001 A 
ATOM     67  C   UNL A   1      49.684  25.310  31.477  1.00  0.00     0.001 A 
ATOM     68  C   UNL A   1      50.564  25.267  30.395  1.00  0.00     0.000 A 
ENDBRANCH  49  63
BRANCH  50  69
ATOM     69  C   UNL A   1      38.491  29.286  29.060  1.00  0.00    -0.014 A 
ATOM     70  C   UNL A   1      38.019  29.793  27.839  1.00  0.00     0.009 A 
ATOM     71  C   UNL A   1      37.614  29.233  30.155  1.00  0.00     0.009 A 
ATOM     72  C   UNL A   1      36.711  30.270  27.728  1.00  0.00     0.001 A 
ATOM     73  C   UNL A   1      36.297  29.678  30.031  1.00  0.00     0.001 A 
ATOM     74  C   UNL A   1      35.849  30.207  28.822  1.00  0.00     0.000 A 
ENDBRANCH  50  69
BRANCH  62  75
ATOM     75  C   UNL A   1      44.347  32.403  31.162  1.00  0.00    -0.014 A 
ATOM     76  C   UNL A   1      44.298  32.763  32.517  1.00  0.00     0.009 A 
ATOM     77  C   UNL A   1      44.699  33.376  30.213  1.00  0.00     0.009 A 
ATOM     78  C   UNL A   1      44.548  34.080  32.908  1.00  0.00     0.001 A 
ATOM     79  C   UNL A   1      44.984  34.684  30.610  1.00  0.00     0.001 A 
ATOM     80  C   UNL A   1      44.894  35.037  31.955  1.00  0.00     0.000 A 
ENDBRANCH  62  75
ENDBRANCH  36  37
ENDBRANCH  28  31
ENDBRANCH  26  27
ENDBRANCH  25  26
ENDBRANCH   1  25
TORSDOF 15
ENDMDL
MODEL 2
REMARK VINA RESULT:     -10.4      3.879      8.699
REMARK SMILES O=C(C[N@H+](C[C@@H]1COc2ccccc2O1)CC(F)(F)F)NCCCNC(=O)c1ccc(-c2c3nc(c(-c4ccccc4)c4ccc([nH]4)c(-c4ccccc4)c4nc(c(-c5ccccc5)c5ccc2[nH]5)C=C4)C=C3)cc1
REMARK SMILES IDX 22 1 21 2 1 3 2 4 3 6 4 7 5 9 6 10 7 11 15 12 8 13 14 14
REMARK SMILES IDX 9 15 13 16 10 17 12 18 11 19 16 20 17 21 18 22 19 23 20 24
REMARK SMILES IDX 23 25 24 26 25 27 26 28 27 30 28 31 29 32 75 33 30 34 74 35
REMARK SMILES IDX 31 36 32 37 33 38 68 39 34 40 73 41 67 42 69 43 35 44 72 45
REMARK SMILES IDX 66 46 65 47 36 49 58 50 43 51 57 52 44 53 47 54 56 55 70 56
REMARK SMILES IDX 45 57 46 58 55 60 71 61 48 62 37 63 38 64 42 65 39 66 41 67
REMARK SMILES IDX 40 68 59 69 60 70 64 71 61 72 63 73 62 74 49 75 50 76 54 77
REMARK SMILES IDX 51 78 53 79 52 80
REMARK H PARENT 21 5 4 8 25 29 69 48 47 59
REMARK Flexibility Score: inf
ROOT
ATOM      1  C   UNL A   1      32.547  30.109  27.235  1.00  0.00     0.118 C 
ENDROOT
BRANCH   1   2
ATOM      2  N   UNL A   1      31.804  29.077  26.544  1.00  0.00    -0.351 N 
ATOM      3  O   UNL A   1      31.741  27.648  28.320  1.00  0.00    -0.269 OA
ATOM      4  C   UNL A   1      31.475  27.883  27.146  1.00  0.00     0.275 C 
ATOM      5  H   UNL A   1      31.524  29.234  25.613  1.00  0.00     0.163 HD
BRANCH   4   6
ATOM      6  C   UNL A   1      30.719  26.921  26.206  1.00  0.00     0.363 C 
BRANCH   6   7
ATOM      7  N   UNL A   1      31.482  26.663  24.982  1.00  0.00    -0.316 N 
ATOM      8  H   UNL A   1      32.038  27.506  24.836  1.00  0.00     0.348 HD
BRANCH   7   9
ATOM      9  C   UNL A   1      30.664  26.595  23.766  1.00  0.00     0.312 C 
BRANCH   9  10
ATOM     10  C   UNL A   1      31.063  27.568  22.613  1.00  0.00     0.265 C 
ATOM     11  C   UNL A   1      31.999  28.709  23.006  1.00  0.00     0.281 C 
ATOM     12  O   UNL A   1      29.919  28.069  21.896  1.00  0.00    -0.477 OA
ATOM     13  O   UNL A   1      31.361  29.672  23.846  1.00  0.00    -0.486 OA
ATOM     14  C   UNL A   1      29.434  29.238  22.422  1.00  0.00     0.162 A 
ATOM     15  C   UNL A   1      30.094  29.962  23.416  1.00  0.00     0.161 A 
ATOM     16  C   UNL A   1      28.186  29.658  21.965  1.00  0.00     0.050 A 
ATOM     17  C   UNL A   1      29.439  31.008  24.061  1.00  0.00     0.050 A 
ATOM     18  C   UNL A   1      27.552  30.739  22.577  1.00  0.00     0.004 A 
ATOM     19  C   UNL A   1      28.161  31.390  23.650  1.00  0.00     0.004 A 
ENDBRANCH   9  10
ENDBRANCH   7   9
BRANCH   7  20
ATOM     20  C   UNL A   1      32.508  25.606  25.125  1.00  0.00     0.379 C 
BRANCH  20  21
ATOM     21  C   UNL A   1      33.959  26.018  24.800  1.00  0.00     0.438 C 
ATOM     22  F   UNL A   1      34.239  26.001  23.484  1.00  0.00    -0.165 F 
ATOM     23  F   UNL A   1      34.193  27.277  25.246  1.00  0.00    -0.165 F 
ATOM     24  F   UNL A   1      34.842  25.205  25.429  1.00  0.00    -0.165 F 
ENDBRANCH  20  21
ENDBRANCH   7  20
ENDBRANCH   6   7
ENDBRANCH   4   6
ENDBRANCH   1   2
BRANCH   1  25
ATOM     25  C   UNL A   1      31.909  31.478  27.046  1.00  0.00     0.042 C 
BRANCH  25  26
ATOM     26  C   UNL A   1      32.908  32.615  26.875  1.00  0.00     0.118 C 
BRANCH  26  27
ATOM     27  N   UNL A   1      32.548  33.815  27.614  1.00  0.00    -0.352 N 
ATOM     28  C   UNL A   1      33.179  34.408  28.678  1.00  0.00     0.251 C 
ATOM     29  H   UNL A   1      31.729  34.269  27.306  1.00  0.00     0.163 HD
ATOM     30  O   UNL A   1      32.652  35.344  29.262  1.00  0.00    -0.269 OA
BRANCH  28  31
ATOM     31  C   UNL A   1      34.486  33.891  29.131  1.00  0.00     0.039 A 
ATOM     32  C   UNL A   1      34.516  33.013  30.215  1.00  0.00     0.014 A 
ATOM     33  C   UNL A   1      35.670  34.259  28.485  1.00  0.00     0.014 A 
ATOM     34  C   UNL A   1      35.730  32.464  30.620  1.00  0.00     0.010 A 
ATOM     35  C   UNL A   1      36.867  33.643  28.835  1.00  0.00     0.010 A 
ATOM     36  C   UNL A   1      36.912  32.749  29.913  1.00  0.00    -0.014 A 
BRANCH  36  37
ATOM     37  C   UNL A   1      38.196  32.115  30.303  1.00  0.00     0.031 A 
ATOM     38  C   UNL A   1      39.093  32.772  31.314  1.00  0.00     0.074 A 
ATOM     39  C   UNL A   1      38.565  30.957  29.721  1.00  0.00     0.049 A 
ATOM     40  N   UNL A   1      40.237  32.354  31.795  1.00  0.00    -0.248 NA
ATOM     41  C   UNL A   1      38.666  34.080  31.839  1.00  0.00     0.031 C 
ATOM     42  C   UNL A   1      37.806  30.246  28.689  1.00  0.00     0.029 A 
ATOM     43  N   UNL A   1      39.669  30.168  29.924  1.00  0.00    -0.354 N 
ATOM     44  C   UNL A   1      40.666  33.347  32.668  1.00  0.00     0.074 A 
ATOM     45  C   UNL A   1      39.694  34.414  32.603  1.00  0.00     0.031 C 
ATOM     46  C   UNL A   1      38.442  29.104  28.384  1.00  0.00     0.029 A 
ATOM     47  C   UNL A   1      39.672  29.022  29.165  1.00  0.00     0.049 A 
ATOM     48  H   UNL A   1      40.390  30.401  30.551  1.00  0.00     0.167 HD
ATOM     49  C   UNL A   1      41.757  33.358  33.471  1.00  0.00     0.031 A 
ATOM     50  C   UNL A   1      40.563  28.014  29.109  1.00  0.00     0.031 A 
ATOM     51  C   UNL A   1      42.722  32.294  33.534  1.00  0.00     0.049 A 
ATOM     52  C   UNL A   1      41.773  28.058  30.000  1.00  0.00     0.074 A 
ATOM     53  C   UNL A   1      43.833  32.186  34.352  1.00  0.00     0.029 A 
ATOM     54  N   UNL A   1      42.694  31.155  32.745  1.00  0.00    -0.354 N 
ATOM     55  N   UNL A   1      42.121  28.967  30.880  1.00  0.00    -0.248 NA
ATOM     56  C   UNL A   1      42.704  26.926  29.902  1.00  0.00     0.031 C 
ATOM     57  C   UNL A   1      44.512  31.011  34.014  1.00  0.00     0.029 A 
ATOM     58  C   UNL A   1      43.784  30.351  33.036  1.00  0.00     0.049 A 
ATOM     59  H   UNL A   1      42.002  30.947  32.076  1.00  0.00     0.167 HD
ATOM     60  C   UNL A   1      43.294  28.502  31.459  1.00  0.00     0.074 A 
ATOM     61  C   UNL A   1      43.584  27.221  30.848  1.00  0.00     0.031 C 
ATOM     62  C   UNL A   1      44.063  29.083  32.414  1.00  0.00     0.031 A 
BRANCH  49  63
ATOM     63  C   UNL A   1      41.964  34.569  34.340  1.00  0.00    -0.014 A 
ATOM     64  C   UNL A   1      42.701  35.676  33.886  1.00  0.00     0.009 A 
ATOM     65  C   UNL A   1      41.387  34.620  35.618  1.00  0.00     0.009 A 
ATOM     66  C   UNL A   1      42.889  36.788  34.708  1.00  0.00     0.001 A 
ATOM     67  C   UNL A   1      41.547  35.747  36.426  1.00  0.00     0.001 A 
ATOM     68  C   UNL A   1      42.307  36.826  35.974  1.00  0.00     0.000 A 
ENDBRANCH  49  63
BRANCH  50  69
ATOM     69  C   UNL A   1      40.334  26.865  28.193  1.00  0.00    -0.014 A 
ATOM     70  C   UNL A   1      40.854  26.875  26.889  1.00  0.00     0.009 A 
ATOM     71  C   UNL A   1      39.584  25.756  28.614  1.00  0.00     0.009 A 
ATOM     72  C   UNL A   1      40.599  25.815  26.016  1.00  0.00     0.001 A 
ATOM     73  C   UNL A   1      39.359  24.683  27.751  1.00  0.00     0.001 A 
ATOM     74  C   UNL A   1      39.856  24.717  26.449  1.00  0.00     0.000 A 
ENDBRANCH  50  69
BRANCH  62  75
ATOM     75  C   UNL A   1      45.271  28.316  32.879  1.00  0.00    -0.014 A 
ATOM     76  C   UNL A   1      46.528  28.494  32.282  1.00  0.00     0.009 A 
ATOM     77  C   UNL A   1      45.149  27.416  33.950  1.00  0.00     0.009 A 
ATOM     78  C   UNL A   1      47.628  27.752  32.718  1.00  0.00     0.001 A 
ATOM     79  C   UNL A   1      46.258  26.703  34.407  1.00  0.00     0.001 A 
ATOM     80  C   UNL A   1      47.493  26.861  33.781  1.00  0.00     0.000 A 
ENDBRANCH  62  75
ENDBRANCH  36  37
ENDBRANCH  28  31
ENDBRANCH  26  27
ENDBRANCH  25  26
ENDBRANCH   1  25
TORSDOF 15
ENDMDL
MODEL 3
REMARK VINA RESULT:     -10.3      2.085      7.376
REMARK SMILES O=C(C[N@H+](C[C@@H]1COc2ccccc2O1)CC(F)(F)F)NCCCNC(=O)c1ccc(-c2c3nc(c(-c4ccccc4)c4ccc([nH]4)c(-c4ccccc4)c4nc(c(-c5ccccc5)c5ccc2[nH]5)C=C4)C=C3)cc1
REMARK SMILES IDX 22 1 21 2 1 3 2 4 3 6 4 7 5 9 6 10 7 11 15 12 8 13 14 14
REMARK SMILES IDX 9 15 13 16 10 17 12 18 11 19 16 20 17 21 18 22 19 23 20 24
REMARK SMILES IDX 23 25 24 26 25 27 26 28 27 30 28 31 29 32 75 33 30 34 74 35
REMARK SMILES IDX 31 36 32 37 33 38 68 39 34 40 73 41 67 42 69 43 35 44 72 45
REMARK SMILES IDX 66 46 65 47 36 49 58 50 43 51 57 52 44 53 47 54 56 55 70 56
REMARK SMILES IDX 45 57 46 58 55 60 71 61 48 62 37 63 38 64 42 65 39 66 41 67
REMARK SMILES IDX 40 68 59 69 60 70 64 71 61 72 63 73 62 74 49 75 50 76 54 77
REMARK SMILES IDX 51 78 53 79 52 80
REMARK H PARENT 21 5 4 8 25 29 69 48 47 59
REMARK Flexibility Score: inf
ROOT
ATOM      1  C   UNL A   1      33.769  28.058  24.706  1.00  0.00     0.118 C 
ENDROOT
BRANCH   1   2
ATOM      2  N   UNL A   1      33.828  26.631  24.470  1.00  0.00    -0.351 N 
ATOM      3  O   UNL A   1      32.423  26.665  22.675  1.00  0.00    -0.269 OA
ATOM      4  C   UNL A   1      33.108  26.025  23.465  1.00  0.00     0.275 C 
ATOM      5  H   UNL A   1      34.402  26.077  25.047  1.00  0.00     0.163 HD
BRANCH   4   6
ATOM      6  C   UNL A   1      33.296  24.494  23.428  1.00  0.00     0.363 C 
BRANCH   6   7
ATOM      7  N   UNL A   1      32.437  23.829  24.412  1.00  0.00    -0.316 N 
ATOM      8  H   UNL A   1      32.820  24.095  25.319  1.00  0.00     0.348 HD
BRANCH   7   9
ATOM      9  C   UNL A   1      32.556  22.366  24.423  1.00  0.00     0.312 C 
BRANCH   9  10
ATOM     10  C   UNL A   1      33.093  21.730  25.742  1.00  0.00     0.265 C 
ATOM     11  C   UNL A   1      33.300  22.698  26.906  1.00  0.00     0.281 C 
ATOM     12  O   UNL A   1      34.271  20.929  25.527  1.00  0.00    -0.477 OA
ATOM     13  O   UNL A   1      34.387  23.595  26.680  1.00  0.00    -0.486 OA
ATOM     14  C   UNL A   1      35.430  21.648  25.657  1.00  0.00     0.162 A 
ATOM     15  C   UNL A   1      35.470  22.957  26.138  1.00  0.00     0.161 A 
ATOM     16  C   UNL A   1      36.600  21.030  25.215  1.00  0.00     0.050 A 
ATOM     17  C   UNL A   1      36.644  23.699  26.028  1.00  0.00     0.050 A 
ATOM     18  C   UNL A   1      37.788  21.759  25.155  1.00  0.00     0.004 A 
ATOM     19  C   UNL A   1      37.801  23.105  25.525  1.00  0.00     0.004 A 
ENDBRANCH   9  10
ENDBRANCH   7   9
BRANCH   7  20
ATOM     20  C   UNL A   1      31.057  24.360  24.461  1.00  0.00     0.379 C 
BRANCH  20  21
ATOM     21  C   UNL A   1      30.630  25.022  25.788  1.00  0.00     0.438 C 
ATOM     22  F   UNL A   1      29.853  24.235  26.555  1.00  0.00    -0.165 F 
ATOM     23  F   UNL A   1      31.727  25.341  26.518  1.00  0.00    -0.165 F 
ATOM     24  F   UNL A   1      29.960  26.177  25.555  1.00  0.00    -0.165 F 
ENDBRANCH  20  21
ENDBRANCH   7  20
ENDBRANCH   6   7
ENDBRANCH   4   6
ENDBRANCH   1   2
BRANCH   1  25
ATOM     25  C   UNL A   1      32.894  28.389  25.907  1.00  0.00     0.042 C 
BRANCH  25  26
ATOM     26  C   UNL A   1      33.668  28.620  27.199  1.00  0.00     0.118 C 
BRANCH  26  27
ATOM     27  N   UNL A   1      33.632  30.003  27.652  1.00  0.00    -0.352 N 
ATOM     28  C   UNL A   1      34.599  30.736  28.292  1.00  0.00     0.251 C 
ATOM     29  H   UNL A   1      32.791  30.483  27.473  1.00  0.00     0.163 HD
ATOM     30  O   UNL A   1      34.340  31.852  28.723  1.00  0.00    -0.269 OA
BRANCH  28  31
ATOM     31  C   UNL A   1      35.944  30.159  28.485  1.00  0.00     0.039 A 
ATOM     32  C   UNL A   1      36.833  30.167  27.411  1.00  0.00     0.014 A 
ATOM     33  C   UNL A   1      36.328  29.625  29.719  1.00  0.00     0.014 A 
ATOM     34  C   UNL A   1      38.128  29.684  27.588  1.00  0.00     0.010 A 
ATOM     35  C   UNL A   1      37.646  29.225  29.917  1.00  0.00     0.010 A 
ATOM     36  C   UNL A   1      38.556  29.239  28.851  1.00  0.00    -0.014 A 
BRANCH  36  37
ATOM     37  C   UNL A   1      39.953  28.785  29.058  1.00  0.00     0.031 A 
ATOM     38  C   UNL A   1      40.370  27.396  28.659  1.00  0.00     0.074 A 
ATOM     39  C   UNL A   1      40.842  29.620  29.632  1.00  0.00     0.049 A 
ATOM     40  N   UNL A   1      41.550  26.836  28.739  1.00  0.00    -0.248 NA
ATOM     41  C   UNL A   1      39.323  26.513  28.120  1.00  0.00     0.031 C 
ATOM     42  C   UNL A   1      40.548  30.973  30.110  1.00  0.00     0.029 A 
ATOM     43  N   UNL A   1      42.176  29.454  29.903  1.00  0.00    -0.354 N 
ATOM     44  C   UNL A   1      41.384  25.537  28.272  1.00  0.00     0.074 A 
ATOM     45  C   UNL A   1      39.981  25.374  27.970  1.00  0.00     0.031 C 
ATOM     46  C   UNL A   1      41.679  31.531  30.571  1.00  0.00     0.029 A 
ATOM     47  C   UNL A   1      42.765  30.563  30.460  1.00  0.00     0.049 A 
ATOM     48  H   UNL A   1      42.665  28.621  29.717  1.00  0.00     0.167 HD
ATOM     49  C   UNL A   1      42.320  24.576  28.086  1.00  0.00     0.031 A 
ATOM     50  C   UNL A   1      44.040  30.780  30.836  1.00  0.00     0.031 A 
ATOM     51  C   UNL A   1      43.717  24.742  28.387  1.00  0.00     0.049 A 
ATOM     52  C   UNL A   1      45.056  29.691  30.633  1.00  0.00     0.074 A 
ATOM     53  C   UNL A   1      44.753  23.847  28.187  1.00  0.00     0.029 A 
ATOM     54  N   UNL A   1      44.272  25.876  28.958  1.00  0.00    -0.354 N 
ATOM     55  N   UNL A   1      44.898  28.497  30.113  1.00  0.00    -0.248 NA
ATOM     56  C   UNL A   1      46.432  29.988  31.053  1.00  0.00     0.031 C 
ATOM     57  C   UNL A   1      45.926  24.417  28.694  1.00  0.00     0.029 A 
ATOM     58  C   UNL A   1      45.633  25.695  29.143  1.00  0.00     0.049 A 
ATOM     59  H   UNL A   1      43.774  26.691  29.196  1.00  0.00     0.167 HD
ATOM     60  C   UNL A   1      46.158  27.913  30.118  1.00  0.00     0.074 A 
ATOM     61  C   UNL A   1      47.071  28.892  30.669  1.00  0.00     0.031 C 
ATOM     62  C   UNL A   1      46.527  26.676  29.700  1.00  0.00     0.031 A 
BRANCH  49  63
ATOM     63  C   UNL A   1      41.855  23.254  27.538  1.00  0.00    -0.014 A 
ATOM     64  C   UNL A   1      41.934  22.964  26.165  1.00  0.00     0.009 A 
ATOM     65  C   UNL A   1      41.363  22.270  28.409  1.00  0.00     0.009 A 
ATOM     66  C   UNL A   1      41.492  21.735  25.674  1.00  0.00     0.001 A 
ATOM     67  C   UNL A   1      40.953  21.029  27.920  1.00  0.00     0.001 A 
ATOM     68  C   UNL A   1      41.008  20.765  26.551  1.00  0.00     0.000 A 
ENDBRANCH  49  63
BRANCH  50  69
ATOM     69  C   UNL A   1      44.435  32.089  31.422  1.00  0.00    -0.014 A 
ATOM     70  C   UNL A   1      44.364  32.303  32.807  1.00  0.00     0.009 A 
ATOM     71  C   UNL A   1      44.874  33.136  30.596  1.00  0.00     0.009 A 
ATOM     72  C   UNL A   1      44.691  33.548  33.349  1.00  0.00     0.001 A 
ATOM     73  C   UNL A   1      45.232  34.368  31.144  1.00  0.00     0.001 A 
ATOM     74  C   UNL A   1      45.130  34.578  32.518  1.00  0.00     0.000 A 
ENDBRANCH  50  69
BRANCH  62  75
ATOM     75  C   UNL A   1      47.989  26.331  29.792  1.00  0.00    -0.014 A 
ATOM     76  C   UNL A   1      48.556  25.851  30.982  1.00  0.00     0.009 A 
ATOM     77  C   UNL A   1      48.805  26.468  28.658  1.00  0.00     0.009 A 
ATOM     78  C   UNL A   1      49.921  25.561  31.047  1.00  0.00     0.001 A 
ATOM     79  C   UNL A   1      50.161  26.143  28.716  1.00  0.00     0.001 A 
ATOM     80  C   UNL A   1      50.720  25.704  29.914  1.00  0.00     0.000 A 
ENDBRANCH  62  75
ENDBRANCH  36  37
ENDBRANCH  28  31
ENDBRANCH  26  27
ENDBRANCH  25  26
ENDBRANCH   1  25
TORSDOF 15
ENDMDL
