MODEL 1
REMARK VINA RESULT:     -11.2      0.000      0.000
REMARK SMILES CC(C)(C)[N@@H+](CC(=O)NCCCNC(=O)c1ccc(-c2c3nc(c(-c4ccccc4)c4ccc([nH]4)c(-c4ccccc4)c4nc(c(-c5ccccc5)c5ccc2[nH]5)C=C4)C=C3)cc1)C[C@@H]1Cc2cc(F)ccc2O1
REMARK SMILES IDX 10 1 9 2 7 3 8 4 6 6 5 7 2 9 1 10 3 11 4 12 64 13 65 14
REMARK SMILES IDX 66 15 74 16 67 17 73 18 68 19 72 20 69 21 71 22 70 23 11 24
REMARK SMILES IDX 12 25 13 26 14 27 15 29 16 30 17 31 63 32 18 33 62 34 19 35
REMARK SMILES IDX 20 36 21 37 56 38 22 39 61 40 55 41 57 42 23 43 60 44 54 45
REMARK SMILES IDX 53 46 24 48 46 49 31 50 45 51 32 52 35 53 44 54 58 55 33 56
REMARK SMILES IDX 34 57 43 59 59 60 36 61 25 62 26 63 30 64 27 65 29 66 28 67
REMARK SMILES IDX 47 68 48 69 52 70 49 71 51 72 50 73 37 74 38 75 42 76 39 77
REMARK SMILES IDX 41 78 40 79
REMARK H PARENT 9 5 5 8 13 28 57 47 35 58
REMARK Flexibility Score: inf
ROOT
ATOM      1  C   UNL A   1      33.305  29.314  24.990  1.00  0.00     0.118 C 
ENDROOT
BRANCH   1   2
ATOM      2  N   UNL A   1      33.910  28.956  23.716  1.00  0.00    -0.351 N 
ATOM      3  C   UNL A   1      33.450  28.245  22.641  1.00  0.00     0.275 C 
ATOM      4  O   UNL A   1      34.172  28.215  21.640  1.00  0.00    -0.269 OA
ATOM      5  H   UNL A   1      34.830  29.289  23.606  1.00  0.00     0.163 HD
BRANCH   3   6
ATOM      6  C   UNL A   1      32.094  27.539  22.666  1.00  0.00     0.364 C 
BRANCH   6   7
ATOM      7  N   UNL A   1      32.151  26.174  23.237  1.00  0.00    -0.320 N 
ATOM      8  H   UNL A   1      31.623  25.356  22.933  1.00  0.00     0.349 HD
BRANCH   7   9
ATOM      9  C   UNL A   1      31.000  25.637  23.977  1.00  0.00     0.090 C 
ATOM     10  C   UNL A   1      31.287  25.639  25.503  1.00  0.00     0.078 C 
ATOM     11  C   UNL A   1      30.647  24.213  23.494  1.00  0.00     0.078 C 
ATOM     12  C   UNL A   1      29.713  26.482  23.866  1.00  0.00     0.078 C 
ENDBRANCH   7   9
BRANCH   7  13
ATOM     13  C   UNL A   1      33.457  25.513  23.121  1.00  0.00     0.309 C 
BRANCH  13  14
ATOM     14  C   UNL A   1      34.008  24.440  24.102  1.00  0.00     0.232 C 
ATOM     15  C   UNL A   1      34.909  24.979  25.231  1.00  0.00     0.090 C 
ATOM     16  O   UNL A   1      34.648  23.326  23.438  1.00  0.00    -0.484 OA
ATOM     17  C   UNL A   1      35.972  23.950  25.228  1.00  0.00     0.001 A 
ATOM     18  C   UNL A   1      35.727  23.025  24.226  1.00  0.00     0.123 A 
ATOM     19  C   UNL A   1      37.086  23.834  26.042  1.00  0.00     0.047 A 
ATOM     20  C   UNL A   1      36.543  21.928  24.025  1.00  0.00     0.050 A 
ATOM     21  C   UNL A   1      37.926  22.739  25.839  1.00  0.00     0.123 A 
ATOM     22  C   UNL A   1      37.657  21.782  24.853  1.00  0.00     0.043 A 
ATOM     23  F   UNL A   1      39.015  22.600  26.607  1.00  0.00    -0.207 F 
ENDBRANCH  13  14
ENDBRANCH   7  13
ENDBRANCH   6   7
ENDBRANCH   3   6
ENDBRANCH   1   2
BRANCH   1  24
ATOM     24  C   UNL A   1      33.602  28.347  26.139  1.00  0.00     0.042 C 
BRANCH  24  25
ATOM     25  C   UNL A   1      33.161  28.802  27.531  1.00  0.00     0.118 C 
BRANCH  25  26
ATOM     26  N   UNL A   1      33.375  30.225  27.716  1.00  0.00    -0.352 N 
ATOM     27  C   UNL A   1      34.466  30.879  28.230  1.00  0.00     0.251 C 
ATOM     28  H   UNL A   1      32.632  30.804  27.431  1.00  0.00     0.163 HD
ATOM     29  O   UNL A   1      34.352  32.060  28.565  1.00  0.00    -0.269 OA
BRANCH  27  30
ATOM     30  C   UNL A   1      35.784  30.211  28.380  1.00  0.00     0.039 A 
ATOM     31  C   UNL A   1      36.133  29.698  29.634  1.00  0.00     0.014 A 
ATOM     32  C   UNL A   1      36.729  30.204  27.347  1.00  0.00     0.014 A 
ATOM     33  C   UNL A   1      37.417  29.190  29.860  1.00  0.00     0.010 A 
ATOM     34  C   UNL A   1      38.002  29.663  27.562  1.00  0.00     0.010 A 
ATOM     35  C   UNL A   1      38.369  29.179  28.829  1.00  0.00    -0.014 A 
BRANCH  35  36
ATOM     36  C   UNL A   1      39.767  28.740  29.091  1.00  0.00     0.031 A 
ATOM     37  C   UNL A   1      40.727  29.661  29.799  1.00  0.00     0.074 A 
ATOM     38  C   UNL A   1      40.182  27.519  28.703  1.00  0.00     0.049 A 
ATOM     39  N   UNL A   1      41.988  29.469  30.101  1.00  0.00    -0.248 NA
ATOM     40  C   UNL A   1      40.202  30.970  30.219  1.00  0.00     0.031 C 
ATOM     41  C   UNL A   1      39.362  26.521  28.017  1.00  0.00     0.029 A 
ATOM     42  N   UNL A   1      41.407  26.911  28.837  1.00  0.00    -0.354 N 
ATOM     43  C   UNL A   1      42.407  30.631  30.737  1.00  0.00     0.074 A 
ATOM     44  C   UNL A   1      41.279  31.538  30.745  1.00  0.00     0.031 C 
ATOM     45  C   UNL A   1      40.101  25.420  27.805  1.00  0.00     0.029 A 
ATOM     46  C   UNL A   1      41.454  25.642  28.311  1.00  0.00     0.049 A 
ATOM     47  H   UNL A   1      42.179  27.343  29.270  1.00  0.00     0.167 HD
ATOM     48  C   UNL A   1      43.614  30.919  31.282  1.00  0.00     0.031 A 
ATOM     49  C   UNL A   1      42.469  24.760  28.240  1.00  0.00     0.031 A 
ATOM     50  C   UNL A   1      44.743  30.027  31.287  1.00  0.00     0.049 A 
ATOM     51  C   UNL A   1      43.812  25.121  28.814  1.00  0.00     0.074 A 
ATOM     52  C   UNL A   1      46.002  30.230  31.827  1.00  0.00     0.029 A 
ATOM     53  N   UNL A   1      44.749  28.760  30.727  1.00  0.00    -0.354 N 
ATOM     54  N   UNL A   1      44.180  26.214  29.434  1.00  0.00    -0.248 NA
ATOM     55  C   UNL A   1      44.878  24.115  28.683  1.00  0.00     0.031 C 
ATOM     56  C   UNL A   1      46.779  29.098  31.567  1.00  0.00     0.029 A 
ATOM     57  C   UNL A   1      45.991  28.174  30.902  1.00  0.00     0.049 A 
ATOM     58  H   UNL A   1      43.984  28.339  30.273  1.00  0.00     0.167 HD
ATOM     59  C   UNL A   1      45.507  26.016  29.795  1.00  0.00     0.074 A 
ATOM     60  C   UNL A   1      45.878  24.694  29.334  1.00  0.00     0.031 C 
ATOM     61  C   UNL A   1      46.344  26.854  30.451  1.00  0.00     0.031 A 
BRANCH  48  62
ATOM     62  C   UNL A   1      43.779  32.265  31.927  1.00  0.00    -0.014 A 
ATOM     63  C   UNL A   1      43.397  32.477  33.261  1.00  0.00     0.009 A 
ATOM     64  C   UNL A   1      44.367  33.319  31.211  1.00  0.00     0.009 A 
ATOM     65  C   UNL A   1      43.576  33.727  33.857  1.00  0.00     0.001 A 
ATOM     66  C   UNL A   1      44.566  34.561  31.818  1.00  0.00     0.001 A 
ATOM     67  C   UNL A   1      44.164  34.766  33.137  1.00  0.00     0.000 A 
ENDBRANCH  48  62
BRANCH  49  68
ATOM     68  C   UNL A   1      42.264  23.433  27.605  1.00  0.00    -0.014 A 
ATOM     69  C   UNL A   1      41.869  22.329  28.377  1.00  0.00     0.009 A 
ATOM     70  C   UNL A   1      42.495  23.256  26.232  1.00  0.00     0.009 A 
ATOM     71  C   UNL A   1      41.738  21.068  27.791  1.00  0.00     0.001 A 
ATOM     72  C   UNL A   1      42.339  21.998  25.646  1.00  0.00     0.001 A 
ATOM     73  C   UNL A   1      41.972  20.904  26.427  1.00  0.00     0.000 A 
ENDBRANCH  49  68
BRANCH  61  74
ATOM     74  C   UNL A   1      47.726  26.353  30.752  1.00  0.00    -0.014 A 
ATOM     75  C   UNL A   1      48.034  25.760  31.985  1.00  0.00     0.009 A 
ATOM     76  C   UNL A   1      48.727  26.444  29.771  1.00  0.00     0.009 A 
ATOM     77  C   UNL A   1      49.325  25.294  32.241  1.00  0.00     0.001 A 
ATOM     78  C   UNL A   1      50.010  25.957  30.021  1.00  0.00     0.001 A 
ATOM     79  C   UNL A   1      50.310  25.390  31.258  1.00  0.00     0.000 A 
ENDBRANCH  61  74
ENDBRANCH  35  36
ENDBRANCH  27  30
ENDBRANCH  25  26
ENDBRANCH  24  25
ENDBRANCH   1  24
TORSDOF 14
ENDMDL
MODEL 2
REMARK VINA RESULT:     -11.1      2.845      7.400
REMARK SMILES CC(C)(C)[N@@H+](CC(=O)NCCCNC(=O)c1ccc(-c2c3nc(c(-c4ccccc4)c4ccc([nH]4)c(-c4ccccc4)c4nc(c(-c5ccccc5)c5ccc2[nH]5)C=C4)C=C3)cc1)C[C@@H]1Cc2cc(F)ccc2O1
REMARK SMILES IDX 10 1 9 2 7 3 8 4 6 6 5 7 2 9 1 10 3 11 4 12 64 13 65 14
REMARK SMILES IDX 66 15 74 16 67 17 73 18 68 19 72 20 69 21 71 22 70 23 11 24
REMARK SMILES IDX 12 25 13 26 14 27 15 29 16 30 17 31 63 32 18 33 62 34 19 35
REMARK SMILES IDX 20 36 21 37 56 38 22 39 61 40 55 41 57 42 23 43 60 44 54 45
REMARK SMILES IDX 53 46 24 48 46 49 31 50 45 51 32 52 35 53 44 54 58 55 33 56
REMARK SMILES IDX 34 57 43 59 59 60 36 61 25 62 26 63 30 64 27 65 29 66 28 67
REMARK SMILES IDX 47 68 48 69 52 70 49 71 51 72 50 73 37 74 38 75 42 76 39 77
REMARK SMILES IDX 41 78 40 79
REMARK H PARENT 9 5 5 8 13 28 57 47 35 58
REMARK Flexibility Score: inf
ROOT
ATOM      1  C   UNL A   1      37.844  21.395  25.180  1.00  0.00     0.118 C 
ENDROOT
BRANCH   1   2
ATOM      2  N   UNL A   1      37.236  21.985  23.997  1.00  0.00    -0.351 N 
ATOM      3  C   UNL A   1      36.356  23.019  23.828  1.00  0.00     0.275 C 
ATOM      4  O   UNL A   1      36.117  23.365  22.667  1.00  0.00    -0.269 OA
ATOM      5  H   UNL A   1      37.511  21.557  23.154  1.00  0.00     0.163 HD
BRANCH   3   6
ATOM      6  C   UNL A   1      35.715  23.732  25.020  1.00  0.00     0.364 C 
BRANCH   6   7
ATOM      7  N   UNL A   1      34.258  23.491  25.135  1.00  0.00    -0.320 N 
ATOM      8  H   UNL A   1      33.572  23.491  24.381  1.00  0.00     0.349 HD
BRANCH   7   9
ATOM      9  C   UNL A   1      33.311  24.591  24.908  1.00  0.00     0.090 C 
ATOM     10  C   UNL A   1      32.518  24.900  26.208  1.00  0.00     0.078 C 
ATOM     11  C   UNL A   1      32.344  24.259  23.750  1.00  0.00     0.078 C 
ATOM     12  C   UNL A   1      33.967  25.947  24.573  1.00  0.00     0.078 C 
ENDBRANCH   7   9
BRANCH   7  13
ATOM     13  C   UNL A   1      33.892  22.153  25.619  1.00  0.00     0.309 C 
BRANCH  13  14
ATOM     14  C   UNL A   1      33.657  20.908  24.718  1.00  0.00     0.232 C 
ATOM     15  C   UNL A   1      32.399  20.082  25.050  1.00  0.00     0.090 C 
ATOM     16  O   UNL A   1      34.813  20.044  24.616  1.00  0.00    -0.484 OA
ATOM     17  C   UNL A   1      32.947  18.714  24.926  1.00  0.00     0.001 A 
ATOM     18  C   UNL A   1      34.299  18.775  24.629  1.00  0.00     0.123 A 
ATOM     19  C   UNL A   1      32.309  17.493  25.072  1.00  0.00     0.047 A 
ATOM     20  C   UNL A   1      35.056  17.638  24.416  1.00  0.00     0.050 A 
ATOM     21  C   UNL A   1      33.065  16.339  24.875  1.00  0.00     0.123 A 
ATOM     22  C   UNL A   1      34.422  16.400  24.535  1.00  0.00     0.043 A 
ATOM     23  F   UNL A   1      32.479  15.142  25.014  1.00  0.00    -0.207 F 
ENDBRANCH  13  14
ENDBRANCH   7  13
ENDBRANCH   6   7
ENDBRANCH   3   6
ENDBRANCH   1   2
BRANCH   1  24
ATOM     24  C   UNL A   1      38.549  20.056  24.943  1.00  0.00     0.042 C 
BRANCH  24  25
ATOM     25  C   UNL A   1      39.214  19.420  26.164  1.00  0.00     0.118 C 
BRANCH  25  26
ATOM     26  N   UNL A   1      40.557  18.965  25.859  1.00  0.00    -0.352 N 
ATOM     27  C   UNL A   1      41.727  19.679  25.820  1.00  0.00     0.251 C 
ATOM     28  H   UNL A   1      40.641  18.007  25.650  1.00  0.00     0.163 HD
ATOM     29  O   UNL A   1      42.714  19.182  25.272  1.00  0.00    -0.269 OA
BRANCH  27  30
ATOM     30  C   UNL A   1      41.847  21.026  26.435  1.00  0.00     0.039 A 
ATOM     31  C   UNL A   1      42.127  22.116  25.602  1.00  0.00     0.014 A 
ATOM     32  C   UNL A   1      41.822  21.209  27.822  1.00  0.00     0.014 A 
ATOM     33  C   UNL A   1      42.390  23.377  26.150  1.00  0.00     0.010 A 
ATOM     34  C   UNL A   1      42.049  22.478  28.368  1.00  0.00     0.010 A 
ATOM     35  C   UNL A   1      42.365  23.567  27.540  1.00  0.00    -0.014 A 
BRANCH  35  36
ATOM     36  C   UNL A   1      42.748  24.878  28.134  1.00  0.00     0.031 A 
ATOM     37  C   UNL A   1      41.702  25.941  28.354  1.00  0.00     0.074 A 
ATOM     38  C   UNL A   1      44.025  25.123  28.482  1.00  0.00     0.049 A 
ATOM     39  N   UNL A   1      41.840  27.150  28.838  1.00  0.00    -0.248 NA
ATOM     40  C   UNL A   1      40.321  25.600  27.976  1.00  0.00     0.031 C 
ATOM     41  C   UNL A   1      45.140  24.186  28.335  1.00  0.00     0.029 A 
ATOM     42  N   UNL A   1      44.599  26.241  29.036  1.00  0.00    -0.354 N 
ATOM     43  C   UNL A   1      40.571  27.715  28.816  1.00  0.00     0.074 A 
ATOM     44  C   UNL A   1      39.681  26.732  28.237  1.00  0.00     0.031 C 
ATOM     45  C   UNL A   1      46.259  24.763  28.802  1.00  0.00     0.029 A 
ATOM     46  C   UNL A   1      45.950  26.118  29.254  1.00  0.00     0.049 A 
ATOM     47  H   UNL A   1      44.091  27.055  29.258  1.00  0.00     0.167 HD
ATOM     48  C   UNL A   1      40.172  28.935  29.253  1.00  0.00     0.031 A 
ATOM     49  C   UNL A   1      46.840  26.995  29.756  1.00  0.00     0.031 A 
ATOM     50  C   UNL A   1      41.042  29.921  29.835  1.00  0.00     0.049 A 
ATOM     51  C   UNL A   1      46.378  28.359  30.192  1.00  0.00     0.074 A 
ATOM     52  C   UNL A   1      40.721  31.180  30.317  1.00  0.00     0.029 A 
ATOM     53  N   UNL A   1      42.405  29.759  30.020  1.00  0.00    -0.354 N 
ATOM     54  N   UNL A   1      45.171  28.864  30.188  1.00  0.00    -0.248 NA
ATOM     55  C   UNL A   1      47.410  29.271  30.713  1.00  0.00     0.031 C 
ATOM     56  C   UNL A   1      41.896  31.791  30.764  1.00  0.00     0.029 A 
ATOM     57  C   UNL A   1      42.940  30.897  30.599  1.00  0.00     0.049 A 
ATOM     58  H   UNL A   1      42.917  28.954  29.775  1.00  0.00     0.167 HD
ATOM     59  C   UNL A   1      45.290  30.137  30.732  1.00  0.00     0.074 A 
ATOM     60  C   UNL A   1      46.686  30.324  31.066  1.00  0.00     0.031 C 
ATOM     61  C   UNL A   1      44.328  31.066  30.939  1.00  0.00     0.031 A 
BRANCH  48  62
ATOM     62  C   UNL A   1      38.715  29.275  29.117  1.00  0.00    -0.014 A 
ATOM     63  C   UNL A   1      37.846  29.178  30.216  1.00  0.00     0.009 A 
ATOM     64  C   UNL A   1      38.214  29.745  27.893  1.00  0.00     0.009 A 
ATOM     65  C   UNL A   1      36.498  29.519  30.083  1.00  0.00     0.001 A 
ATOM     66  C   UNL A   1      36.872  30.106  27.770  1.00  0.00     0.001 A 
ATOM     67  C   UNL A   1      36.014  29.986  28.863  1.00  0.00     0.000 A 
ENDBRANCH  48  62
BRANCH  49  68
ATOM     68  C   UNL A   1      48.271  26.618  29.885  1.00  0.00    -0.014 A 
ATOM     69  C   UNL A   1      49.177  26.902  28.851  1.00  0.00     0.009 A 
ATOM     70  C   UNL A   1      48.731  25.944  31.027  1.00  0.00     0.009 A 
ATOM     71  C   UNL A   1      50.509  26.490  28.946  1.00  0.00     0.001 A 
ATOM     72  C   UNL A   1      50.069  25.556  31.128  1.00  0.00     0.001 A 
ATOM     73  C   UNL A   1      50.953  25.820  30.084  1.00  0.00     0.000 A 
ENDBRANCH  49  68
BRANCH  61  74
ATOM     74  C   UNL A   1      44.740  32.352  31.596  1.00  0.00    -0.014 A 
ATOM     75  C   UNL A   1      44.741  32.490  32.991  1.00  0.00     0.009 A 
ATOM     76  C   UNL A   1      45.169  33.429  30.804  1.00  0.00     0.009 A 
ATOM     77  C   UNL A   1      45.135  33.692  33.581  1.00  0.00     0.001 A 
ATOM     78  C   UNL A   1      45.585  34.622  31.397  1.00  0.00     0.001 A 
ATOM     79  C   UNL A   1      45.560  34.755  32.784  1.00  0.00     0.000 A 
ENDBRANCH  61  74
ENDBRANCH  35  36
ENDBRANCH  27  30
ENDBRANCH  25  26
ENDBRANCH  24  25
ENDBRANCH   1  24
TORSDOF 14
ENDMDL
MODEL 3
REMARK VINA RESULT:     -11.1      2.743      7.518
REMARK SMILES CC(C)(C)[N@@H+](CC(=O)NCCCNC(=O)c1ccc(-c2c3nc(c(-c4ccccc4)c4ccc([nH]4)c(-c4ccccc4)c4nc(c(-c5ccccc5)c5ccc2[nH]5)C=C4)C=C3)cc1)C[C@@H]1Cc2cc(F)ccc2O1
REMARK SMILES IDX 10 1 9 2 7 3 8 4 6 6 5 7 2 9 1 10 3 11 4 12 64 13 65 14
REMARK SMILES IDX 66 15 74 16 67 17 73 18 68 19 72 20 69 21 71 22 70 23 11 24
REMARK SMILES IDX 12 25 13 26 14 27 15 29 16 30 17 31 63 32 18 33 62 34 19 35
REMARK SMILES IDX 20 36 21 37 56 38 22 39 61 40 55 41 57 42 23 43 60 44 54 45
REMARK SMILES IDX 53 46 24 48 46 49 31 50 45 51 32 52 35 53 44 54 58 55 33 56
REMARK SMILES IDX 34 57 43 59 59 60 36 61 25 62 26 63 30 64 27 65 29 66 28 67
REMARK SMILES IDX 47 68 48 69 52 70 49 71 51 72 50 73 37 74 38 75 42 76 39 77
REMARK SMILES IDX 41 78 40 79
REMARK H PARENT 9 5 5 8 13 28 57 47 35 58
REMARK Flexibility Score: inf
ROOT
ATOM      1  C   UNL A   1      36.544  20.670  24.925  1.00  0.00     0.118 C 
ENDROOT
BRANCH   1   2
ATOM      2  N   UNL A   1      36.697  22.000  25.496  1.00  0.00    -0.351 N 
ATOM      3  C   UNL A   1      36.020  23.172  25.303  1.00  0.00     0.275 C 
ATOM      4  O   UNL A   1      36.316  24.118  26.040  1.00  0.00    -0.269 OA
ATOM      5  H   UNL A   1      37.432  22.069  26.148  1.00  0.00     0.163 HD
BRANCH   3   6
ATOM      6  C   UNL A   1      34.927  23.303  24.241  1.00  0.00     0.364 C 
BRANCH   6   7
ATOM      7  N   UNL A   1      33.616  23.716  24.794  1.00  0.00    -0.320 N 
ATOM      8  H   UNL A   1      32.739  23.823  24.286  1.00  0.00     0.349 HD
BRANCH   7   9
ATOM      9  C   UNL A   1      33.046  25.023  24.437  1.00  0.00     0.090 C 
ATOM     10  C   UNL A   1      33.348  26.068  25.546  1.00  0.00     0.078 C 
ATOM     11  C   UNL A   1      31.524  24.916  24.195  1.00  0.00     0.078 C 
ATOM     12  C   UNL A   1      33.659  25.670  23.177  1.00  0.00     0.078 C 
ENDBRANCH   7   9
BRANCH   7  13
ATOM     13  C   UNL A   1      33.054  22.800  25.795  1.00  0.00     0.309 C 
BRANCH  13  14
ATOM     14  C   UNL A   1      32.448  21.401  25.488  1.00  0.00     0.232 C 
ATOM     15  C   UNL A   1      33.268  20.201  26.003  1.00  0.00     0.090 C 
ATOM     16  O   UNL A   1      32.104  21.214  24.096  1.00  0.00    -0.484 OA
ATOM     17  C   UNL A   1      33.162  19.296  24.837  1.00  0.00     0.001 A 
ATOM     18  C   UNL A   1      32.448  19.916  23.825  1.00  0.00     0.123 A 
ATOM     19  C   UNL A   1      33.664  18.017  24.667  1.00  0.00     0.047 A 
ATOM     20  C   UNL A   1      32.161  19.280  22.632  1.00  0.00     0.050 A 
ATOM     21  C   UNL A   1      33.395  17.369  23.462  1.00  0.00     0.123 A 
ATOM     22  C   UNL A   1      32.639  17.980  22.455  1.00  0.00     0.043 A 
ATOM     23  F   UNL A   1      33.871  16.132  23.265  1.00  0.00    -0.207 F 
ENDBRANCH  13  14
ENDBRANCH   7  13
ENDBRANCH   6   7
ENDBRANCH   3   6
ENDBRANCH   1   2
BRANCH   1  24
ATOM     24  C   UNL A   1      37.793  19.786  25.006  1.00  0.00     0.042 C 
BRANCH  24  25
ATOM     25  C   UNL A   1      38.972  20.361  25.791  1.00  0.00     0.118 C 
BRANCH  25  26
ATOM     26  N   UNL A   1      40.053  19.399  25.903  1.00  0.00    -0.352 N 
ATOM     27  C   UNL A   1      41.389  19.618  26.117  1.00  0.00     0.251 C 
ATOM     28  H   UNL A   1      39.789  18.455  25.814  1.00  0.00     0.163 HD
ATOM     29  O   UNL A   1      42.187  18.701  25.903  1.00  0.00    -0.269 OA
BRANCH  27  30
ATOM     30  C   UNL A   1      41.904  20.919  26.613  1.00  0.00     0.039 A 
ATOM     31  C   UNL A   1      41.804  21.198  27.982  1.00  0.00     0.014 A 
ATOM     32  C   UNL A   1      42.354  21.916  25.740  1.00  0.00     0.014 A 
ATOM     33  C   UNL A   1      42.142  22.463  28.474  1.00  0.00     0.010 A 
ATOM     34  C   UNL A   1      42.727  23.171  26.237  1.00  0.00     0.010 A 
ATOM     35  C   UNL A   1      42.596  23.467  27.604  1.00  0.00    -0.014 A 
BRANCH  35  36
ATOM     36  C   UNL A   1      42.855  24.845  28.105  1.00  0.00     0.031 A 
ATOM     37  C   UNL A   1      44.260  25.275  28.437  1.00  0.00     0.074 A 
ATOM     38  C   UNL A   1      41.840  25.717  28.259  1.00  0.00     0.049 A 
ATOM     39  N   UNL A   1      44.686  26.423  28.904  1.00  0.00    -0.248 NA
ATOM     40  C   UNL A   1      45.326  24.283  28.221  1.00  0.00     0.031 C 
ATOM     41  C   UNL A   1      40.433  25.442  27.969  1.00  0.00     0.029 A 
ATOM     42  N   UNL A   1      41.843  27.018  28.699  1.00  0.00    -0.354 N 
ATOM     43  C   UNL A   1      46.062  26.289  29.043  1.00  0.00     0.074 A 
ATOM     44  C   UNL A   1      46.397  24.938  28.649  1.00  0.00     0.031 C 
ATOM     45  C   UNL A   1      39.711  26.546  28.223  1.00  0.00     0.029 A 
ATOM     46  C   UNL A   1      40.596  27.596  28.722  1.00  0.00     0.049 A 
ATOM     47  H   UNL A   1      42.661  27.493  28.972  1.00  0.00     0.167 HD
ATOM     48  C   UNL A   1      46.973  27.208  29.447  1.00  0.00     0.031 A 
ATOM     49  C   UNL A   1      40.209  28.828  29.103  1.00  0.00     0.031 A 
ATOM     50  C   UNL A   1      46.657  28.556  29.837  1.00  0.00     0.049 A 
ATOM     51  C   UNL A   1      41.235  29.815  29.589  1.00  0.00     0.074 A 
ATOM     52  C   UNL A   1      47.518  29.561  30.248  1.00  0.00     0.029 A 
ATOM     53  N   UNL A   1      45.380  29.092  29.861  1.00  0.00    -0.354 N 
ATOM     54  N   UNL A   1      42.533  29.678  29.689  1.00  0.00    -0.248 NA
ATOM     55  C   UNL A   1      40.735  31.136  30.007  1.00  0.00     0.031 C 
ATOM     56  C   UNL A   1      46.758  30.694  30.551  1.00  0.00     0.029 A 
ATOM     57  C   UNL A   1      45.429  30.407  30.288  1.00  0.00     0.049 A 
ATOM     58  H   UNL A   1      44.560  28.608  29.611  1.00  0.00     0.167 HD
ATOM     59  C   UNL A   1      43.009  30.900  30.149  1.00  0.00     0.074 A 
ATOM     60  C   UNL A   1      41.862  31.770  30.299  1.00  0.00     0.031 C 
ATOM     61  C   UNL A   1      44.283  31.268  30.421  1.00  0.00     0.031 A 
BRANCH  48  62
ATOM     62  C   UNL A   1      48.413  26.784  29.486  1.00  0.00    -0.014 A 
ATOM     63  C   UNL A   1      48.952  26.165  30.625  1.00  0.00     0.009 A 
ATOM     64  C   UNL A   1      49.228  26.959  28.356  1.00  0.00     0.009 A 
ATOM     65  C   UNL A   1      50.286  25.754  30.642  1.00  0.00     0.001 A 
ATOM     66  C   UNL A   1      50.555  26.526  28.369  1.00  0.00     0.001 A 
ATOM     67  C   UNL A   1      51.085  25.930  29.513  1.00  0.00     0.000 A 
ENDBRANCH  48  62
BRANCH  49  68
ATOM     68  C   UNL A   1      38.776  29.215  29.039  1.00  0.00    -0.014 A 
ATOM     69  C   UNL A   1      37.949  29.063  30.163  1.00  0.00     0.009 A 
ATOM     70  C   UNL A   1      38.222  29.705  27.847  1.00  0.00     0.009 A 
ATOM     71  C   UNL A   1      36.588  29.367  30.084  1.00  0.00     0.001 A 
ATOM     72  C   UNL A   1      36.865  30.030  27.780  1.00  0.00     0.001 A 
ATOM     73  C   UNL A   1      36.048  29.851  28.894  1.00  0.00     0.000 A 
ENDBRANCH  49  68
BRANCH  61  74
ATOM     74  C   UNL A   1      44.513  32.684  30.864  1.00  0.00    -0.014 A 
ATOM     75  C   UNL A   1      44.734  33.711  29.935  1.00  0.00     0.009 A 
ATOM     76  C   UNL A   1      44.472  32.998  32.232  1.00  0.00     0.009 A 
ATOM     77  C   UNL A   1      44.938  35.022  30.369  1.00  0.00     0.001 A 
ATOM     78  C   UNL A   1      44.653  34.313  32.661  1.00  0.00     0.001 A 
ATOM     79  C   UNL A   1      44.894  35.322  31.731  1.00  0.00     0.000 A 
ENDBRANCH  61  74
ENDBRANCH  35  36
ENDBRANCH  27  30
ENDBRANCH  25  26
ENDBRANCH  24  25
ENDBRANCH   1  24
TORSDOF 14
ENDMDL
