MODEL 1
REMARK VINA RESULT:     -11.5      0.000      0.000
REMARK SMILES CC[C@@](C)(NC(=O)N[C@@H](C)c1cccc(Br)c1)C(=O)NCCCNC(=O)c1ccc(-c2c3nc(c(-c4ccccc4)c4ccc([nH]4)c(-c4ccccc4)c4nc(c(-c5ccccc5)c5ccc2[nH]5)C=C4)C=C3)cc1
REMARK SMILES IDX 21 1 20 2 18 3 19 4 3 6 4 7 2 8 1 9 5 10 6 11 7 13 8 14 9 16
REMARK SMILES IDX 10 17 11 18 12 19 17 20 13 21 15 22 14 23 16 24 22 25 23 26
REMARK SMILES IDX 24 27 25 28 26 30 27 31 28 32 74 33 29 34 73 35 30 36 31 37
REMARK SMILES IDX 32 38 67 39 33 40 72 41 66 42 68 43 34 44 71 45 65 46 64 47
REMARK SMILES IDX 35 49 57 50 42 51 56 52 43 53 46 54 55 55 69 56 44 57 45 58
REMARK SMILES IDX 54 60 70 61 47 62 36 63 37 64 41 65 38 66 40 67 39 68 58 69
REMARK SMILES IDX 59 70 63 71 60 72 62 73 61 74 48 75 49 76 53 77 50 78 52 79
REMARK SMILES IDX 51 80
REMARK H PARENT 20 5 5 12 8 15 24 29 68 48 46 59
REMARK Flexibility Score: inf
ROOT
ATOM      1  C   UNL A   1      36.096  21.510  25.113  1.00  0.00     0.117 C 
ENDROOT
BRANCH   1   2
ATOM      2  N   UNL A   1      35.465  21.515  26.423  1.00  0.00    -0.354 N 
ATOM      3  C   UNL A   1      34.178  21.745  26.837  1.00  0.00     0.245 C 
ATOM      4  O   UNL A   1      33.870  21.222  27.914  1.00  0.00    -0.272 OA
ATOM      5  H   UNL A   1      36.085  21.313  27.160  1.00  0.00     0.163 HD
BRANCH   3   6
ATOM      6  C   UNL A   1      33.125  22.519  25.982  1.00  0.00     0.117 C 
ATOM      7  C   UNL A   1      33.637  23.978  25.876  1.00  0.00     0.045 C 
BRANCH   6   8
ATOM      8  C   UNL A   1      32.888  22.018  24.524  1.00  0.00     0.035 C 
ATOM      9  C   UNL A   1      32.386  20.594  24.325  1.00  0.00     0.007 C 
ENDBRANCH   6   8
BRANCH   6  10
ATOM     10  N   UNL A   1      31.819  22.512  26.665  1.00  0.00    -0.324 N 
ATOM     11  C   UNL A   1      30.724  23.278  26.615  1.00  0.00     0.316 C 
ATOM     12  H   UNL A   1      31.732  21.769  27.307  1.00  0.00     0.166 HD
ATOM     13  O   UNL A   1      29.877  23.090  27.494  1.00  0.00    -0.249 OA
ATOM     14  N   UNL A   1      30.429  24.180  25.679  1.00  0.00    -0.332 N 
ATOM     15  H   UNL A   1      29.529  24.553  25.819  1.00  0.00     0.165 HD
BRANCH  14  16
ATOM     16  C   UNL A   1      31.066  24.771  24.503  1.00  0.00     0.111 C 
ATOM     17  C   UNL A   1      30.419  24.233  23.221  1.00  0.00     0.036 C 
BRANCH  16  18
ATOM     18  C   UNL A   1      31.027  26.294  24.497  1.00  0.00    -0.025 A 
ATOM     19  C   UNL A   1      30.431  27.052  23.479  1.00  0.00     0.006 A 
ATOM     20  C   UNL A   1      31.600  26.978  25.587  1.00  0.00     0.021 A 
ATOM     21  C   UNL A   1      30.433  28.448  23.537  1.00  0.00     0.002 A 
ATOM     22  C   UNL A   1      31.607  28.369  25.636  1.00  0.00     0.018 A 
ATOM     23  C   UNL A   1      31.026  29.108  24.612  1.00  0.00     0.016 A 
ATOM     24  Br  UNL A   1      32.414  29.248  27.101  1.00  0.00    -0.051 Br
ENDBRANCH  16  18
ENDBRANCH  14  16
ENDBRANCH   6  10
ENDBRANCH   3   6
ENDBRANCH   1   2
BRANCH   1  25
ATOM     25  C   UNL A   1      37.320  20.627  24.868  1.00  0.00     0.042 C 
BRANCH  25  26
ATOM     26  C   UNL A   1      38.596  20.846  25.672  1.00  0.00     0.118 C 
BRANCH  26  27
ATOM     27  N   UNL A   1      39.571  19.775  25.589  1.00  0.00    -0.352 N 
ATOM     28  C   UNL A   1      40.895  19.799  25.968  1.00  0.00     0.251 C 
ATOM     29  H   UNL A   1      39.246  18.924  25.215  1.00  0.00     0.163 HD
ATOM     30  O   UNL A   1      41.616  18.829  25.789  1.00  0.00    -0.269 OA
BRANCH  28  31
ATOM     31  C   UNL A   1      41.449  21.031  26.569  1.00  0.00     0.039 A 
ATOM     32  C   UNL A   1      42.000  22.003  25.729  1.00  0.00     0.014 A 
ATOM     33  C   UNL A   1      41.400  21.234  27.951  1.00  0.00     0.014 A 
ATOM     34  C   UNL A   1      42.443  23.214  26.269  1.00  0.00     0.010 A 
ATOM     35  C   UNL A   1      41.808  22.458  28.483  1.00  0.00     0.010 A 
ATOM     36  C   UNL A   1      42.321  23.464  27.646  1.00  0.00    -0.014 A 
BRANCH  36  37
ATOM     37  C   UNL A   1      42.700  24.777  28.231  1.00  0.00     0.031 A 
ATOM     38  C   UNL A   1      41.664  25.848  28.426  1.00  0.00     0.074 A 
ATOM     39  C   UNL A   1      43.991  25.036  28.516  1.00  0.00     0.049 A 
ATOM     40  N   UNL A   1      41.820  27.087  28.820  1.00  0.00    -0.248 NA
ATOM     41  C   UNL A   1      40.272  25.483  28.123  1.00  0.00     0.031 C 
ATOM     42  C   UNL A   1      45.099  24.092  28.360  1.00  0.00     0.029 A 
ATOM     43  N   UNL A   1      44.592  26.181  28.981  1.00  0.00    -0.354 N 
ATOM     44  C   UNL A   1      40.552  27.654  28.794  1.00  0.00     0.074 A 
ATOM     45  C   UNL A   1      39.644  26.634  28.313  1.00  0.00     0.031 C 
ATOM     46  C   UNL A   1      46.243  24.693  28.730  1.00  0.00     0.029 A 
ATOM     47  C   UNL A   1      45.957  26.074  29.106  1.00  0.00     0.049 A 
ATOM     48  H   UNL A   1      44.093  26.999  29.204  1.00  0.00     0.167 HD
ATOM     49  C   UNL A   1      40.175  28.907  29.147  1.00  0.00     0.031 A 
ATOM     50  C   UNL A   1      46.878  26.990  29.464  1.00  0.00     0.031 A 
ATOM     51  C   UNL A   1      41.074  29.923  29.626  1.00  0.00     0.049 A 
ATOM     52  C   UNL A   1      46.439  28.385  29.815  1.00  0.00     0.074 A 
ATOM     53  C   UNL A   1      40.777  31.208  30.045  1.00  0.00     0.029 A 
ATOM     54  N   UNL A   1      42.447  29.771  29.744  1.00  0.00    -0.354 N 
ATOM     55  N   UNL A   1      45.230  28.891  29.832  1.00  0.00    -0.248 NA
ATOM     56  C   UNL A   1      47.493  29.335  30.201  1.00  0.00     0.031 C 
ATOM     57  C   UNL A   1      41.976  31.851  30.370  1.00  0.00     0.029 A 
ATOM     58  C   UNL A   1      43.012  30.946  30.209  1.00  0.00     0.049 A 
ATOM     59  H   UNL A   1      42.946  28.949  29.529  1.00  0.00     0.167 HD
ATOM     60  C   UNL A   1      45.374  30.202  30.269  1.00  0.00     0.074 A 
ATOM     61  C   UNL A   1      46.786  30.413  30.507  1.00  0.00     0.031 C 
ATOM     62  C   UNL A   1      44.417  31.142  30.459  1.00  0.00     0.031 A 
BRANCH  49  63
ATOM     63  C   UNL A   1      38.719  29.256  29.011  1.00  0.00    -0.014 A 
ATOM     64  C   UNL A   1      38.185  29.686  27.785  1.00  0.00     0.009 A 
ATOM     65  C   UNL A   1      37.860  29.112  30.112  1.00  0.00     0.009 A 
ATOM     66  C   UNL A   1      36.829  30.000  27.676  1.00  0.00     0.001 A 
ATOM     67  C   UNL A   1      36.499  29.399  29.991  1.00  0.00     0.001 A 
ATOM     68  C   UNL A   1      35.987  29.853  28.778  1.00  0.00     0.000 A 
ENDBRANCH  49  63
BRANCH  50  69
ATOM     69  C   UNL A   1      48.317  26.617  29.515  1.00  0.00    -0.014 A 
ATOM     70  C   UNL A   1      48.894  26.169  30.712  1.00  0.00     0.009 A 
ATOM     71  C   UNL A   1      49.122  26.718  28.369  1.00  0.00     0.009 A 
ATOM     72  C   UNL A   1      50.254  25.855  30.769  1.00  0.00     0.001 A 
ATOM     73  C   UNL A   1      50.475  26.375  28.421  1.00  0.00     0.001 A 
ATOM     74  C   UNL A   1      51.042  25.953  29.623  1.00  0.00     0.000 A 
ENDBRANCH  50  69
BRANCH  62  75
ATOM     75  C   UNL A   1      44.849  32.473  31.008  1.00  0.00    -0.014 A 
ATOM     76  C   UNL A   1      45.178  33.543  30.164  1.00  0.00     0.009 A 
ATOM     77  C   UNL A   1      44.861  32.672  32.398  1.00  0.00     0.009 A 
ATOM     78  C   UNL A   1      45.535  34.782  30.703  1.00  0.00     0.001 A 
ATOM     79  C   UNL A   1      45.192  33.918  32.933  1.00  0.00     0.001 A 
ATOM     80  C   UNL A   1      45.534  34.970  32.086  1.00  0.00     0.000 A 
ENDBRANCH  62  75
ENDBRANCH  36  37
ENDBRANCH  28  31
ENDBRANCH  26  27
ENDBRANCH  25  26
ENDBRANCH   1  25
TORSDOF 14
ENDMDL
MODEL 2
REMARK VINA RESULT:     -11.4      0.434      5.970
REMARK SMILES CC[C@@](C)(NC(=O)N[C@@H](C)c1cccc(Br)c1)C(=O)NCCCNC(=O)c1ccc(-c2c3nc(c(-c4ccccc4)c4ccc([nH]4)c(-c4ccccc4)c4nc(c(-c5ccccc5)c5ccc2[nH]5)C=C4)C=C3)cc1
REMARK SMILES IDX 21 1 20 2 18 3 19 4 3 6 4 7 2 8 1 9 5 10 6 11 7 13 8 14 9 16
REMARK SMILES IDX 10 17 11 18 12 19 17 20 13 21 15 22 14 23 16 24 22 25 23 26
REMARK SMILES IDX 24 27 25 28 26 30 27 31 28 32 74 33 29 34 73 35 30 36 31 37
REMARK SMILES IDX 32 38 67 39 33 40 72 41 66 42 68 43 34 44 71 45 65 46 64 47
REMARK SMILES IDX 35 49 57 50 42 51 56 52 43 53 46 54 55 55 69 56 44 57 45 58
REMARK SMILES IDX 54 60 70 61 47 62 36 63 37 64 41 65 38 66 40 67 39 68 58 69
REMARK SMILES IDX 59 70 63 71 60 72 62 73 61 74 48 75 49 76 53 77 50 78 52 79
REMARK SMILES IDX 51 80
REMARK H PARENT 20 5 5 12 8 15 24 29 68 48 46 59
REMARK Flexibility Score: inf
ROOT
ATOM      1  C   UNL A   1      36.026  21.249  25.082  1.00  0.00     0.117 C 
ENDROOT
BRANCH   1   2
ATOM      2  N   UNL A   1      35.453  21.387  26.411  1.00  0.00    -0.354 N 
ATOM      3  C   UNL A   1      34.195  21.706  26.856  1.00  0.00     0.245 C 
ATOM      4  O   UNL A   1      33.913  21.286  27.984  1.00  0.00    -0.272 OA
ATOM      5  H   UNL A   1      36.095  21.216  27.137  1.00  0.00     0.163 HD
BRANCH   3   6
ATOM      6  C   UNL A   1      33.140  22.457  25.984  1.00  0.00     0.117 C 
ATOM      7  C   UNL A   1      33.643  23.916  25.851  1.00  0.00     0.045 C 
BRANCH   6   8
ATOM      8  C   UNL A   1      32.909  21.926  24.535  1.00  0.00     0.035 C 
ATOM      9  C   UNL A   1      32.335  20.525  24.365  1.00  0.00     0.007 C 
ENDBRANCH   6   8
BRANCH   6  10
ATOM     10  N   UNL A   1      31.832  22.454  26.664  1.00  0.00    -0.324 N 
ATOM     11  C   UNL A   1      30.745  23.231  26.619  1.00  0.00     0.316 C 
ATOM     12  H   UNL A   1      31.737  21.706  27.297  1.00  0.00     0.166 HD
ATOM     13  O   UNL A   1      29.893  23.042  27.494  1.00  0.00    -0.249 OA
ATOM     14  N   UNL A   1      30.460  24.146  25.692  1.00  0.00    -0.332 N 
ATOM     15  H   UNL A   1      29.563  24.525  25.834  1.00  0.00     0.165 HD
BRANCH  14  16
ATOM     16  C   UNL A   1      31.105  24.744  24.524  1.00  0.00     0.111 C 
ATOM     17  C   UNL A   1      30.482  24.196  23.235  1.00  0.00     0.036 C 
BRANCH  16  18
ATOM     18  C   UNL A   1      31.048  26.266  24.516  1.00  0.00    -0.025 A 
ATOM     19  C   UNL A   1      30.398  27.014  23.525  1.00  0.00     0.006 A 
ATOM     20  C   UNL A   1      31.663  26.960  25.577  1.00  0.00     0.021 A 
ATOM     21  C   UNL A   1      30.386  28.409  23.579  1.00  0.00     0.002 A 
ATOM     22  C   UNL A   1      31.656  28.351  25.622  1.00  0.00     0.018 A 
ATOM     23  C   UNL A   1      31.020  29.080  24.624  1.00  0.00     0.016 A 
ATOM     24  Br  UNL A   1      32.518  29.243  27.047  1.00  0.00    -0.051 Br
ENDBRANCH  16  18
ENDBRANCH  14  16
ENDBRANCH   6  10
ENDBRANCH   3   6
ENDBRANCH   1   2
BRANCH   1  25
ATOM     25  C   UNL A   1      37.273  20.387  24.883  1.00  0.00     0.042 C 
BRANCH  25  26
ATOM     26  C   UNL A   1      38.562  20.722  25.622  1.00  0.00     0.118 C 
BRANCH  26  27
ATOM     27  N   UNL A   1      39.569  19.677  25.615  1.00  0.00    -0.352 N 
ATOM     28  C   UNL A   1      40.883  19.760  26.021  1.00  0.00     0.251 C 
ATOM     29  H   UNL A   1      39.277  18.799  25.278  1.00  0.00     0.163 HD
ATOM     30  O   UNL A   1      41.635  18.804  25.907  1.00  0.00    -0.269 OA
BRANCH  28  31
ATOM     31  C   UNL A   1      41.387  21.036  26.571  1.00  0.00     0.039 A 
ATOM     32  C   UNL A   1      41.977  21.960  25.703  1.00  0.00     0.014 A 
ATOM     33  C   UNL A   1      41.254  21.327  27.931  1.00  0.00     0.014 A 
ATOM     34  C   UNL A   1      42.373  23.209  26.187  1.00  0.00     0.010 A 
ATOM     35  C   UNL A   1      41.617  22.589  28.405  1.00  0.00     0.010 A 
ATOM     36  C   UNL A   1      42.167  23.546  27.535  1.00  0.00    -0.014 A 
BRANCH  36  37
ATOM     37  C   UNL A   1      42.497  24.900  28.054  1.00  0.00     0.031 A 
ATOM     38  C   UNL A   1      43.894  25.218  28.506  1.00  0.00     0.074 A 
ATOM     39  C   UNL A   1      41.524  25.820  28.191  1.00  0.00     0.049 A 
ATOM     40  N   UNL A   1      44.349  26.303  29.084  1.00  0.00    -0.248 NA
ATOM     41  C   UNL A   1      44.910  24.176  28.297  1.00  0.00     0.031 C 
ATOM     42  C   UNL A   1      40.123  25.637  27.805  1.00  0.00     0.029 A 
ATOM     43  N   UNL A   1      41.562  27.092  28.711  1.00  0.00    -0.354 N 
ATOM     44  C   UNL A   1      45.697  26.065  29.324  1.00  0.00     0.074 A 
ATOM     45  C   UNL A   1      45.978  24.724  28.861  1.00  0.00     0.031 C 
ATOM     46  C   UNL A   1      39.438  26.756  28.095  1.00  0.00     0.029 A 
ATOM     47  C   UNL A   1      40.337  27.717  28.725  1.00  0.00     0.049 A 
ATOM     48  H   UNL A   1      42.386  27.514  29.042  1.00  0.00     0.167 HD
ATOM     49  C   UNL A   1      46.619  26.893  29.871  1.00  0.00     0.031 A 
ATOM     50  C   UNL A   1      39.974  28.922  29.208  1.00  0.00     0.031 A 
ATOM     51  C   UNL A   1      46.344  28.228  30.333  1.00  0.00     0.049 A 
ATOM     52  C   UNL A   1      41.010  29.807  29.846  1.00  0.00     0.074 A 
ATOM     53  C   UNL A   1      47.224  29.154  30.866  1.00  0.00     0.029 A 
ATOM     54  N   UNL A   1      45.093  28.825  30.322  1.00  0.00    -0.354 N 
ATOM     55  N   UNL A   1      42.290  29.587  30.021  1.00  0.00    -0.248 NA
ATOM     56  C   UNL A   1      40.550  31.110  30.349  1.00  0.00     0.031 C 
ATOM     57  C   UNL A   1      46.497  30.294  31.223  1.00  0.00     0.029 A 
ATOM     58  C   UNL A   1      45.175  30.099  30.858  1.00  0.00     0.049 A 
ATOM     59  H   UNL A   1      44.268  28.405  29.983  1.00  0.00     0.167 HD
ATOM     60  C   UNL A   1      42.794  30.738  30.615  1.00  0.00     0.074 A 
ATOM     61  C   UNL A   1      41.683  31.653  30.769  1.00  0.00     0.031 C 
ATOM     62  C   UNL A   1      44.066  31.009  30.992  1.00  0.00     0.031 A 
BRANCH  49  63
ATOM     63  C   UNL A   1      48.020  26.367  30.019  1.00  0.00    -0.014 A 
ATOM     64  C   UNL A   1      48.448  25.759  31.210  1.00  0.00     0.009 A 
ATOM     65  C   UNL A   1      48.911  26.442  28.937  1.00  0.00     0.009 A 
ATOM     66  C   UNL A   1      49.750  25.271  31.326  1.00  0.00     0.001 A 
ATOM     67  C   UNL A   1      50.204  25.927  29.047  1.00  0.00     0.001 A 
ATOM     68  C   UNL A   1      50.626  25.352  30.244  1.00  0.00     0.000 A 
ENDBRANCH  49  63
BRANCH  50  69
ATOM     69  C   UNL A   1      38.560  29.369  29.104  1.00  0.00    -0.014 A 
ATOM     70  C   UNL A   1      38.085  29.959  27.923  1.00  0.00     0.009 A 
ATOM     71  C   UNL A   1      37.682  29.219  30.189  1.00  0.00     0.009 A 
ATOM     72  C   UNL A   1      36.767  30.414  27.839  1.00  0.00     0.001 A 
ATOM     73  C   UNL A   1      36.356  29.648  30.092  1.00  0.00     0.001 A 
ATOM     74  C   UNL A   1      35.903  30.254  28.920  1.00  0.00     0.000 A 
ENDBRANCH  50  69
BRANCH  62  75
ATOM     75  C   UNL A   1      44.349  32.373  31.556  1.00  0.00    -0.014 A 
ATOM     76  C   UNL A   1      44.672  33.458  30.727  1.00  0.00     0.009 A 
ATOM     77  C   UNL A   1      44.224  32.586  32.939  1.00  0.00     0.009 A 
ATOM     78  C   UNL A   1      44.888  34.724  31.276  1.00  0.00     0.001 A 
ATOM     79  C   UNL A   1      44.414  33.858  33.481  1.00  0.00     0.001 A 
ATOM     80  C   UNL A   1      44.751  34.925  32.650  1.00  0.00     0.000 A 
ENDBRANCH  62  75
ENDBRANCH  36  37
ENDBRANCH  28  31
ENDBRANCH  26  27
ENDBRANCH  25  26
ENDBRANCH   1  25
TORSDOF 14
ENDMDL
MODEL 3
REMARK VINA RESULT:     -11.4      3.839      8.717
REMARK SMILES CC[C@@](C)(NC(=O)N[C@@H](C)c1cccc(Br)c1)C(=O)NCCCNC(=O)c1ccc(-c2c3nc(c(-c4ccccc4)c4ccc([nH]4)c(-c4ccccc4)c4nc(c(-c5ccccc5)c5ccc2[nH]5)C=C4)C=C3)cc1
REMARK SMILES IDX 21 1 20 2 18 3 19 4 3 6 4 7 2 8 1 9 5 10 6 11 7 13 8 14 9 16
REMARK SMILES IDX 10 17 11 18 12 19 17 20 13 21 15 22 14 23 16 24 22 25 23 26
REMARK SMILES IDX 24 27 25 28 26 30 27 31 28 32 74 33 29 34 73 35 30 36 31 37
REMARK SMILES IDX 32 38 67 39 33 40 72 41 66 42 68 43 34 44 71 45 65 46 64 47
REMARK SMILES IDX 35 49 57 50 42 51 56 52 43 53 46 54 55 55 69 56 44 57 45 58
REMARK SMILES IDX 54 60 70 61 47 62 36 63 37 64 41 65 38 66 40 67 39 68 58 69
REMARK SMILES IDX 59 70 63 71 60 72 62 73 61 74 48 75 49 76 53 77 50 78 52 79
REMARK SMILES IDX 51 80
REMARK H PARENT 20 5 5 12 8 15 24 29 68 48 46 59
REMARK Flexibility Score: inf
ROOT
ATOM      1  C   UNL A   1      32.115  29.603  25.723  1.00  0.00     0.117 C 
ENDROOT
BRANCH   1   2
ATOM      2  N   UNL A   1      33.044  29.633  24.605  1.00  0.00    -0.354 N 
ATOM      3  C   UNL A   1      33.196  28.838  23.498  1.00  0.00     0.245 C 
ATOM      4  O   UNL A   1      33.738  29.383  22.529  1.00  0.00    -0.272 OA
ATOM      5  H   UNL A   1      33.693  30.371  24.652  1.00  0.00     0.163 HD
BRANCH   3   6
ATOM      6  C   UNL A   1      32.642  27.381  23.403  1.00  0.00     0.117 C 
ATOM      7  C   UNL A   1      33.537  26.514  24.324  1.00  0.00     0.045 C 
BRANCH   6   8
ATOM      8  C   UNL A   1      31.168  27.151  23.860  1.00  0.00     0.035 C 
ATOM      9  C   UNL A   1      30.055  27.814  23.060  1.00  0.00     0.007 C 
ENDBRANCH   6   8
BRANCH   6  10
ATOM     10  N   UNL A   1      32.752  26.891  22.017  1.00  0.00    -0.324 N 
ATOM     11  C   UNL A   1      32.800  25.683  21.445  1.00  0.00     0.316 C 
ATOM     12  H   UNL A   1      32.801  27.623  21.360  1.00  0.00     0.166 HD
ATOM     13  O   UNL A   1      33.103  25.649  20.248  1.00  0.00    -0.249 OA
ATOM     14  N   UNL A   1      32.495  24.521  22.021  1.00  0.00    -0.332 N 
ATOM     15  H   UNL A   1      32.528  23.784  21.369  1.00  0.00     0.165 HD
BRANCH  14  16
ATOM     16  C   UNL A   1      32.123  24.030  23.348  1.00  0.00     0.111 C 
ATOM     17  C   UNL A   1      30.641  23.640  23.374  1.00  0.00     0.036 C 
BRANCH  16  18
ATOM     18  C   UNL A   1      32.973  22.856  23.817  1.00  0.00    -0.025 A 
ATOM     19  C   UNL A   1      32.449  21.593  24.126  1.00  0.00     0.006 A 
ATOM     20  C   UNL A   1      34.366  23.043  23.922  1.00  0.00     0.021 A 
ATOM     21  C   UNL A   1      33.287  20.560  24.552  1.00  0.00     0.002 A 
ATOM     22  C   UNL A   1      35.195  22.013  24.356  1.00  0.00     0.018 A 
ATOM     23  C   UNL A   1      34.660  20.770  24.674  1.00  0.00     0.016 A 
ATOM     24  Br  UNL A   1      37.054  22.314  24.512  1.00  0.00    -0.051 Br
ENDBRANCH  16  18
ENDBRANCH  14  16
ENDBRANCH   6  10
ENDBRANCH   3   6
ENDBRANCH   1   2
BRANCH   1  25
ATOM     25  C   UNL A   1      31.754  30.904  26.441  1.00  0.00     0.042 C 
BRANCH  25  26
ATOM     26  C   UNL A   1      32.849  31.771  27.051  1.00  0.00     0.118 C 
BRANCH  26  27
ATOM     27  N   UNL A   1      32.426  33.090  27.482  1.00  0.00    -0.352 N 
ATOM     28  C   UNL A   1      33.094  33.971  28.305  1.00  0.00     0.251 C 
ATOM     29  H   UNL A   1      31.553  33.394  27.145  1.00  0.00     0.163 HD
ATOM     30  O   UNL A   1      32.587  35.035  28.627  1.00  0.00    -0.269 OA
BRANCH  28  31
ATOM     31  C   UNL A   1      34.427  33.599  28.825  1.00  0.00     0.039 A 
ATOM     32  C   UNL A   1      34.509  32.890  30.028  1.00  0.00     0.014 A 
ATOM     33  C   UNL A   1      35.585  33.928  28.116  1.00  0.00     0.014 A 
ATOM     34  C   UNL A   1      35.753  32.449  30.487  1.00  0.00     0.010 A 
ATOM     35  C   UNL A   1      36.821  33.454  28.557  1.00  0.00     0.010 A 
ATOM     36  C   UNL A   1      36.916  32.699  29.739  1.00  0.00    -0.014 A 
BRANCH  36  37
ATOM     37  C   UNL A   1      38.237  32.163  30.160  1.00  0.00     0.031 A 
ATOM     38  C   UNL A   1      38.727  30.848  29.623  1.00  0.00     0.074 A 
ATOM     39  C   UNL A   1      38.964  32.821  31.083  1.00  0.00     0.049 A 
ATOM     40  N   UNL A   1      39.798  30.168  29.951  1.00  0.00    -0.248 NA
ATOM     41  C   UNL A   1      37.895  30.203  28.596  1.00  0.00     0.031 C 
ATOM     42  C   UNL A   1      38.599  34.099  31.697  1.00  0.00     0.029 A 
ATOM     43  N   UNL A   1      40.157  32.493  31.682  1.00  0.00    -0.354 N 
ATOM     44  C   UNL A   1      39.759  29.010  29.185  1.00  0.00     0.074 A 
ATOM     45  C   UNL A   1      38.543  29.062  28.402  1.00  0.00     0.031 C 
ATOM     46  C   UNL A   1      39.551  34.451  32.578  1.00  0.00     0.029 A 
ATOM     47  C   UNL A   1      40.568  33.405  32.625  1.00  0.00     0.049 A 
ATOM     48  H   UNL A   1      40.668  31.683  31.456  1.00  0.00     0.167 HD
ATOM     49  C   UNL A   1      40.659  27.998  29.130  1.00  0.00     0.031 A 
ATOM     50  C   UNL A   1      41.634  33.394  33.449  1.00  0.00     0.031 A 
ATOM     51  C   UNL A   1      41.869  27.943  29.907  1.00  0.00     0.049 A 
ATOM     52  C   UNL A   1      42.598  32.241  33.397  1.00  0.00     0.074 A 
ATOM     53  C   UNL A   1      42.860  26.977  29.889  1.00  0.00     0.029 A 
ATOM     54  N   UNL A   1      42.251  28.890  30.845  1.00  0.00    -0.354 N 
ATOM     55  N   UNL A   1      42.573  31.177  32.632  1.00  0.00    -0.248 NA
ATOM     56  C   UNL A   1      43.743  32.290  34.319  1.00  0.00     0.031 C 
ATOM     57  C   UNL A   1      43.818  27.314  30.851  1.00  0.00     0.029 A 
ATOM     58  C   UNL A   1      43.452  28.520  31.425  1.00  0.00     0.049 A 
ATOM     59  H   UNL A   1      41.743  29.705  31.064  1.00  0.00     0.167 HD
ATOM     60  C   UNL A   1      43.715  30.453  32.952  1.00  0.00     0.074 A 
ATOM     61  C   UNL A   1      44.412  31.199  33.978  1.00  0.00     0.031 C 
ATOM     62  C   UNL A   1      44.146  29.278  32.435  1.00  0.00     0.031 A 
BRANCH  49  63
ATOM     63  C   UNL A   1      40.356  26.852  28.207  1.00  0.00    -0.014 A 
ATOM     64  C   UNL A   1      40.896  26.797  26.912  1.00  0.00     0.009 A 
ATOM     65  C   UNL A   1      39.554  25.790  28.652  1.00  0.00     0.009 A 
ATOM     66  C   UNL A   1      40.608  25.721  26.070  1.00  0.00     0.001 A 
ATOM     67  C   UNL A   1      39.291  24.701  27.819  1.00  0.00     0.001 A 
ATOM     68  C   UNL A   1      39.809  24.672  26.526  1.00  0.00     0.000 A 
ENDBRANCH  49  63
BRANCH  50  69
ATOM     69  C   UNL A   1      41.852  34.517  34.398  1.00  0.00    -0.014 A 
ATOM     70  C   UNL A   1      42.587  35.647  34.008  1.00  0.00     0.009 A 
ATOM     71  C   UNL A   1      41.338  34.460  35.703  1.00  0.00     0.009 A 
ATOM     72  C   UNL A   1      42.824  36.685  34.911  1.00  0.00     0.001 A 
ATOM     73  C   UNL A   1      41.552  35.513  36.596  1.00  0.00     0.001 A 
ATOM     74  C   UNL A   1      42.303  36.620  36.202  1.00  0.00     0.000 A 
ENDBRANCH  50  69
BRANCH  62  75
ATOM     75  C   UNL A   1      45.465  28.746  32.920  1.00  0.00    -0.014 A 
ATOM     76  C   UNL A   1      46.675  29.119  32.316  1.00  0.00     0.009 A 
ATOM     77  C   UNL A   1      45.496  27.907  34.046  1.00  0.00     0.009 A 
ATOM     78  C   UNL A   1      47.889  28.642  32.816  1.00  0.00     0.001 A 
ATOM     79  C   UNL A   1      46.712  27.454  34.560  1.00  0.00     0.001 A 
ATOM     80  C   UNL A   1      47.907  27.817  33.941  1.00  0.00     0.000 A 
ENDBRANCH  62  75
ENDBRANCH  36  37
ENDBRANCH  28  31
ENDBRANCH  26  27
ENDBRANCH  25  26
ENDBRANCH   1  25
TORSDOF 14
ENDMDL
