MODEL 1
REMARK VINA RESULT:     -11.5      0.000      0.000
REMARK SMILES O=C(NCCCNC(=O)c1cc(Cl)cc(S(=O)(=O)N[C@@H]2CONC2=O)c1F)c1ccc(-c2c3nc(c(-c4ccccc4)c4ccc([nH]4)c(-c4ccccc4)c4nc(c(-c5ccccc5)c5ccc2[nH]5)C=C4)C=C3)cc1
REMARK SMILES IDX 5 1 4 2 3 3 1 4 2 5 28 7 29 8 75 9 30 10 74 11 31 12 32 13
REMARK SMILES IDX 33 14 68 15 34 16 73 17 67 18 69 19 35 20 72 21 66 22 65 23
REMARK SMILES IDX 36 25 58 26 43 27 57 28 44 29 47 30 56 31 70 32 45 33 46 34
REMARK SMILES IDX 55 36 71 37 48 38 37 39 38 40 42 41 39 42 41 43 40 44 59 45
REMARK SMILES IDX 60 46 64 47 61 48 63 49 62 50 49 51 50 52 54 53 51 54 53 55
REMARK SMILES IDX 52 56 6 57 7 58 8 59 9 61 10 62 11 63 26 64 12 65 15 66
REMARK SMILES IDX 27 67 13 68 14 69 16 70 17 71 18 72 19 73 20 75 21 76 24 77
REMARK SMILES IDX 22 78 23 79 25 80
REMARK H PARENT 3 6 69 24 47 35 7 60 19 74 23 81
REMARK Flexibility Score: inf
ROOT
ATOM      1  C   UNL A   1      35.650  23.883  26.099  1.00  0.00     0.042 C 
ENDROOT
BRANCH   1   2
ATOM      2  C   UNL A   1      36.806  23.774  25.120  1.00  0.00     0.118 C 
BRANCH   2   3
ATOM      3  N   UNL A   1      37.757  22.732  25.486  1.00  0.00    -0.352 N 
ATOM      4  O   UNL A   1      39.696  21.831  26.197  1.00  0.00    -0.269 OA
ATOM      5  C   UNL A   1      38.963  22.814  26.139  1.00  0.00     0.251 C 
ATOM      6  H   UNL A   1      37.491  21.821  25.222  1.00  0.00     0.163 HD
BRANCH   5   7
ATOM      7  C   UNL A   1      39.397  24.089  26.750  1.00  0.00     0.039 A 
ATOM      8  C   UNL A   1      39.115  24.373  28.085  1.00  0.00     0.014 A 
ATOM      9  C   UNL A   1      40.118  25.008  25.981  1.00  0.00     0.014 A 
ATOM     10  C   UNL A   1      39.375  25.636  28.594  1.00  0.00     0.010 A 
ATOM     11  C   UNL A   1      40.497  26.235  26.537  1.00  0.00     0.010 A 
ATOM     12  C   UNL A   1      40.097  26.572  27.837  1.00  0.00    -0.014 A 
BRANCH  12  13
ATOM     13  C   UNL A   1      40.488  27.855  28.473  1.00  0.00     0.031 A 
ATOM     14  C   UNL A   1      39.493  28.961  28.684  1.00  0.00     0.074 A 
ATOM     15  C   UNL A   1      41.757  27.993  28.906  1.00  0.00     0.049 A 
ATOM     16  N   UNL A   1      39.674  30.127  29.252  1.00  0.00    -0.248 NA
ATOM     17  C   UNL A   1      38.125  28.739  28.192  1.00  0.00     0.031 C 
ATOM     18  C   UNL A   1      42.813  26.984  28.759  1.00  0.00     0.029 A 
ATOM     19  N   UNL A   1      42.369  29.013  29.585  1.00  0.00    -0.354 N 
ATOM     20  C   UNL A   1      38.452  30.785  29.167  1.00  0.00     0.074 A 
ATOM     21  C   UNL A   1      37.544  29.897  28.474  1.00  0.00     0.031 C 
ATOM     22  C   UNL A   1      43.915  27.406  29.393  1.00  0.00     0.029 A 
ATOM     23  C   UNL A   1      43.674  28.743  29.917  1.00  0.00     0.049 A 
ATOM     24  H   UNL A   1      41.918  29.858  29.812  1.00  0.00     0.167 HD
ATOM     25  C   UNL A   1      38.122  32.015  29.629  1.00  0.00     0.031 A 
ATOM     26  C   UNL A   1      44.589  29.493  30.556  1.00  0.00     0.031 A 
ATOM     27  C   UNL A   1      39.030  32.895  30.318  1.00  0.00     0.049 A 
ATOM     28  C   UNL A   1      44.204  30.866  31.017  1.00  0.00     0.074 A 
ATOM     29  C   UNL A   1      38.784  34.154  30.838  1.00  0.00     0.029 A 
ATOM     30  N   UNL A   1      40.361  32.607  30.581  1.00  0.00    -0.354 N 
ATOM     31  N   UNL A   1      43.042  31.465  30.938  1.00  0.00    -0.248 NA
ATOM     32  C   UNL A   1      45.260  31.666  31.648  1.00  0.00     0.031 C 
ATOM     33  C   UNL A   1      39.978  34.649  31.374  1.00  0.00     0.029 A 
ATOM     34  C   UNL A   1      40.954  33.675  31.236  1.00  0.00     0.049 A 
ATOM     35  H   UNL A   1      40.817  31.769  30.339  1.00  0.00     0.167 HD
ATOM     36  C   UNL A   1      43.222  32.712  31.520  1.00  0.00     0.074 A 
ATOM     37  C   UNL A   1      44.599  32.770  31.969  1.00  0.00     0.031 C 
ATOM     38  C   UNL A   1      42.327  33.719  31.667  1.00  0.00     0.031 A 
BRANCH  25  39
ATOM     39  C   UNL A   1      36.720  32.499  29.377  1.00  0.00    -0.014 A 
ATOM     40  C   UNL A   1      35.707  32.334  30.333  1.00  0.00     0.009 A 
ATOM     41  C   UNL A   1      36.422  33.175  28.182  1.00  0.00     0.009 A 
ATOM     42  C   UNL A   1      34.417  32.809  30.086  1.00  0.00     0.001 A 
ATOM     43  C   UNL A   1      35.138  33.672  27.949  1.00  0.00     0.001 A 
ATOM     44  C   UNL A   1      34.135  33.482  28.897  1.00  0.00     0.000 A 
ENDBRANCH  25  39
BRANCH  26  45
ATOM     45  C   UNL A   1      45.957  28.961  30.776  1.00  0.00    -0.014 A 
ATOM     46  C   UNL A   1      46.266  28.244  31.941  1.00  0.00     0.009 A 
ATOM     47  C   UNL A   1      46.956  29.150  29.807  1.00  0.00     0.009 A 
ATOM     48  C   UNL A   1      47.554  27.741  32.138  1.00  0.00     0.001 A 
ATOM     49  C   UNL A   1      48.234  28.620  29.993  1.00  0.00     0.001 A 
ATOM     50  C   UNL A   1      48.534  27.923  31.162  1.00  0.00     0.000 A 
ENDBRANCH  26  45
BRANCH  38  51
ATOM     51  C   UNL A   1      42.812  34.956  32.364  1.00  0.00    -0.014 A 
ATOM     52  C   UNL A   1      43.427  35.998  31.652  1.00  0.00     0.009 A 
ATOM     53  C   UNL A   1      42.631  35.089  33.749  1.00  0.00     0.009 A 
ATOM     54  C   UNL A   1      43.883  37.135  32.321  1.00  0.00     0.001 A 
ATOM     55  C   UNL A   1      43.063  36.238  34.411  1.00  0.00     0.001 A 
ATOM     56  C   UNL A   1      43.698  37.255  33.699  1.00  0.00     0.000 A 
ENDBRANCH  38  51
ENDBRANCH  12  13
ENDBRANCH   5   7
ENDBRANCH   2   3
ENDBRANCH   1   2
BRANCH   1  57
ATOM     57  C   UNL A   1      34.459  24.632  25.532  1.00  0.00     0.118 C 
BRANCH  57  58
ATOM     58  N   UNL A   1      33.202  24.203  26.142  1.00  0.00    -0.352 N 
ATOM     59  C   UNL A   1      32.066  24.911  26.438  1.00  0.00     0.254 C 
ATOM     60  H   UNL A   1      33.166  23.248  26.381  1.00  0.00     0.163 HD
ATOM     61  O   UNL A   1      31.179  24.389  27.106  1.00  0.00    -0.269 OA
BRANCH  59  62
ATOM     62  C   UNL A   1      31.883  26.293  25.965  1.00  0.00     0.078 A 
ATOM     63  C   UNL A   1      32.427  27.351  26.696  1.00  0.00     0.037 A 
ATOM     64  C   UNL A   1      31.095  26.555  24.848  1.00  0.00     0.156 A 
ATOM     65  C   UNL A   1      32.221  28.658  26.257  1.00  0.00     0.043 A 
ATOM     66  C   UNL A   1      30.909  27.850  24.399  1.00  0.00     0.120 A 
ATOM     67  F   UNL A   1      30.508  25.529  24.230  1.00  0.00    -0.205 F 
ATOM     68  Cl  UNL A   1      32.895  29.966  27.146  1.00  0.00    -0.084 Cl
ATOM     69  C   UNL A   1      31.476  28.916  25.104  1.00  0.00     0.045 A 
BRANCH  66  70
ATOM     70  S   UNL A   1      29.992  28.195  22.934  1.00  0.00     0.244 S 
ATOM     71  O   UNL A   1      30.713  27.606  21.831  1.00  0.00    -0.207 OA
ATOM     72  O   UNL A   1      28.626  27.833  23.242  1.00  0.00    -0.207 OA
BRANCH  70  73
ATOM     73  N   UNL A   1      29.984  29.832  22.705  1.00  0.00    -0.196 NA
ATOM     74  H   UNL A   1      30.423  29.975  21.796  1.00  0.00     0.142 HD
BRANCH  73  75
ATOM     75  C   UNL A   1      28.800  30.709  22.702  1.00  0.00     0.189 C 
ATOM     76  C   UNL A   1      28.426  31.407  21.402  1.00  0.00     0.224 C 
ATOM     77  C   UNL A   1      29.058  31.887  23.606  1.00  0.00     0.264 C 
ATOM     78  O   UNL A   1      28.065  32.762  21.714  1.00  0.00    -0.271 OA
ATOM     79  N   UNL A   1      28.604  33.017  22.989  1.00  0.00    -0.233 N 
ATOM     80  O   UNL A   1      29.605  31.845  24.700  1.00  0.00    -0.271 OA
ATOM     81  H   UNL A   1      28.651  33.915  23.392  1.00  0.00     0.199 HD
ENDBRANCH  73  75
ENDBRANCH  70  73
ENDBRANCH  66  70
ENDBRANCH  59  62
ENDBRANCH  57  58
ENDBRANCH   1  57
TORSDOF 13
ENDMDL
MODEL 2
REMARK VINA RESULT:     -11.5      4.082      8.177
REMARK SMILES O=C(NCCCNC(=O)c1cc(Cl)cc(S(=O)(=O)N[C@@H]2CONC2=O)c1F)c1ccc(-c2c3nc(c(-c4ccccc4)c4ccc([nH]4)c(-c4ccccc4)c4nc(c(-c5ccccc5)c5ccc2[nH]5)C=C4)C=C3)cc1
REMARK SMILES IDX 5 1 4 2 3 3 1 4 2 5 28 7 29 8 75 9 30 10 74 11 31 12 32 13
REMARK SMILES IDX 33 14 68 15 34 16 73 17 67 18 69 19 35 20 72 21 66 22 65 23
REMARK SMILES IDX 36 25 58 26 43 27 57 28 44 29 47 30 56 31 70 32 45 33 46 34
REMARK SMILES IDX 55 36 71 37 48 38 37 39 38 40 42 41 39 42 41 43 40 44 59 45
REMARK SMILES IDX 60 46 64 47 61 48 63 49 62 50 49 51 50 52 54 53 51 54 53 55
REMARK SMILES IDX 52 56 6 57 7 58 8 59 9 61 10 62 11 63 26 64 12 65 15 66
REMARK SMILES IDX 27 67 13 68 14 69 16 70 17 71 18 72 19 73 20 75 21 76 24 77
REMARK SMILES IDX 22 78 23 79 25 80
REMARK H PARENT 3 6 69 24 47 35 7 60 19 74 23 81
REMARK Flexibility Score: inf
ROOT
ATOM      1  C   UNL A   1      38.052  19.820  24.841  1.00  0.00     0.042 C 
ENDROOT
BRANCH   1   2
ATOM      2  C   UNL A   1      39.029  20.022  25.986  1.00  0.00     0.118 C 
BRANCH   2   3
ATOM      3  N   UNL A   1      40.244  19.233  25.835  1.00  0.00    -0.352 N 
ATOM      4  O   UNL A   1      42.450  18.811  25.647  1.00  0.00    -0.269 OA
ATOM      5  C   UNL A   1      41.563  19.587  25.990  1.00  0.00     0.251 C 
ATOM      6  H   UNL A   1      40.096  18.293  25.581  1.00  0.00     0.163 HD
BRANCH   5   7
ATOM      7  C   UNL A   1      41.921  20.910  26.544  1.00  0.00     0.039 A 
ATOM      8  C   UNL A   1      41.952  21.123  27.921  1.00  0.00     0.014 A 
ATOM      9  C   UNL A   1      42.255  21.952  25.672  1.00  0.00     0.014 A 
ATOM     10  C   UNL A   1      42.121  22.406  28.419  1.00  0.00     0.010 A 
ATOM     11  C   UNL A   1      42.554  23.219  26.184  1.00  0.00     0.010 A 
ATOM     12  C   UNL A   1      42.455  23.464  27.560  1.00  0.00    -0.014 A 
BRANCH  12  13
ATOM     13  C   UNL A   1      42.778  24.788  28.150  1.00  0.00     0.031 A 
ATOM     14  C   UNL A   1      44.191  25.172  28.485  1.00  0.00     0.074 A 
ATOM     15  C   UNL A   1      41.773  25.666  28.336  1.00  0.00     0.049 A 
ATOM     16  N   UNL A   1      44.637  26.302  28.975  1.00  0.00    -0.248 NA
ATOM     17  C   UNL A   1      45.238  24.166  28.249  1.00  0.00     0.031 C 
ATOM     18  C   UNL A   1      40.359  25.405  28.044  1.00  0.00     0.029 A 
ATOM     19  N   UNL A   1      41.784  26.962  28.779  1.00  0.00    -0.354 N 
ATOM     20  C   UNL A   1      46.009  26.136  29.126  1.00  0.00     0.074 A 
ATOM     21  C   UNL A   1      46.319  24.790  28.696  1.00  0.00     0.031 C 
ATOM     22  C   UNL A   1      39.653  26.526  28.247  1.00  0.00     0.029 A 
ATOM     23  C   UNL A   1      40.546  27.556  28.760  1.00  0.00     0.049 A 
ATOM     24  H   UNL A   1      42.599  27.423  29.083  1.00  0.00     0.167 HD
ATOM     25  C   UNL A   1      46.922  27.028  29.579  1.00  0.00     0.031 A 
ATOM     26  C   UNL A   1      40.160  28.790  29.131  1.00  0.00     0.031 A 
ATOM     27  C   UNL A   1      46.609  28.367  30.006  1.00  0.00     0.049 A 
ATOM     28  C   UNL A   1      41.188  29.739  29.668  1.00  0.00     0.074 A 
ATOM     29  C   UNL A   1      47.468  29.349  30.466  1.00  0.00     0.029 A 
ATOM     30  N   UNL A   1      45.332  28.910  30.027  1.00  0.00    -0.354 N 
ATOM     31  N   UNL A   1      42.480  29.567  29.792  1.00  0.00    -0.248 NA
ATOM     32  C   UNL A   1      40.701  31.047  30.121  1.00  0.00     0.031 C 
ATOM     33  C   UNL A   1      46.706  30.472  30.810  1.00  0.00     0.029 A 
ATOM     34  C   UNL A   1      45.379  30.207  30.514  1.00  0.00     0.049 A 
ATOM     35  H   UNL A   1      44.514  28.444  29.738  1.00  0.00     0.167 HD
ATOM     36  C   UNL A   1      42.966  30.751  30.329  1.00  0.00     0.074 A 
ATOM     37  C   UNL A   1      41.831  31.639  30.481  1.00  0.00     0.031 C 
ATOM     38  C   UNL A   1      44.239  31.072  30.667  1.00  0.00     0.031 A 
BRANCH  25  39
ATOM     39  C   UNL A   1      48.354  26.573  29.666  1.00  0.00    -0.014 A 
ATOM     40  C   UNL A   1      49.259  26.805  28.620  1.00  0.00     0.009 A 
ATOM     41  C   UNL A   1      48.814  25.946  30.835  1.00  0.00     0.009 A 
ATOM     42  C   UNL A   1      50.589  26.392  28.731  1.00  0.00     0.001 A 
ATOM     43  C   UNL A   1      50.151  25.557  30.954  1.00  0.00     0.001 A 
ATOM     44  C   UNL A   1      51.035  25.774  29.899  1.00  0.00     0.000 A 
ENDBRANCH  25  39
BRANCH  26  45
ATOM     45  C   UNL A   1      38.732  29.181  29.022  1.00  0.00    -0.014 A 
ATOM     46  C   UNL A   1      38.218  29.681  27.816  1.00  0.00     0.009 A 
ATOM     47  C   UNL A   1      37.870  29.035  30.120  1.00  0.00     0.009 A 
ATOM     48  C   UNL A   1      36.872  30.041  27.720  1.00  0.00     0.001 A 
ATOM     49  C   UNL A   1      36.518  29.367  30.011  1.00  0.00     0.001 A 
ATOM     50  C   UNL A   1      36.024  29.878  28.813  1.00  0.00     0.000 A 
ENDBRANCH  26  45
BRANCH  38  51
ATOM     51  C   UNL A   1      44.465  32.452  31.211  1.00  0.00    -0.014 A 
ATOM     52  C   UNL A   1      44.730  33.535  30.360  1.00  0.00     0.009 A 
ATOM     53  C   UNL A   1      44.389  32.673  32.595  1.00  0.00     0.009 A 
ATOM     54  C   UNL A   1      44.951  34.808  30.888  1.00  0.00     0.001 A 
ATOM     55  C   UNL A   1      44.584  33.951  33.119  1.00  0.00     0.001 A 
ATOM     56  C   UNL A   1      44.874  35.016  32.266  1.00  0.00     0.000 A 
ENDBRANCH  38  51
ENDBRANCH  12  13
ENDBRANCH   5   7
ENDBRANCH   2   3
ENDBRANCH   1   2
BRANCH   1  57
ATOM     57  C   UNL A   1      37.122  21.001  24.636  1.00  0.00     0.118 C 
BRANCH  57  58
ATOM     58  N   UNL A   1      37.497  22.142  25.467  1.00  0.00    -0.352 N 
ATOM     59  C   UNL A   1      36.866  23.342  25.674  1.00  0.00     0.254 C 
ATOM     60  H   UNL A   1      38.343  22.032  25.960  1.00  0.00     0.163 HD
ATOM     61  O   UNL A   1      37.441  24.236  26.288  1.00  0.00    -0.269 OA
BRANCH  59  62
ATOM     62  C   UNL A   1      35.502  23.583  25.174  1.00  0.00     0.078 A 
ATOM     63  C   UNL A   1      35.306  24.436  24.087  1.00  0.00     0.037 A 
ATOM     64  C   UNL A   1      34.405  23.040  25.837  1.00  0.00     0.156 A 
ATOM     65  C   UNL A   1      34.008  24.683  23.641  1.00  0.00     0.043 A 
ATOM     66  C   UNL A   1      33.119  23.266  25.382  1.00  0.00     0.120 A 
ATOM     67  F   UNL A   1      34.622  22.310  26.932  1.00  0.00    -0.205 F 
ATOM     68  Cl  UNL A   1      33.757  25.725  22.297  1.00  0.00    -0.084 Cl
ATOM     69  C   UNL A   1      32.911  24.092  24.273  1.00  0.00     0.045 A 
BRANCH  66  70
ATOM     70  S   UNL A   1      31.723  22.511  26.151  1.00  0.00     0.244 S 
ATOM     71  O   UNL A   1      31.900  22.642  27.578  1.00  0.00    -0.207 OA
ATOM     72  O   UNL A   1      30.570  23.050  25.465  1.00  0.00    -0.207 OA
BRANCH  70  73
ATOM     73  N   UNL A   1      31.749  20.898  25.793  1.00  0.00    -0.196 NA
ATOM     74  H   UNL A   1      30.785  20.663  25.554  1.00  0.00     0.142 HD
BRANCH  73  75
ATOM     75  C   UNL A   1      32.569  20.245  24.756  1.00  0.00     0.189 C 
ATOM     76  C   UNL A   1      32.174  20.438  23.299  1.00  0.00     0.224 C 
ATOM     77  C   UNL A   1      32.445  18.750  24.902  1.00  0.00     0.264 C 
ATOM     78  O   UNL A   1      32.295  19.169  22.635  1.00  0.00    -0.271 OA
ATOM     79  N   UNL A   1      32.305  18.202  23.658  1.00  0.00    -0.233 N 
ATOM     80  O   UNL A   1      32.443  18.129  25.956  1.00  0.00    -0.271 OA
ATOM     81  H   UNL A   1      32.220  17.234  23.495  1.00  0.00     0.199 HD
ENDBRANCH  73  75
ENDBRANCH  70  73
ENDBRANCH  66  70
ENDBRANCH  59  62
ENDBRANCH  57  58
ENDBRANCH   1  57
TORSDOF 13
ENDMDL
MODEL 3
REMARK VINA RESULT:     -11.5      0.586      5.956
REMARK SMILES O=C(NCCCNC(=O)c1cc(Cl)cc(S(=O)(=O)N[C@@H]2CONC2=O)c1F)c1ccc(-c2c3nc(c(-c4ccccc4)c4ccc([nH]4)c(-c4ccccc4)c4nc(c(-c5ccccc5)c5ccc2[nH]5)C=C4)C=C3)cc1
REMARK SMILES IDX 5 1 4 2 3 3 1 4 2 5 28 7 29 8 75 9 30 10 74 11 31 12 32 13
REMARK SMILES IDX 33 14 68 15 34 16 73 17 67 18 69 19 35 20 72 21 66 22 65 23
REMARK SMILES IDX 36 25 58 26 43 27 57 28 44 29 47 30 56 31 70 32 45 33 46 34
REMARK SMILES IDX 55 36 71 37 48 38 37 39 38 40 42 41 39 42 41 43 40 44 59 45
REMARK SMILES IDX 60 46 64 47 61 48 63 49 62 50 49 51 50 52 54 53 51 54 53 55
REMARK SMILES IDX 52 56 6 57 7 58 8 59 9 61 10 62 11 63 26 64 12 65 15 66
REMARK SMILES IDX 27 67 13 68 14 69 16 70 17 71 18 72 19 73 20 75 21 76 24 77
REMARK SMILES IDX 22 78 23 79 25 80
REMARK H PARENT 3 6 69 24 47 35 7 60 19 74 23 81
REMARK Flexibility Score: inf
ROOT
ATOM      1  C   UNL A   1      35.575  23.791  24.784  1.00  0.00     0.042 C 
ENDROOT
BRANCH   1   2
ATOM      2  C   UNL A   1      36.290  23.568  26.105  1.00  0.00     0.118 C 
BRANCH   2   3
ATOM      3  N   UNL A   1      37.402  22.633  25.993  1.00  0.00    -0.352 N 
ATOM      4  O   UNL A   1      39.543  21.937  25.906  1.00  0.00    -0.269 OA
ATOM      5  C   UNL A   1      38.744  22.812  26.227  1.00  0.00     0.251 C 
ATOM      6  H   UNL A   1      37.150  21.726  25.705  1.00  0.00     0.163 HD
BRANCH   5   7
ATOM      7  C   UNL A   1      39.236  24.065  26.836  1.00  0.00     0.039 A 
ATOM      8  C   UNL A   1      39.038  24.326  28.191  1.00  0.00     0.014 A 
ATOM      9  C   UNL A   1      39.929  24.988  26.045  1.00  0.00     0.014 A 
ATOM     10  C   UNL A   1      39.352  25.574  28.709  1.00  0.00     0.010 A 
ATOM     11  C   UNL A   1      40.362  26.196  26.602  1.00  0.00     0.010 A 
ATOM     12  C   UNL A   1      40.045  26.513  27.930  1.00  0.00    -0.014 A 
BRANCH  12  13
ATOM     13  C   UNL A   1      40.496  27.775  28.568  1.00  0.00     0.031 A 
ATOM     14  C   UNL A   1      41.936  27.994  28.941  1.00  0.00     0.074 A 
ATOM     15  C   UNL A   1      39.589  28.752  28.764  1.00  0.00     0.049 A 
ATOM     16  N   UNL A   1      42.490  29.053  29.475  1.00  0.00    -0.248 NA
ATOM     17  C   UNL A   1      42.872  26.887  28.691  1.00  0.00     0.031 C 
ATOM     18  C   UNL A   1      38.161  28.655  28.438  1.00  0.00     0.029 A 
ATOM     19  N   UNL A   1      39.730  30.025  29.250  1.00  0.00    -0.354 N 
ATOM     20  C   UNL A   1      43.832  28.734  29.645  1.00  0.00     0.074 A 
ATOM     21  C   UNL A   1      44.004  27.376  29.178  1.00  0.00     0.031 C 
ATOM     22  C   UNL A   1      37.577  29.840  28.665  1.00  0.00     0.029 A 
ATOM     23  C   UNL A   1      38.564  30.751  29.227  1.00  0.00     0.049 A 
ATOM     24  H   UNL A   1      40.584  30.385  29.583  1.00  0.00     0.167 HD
ATOM     25  C   UNL A   1      44.827  29.507  30.144  1.00  0.00     0.031 A 
ATOM     26  C   UNL A   1      38.306  32.007  29.631  1.00  0.00     0.031 A 
ATOM     27  C   UNL A   1      44.651  30.858  30.608  1.00  0.00     0.049 A 
ATOM     28  C   UNL A   1      39.419  32.822  30.217  1.00  0.00     0.074 A 
ATOM     29  C   UNL A   1      45.601  31.727  31.115  1.00  0.00     0.029 A 
ATOM     30  N   UNL A   1      43.441  31.537  30.623  1.00  0.00    -0.354 N 
ATOM     31  N   UNL A   1      40.682  32.507  30.359  1.00  0.00    -0.248 NA
ATOM     32  C   UNL A   1      39.067  34.161  30.703  1.00  0.00     0.031 C 
ATOM     33  C   UNL A   1      44.958  32.915  31.482  1.00  0.00     0.029 A 
ATOM     34  C   UNL A   1      43.617  32.805  31.153  1.00  0.00     0.049 A 
ATOM     35  H   UNL A   1      42.584  31.171  30.305  1.00  0.00     0.167 HD
ATOM     36  C   UNL A   1      41.282  33.614  30.942  1.00  0.00     0.074 A 
ATOM     37  C   UNL A   1      40.247  34.615  31.102  1.00  0.00     0.031 C 
ATOM     38  C   UNL A   1      42.574  33.784  31.313  1.00  0.00     0.031 A 
BRANCH  25  39
ATOM     39  C   UNL A   1      46.199  28.897  30.242  1.00  0.00    -0.014 A 
ATOM     40  C   UNL A   1      47.106  28.962  29.174  1.00  0.00     0.009 A 
ATOM     41  C   UNL A   1      46.606  28.290  31.441  1.00  0.00     0.009 A 
ATOM     42  C   UNL A   1      48.382  28.407  29.294  1.00  0.00     0.001 A 
ATOM     43  C   UNL A   1      47.891  27.758  31.568  1.00  0.00     0.001 A 
ATOM     44  C   UNL A   1      48.775  27.810  30.492  1.00  0.00     0.000 A 
ENDBRANCH  25  39
BRANCH  26  45
ATOM     45  C   UNL A   1      36.932  32.555  29.508  1.00  0.00    -0.014 A 
ATOM     46  C   UNL A   1      36.010  32.413  30.556  1.00  0.00     0.009 A 
ATOM     47  C   UNL A   1      36.543  33.243  28.348  1.00  0.00     0.009 A 
ATOM     48  C   UNL A   1      34.721  32.936  30.436  1.00  0.00     0.001 A 
ATOM     49  C   UNL A   1      35.263  33.791  28.243  1.00  0.00     0.001 A 
ATOM     50  C   UNL A   1      34.351  33.630  29.284  1.00  0.00     0.000 A 
ENDBRANCH  26  45
BRANCH  38  51
ATOM     51  C   UNL A   1      42.936  35.114  31.906  1.00  0.00    -0.014 A 
ATOM     52  C   UNL A   1      42.710  35.391  33.263  1.00  0.00     0.009 A 
ATOM     53  C   UNL A   1      43.532  36.095  31.100  1.00  0.00     0.009 A 
ATOM     54  C   UNL A   1      43.041  36.639  33.792  1.00  0.00     0.001 A 
ATOM     55  C   UNL A   1      43.888  37.333  31.637  1.00  0.00     0.001 A 
ATOM     56  C   UNL A   1      43.632  37.607  32.980  1.00  0.00     0.000 A 
ENDBRANCH  38  51
ENDBRANCH  12  13
ENDBRANCH   5   7
ENDBRANCH   2   3
ENDBRANCH   1   2
BRANCH   1  57
ATOM     57  C   UNL A   1      34.441  24.793  24.882  1.00  0.00     0.118 C 
BRANCH  57  58
ATOM     58  N   UNL A   1      33.364  24.317  25.747  1.00  0.00    -0.352 N 
ATOM     59  C   UNL A   1      32.310  24.987  26.313  1.00  0.00     0.254 C 
ATOM     60  H   UNL A   1      33.401  23.356  25.958  1.00  0.00     0.163 HD
ATOM     61  O   UNL A   1      31.608  24.426  27.148  1.00  0.00    -0.269 OA
BRANCH  59  62
ATOM     62  C   UNL A   1      31.998  26.376  25.936  1.00  0.00     0.078 A 
ATOM     63  C   UNL A   1      32.505  27.429  26.699  1.00  0.00     0.037 A 
ATOM     64  C   UNL A   1      31.127  26.639  24.882  1.00  0.00     0.156 A 
ATOM     65  C   UNL A   1      32.178  28.740  26.352  1.00  0.00     0.043 A 
ATOM     66  C   UNL A   1      30.820  27.939  24.524  1.00  0.00     0.120 A 
ATOM     67  F   UNL A   1      30.582  25.608  24.236  1.00  0.00    -0.205 F 
ATOM     68  Cl  UNL A   1      32.806  30.044  27.280  1.00  0.00    -0.084 Cl
ATOM     69  C   UNL A   1      31.349  29.005  25.260  1.00  0.00     0.045 A 
BRANCH  66  70
ATOM     70  S   UNL A   1      29.795  28.295  23.135  1.00  0.00     0.244 S 
ATOM     71  O   UNL A   1      30.559  27.985  21.950  1.00  0.00    -0.207 OA
ATOM     72  O   UNL A   1      28.527  27.661  23.422  1.00  0.00    -0.207 OA
BRANCH  70  73
ATOM     73  N   UNL A   1      29.493  29.920  23.121  1.00  0.00    -0.196 NA
ATOM     74  H   UNL A   1      30.289  30.334  22.636  1.00  0.00     0.142 HD
BRANCH  73  75
ATOM     75  C   UNL A   1      28.309  30.585  22.549  1.00  0.00     0.189 C 
ATOM     76  C   UNL A   1      27.999  30.359  21.076  1.00  0.00     0.224 C 
ATOM     77  C   UNL A   1      28.520  32.077  22.581  1.00  0.00     0.264 C 
ATOM     78  O   UNL A   1      27.620  31.622  20.504  1.00  0.00    -0.271 OA
ATOM     79  N   UNL A   1      28.095  32.603  21.395  1.00  0.00    -0.233 N 
ATOM     80  O   UNL A   1      29.013  32.712  23.504  1.00  0.00    -0.271 OA
ATOM     81  H   UNL A   1      28.120  33.565  21.184  1.00  0.00     0.199 HD
ENDBRANCH  73  75
ENDBRANCH  70  73
ENDBRANCH  66  70
ENDBRANCH  59  62
ENDBRANCH  57  58
ENDBRANCH   1  57
TORSDOF 13
ENDMDL
