MODEL 1
REMARK VINA RESULT:     -11.8      0.000      0.000
REMARK SMILES O=C(NCCCNC(=O)c1cc(-c2ccoc2)nc2c(F)cccc12)c1ccc(-c2c3nc(c(-c4ccccc4)c4ccc([nH]4)c(-c4ccccc4)c4nc(c(-c5ccccc5)c5ccc2[nH]5)C=C4)C=C3)cc1
REMARK SMILES IDX 4 1 3 2 1 3 2 4 26 6 27 7 73 8 28 9 72 10 29 11 30 12 31 13
REMARK SMILES IDX 66 14 32 15 71 16 65 17 67 18 33 19 70 20 64 21 63 22 34 24
REMARK SMILES IDX 56 25 41 26 55 27 42 28 45 29 54 30 68 31 43 32 44 33 53 35
REMARK SMILES IDX 69 36 46 37 35 38 36 39 40 40 37 41 39 42 38 43 57 44 58 45
REMARK SMILES IDX 62 46 59 47 61 48 60 49 47 50 48 51 52 52 49 53 51 54 50 55
REMARK SMILES IDX 5 56 6 57 7 58 8 59 9 61 10 62 11 63 25 64 12 65 19 66 24 67
REMARK SMILES IDX 18 68 20 69 23 70 21 71 22 72 13 73 14 74 17 75 15 76 16 77
REMARK H PARENT 3 5 67 23 45 34 7 60
REMARK Flexibility Score: inf
ROOT
ATOM      1  C   UNL A   1      39.017  20.063  26.044  1.00  0.00     0.118 C 
ENDROOT
BRANCH   1   2
ATOM      2  N   UNL A   1      40.220  19.263  25.841  1.00  0.00    -0.352 N 
ATOM      3  O   UNL A   1      42.410  18.810  25.582  1.00  0.00    -0.269 OA
ATOM      4  C   UNL A   1      41.548  19.598  25.962  1.00  0.00     0.251 C 
ATOM      5  H   UNL A   1      40.054  18.331  25.573  1.00  0.00     0.163 HD
BRANCH   4   6
ATOM      6  C   UNL A   1      41.944  20.908  26.521  1.00  0.00     0.039 A 
ATOM      7  C   UNL A   1      41.993  21.111  27.899  1.00  0.00     0.014 A 
ATOM      8  C   UNL A   1      42.289  21.949  25.652  1.00  0.00     0.014 A 
ATOM      9  C   UNL A   1      42.188  22.389  28.402  1.00  0.00     0.010 A 
ATOM     10  C   UNL A   1      42.607  23.210  26.167  1.00  0.00     0.010 A 
ATOM     11  C   UNL A   1      42.519  23.451  27.545  1.00  0.00    -0.014 A 
BRANCH  11  12
ATOM     12  C   UNL A   1      42.832  24.776  28.136  1.00  0.00     0.031 A 
ATOM     13  C   UNL A   1      44.242  25.175  28.471  1.00  0.00     0.074 A 
ATOM     14  C   UNL A   1      41.821  25.647  28.324  1.00  0.00     0.049 A 
ATOM     15  N   UNL A   1      44.681  26.312  28.951  1.00  0.00    -0.248 NA
ATOM     16  C   UNL A   1      45.296  24.172  28.250  1.00  0.00     0.031 C 
ATOM     17  C   UNL A   1      40.407  25.374  28.045  1.00  0.00     0.029 A 
ATOM     18  N   UNL A   1      41.825  26.947  28.762  1.00  0.00    -0.354 N 
ATOM     19  C   UNL A   1      46.050  26.155  29.115  1.00  0.00     0.074 A 
ATOM     20  C   UNL A   1      46.372  24.806  28.700  1.00  0.00     0.031 C 
ATOM     21  C   UNL A   1      39.693  26.487  28.253  1.00  0.00     0.029 A 
ATOM     22  C   UNL A   1      40.582  27.530  28.748  1.00  0.00     0.049 A 
ATOM     23  H   UNL A   1      42.638  27.416  29.056  1.00  0.00     0.167 HD
ATOM     24  C   UNL A   1      46.956  27.053  29.571  1.00  0.00     0.031 A 
ATOM     25  C   UNL A   1      40.190  28.766  29.108  1.00  0.00     0.031 A 
ATOM     26  C   UNL A   1      46.637  28.397  29.973  1.00  0.00     0.049 A 
ATOM     27  C   UNL A   1      41.213  29.734  29.616  1.00  0.00     0.074 A 
ATOM     28  C   UNL A   1      47.492  29.392  30.416  1.00  0.00     0.029 A 
ATOM     29  N   UNL A   1      45.360  28.938  29.982  1.00  0.00    -0.354 N 
ATOM     30  N   UNL A   1      42.507  29.574  29.742  1.00  0.00    -0.248 NA
ATOM     31  C   UNL A   1      40.721  31.052  30.035  1.00  0.00     0.031 C 
ATOM     32  C   UNL A   1      46.728  30.518  30.736  1.00  0.00     0.029 A 
ATOM     33  C   UNL A   1      45.402  30.242  30.445  1.00  0.00     0.049 A 
ATOM     34  H   UNL A   1      44.544  28.463  29.700  1.00  0.00     0.167 HD
ATOM     35  C   UNL A   1      42.987  30.771  30.250  1.00  0.00     0.074 A 
ATOM     36  C   UNL A   1      41.849  31.657  30.382  1.00  0.00     0.031 C 
ATOM     37  C   UNL A   1      44.257  31.104  30.582  1.00  0.00     0.031 A 
BRANCH  24  38
ATOM     38  C   UNL A   1      48.385  26.601  29.689  1.00  0.00    -0.014 A 
ATOM     39  C   UNL A   1      49.316  26.839  28.666  1.00  0.00     0.009 A 
ATOM     40  C   UNL A   1      48.820  25.975  30.869  1.00  0.00     0.009 A 
ATOM     41  C   UNL A   1      50.645  26.436  28.812  1.00  0.00     0.001 A 
ATOM     42  C   UNL A   1      50.153  25.592  31.021  1.00  0.00     0.001 A 
ATOM     43  C   UNL A   1      51.064  25.817  29.990  1.00  0.00     0.000 A 
ENDBRANCH  24  38
BRANCH  25  44
ATOM     44  C   UNL A   1      38.755  29.136  29.015  1.00  0.00    -0.014 A 
ATOM     45  C   UNL A   1      37.909  29.005  30.125  1.00  0.00     0.009 A 
ATOM     46  C   UNL A   1      38.234  29.652  27.817  1.00  0.00     0.009 A 
ATOM     47  C   UNL A   1      36.564  29.372  30.032  1.00  0.00     0.001 A 
ATOM     48  C   UNL A   1      36.898  30.045  27.737  1.00  0.00     0.001 A 
ATOM     49  C   UNL A   1      36.062  29.897  28.842  1.00  0.00     0.000 A 
ENDBRANCH  25  44
BRANCH  37  50
ATOM     50  C   UNL A   1      44.477  32.492  31.108  1.00  0.00    -0.014 A 
ATOM     51  C   UNL A   1      44.416  32.764  32.483  1.00  0.00     0.009 A 
ATOM     52  C   UNL A   1      44.766  33.537  30.216  1.00  0.00     0.009 A 
ATOM     53  C   UNL A   1      44.609  34.064  32.954  1.00  0.00     0.001 A 
ATOM     54  C   UNL A   1      44.984  34.830  30.692  1.00  0.00     0.001 A 
ATOM     55  C   UNL A   1      44.896  35.095  32.059  1.00  0.00     0.000 A 
ENDBRANCH  37  50
ENDBRANCH  11  12
ENDBRANCH   4   6
ENDBRANCH   1   2
BRANCH   1  56
ATOM     56  C   UNL A   1      38.044  19.986  24.879  1.00  0.00     0.042 C 
BRANCH  56  57
ATOM     57  C   UNL A   1      37.035  21.117  24.844  1.00  0.00     0.118 C 
BRANCH  57  58
ATOM     58  N   UNL A   1      36.280  21.249  26.084  1.00  0.00    -0.352 N 
ATOM     59  C   UNL A   1      34.979  21.643  26.275  1.00  0.00     0.252 C 
ATOM     60  H   UNL A   1      36.775  21.024  26.904  1.00  0.00     0.163 HD
ATOM     61  O   UNL A   1      34.528  21.758  27.409  1.00  0.00    -0.269 OA
BRANCH  59  62
ATOM     62  C   UNL A   1      34.137  21.986  25.114  1.00  0.00     0.051 A 
ATOM     63  C   UNL A   1      34.161  23.324  24.725  1.00  0.00     0.043 A 
ATOM     64  C   UNL A   1      33.385  21.023  24.405  1.00  0.00     0.016 A 
ATOM     65  C   UNL A   1      33.460  23.664  23.590  1.00  0.00     0.075 A 
ATOM     66  C   UNL A   1      32.781  21.459  23.213  1.00  0.00     0.107 A 
ATOM     67  C   UNL A   1      33.235  19.668  24.808  1.00  0.00     0.011 A 
ATOM     68  N   UNL A   1      32.805  22.757  22.832  1.00  0.00    -0.245 NA
ATOM     69  C   UNL A   1      32.164  20.494  22.415  1.00  0.00     0.149 A 
ATOM     70  C   UNL A   1      32.609  18.733  23.990  1.00  0.00     0.004 A 
ATOM     71  F   UNL A   1      31.630  20.850  21.235  1.00  0.00    -0.205 F 
ATOM     72  C   UNL A   1      32.091  19.147  22.773  1.00  0.00     0.041 A 
BRANCH  65  73
ATOM     73  C   UNL A   1      33.354  25.038  23.153  1.00  0.00     0.038 A 
ATOM     74  C   UNL A   1      33.639  26.233  23.868  1.00  0.00     0.052 A 
ATOM     75  C   UNL A   1      32.931  25.439  21.904  1.00  0.00     0.205 A 
ATOM     76  C   UNL A   1      33.396  27.270  22.998  1.00  0.00     0.195 A 
ATOM     77  O   UNL A   1      32.961  26.794  21.802  1.00  0.00    -0.472 OA
ENDBRANCH  65  73
ENDBRANCH  59  62
ENDBRANCH  57  58
ENDBRANCH  56  57
ENDBRANCH   1  56
TORSDOF 11
ENDMDL
MODEL 2
REMARK VINA RESULT:     -11.7      2.483      7.819
REMARK SMILES O=C(NCCCNC(=O)c1cc(-c2ccoc2)nc2c(F)cccc12)c1ccc(-c2c3nc(c(-c4ccccc4)c4ccc([nH]4)c(-c4ccccc4)c4nc(c(-c5ccccc5)c5ccc2[nH]5)C=C4)C=C3)cc1
REMARK SMILES IDX 4 1 3 2 1 3 2 4 26 6 27 7 73 8 28 9 72 10 29 11 30 12 31 13
REMARK SMILES IDX 66 14 32 15 71 16 65 17 67 18 33 19 70 20 64 21 63 22 34 24
REMARK SMILES IDX 56 25 41 26 55 27 42 28 45 29 54 30 68 31 43 32 44 33 53 35
REMARK SMILES IDX 69 36 46 37 35 38 36 39 40 40 37 41 39 42 38 43 57 44 58 45
REMARK SMILES IDX 62 46 59 47 61 48 60 49 47 50 48 51 52 52 49 53 51 54 50 55
REMARK SMILES IDX 5 56 6 57 7 58 8 59 9 61 10 62 11 63 25 64 12 65 19 66 24 67
REMARK SMILES IDX 18 68 20 69 23 70 21 71 22 72 13 73 14 74 17 75 15 76 16 77
REMARK H PARENT 3 5 67 23 45 34 7 60
REMARK Flexibility Score: inf
ROOT
ATOM      1  C   UNL A   1      33.584  28.618  27.418  1.00  0.00     0.118 C 
ENDROOT
BRANCH   1   2
ATOM      2  N   UNL A   1      33.621  30.033  27.766  1.00  0.00    -0.352 N 
ATOM      3  O   UNL A   1      34.385  31.940  28.686  1.00  0.00    -0.269 OA
ATOM      4  C   UNL A   1      34.624  30.793  28.321  1.00  0.00     0.251 C 
ATOM      5  H   UNL A   1      32.791  30.527  27.572  1.00  0.00     0.163 HD
BRANCH   4   6
ATOM      6  C   UNL A   1      35.978  30.228  28.506  1.00  0.00     0.039 A 
ATOM      7  C   UNL A   1      36.344  29.630  29.711  1.00  0.00     0.014 A 
ATOM      8  C   UNL A   1      36.894  30.282  27.450  1.00  0.00     0.014 A 
ATOM      9  C   UNL A   1      37.666  29.271  29.930  1.00  0.00     0.010 A 
ATOM     10  C   UNL A   1      38.196  29.806  27.632  1.00  0.00     0.010 A 
ATOM     11  C   UNL A   1      38.604  29.333  28.888  1.00  0.00    -0.014 A 
BRANCH  11  12
ATOM     12  C   UNL A   1      39.980  28.832  29.133  1.00  0.00     0.031 A 
ATOM     13  C   UNL A   1      40.408  27.462  28.687  1.00  0.00     0.074 A 
ATOM     14  C   UNL A   1      40.864  29.657  29.728  1.00  0.00     0.049 A 
ATOM     15  N   UNL A   1      41.587  26.898  28.789  1.00  0.00    -0.248 NA
ATOM     16  C   UNL A   1      39.390  26.610  28.053  1.00  0.00     0.031 C 
ATOM     17  C   UNL A   1      40.565  31.008  30.214  1.00  0.00     0.029 A 
ATOM     18  N   UNL A   1      42.199  29.498  29.997  1.00  0.00    -0.354 N 
ATOM     19  C   UNL A   1      41.446  25.622  28.262  1.00  0.00     0.074 A 
ATOM     20  C   UNL A   1      40.064  25.485  27.853  1.00  0.00     0.031 C 
ATOM     21  C   UNL A   1      41.693  31.576  30.658  1.00  0.00     0.029 A 
ATOM     22  C   UNL A   1      42.779  30.610  30.557  1.00  0.00     0.049 A 
ATOM     23  H   UNL A   1      42.694  28.669  29.807  1.00  0.00     0.167 HD
ATOM     24  C   UNL A   1      42.383  24.653  28.129  1.00  0.00     0.031 A 
ATOM     25  C   UNL A   1      44.043  30.830  30.961  1.00  0.00     0.031 A 
ATOM     26  C   UNL A   1      43.760  24.794  28.526  1.00  0.00     0.049 A 
ATOM     27  C   UNL A   1      45.055  29.737  30.810  1.00  0.00     0.074 A 
ATOM     28  C   UNL A   1      44.792  23.880  28.399  1.00  0.00     0.029 A 
ATOM     29  N   UNL A   1      44.298  25.923  29.125  1.00  0.00    -0.354 N 
ATOM     30  N   UNL A   1      44.908  28.546  30.287  1.00  0.00    -0.248 NA
ATOM     31  C   UNL A   1      46.407  30.019  31.310  1.00  0.00     0.031 C 
ATOM     32  C   UNL A   1      45.944  24.438  28.964  1.00  0.00     0.029 A 
ATOM     33  C   UNL A   1      45.641  25.719  29.396  1.00  0.00     0.049 A 
ATOM     34  H   UNL A   1      43.799  26.748  29.327  1.00  0.00     0.167 HD
ATOM     35  C   UNL A   1      46.148  27.934  30.388  1.00  0.00     0.074 A 
ATOM     36  C   UNL A   1      47.043  28.898  30.997  1.00  0.00     0.031 C 
ATOM     37  C   UNL A   1      46.512  26.684  30.015  1.00  0.00     0.031 A 
BRANCH  24  38
ATOM     38  C   UNL A   1      41.945  23.334  27.556  1.00  0.00    -0.014 A 
ATOM     39  C   UNL A   1      42.092  23.043  26.191  1.00  0.00     0.009 A 
ATOM     40  C   UNL A   1      41.427  22.345  28.409  1.00  0.00     0.009 A 
ATOM     41  C   UNL A   1      41.705  21.799  25.688  1.00  0.00     0.001 A 
ATOM     42  C   UNL A   1      41.061  21.095  27.907  1.00  0.00     0.001 A 
ATOM     43  C   UNL A   1      41.194  20.825  26.546  1.00  0.00     0.000 A 
ENDBRANCH  24  38
BRANCH  25  44
ATOM     44  C   UNL A   1      44.402  32.138  31.566  1.00  0.00    -0.014 A 
ATOM     45  C   UNL A   1      44.293  32.341  32.948  1.00  0.00     0.009 A 
ATOM     46  C   UNL A   1      44.886  33.181  30.759  1.00  0.00     0.009 A 
ATOM     47  C   UNL A   1      44.649  33.570  33.510  1.00  0.00     0.001 A 
ATOM     48  C   UNL A   1      45.269  34.396  31.327  1.00  0.00     0.001 A 
ATOM     49  C   UNL A   1      45.143  34.593  32.700  1.00  0.00     0.000 A 
ENDBRANCH  25  44
BRANCH  37  50
ATOM     50  C   UNL A   1      47.944  26.299  30.245  1.00  0.00    -0.014 A 
ATOM     51  C   UNL A   1      48.354  25.731  31.461  1.00  0.00     0.009 A 
ATOM     52  C   UNL A   1      48.889  26.490  29.226  1.00  0.00     0.009 A 
ATOM     53  C   UNL A   1      49.693  25.391  31.663  1.00  0.00     0.001 A 
ATOM     54  C   UNL A   1      50.221  26.126  29.422  1.00  0.00     0.001 A 
ATOM     55  C   UNL A   1      50.624  25.586  30.643  1.00  0.00     0.000 A 
ENDBRANCH  37  50
ENDBRANCH  11  12
ENDBRANCH   4   6
ENDBRANCH   1   2
BRANCH   1  56
ATOM     56  C   UNL A   1      34.058  28.337  26.002  1.00  0.00     0.042 C 
BRANCH  56  57
ATOM     57  C   UNL A   1      33.413  29.218  24.950  1.00  0.00     0.118 C 
BRANCH  57  58
ATOM     58  N   UNL A   1      33.921  28.971  23.607  1.00  0.00    -0.352 N 
ATOM     59  C   UNL A   1      33.484  28.079  22.660  1.00  0.00     0.252 C 
ATOM     60  H   UNL A   1      34.690  29.525  23.339  1.00  0.00     0.163 HD
ATOM     61  O   UNL A   1      34.081  27.965  21.595  1.00  0.00    -0.269 OA
BRANCH  59  62
ATOM     62  C   UNL A   1      32.326  27.212  22.946  1.00  0.00     0.051 A 
ATOM     63  C   UNL A   1      32.628  25.902  23.312  1.00  0.00     0.043 A 
ATOM     64  C   UNL A   1      30.993  27.678  22.899  1.00  0.00     0.016 A 
ATOM     65  C   UNL A   1      31.579  25.090  23.675  1.00  0.00     0.075 A 
ATOM     66  C   UNL A   1      30.008  26.794  23.375  1.00  0.00     0.107 A 
ATOM     67  C   UNL A   1      30.610  28.966  22.435  1.00  0.00     0.011 A 
ATOM     68  N   UNL A   1      30.300  25.524  23.733  1.00  0.00    -0.245 NA
ATOM     69  C   UNL A   1      28.706  27.285  23.486  1.00  0.00     0.149 A 
ATOM     70  C   UNL A   1      29.301  29.420  22.557  1.00  0.00     0.004 A 
ATOM     71  F   UNL A   1      27.742  26.501  23.997  1.00  0.00    -0.205 F 
ATOM     72  C   UNL A   1      28.348  28.580  23.108  1.00  0.00     0.041 A 
BRANCH  65  73
ATOM     73  C   UNL A   1      31.780  23.693  23.989  1.00  0.00     0.038 A 
ATOM     74  C   UNL A   1      32.209  22.634  23.143  1.00  0.00     0.052 A 
ATOM     75  C   UNL A   1      31.574  23.124  25.227  1.00  0.00     0.205 A 
ATOM     76  C   UNL A   1      32.259  21.507  23.930  1.00  0.00     0.195 A 
ATOM     77  O   UNL A   1      31.870  21.797  25.199  1.00  0.00    -0.472 OA
ENDBRANCH  65  73
ENDBRANCH  59  62
ENDBRANCH  57  58
ENDBRANCH  56  57
ENDBRANCH   1  56
TORSDOF 11
ENDMDL
MODEL 3
REMARK VINA RESULT:     -11.7      2.596      7.806
REMARK SMILES O=C(NCCCNC(=O)c1cc(-c2ccoc2)nc2c(F)cccc12)c1ccc(-c2c3nc(c(-c4ccccc4)c4ccc([nH]4)c(-c4ccccc4)c4nc(c(-c5ccccc5)c5ccc2[nH]5)C=C4)C=C3)cc1
REMARK SMILES IDX 4 1 3 2 1 3 2 4 26 6 27 7 73 8 28 9 72 10 29 11 30 12 31 13
REMARK SMILES IDX 66 14 32 15 71 16 65 17 67 18 33 19 70 20 64 21 63 22 34 24
REMARK SMILES IDX 56 25 41 26 55 27 42 28 45 29 54 30 68 31 43 32 44 33 53 35
REMARK SMILES IDX 69 36 46 37 35 38 36 39 40 40 37 41 39 42 38 43 57 44 58 45
REMARK SMILES IDX 62 46 59 47 61 48 60 49 47 50 48 51 52 52 49 53 51 54 50 55
REMARK SMILES IDX 5 56 6 57 7 58 8 59 9 61 10 62 11 63 25 64 12 65 19 66 24 67
REMARK SMILES IDX 18 68 20 69 23 70 21 71 22 72 13 73 14 74 17 75 15 76 16 77
REMARK H PARENT 3 5 67 23 45 34 7 60
REMARK Flexibility Score: inf
ROOT
ATOM      1  C   UNL A   1      33.522  28.508  27.415  1.00  0.00     0.118 C 
ENDROOT
BRANCH   1   2
ATOM      2  N   UNL A   1      33.507  29.932  27.726  1.00  0.00    -0.352 N 
ATOM      3  O   UNL A   1      34.203  31.891  28.592  1.00  0.00    -0.269 OA
ATOM      4  C   UNL A   1      34.483  30.744  28.256  1.00  0.00     0.251 C 
ATOM      5  H   UNL A   1      32.659  30.389  27.524  1.00  0.00     0.163 HD
BRANCH   4   6
ATOM      6  C   UNL A   1      35.858  30.236  28.448  1.00  0.00     0.039 A 
ATOM      7  C   UNL A   1      36.247  29.669  29.661  1.00  0.00     0.014 A 
ATOM      8  C   UNL A   1      36.772  30.312  27.392  1.00  0.00     0.014 A 
ATOM      9  C   UNL A   1      37.582  29.366  29.885  1.00  0.00     0.010 A 
ATOM     10  C   UNL A   1      38.092  29.890  27.580  1.00  0.00     0.010 A 
ATOM     11  C   UNL A   1      38.518  29.451  28.842  1.00  0.00    -0.014 A 
BRANCH  11  12
ATOM     12  C   UNL A   1      39.912  29.008  29.094  1.00  0.00     0.031 A 
ATOM     13  C   UNL A   1      40.893  29.879  29.829  1.00  0.00     0.074 A 
ATOM     14  C   UNL A   1      40.274  27.774  28.691  1.00  0.00     0.049 A 
ATOM     15  N   UNL A   1      42.131  29.616  30.165  1.00  0.00    -0.248 NA
ATOM     16  C   UNL A   1      40.435  31.218  30.232  1.00  0.00     0.031 C 
ATOM     17  C   UNL A   1      39.414  26.838  27.961  1.00  0.00     0.029 A 
ATOM     18  N   UNL A   1      41.445  27.081  28.863  1.00  0.00    -0.354 N 
ATOM     19  C   UNL A   1      42.608  30.760  30.791  1.00  0.00     0.074 A 
ATOM     20  C   UNL A   1      41.532  31.728  30.776  1.00  0.00     0.031 C 
ATOM     21  C   UNL A   1      40.059  25.675  27.808  1.00  0.00     0.029 A 
ATOM     22  C   UNL A   1      41.400  25.803  28.361  1.00  0.00     0.049 A 
ATOM     23  H   UNL A   1      42.238  27.461  29.304  1.00  0.00     0.167 HD
ATOM     24  C   UNL A   1      43.831  30.982  31.330  1.00  0.00     0.031 A 
ATOM     25  C   UNL A   1      42.339  24.840  28.333  1.00  0.00     0.031 A 
ATOM     26  C   UNL A   1      44.897  30.014  31.354  1.00  0.00     0.049 A 
ATOM     27  C   UNL A   1      43.684  25.117  28.929  1.00  0.00     0.074 A 
ATOM     28  C   UNL A   1      46.160  30.135  31.908  1.00  0.00     0.029 A 
ATOM     29  N   UNL A   1      44.825  28.745  30.800  1.00  0.00    -0.354 N 
ATOM     30  N   UNL A   1      44.107  26.197  29.537  1.00  0.00    -0.248 NA
ATOM     31  C   UNL A   1      44.681  24.045  28.830  1.00  0.00     0.031 C 
ATOM     32  C   UNL A   1      46.868  28.957  31.650  1.00  0.00     0.029 A 
ATOM     33  C   UNL A   1      46.028  28.083  30.979  1.00  0.00     0.049 A 
ATOM     34  H   UNL A   1      44.034  28.370  30.348  1.00  0.00     0.167 HD
ATOM     35  C   UNL A   1      45.419  25.935  29.900  1.00  0.00     0.074 A 
ATOM     36  C   UNL A   1      45.712  24.583  29.467  1.00  0.00     0.031 C 
ATOM     37  C   UNL A   1      46.305  26.743  30.530  1.00  0.00     0.031 A 
BRANCH  24  38
ATOM     38  C   UNL A   1      44.098  32.341  31.914  1.00  0.00    -0.014 A 
ATOM     39  C   UNL A   1      43.861  32.615  33.270  1.00  0.00     0.009 A 
ATOM     40  C   UNL A   1      44.650  33.348  31.105  1.00  0.00     0.009 A 
ATOM     41  C   UNL A   1      44.144  33.877  33.796  1.00  0.00     0.001 A 
ATOM     42  C   UNL A   1      44.953  34.602  31.639  1.00  0.00     0.001 A 
ATOM     43  C   UNL A   1      44.694  34.868  32.982  1.00  0.00     0.000 A 
ENDBRANCH  24  38
BRANCH  25  44
ATOM     44  C   UNL A   1      42.030  23.534  27.697  1.00  0.00    -0.014 A 
ATOM     45  C   UNL A   1      41.392  22.518  28.422  1.00  0.00     0.009 A 
ATOM     46  C   UNL A   1      42.346  23.313  26.346  1.00  0.00     0.009 A 
ATOM     47  C   UNL A   1      41.091  21.299  27.809  1.00  0.00     0.001 A 
ATOM     48  C   UNL A   1      42.016  22.106  25.730  1.00  0.00     0.001 A 
ATOM     49  C   UNL A   1      41.396  21.097  26.464  1.00  0.00     0.000 A 
ENDBRANCH  25  44
BRANCH  37  50
ATOM     50  C   UNL A   1      47.668  26.175  30.798  1.00  0.00    -0.014 A 
ATOM     51  C   UNL A   1      48.644  26.129  29.791  1.00  0.00     0.009 A 
ATOM     52  C   UNL A   1      47.984  25.699  32.080  1.00  0.00     0.009 A 
ATOM     53  C   UNL A   1      49.902  25.585  30.054  1.00  0.00     0.001 A 
ATOM     54  C   UNL A   1      49.251  25.179  32.345  1.00  0.00     0.001 A 
ATOM     55  C   UNL A   1      50.205  25.114  31.331  1.00  0.00     0.000 A 
ENDBRANCH  37  50
ENDBRANCH  11  12
ENDBRANCH   4   6
ENDBRANCH   1   2
BRANCH   1  56
ATOM     56  C   UNL A   1      33.983  28.210  25.998  1.00  0.00     0.042 C 
BRANCH  56  57
ATOM     57  C   UNL A   1      33.425  29.159  24.956  1.00  0.00     0.118 C 
BRANCH  57  58
ATOM     58  N   UNL A   1      33.904  28.877  23.610  1.00  0.00    -0.352 N 
ATOM     59  C   UNL A   1      33.433  27.977  22.687  1.00  0.00     0.252 C 
ATOM     60  H   UNL A   1      34.680  29.409  23.319  1.00  0.00     0.163 HD
ATOM     61  O   UNL A   1      34.010  27.830  21.615  1.00  0.00    -0.269 OA
BRANCH  59  62
ATOM     62  C   UNL A   1      32.263  27.139  23.008  1.00  0.00     0.051 A 
ATOM     63  C   UNL A   1      32.547  25.845  23.440  1.00  0.00     0.043 A 
ATOM     64  C   UNL A   1      30.937  27.619  22.931  1.00  0.00     0.016 A 
ATOM     65  C   UNL A   1      31.485  25.065  23.837  1.00  0.00     0.075 A 
ATOM     66  C   UNL A   1      29.938  26.772  23.444  1.00  0.00     0.107 A 
ATOM     67  C   UNL A   1      30.573  28.888  22.403  1.00  0.00     0.011 A 
ATOM     68  N   UNL A   1      30.212  25.517  23.866  1.00  0.00    -0.245 NA
ATOM     69  C   UNL A   1      28.642  27.284  23.524  1.00  0.00     0.149 A 
ATOM     70  C   UNL A   1      29.269  29.364  22.494  1.00  0.00     0.004 A 
ATOM     71  F   UNL A   1      27.665  26.538  24.067  1.00  0.00    -0.205 F 
ATOM     72  C   UNL A   1      28.302  28.564  23.080  1.00  0.00     0.041 A 
BRANCH  65  73
ATOM     73  C   UNL A   1      31.667  23.683  24.220  1.00  0.00     0.038 A 
ATOM     74  C   UNL A   1      31.454  23.064  25.481  1.00  0.00     0.052 A 
ATOM     75  C   UNL A   1      32.104  22.682  23.379  1.00  0.00     0.205 A 
ATOM     76  C   UNL A   1      31.750  21.731  25.313  1.00  0.00     0.195 A 
ATOM     77  O   UNL A   1      32.151  21.492  24.037  1.00  0.00    -0.472 OA
ENDBRANCH  65  73
ENDBRANCH  59  62
ENDBRANCH  57  58
ENDBRANCH  56  57
ENDBRANCH   1  56
TORSDOF 11
ENDMDL
