MODEL 1
REMARK VINA RESULT:     -13.2      0.000      0.000
REMARK SMILES NC(=O)c1cc(NC(=O)/C=C\C(=O)NCCCNC(=O)c2ccc(-c3c4nc(c(-c5ccccc5)c5ccc([nH]5)c(-c5ccccc5)c5nc(c(-c6ccccc6)c6ccc3[nH]6)C=C5)C=C4)cc2)ccc1N1CCOCC1
REMARK SMILES IDX 15 1 14 2 12 3 13 4 11 6 10 7 8 8 7 9 9 11 6 12 4 13 5 14
REMARK SMILES IDX 71 15 70 16 69 17 2 18 1 19 3 22 72 23 73 24 77 25 74 26
REMARK SMILES IDX 76 27 75 28 16 29 17 30 18 31 19 32 20 34 21 35 22 36 68 37
REMARK SMILES IDX 23 38 67 39 24 40 25 41 26 42 61 43 27 44 66 45 60 46 62 47
REMARK SMILES IDX 28 48 65 49 59 50 58 51 29 53 51 54 36 55 50 56 37 57 40 58
REMARK SMILES IDX 49 59 63 60 38 61 39 62 48 64 64 65 41 66 30 67 31 68 35 69
REMARK SMILES IDX 32 70 34 71 33 72 52 73 53 74 57 75 54 76 56 77 55 78 42 79
REMARK SMILES IDX 43 80 47 81 44 82 46 83 45 84
REMARK H PARENT 14 5 7 10 1 20 1 21 18 33 62 52 40 63
REMARK Flexibility Score: inf
ROOT
ATOM      1  C   UNL A   1      31.467  30.766  25.736  1.00  0.00     0.118 C 
ENDROOT
BRANCH   1   2
ATOM      2  N   UNL A   1      30.399  30.556  24.423  1.00  0.00    -0.352 N 
ATOM      3  C   UNL A   1      30.078  29.512  22.782  1.00  0.00     0.244 C 
ATOM      4  O   UNL A   1      29.190  29.636  21.889  1.00  0.00    -0.270 OA
ATOM      5  H   UNL A   1      29.662  31.202  24.524  1.00  0.00     0.163 HD
BRANCH   3   6
ATOM      6  C   UNL A   1      30.846  28.061  22.228  1.00  0.00     0.077 C 
ATOM      7  C   UNL A   1      32.006  27.391  22.404  1.00  0.00     0.077 C 
BRANCH   7   8
ATOM      8  C   UNL A   1      33.177  27.850  23.198  1.00  0.00     0.248 C 
ATOM      9  N   UNL A   1      33.588  26.971  24.147  1.00  0.00    -0.322 N 
ATOM     10  H   UNL A   1      34.091  27.279  24.935  1.00  0.00     0.170 HD
ATOM     11  O   UNL A   1      33.624  28.983  23.089  1.00  0.00    -0.270 OA
BRANCH   9  12
ATOM     12  C   UNL A   1      33.285  25.633  23.978  1.00  0.00     0.042 A 
ATOM     13  C   UNL A   1      31.809  23.102  25.196  1.00  0.00     0.064 A 
ATOM     14  C   UNL A   1      31.850  24.908  24.917  1.00  0.00     0.042 A 
ATOM     15  C   UNL A   1      33.091  22.011  24.489  1.00  0.00     0.050 A 
ATOM     16  C   UNL A   1      34.447  22.751  23.487  1.00  0.00     0.029 A 
ATOM     17  C   UNL A   1      34.564  24.549  23.266  1.00  0.00     0.028 A 
BRANCH  13  18
ATOM     18  C   UNL A   1      31.263  22.793  26.535  1.00  0.00     0.250 C 
ATOM     19  N   UNL A   1      29.975  22.333  26.498  1.00  0.00    -0.366 N 
ATOM     20  H   UNL A   1      29.513  22.097  27.335  1.00  0.00     0.159 HD
ATOM     21  H   UNL A   1      29.511  22.237  25.636  1.00  0.00     0.159 HD
ATOM     22  O   UNL A   1      31.946  22.802  27.544  1.00  0.00    -0.269 OA
ENDBRANCH  13  18
BRANCH  15  23
ATOM     23  N   UNL A   1      33.215  20.667  24.864  1.00  0.00    -0.366 N 
ATOM     24  C   UNL A   1      34.430  20.022  25.408  1.00  0.00     0.145 C 
ATOM     25  C   UNL A   1      32.109  19.719  24.642  1.00  0.00     0.145 C 
ATOM     26  C   UNL A   1      34.797  18.750  24.601  1.00  0.00     0.181 C 
ATOM     27  C   UNL A   1      32.595  18.522  23.811  1.00  0.00     0.181 C 
ATOM     28  O   UNL A   1      33.683  17.852  24.463  1.00  0.00    -0.378 OA
ENDBRANCH  15  23
ENDBRANCH   9  12
ENDBRANCH   7   8
ENDBRANCH   3   6
ENDBRANCH   1   2
BRANCH   1  29
ATOM     29  C   UNL A   1      31.379  32.000  26.689  1.00  0.00     0.042 C 
BRANCH  29  30
ATOM     30  C   UNL A   1      32.689  32.550  27.244  1.00  0.00     0.118 C 
BRANCH  30  31
ATOM     31  N   UNL A   1      32.535  33.931  27.651  1.00  0.00    -0.352 N 
ATOM     32  C   UNL A   1      33.164  34.574  28.684  1.00  0.00     0.251 C 
ATOM     33  H   UNL A   1      31.902  34.470  27.124  1.00  0.00     0.163 HD
ATOM     34  O   UNL A   1      32.677  35.596  29.156  1.00  0.00    -0.269 OA
BRANCH  32  35
ATOM     35  C   UNL A   1      34.443  34.050  29.217  1.00  0.00     0.039 A 
ATOM     36  C   UNL A   1      35.631  34.380  28.561  1.00  0.00     0.014 A 
ATOM     37  C   UNL A   1      34.460  33.156  30.293  1.00  0.00     0.014 A 
ATOM     38  C   UNL A   1      36.833  33.801  28.970  1.00  0.00     0.010 A 
ATOM     39  C   UNL A   1      35.671  32.624  30.738  1.00  0.00     0.010 A 
ATOM     40  C   UNL A   1      36.864  32.914  30.059  1.00  0.00    -0.014 A 
BRANCH  40  41
ATOM     41  C   UNL A   1      38.135  32.257  30.458  1.00  0.00     0.031 A 
ATOM     42  C   UNL A   1      39.007  32.867  31.523  1.00  0.00     0.074 A 
ATOM     43  C   UNL A   1      38.508  31.110  29.858  1.00  0.00     0.049 A 
ATOM     44  N   UNL A   1      40.131  32.423  32.027  1.00  0.00    -0.248 NA
ATOM     45  C   UNL A   1      38.568  34.155  32.083  1.00  0.00     0.031 C 
ATOM     46  C   UNL A   1      37.756  30.426  28.806  1.00  0.00     0.029 A 
ATOM     47  N   UNL A   1      39.605  30.312  30.059  1.00  0.00    -0.354 N 
ATOM     48  C   UNL A   1      40.539  33.383  32.947  1.00  0.00     0.074 A 
ATOM     49  C   UNL A   1      39.573  34.457  32.891  1.00  0.00     0.031 C 
ATOM     50  C   UNL A   1      38.387  29.284  28.490  1.00  0.00     0.029 A 
ATOM     51  C   UNL A   1      39.611  29.182  29.278  1.00  0.00     0.049 A 
ATOM     52  H   UNL A   1      40.320  30.528  30.701  1.00  0.00     0.167 HD
ATOM     53  C   UNL A   1      41.614  33.366  33.773  1.00  0.00     0.031 A 
ATOM     54  C   UNL A   1      40.502  28.175  29.206  1.00  0.00     0.031 A 
ATOM     55  C   UNL A   1      42.579  32.298  33.817  1.00  0.00     0.049 A 
ATOM     56  C   UNL A   1      41.714  28.206  30.095  1.00  0.00     0.074 A 
ATOM     57  C   UNL A   1      43.673  32.157  34.652  1.00  0.00     0.029 A 
ATOM     58  N   UNL A   1      42.574  31.195  32.976  1.00  0.00    -0.354 N 
ATOM     59  N   UNL A   1      42.047  29.082  31.012  1.00  0.00    -0.248 NA
ATOM     60  C   UNL A   1      42.667  27.098  29.945  1.00  0.00     0.031 C 
ATOM     61  C   UNL A   1      44.377  31.016  34.259  1.00  0.00     0.029 A 
ATOM     62  C   UNL A   1      43.673  30.394  33.241  1.00  0.00     0.049 A 
ATOM     63  H   UNL A   1      41.890  31.009  32.292  1.00  0.00     0.167 HD
ATOM     64  C   UNL A   1      43.228  28.612  31.574  1.00  0.00     0.074 A 
ATOM     65  C   UNL A   1      43.542  27.367  30.904  1.00  0.00     0.031 C 
ATOM     66  C   UNL A   1      43.980  29.160  32.561  1.00  0.00     0.031 A 
BRANCH  53  67
ATOM     67  C   UNL A   1      41.822  34.563  34.665  1.00  0.00    -0.014 A 
ATOM     68  C   UNL A   1      42.553  35.686  34.241  1.00  0.00     0.009 A 
ATOM     69  C   UNL A   1      41.265  34.572  35.955  1.00  0.00     0.009 A 
ATOM     70  C   UNL A   1      42.770  36.761  35.108  1.00  0.00     0.001 A 
ATOM     71  C   UNL A   1      41.449  35.665  36.804  1.00  0.00     0.001 A 
ATOM     72  C   UNL A   1      42.215  36.750  36.386  1.00  0.00     0.000 A 
ENDBRANCH  53  67
BRANCH  54  73
ATOM     73  C   UNL A   1      40.269  27.038  28.276  1.00  0.00    -0.014 A 
ATOM     74  C   UNL A   1      40.827  27.048  26.988  1.00  0.00     0.009 A 
ATOM     75  C   UNL A   1      39.488  25.939  28.666  1.00  0.00     0.009 A 
ATOM     76  C   UNL A   1      40.583  25.996  26.102  1.00  0.00     0.001 A 
ATOM     77  C   UNL A   1      39.275  24.873  27.791  1.00  0.00     0.001 A 
ATOM     78  C   UNL A   1      39.813  24.907  26.506  1.00  0.00     0.000 A 
ENDBRANCH  54  73
BRANCH  66  79
ATOM     79  C   UNL A   1      45.194  28.392  33.010  1.00  0.00    -0.014 A 
ATOM     80  C   UNL A   1      46.454  28.592  32.425  1.00  0.00     0.009 A 
ATOM     81  C   UNL A   1      45.078  27.474  34.067  1.00  0.00     0.009 A 
ATOM     82  C   UNL A   1      47.561  27.858  32.859  1.00  0.00     0.001 A 
ATOM     83  C   UNL A   1      46.192  26.773  34.526  1.00  0.00     0.001 A 
ATOM     84  C   UNL A   1      47.430  26.956  33.914  1.00  0.00     0.000 A 
ENDBRANCH  66  79
ENDBRANCH  40  41
ENDBRANCH  32  35
ENDBRANCH  30  31
ENDBRANCH  29  30
ENDBRANCH   1  29
TORSDOF 14
ENDMDL
MODEL 2
REMARK VINA RESULT:     -13.1      3.728      9.590
REMARK SMILES NC(=O)c1cc(NC(=O)/C=C\C(=O)NCCCNC(=O)c2ccc(-c3c4nc(c(-c5ccccc5)c5ccc([nH]5)c(-c5ccccc5)c5nc(c(-c6ccccc6)c6ccc3[nH]6)C=C5)C=C4)cc2)ccc1N1CCOCC1
REMARK SMILES IDX 15 1 14 2 12 3 13 4 11 6 10 7 8 8 7 9 9 11 6 12 4 13 5 14
REMARK SMILES IDX 71 15 70 16 69 17 2 18 1 19 3 22 72 23 73 24 77 25 74 26
REMARK SMILES IDX 76 27 75 28 16 29 17 30 18 31 19 32 20 34 21 35 22 36 68 37
REMARK SMILES IDX 23 38 67 39 24 40 25 41 26 42 61 43 27 44 66 45 60 46 62 47
REMARK SMILES IDX 28 48 65 49 59 50 58 51 29 53 51 54 36 55 50 56 37 57 40 58
REMARK SMILES IDX 49 59 63 60 38 61 39 62 48 64 64 65 41 66 30 67 31 68 35 69
REMARK SMILES IDX 32 70 34 71 33 72 52 73 53 74 57 75 54 76 56 77 55 78 42 79
REMARK SMILES IDX 43 80 47 81 44 82 46 83 45 84
REMARK H PARENT 14 5 7 10 1 20 1 21 18 33 62 52 40 63
REMARK Flexibility Score: inf
ROOT
ATOM      1  C   UNL A   1      36.746  20.203  24.999  1.00  0.00     0.118 C 
ENDROOT
BRANCH   1   2
ATOM      2  N   UNL A   1      36.611  21.839  24.535  1.00  0.00    -0.352 N 
ATOM      3  C   UNL A   1      35.549  23.482  24.778  1.00  0.00     0.244 C 
ATOM      4  O   UNL A   1      35.629  24.605  24.202  1.00  0.00    -0.270 OA
ATOM      5  H   UNL A   1      37.343  22.038  23.906  1.00  0.00     0.163 HD
BRANCH   3   6
ATOM      6  C   UNL A   1      34.332  23.845  25.955  1.00  0.00     0.077 C 
ATOM      7  C   UNL A   1      33.312  23.227  26.592  1.00  0.00     0.077 C 
BRANCH   7   8
ATOM      8  C   UNL A   1      32.826  21.845  26.342  1.00  0.00     0.248 C 
ATOM      9  N   UNL A   1      31.541  21.773  25.909  1.00  0.00    -0.322 N 
ATOM     10  H   UNL A   1      31.010  20.955  26.043  1.00  0.00     0.170 HD
ATOM     11  O   UNL A   1      33.492  20.864  26.643  1.00  0.00    -0.270 OA
BRANCH   9  12
ATOM     12  C   UNL A   1      30.999  22.875  25.276  1.00  0.00     0.042 A 
ATOM     13  C   UNL A   1      31.282  24.923  22.869  1.00  0.00     0.064 A 
ATOM     14  C   UNL A   1      31.467  23.220  23.507  1.00  0.00     0.042 A 
ATOM     15  C   UNL A   1      30.562  26.243  23.904  1.00  0.00     0.050 A 
ATOM     16  C   UNL A   1      30.024  25.846  25.620  1.00  0.00     0.029 A 
ATOM     17  C   UNL A   1      30.275  24.187  26.312  1.00  0.00     0.028 A 
BRANCH  13  18
ATOM     18  C   UNL A   1      32.388  25.257  21.946  1.00  0.00     0.250 C 
ATOM     19  N   UNL A   1      31.957  25.755  20.747  1.00  0.00    -0.366 N 
ATOM     20  H   UNL A   1      32.612  26.010  20.057  1.00  0.00     0.159 HD
ATOM     21  H   UNL A   1      30.994  25.858  20.574  1.00  0.00     0.159 HD
ATOM     22  O   UNL A   1      33.558  25.235  22.285  1.00  0.00    -0.269 OA
ENDBRANCH  13  18
BRANCH  15  23
ATOM     23  N   UNL A   1      30.610  27.593  23.531  1.00  0.00    -0.366 N 
ATOM     24  C   UNL A   1      31.615  28.584  23.974  1.00  0.00     0.145 C 
ATOM     25  C   UNL A   1      29.547  28.181  22.697  1.00  0.00     0.145 C 
ATOM     26  C   UNL A   1      30.933  29.848  24.560  1.00  0.00     0.181 C 
ATOM     27  C   UNL A   1      28.938  29.404  23.400  1.00  0.00     0.181 C 
ATOM     28  O   UNL A   1      29.940  30.392  23.674  1.00  0.00    -0.378 OA
ENDBRANCH  15  23
ENDBRANCH   9  12
ENDBRANCH   7   8
ENDBRANCH   3   6
ENDBRANCH   1   2
BRANCH   1  29
ATOM     29  C   UNL A   1      38.108  19.441  24.972  1.00  0.00     0.042 C 
BRANCH  29  30
ATOM     30  C   UNL A   1      39.258  20.034  25.779  1.00  0.00     0.118 C 
BRANCH  30  31
ATOM     31  N   UNL A   1      40.304  19.053  25.978  1.00  0.00    -0.352 N 
ATOM     32  C   UNL A   1      41.649  19.280  26.110  1.00  0.00     0.251 C 
ATOM     33  H   UNL A   1      40.015  18.113  26.022  1.00  0.00     0.163 HD
ATOM     34  O   UNL A   1      42.447  18.375  25.889  1.00  0.00    -0.269 OA
BRANCH  32  35
ATOM     35  C   UNL A   1      42.140  20.609  26.539  1.00  0.00     0.039 A 
ATOM     36  C   UNL A   1      42.098  20.936  27.896  1.00  0.00     0.014 A 
ATOM     37  C   UNL A   1      42.543  21.565  25.599  1.00  0.00     0.014 A 
ATOM     38  C   UNL A   1      42.440  22.224  28.310  1.00  0.00     0.010 A 
ATOM     39  C   UNL A   1      42.940  22.834  26.021  1.00  0.00     0.010 A 
ATOM     40  C   UNL A   1      42.860  23.186  27.377  1.00  0.00    -0.014 A 
BRANCH  40  41
ATOM     41  C   UNL A   1      43.171  24.572  27.812  1.00  0.00     0.031 A 
ATOM     42  C   UNL A   1      44.600  25.026  27.945  1.00  0.00     0.074 A 
ATOM     43  C   UNL A   1      42.165  25.423  28.093  1.00  0.00     0.049 A 
ATOM     44  N   UNL A   1      45.066  26.204  28.279  1.00  0.00    -0.248 NA
ATOM     45  C   UNL A   1      45.643  24.021  27.689  1.00  0.00     0.031 C 
ATOM     46  C   UNL A   1      40.740  25.099  28.013  1.00  0.00     0.029 A 
ATOM     47  N   UNL A   1      42.188  26.736  28.487  1.00  0.00    -0.354 N 
ATOM     48  C   UNL A   1      46.451  26.075  28.287  1.00  0.00     0.074 A 
ATOM     49  C   UNL A   1      46.747  24.693  27.981  1.00  0.00     0.031 C 
ATOM     50  C   UNL A   1      40.026  26.200  28.297  1.00  0.00     0.029 A 
ATOM     51  C   UNL A   1      40.939  27.288  28.629  1.00  0.00     0.049 A 
ATOM     52  H   UNL A   1      43.021  27.235  28.653  1.00  0.00     0.167 HD
ATOM     53  C   UNL A   1      47.392  27.023  28.517  1.00  0.00     0.031 A 
ATOM     54  C   UNL A   1      40.570  28.534  28.984  1.00  0.00     0.031 A 
ATOM     55  C   UNL A   1      47.092  28.396  28.832  1.00  0.00     0.049 A 
ATOM     56  C   UNL A   1      41.633  29.554  29.286  1.00  0.00     0.074 A 
ATOM     57  C   UNL A   1      47.968  29.448  29.030  1.00  0.00     0.029 A 
ATOM     58  N   UNL A   1      45.813  28.903  29.013  1.00  0.00    -0.354 N 
ATOM     59  N   UNL A   1      42.937  29.437  29.217  1.00  0.00    -0.248 NA
ATOM     60  C   UNL A   1      41.168  30.883  29.703  1.00  0.00     0.031 C 
ATOM     61  C   UNL A   1      47.226  30.568  29.414  1.00  0.00     0.029 A 
ATOM     62  C   UNL A   1      45.880  30.240  29.366  1.00  0.00     0.049 A 
ATOM     63  H   UNL A   1      44.981  28.387  28.905  1.00  0.00     0.167 HD
ATOM     64  C   UNL A   1      43.447  30.687  29.545  1.00  0.00     0.074 A 
ATOM     65  C   UNL A   1      42.310  31.549  29.797  1.00  0.00     0.031 C 
ATOM     66  C   UNL A   1      44.741  31.086  29.623  1.00  0.00     0.031 A 
BRANCH  53  67
ATOM     67  C   UNL A   1      48.836  26.592  28.477  1.00  0.00    -0.014 A 
ATOM     68  C   UNL A   1      49.527  26.207  29.638  1.00  0.00     0.009 A 
ATOM     69  C   UNL A   1      49.516  26.560  27.248  1.00  0.00     0.009 A 
ATOM     70  C   UNL A   1      50.879  25.858  29.577  1.00  0.00     0.001 A 
ATOM     71  C   UNL A   1      50.856  26.172  27.185  1.00  0.00     0.001 A 
ATOM     72  C   UNL A   1      51.540  25.837  28.351  1.00  0.00     0.000 A 
ENDBRANCH  53  67
BRANCH  54  73
ATOM     73  C   UNL A   1      39.129  28.894  29.049  1.00  0.00    -0.014 A 
ATOM     74  C   UNL A   1      38.409  28.732  30.244  1.00  0.00     0.009 A 
ATOM     75  C   UNL A   1      38.462  29.399  27.922  1.00  0.00     0.009 A 
ATOM     76  C   UNL A   1      37.048  29.040  30.299  1.00  0.00     0.001 A 
ATOM     77  C   UNL A   1      37.110  29.739  27.990  1.00  0.00     0.001 A 
ATOM     78  C   UNL A   1      36.401  29.550  29.174  1.00  0.00     0.000 A 
ENDBRANCH  54  73
BRANCH  66  79
ATOM     79  C   UNL A   1      44.998  32.532  29.952  1.00  0.00    -0.014 A 
ATOM     80  C   UNL A   1      45.192  32.967  31.273  1.00  0.00     0.009 A 
ATOM     81  C   UNL A   1      45.081  33.472  28.912  1.00  0.00     0.009 A 
ATOM     82  C   UNL A   1      45.422  34.318  31.546  1.00  0.00     0.001 A 
ATOM     83  C   UNL A   1      45.351  34.813  29.184  1.00  0.00     0.001 A 
ATOM     84  C   UNL A   1      45.509  35.237  30.502  1.00  0.00     0.000 A 
ENDBRANCH  66  79
ENDBRANCH  40  41
ENDBRANCH  32  35
ENDBRANCH  30  31
ENDBRANCH  29  30
ENDBRANCH   1  29
TORSDOF 14
ENDMDL
MODEL 3
REMARK VINA RESULT:     -13.0      1.827      6.198
REMARK SMILES NC(=O)c1cc(NC(=O)/C=C\C(=O)NCCCNC(=O)c2ccc(-c3c4nc(c(-c5ccccc5)c5ccc([nH]5)c(-c5ccccc5)c5nc(c(-c6ccccc6)c6ccc3[nH]6)C=C5)C=C4)cc2)ccc1N1CCOCC1
REMARK SMILES IDX 15 1 14 2 12 3 13 4 11 6 10 7 8 8 7 9 9 11 6 12 4 13 5 14
REMARK SMILES IDX 71 15 70 16 69 17 2 18 1 19 3 22 72 23 73 24 77 25 74 26
REMARK SMILES IDX 76 27 75 28 16 29 17 30 18 31 19 32 20 34 21 35 22 36 68 37
REMARK SMILES IDX 23 38 67 39 24 40 25 41 26 42 61 43 27 44 66 45 60 46 62 47
REMARK SMILES IDX 28 48 65 49 59 50 58 51 29 53 51 54 36 55 50 56 37 57 40 58
REMARK SMILES IDX 49 59 63 60 38 61 39 62 48 64 64 65 41 66 30 67 31 68 35 69
REMARK SMILES IDX 32 70 34 71 33 72 52 73 53 74 57 75 54 76 56 77 55 78 42 79
REMARK SMILES IDX 43 80 47 81 44 82 46 83 45 84
REMARK H PARENT 14 5 7 10 1 20 1 21 18 33 62 52 40 63
REMARK Flexibility Score: inf
ROOT
ATOM      1  C   UNL A   1      31.403  30.401  26.200  1.00  0.00     0.118 C 
ENDROOT
BRANCH   1   2
ATOM      2  N   UNL A   1      32.431  29.598  25.101  1.00  0.00    -0.352 N 
ATOM      3  C   UNL A   1      32.835  27.851  24.282  1.00  0.00     0.244 C 
ATOM      4  O   UNL A   1      33.775  27.501  23.511  1.00  0.00    -0.270 OA
ATOM      5  H   UNL A   1      33.064  30.259  24.738  1.00  0.00     0.163 HD
BRANCH   3   6
ATOM      6  C   UNL A   1      31.910  26.386  24.295  1.00  0.00     0.077 C 
ATOM      7  C   UNL A   1      31.639  25.344  23.477  1.00  0.00     0.077 C 
BRANCH   7   8
ATOM      8  C   UNL A   1      32.075  25.197  22.063  1.00  0.00     0.248 C 
ATOM      9  N   UNL A   1      32.826  24.093  21.822  1.00  0.00    -0.322 N 
ATOM     10  H   UNL A   1      33.446  24.062  21.057  1.00  0.00     0.170 HD
ATOM     11  O   UNL A   1      31.887  26.079  21.237  1.00  0.00    -0.270 OA
BRANCH   9  12
ATOM     12  C   UNL A   1      32.699  23.012  22.674  1.00  0.00     0.042 A 
ATOM     13  C   UNL A   1      34.062  21.316  24.983  1.00  0.00     0.064 A 
ATOM     14  C   UNL A   1      33.758  22.941  24.204  1.00  0.00     0.042 A 
ATOM     15  C   UNL A   1      33.269  19.802  24.342  1.00  0.00     0.050 A 
ATOM     16  C   UNL A   1      32.153  19.921  22.882  1.00  0.00     0.029 A 
ATOM     17  C   UNL A   1      31.902  21.506  22.033  1.00  0.00     0.028 A 
BRANCH  13  18
ATOM     18  C   UNL A   1      35.444  21.238  25.504  1.00  0.00     0.250 C 
ATOM     19  N   UNL A   1      35.525  21.453  26.853  1.00  0.00    -0.366 N 
ATOM     20  H   UNL A   1      36.400  21.424  27.304  1.00  0.00     0.159 HD
ATOM     21  H   UNL A   1      34.709  21.637  27.372  1.00  0.00     0.159 HD
ATOM     22  O   UNL A   1      36.384  20.865  24.825  1.00  0.00    -0.269 OA
ENDBRANCH  13  18
BRANCH  15  23
ATOM     23  N   UNL A   1      33.650  18.522  24.770  1.00  0.00    -0.366 N 
ATOM     24  C   UNL A   1      34.787  17.732  24.251  1.00  0.00     0.145 C 
ATOM     25  C   UNL A   1      32.840  17.789  25.760  1.00  0.00     0.145 C 
ATOM     26  C   UNL A   1      34.331  16.315  23.817  1.00  0.00     0.181 C 
ATOM     27  C   UNL A   1      32.433  16.418  25.199  1.00  0.00     0.181 C 
ATOM     28  O   UNL A   1      33.587  15.643  24.847  1.00  0.00    -0.378 OA
ENDBRANCH  15  23
ENDBRANCH   9  12
ENDBRANCH   7   8
ENDBRANCH   3   6
ENDBRANCH   1   2
BRANCH   1  29
ATOM     29  C   UNL A   1      31.469  31.945  26.424  1.00  0.00     0.042 C 
BRANCH  29  30
ATOM     30  C   UNL A   1      32.632  32.483  27.250  1.00  0.00     0.118 C 
BRANCH  30  31
ATOM     31  N   UNL A   1      32.497  33.910  27.458  1.00  0.00    -0.352 N 
ATOM     32  C   UNL A   1      33.022  34.659  28.478  1.00  0.00     0.251 C 
ATOM     33  H   UNL A   1      31.965  34.397  26.789  1.00  0.00     0.163 HD
ATOM     34  O   UNL A   1      32.530  35.750  28.751  1.00  0.00    -0.269 OA
BRANCH  32  35
ATOM     35  C   UNL A   1      34.193  34.166  29.238  1.00  0.00     0.039 A 
ATOM     36  C   UNL A   1      35.471  34.381  28.717  1.00  0.00     0.014 A 
ATOM     37  C   UNL A   1      34.027  33.407  30.401  1.00  0.00     0.014 A 
ATOM     38  C   UNL A   1      36.581  33.820  29.351  1.00  0.00     0.010 A 
ATOM     39  C   UNL A   1      35.143  32.896  31.065  1.00  0.00     0.010 A 
ATOM     40  C   UNL A   1      36.427  33.069  30.528  1.00  0.00    -0.014 A 
BRANCH  40  41
ATOM     41  C   UNL A   1      37.603  32.427  31.170  1.00  0.00     0.031 A 
ATOM     42  C   UNL A   1      38.252  31.222  30.542  1.00  0.00     0.074 A 
ATOM     43  C   UNL A   1      38.085  32.926  32.325  1.00  0.00     0.049 A 
ATOM     44  N   UNL A   1      39.303  30.549  30.937  1.00  0.00    -0.248 NA
ATOM     45  C   UNL A   1      37.627  30.693  29.320  1.00  0.00     0.031 C 
ATOM     46  C   UNL A   1      37.538  34.081  33.037  1.00  0.00     0.029 A 
ATOM     47  N   UNL A   1      39.153  32.535  33.091  1.00  0.00    -0.354 N 
ATOM     48  C   UNL A   1      39.454  29.511  30.023  1.00  0.00     0.074 A 
ATOM     49  C   UNL A   1      38.355  29.611  29.089  1.00  0.00     0.031 C 
ATOM     50  C   UNL A   1      38.305  34.336  34.110  1.00  0.00     0.029 A 
ATOM     51  C   UNL A   1      39.363  33.335  34.187  1.00  0.00     0.049 A 
ATOM     52  H   UNL A   1      39.714  31.754  32.877  1.00  0.00     0.167 HD
ATOM     53  C   UNL A   1      40.425  28.568  29.960  1.00  0.00     0.031 A 
ATOM     54  C   UNL A   1      40.305  33.271  35.148  1.00  0.00     0.031 A 
ATOM     55  C   UNL A   1      41.511  28.466  30.900  1.00  0.00     0.049 A 
ATOM     56  C   UNL A   1      41.341  32.182  35.085  1.00  0.00     0.074 A 
ATOM     57  C   UNL A   1      42.576  27.583  30.897  1.00  0.00     0.029 A 
ATOM     58  N   UNL A   1      41.661  29.267  32.023  1.00  0.00    -0.354 N 
ATOM     59  N   UNL A   1      41.514  31.254  34.175  1.00  0.00    -0.248 NA
ATOM     60  C   UNL A   1      42.319  32.143  36.180  1.00  0.00     0.031 C 
ATOM     61  C   UNL A   1      43.320  27.792  32.062  1.00  0.00     0.029 A 
ATOM     62  C   UNL A   1      42.773  28.867  32.744  1.00  0.00     0.049 A 
ATOM     63  H   UNL A   1      41.064  30.011  32.270  1.00  0.00     0.167 HD
ATOM     64  C   UNL A   1      42.642  30.544  34.566  1.00  0.00     0.074 A 
ATOM     65  C   UNL A   1      43.119  31.160  35.788  1.00  0.00     0.031 C 
ATOM     66  C   UNL A   1      43.233  29.483  33.965  1.00  0.00     0.031 A 
BRANCH  53  67
ATOM     67  C   UNL A   1      40.328  27.544  28.858  1.00  0.00    -0.014 A 
ATOM     68  C   UNL A   1      40.926  27.746  27.603  1.00  0.00     0.009 A 
ATOM     69  C   UNL A   1      39.631  26.345  29.086  1.00  0.00     0.009 A 
ATOM     70  C   UNL A   1      40.777  26.799  26.585  1.00  0.00     0.001 A 
ATOM     71  C   UNL A   1      39.519  25.384  28.080  1.00  0.00     0.001 A 
ATOM     72  C   UNL A   1      40.078  25.618  26.826  1.00  0.00     0.000 A 
ENDBRANCH  53  67
BRANCH  54  73
ATOM     73  C   UNL A   1      40.329  34.282  36.237  1.00  0.00    -0.014 A 
ATOM     74  C   UNL A   1      39.579  34.085  37.407  1.00  0.00     0.009 A 
ATOM     75  C   UNL A   1      41.098  35.451  36.116  1.00  0.00     0.009 A 
ATOM     76  C   UNL A   1      39.576  35.049  38.418  1.00  0.00     0.001 A 
ATOM     77  C   UNL A   1      41.121  36.395  37.144  1.00  0.00     0.001 A 
ATOM     78  C   UNL A   1      40.351  36.200  38.289  1.00  0.00     0.000 A 
ENDBRANCH  54  73
BRANCH  66  79
ATOM     79  C   UNL A   1      44.491  28.946  34.593  1.00  0.00    -0.014 A 
ATOM     80  C   UNL A   1      45.757  29.461  34.272  1.00  0.00     0.009 A 
ATOM     81  C   UNL A   1      44.401  27.926  35.554  1.00  0.00     0.009 A 
ATOM     82  C   UNL A   1      46.906  28.937  34.868  1.00  0.00     0.001 A 
ATOM     83  C   UNL A   1      45.547  27.432  36.178  1.00  0.00     0.001 A 
ATOM     84  C   UNL A   1      46.799  27.929  35.825  1.00  0.00     0.000 A 
ENDBRANCH  66  79
ENDBRANCH  40  41
ENDBRANCH  32  35
ENDBRANCH  30  31
ENDBRANCH  29  30
ENDBRANCH   1  29
TORSDOF 14
ENDMDL
