MODEL 1
REMARK VINA RESULT:      -9.2      0.000      0.000
REMARK SMILES O=C(/C=C/c1cccs1)NCC(=O)NCCCNC(=O)c1ccc(-c2c3nc(c(-c4ccccc4)c4ccc([nH]4)c(-c4ccccc4)c4nc(c(-c5ccccc5)c5ccc2[nH]5)C=C4)C=C3)cc1
REMARK SMILES IDX 15 1 14 2 12 3 13 4 11 6 10 7 1 8 2 9 3 11 4 12 5 13 6 14
REMARK SMILES IDX 9 15 7 16 8 17 16 18 17 19 18 20 19 21 20 23 21 24 22 25
REMARK SMILES IDX 68 26 23 27 67 28 24 29 25 30 26 31 61 32 27 33 66 34 60 35
REMARK SMILES IDX 62 36 28 37 65 38 59 39 58 40 29 42 51 43 36 44 50 45 37 46
REMARK SMILES IDX 40 47 49 48 63 49 38 50 39 51 48 53 64 54 41 55 30 56 31 57
REMARK SMILES IDX 35 58 32 59 34 60 33 61 52 62 53 63 57 64 54 65 56 66 55 67
REMARK SMILES IDX 42 68 43 69 47 70 44 71 46 72 45 73
REMARK H PARENT 14 5 10 10 18 22 62 41 40 52
REMARK Flexibility Score: inf
ROOT
ATOM      1  C   UNL A   1      45.703  19.417  24.448  1.00  0.00     0.117 C 
ENDROOT
BRANCH   1   2
ATOM      2  N   UNL A   1      45.006  20.443  23.693  1.00  0.00    -0.355 N 
ATOM      3  C   UNL A   1      45.066  21.799  23.842  1.00  0.00     0.239 C 
ATOM      4  O   UNL A   1      44.318  22.499  23.155  1.00  0.00    -0.273 OA
ATOM      5  H   UNL A   1      44.409  20.118  22.981  1.00  0.00     0.163 HD
BRANCH   3   6
ATOM      6  C   UNL A   1      46.024  22.418  24.858  1.00  0.00     0.216 C 
BRANCH   6   7
ATOM      7  N   UNL A   1      45.542  23.697  25.349  1.00  0.00    -0.343 N 
ATOM      8  O   UNL A   1      47.125  24.936  24.257  1.00  0.00    -0.270 OA
ATOM      9  C   UNL A   1      46.143  24.870  24.992  1.00  0.00     0.244 C 
ATOM     10  H   UNL A   1      44.764  23.719  25.953  1.00  0.00     0.164 HD
BRANCH   9  11
ATOM     11  C   UNL A   1      45.555  26.129  25.508  1.00  0.00     0.072 C 
ATOM     12  C   UNL A   1      44.295  26.559  25.341  1.00  0.00     0.024 C 
BRANCH  12  13
ATOM     13  C   UNL A   1      43.850  27.784  25.925  1.00  0.00     0.027 A 
ATOM     14  C   UNL A   1      42.595  28.375  25.943  1.00  0.00     0.020 A 
ATOM     15  S   UNL A   1      44.980  28.768  26.782  1.00  0.00    -0.144 S 
ATOM     16  C   UNL A   1      42.570  29.624  26.629  1.00  0.00     0.012 A 
ATOM     17  C   UNL A   1      43.806  29.958  27.127  1.00  0.00     0.065 A 
ENDBRANCH  12  13
ENDBRANCH   9  11
ENDBRANCH   6   7
ENDBRANCH   3   6
ENDBRANCH   1   2
BRANCH   1  18
ATOM     18  C   UNL A   1      44.743  18.359  24.990  1.00  0.00     0.042 C 
BRANCH  18  19
ATOM     19  C   UNL A   1      43.834  18.857  26.112  1.00  0.00     0.118 C 
BRANCH  19  20
ATOM     20  N   UNL A   1      42.420  18.760  25.778  1.00  0.00    -0.352 N 
ATOM     21  C   UNL A   1      41.388  19.629  26.020  1.00  0.00     0.251 C 
ATOM     22  H   UNL A   1      42.164  17.938  25.301  1.00  0.00     0.163 HD
ATOM     23  O   UNL A   1      40.233  19.273  25.792  1.00  0.00    -0.269 OA
BRANCH  21  24
ATOM     24  C   UNL A   1      41.636  20.982  26.564  1.00  0.00     0.039 A 
ATOM     25  C   UNL A   1      41.520  21.178  27.945  1.00  0.00     0.014 A 
ATOM     26  C   UNL A   1      41.928  22.065  25.731  1.00  0.00     0.014 A 
ATOM     27  C   UNL A   1      41.752  22.441  28.495  1.00  0.00     0.010 A 
ATOM     28  C   UNL A   1      42.218  23.313  26.286  1.00  0.00     0.010 A 
ATOM     29  C   UNL A   1      42.133  23.513  27.673  1.00  0.00    -0.014 A 
BRANCH  29  30
ATOM     30  C   UNL A   1      42.451  24.845  28.247  1.00  0.00     0.031 A 
ATOM     31  C   UNL A   1      43.839  25.152  28.738  1.00  0.00     0.074 A 
ATOM     32  C   UNL A   1      41.474  25.763  28.379  1.00  0.00     0.049 A 
ATOM     33  N   UNL A   1      44.283  26.227  29.339  1.00  0.00    -0.248 NA
ATOM     34  C   UNL A   1      44.858  24.108  28.543  1.00  0.00     0.031 C 
ATOM     35  C   UNL A   1      40.079  25.585  27.968  1.00  0.00     0.029 A 
ATOM     36  N   UNL A   1      41.504  27.029  28.908  1.00  0.00    -0.354 N 
ATOM     37  C   UNL A   1      45.625  25.984  29.608  1.00  0.00     0.074 A 
ATOM     38  C   UNL A   1      45.913  24.646  29.139  1.00  0.00     0.031 C 
ATOM     39  C   UNL A   1      39.394  26.706  28.244  1.00  0.00     0.029 A 
ATOM     40  C   UNL A   1      40.287  27.665  28.886  1.00  0.00     0.049 A 
ATOM     41  H   UNL A   1      42.321  27.443  29.270  1.00  0.00     0.167 HD
ATOM     42  C   UNL A   1      46.538  26.806  30.178  1.00  0.00     0.031 A 
ATOM     43  C   UNL A   1      39.924  28.880  29.341  1.00  0.00     0.031 A 
ATOM     44  C   UNL A   1      46.260  28.141  30.635  1.00  0.00     0.049 A 
ATOM     45  C   UNL A   1      40.956  29.763  29.985  1.00  0.00     0.074 A 
ATOM     46  C   UNL A   1      47.131  29.061  31.194  1.00  0.00     0.029 A 
ATOM     47  N   UNL A   1      45.016  28.750  30.582  1.00  0.00    -0.354 N 
ATOM     48  N   UNL A   1      42.229  29.533  30.190  1.00  0.00    -0.248 NA
ATOM     49  C   UNL A   1      40.498  31.080  30.452  1.00  0.00     0.031 C 
ATOM     50  C   UNL A   1      46.407  30.214  31.512  1.00  0.00     0.029 A 
ATOM     51  C   UNL A   1      45.094  30.027  31.109  1.00  0.00     0.049 A 
ATOM     52  H   UNL A   1      44.199  28.335  30.222  1.00  0.00     0.167 HD
ATOM     53  C   UNL A   1      42.730  30.685  30.783  1.00  0.00     0.074 A 
ATOM     54  C   UNL A   1      41.628  31.617  30.891  1.00  0.00     0.031 C 
ATOM     55  C   UNL A   1      43.992  30.947  31.202  1.00  0.00     0.031 A 
BRANCH  42  56
ATOM     56  C   UNL A   1      47.937  26.281  30.340  1.00  0.00    -0.014 A 
ATOM     57  C   UNL A   1      48.870  26.380  29.295  1.00  0.00     0.009 A 
ATOM     58  C   UNL A   1      48.344  25.734  31.566  1.00  0.00     0.009 A 
ATOM     59  C   UNL A   1      50.175  25.915  29.468  1.00  0.00     0.001 A 
ATOM     60  C   UNL A   1      49.656  25.293  31.745  1.00  0.00     0.001 A 
ATOM     61  C   UNL A   1      50.568  25.377  30.694  1.00  0.00     0.000 A 
ENDBRANCH  42  56
BRANCH  43  62
ATOM     62  C   UNL A   1      38.520  29.343  29.203  1.00  0.00    -0.014 A 
ATOM     63  C   UNL A   1      38.084  29.952  28.017  1.00  0.00     0.009 A 
ATOM     64  C   UNL A   1      37.616  29.204  30.268  1.00  0.00     0.009 A 
ATOM     65  C   UNL A   1      36.781  30.443  27.911  1.00  0.00     0.001 A 
ATOM     66  C   UNL A   1      36.305  29.670  30.149  1.00  0.00     0.001 A 
ATOM     67  C   UNL A   1      35.892  30.300  28.976  1.00  0.00     0.000 A 
ENDBRANCH  43  62
BRANCH  55  68
ATOM     68  C   UNL A   1      44.255  32.308  31.775  1.00  0.00    -0.014 A 
ATOM     69  C   UNL A   1      44.629  33.384  30.956  1.00  0.00     0.009 A 
ATOM     70  C   UNL A   1      44.091  32.524  33.153  1.00  0.00     0.009 A 
ATOM     71  C   UNL A   1      44.865  34.643  31.511  1.00  0.00     0.001 A 
ATOM     72  C   UNL A   1      44.302  33.790  33.701  1.00  0.00     0.001 A 
ATOM     73  C   UNL A   1      44.697  34.846  32.881  1.00  0.00     0.000 A 
ENDBRANCH  55  68
ENDBRANCH  29  30
ENDBRANCH  21  24
ENDBRANCH  19  20
ENDBRANCH  18  19
ENDBRANCH   1  18
TORSDOF 13
ENDMDL
MODEL 2
REMARK VINA RESULT:      -9.1      0.639      6.228
REMARK SMILES O=C(/C=C/c1cccs1)NCC(=O)NCCCNC(=O)c1ccc(-c2c3nc(c(-c4ccccc4)c4ccc([nH]4)c(-c4ccccc4)c4nc(c(-c5ccccc5)c5ccc2[nH]5)C=C4)C=C3)cc1
REMARK SMILES IDX 15 1 14 2 12 3 13 4 11 6 10 7 1 8 2 9 3 11 4 12 5 13 6 14
REMARK SMILES IDX 9 15 7 16 8 17 16 18 17 19 18 20 19 21 20 23 21 24 22 25
REMARK SMILES IDX 68 26 23 27 67 28 24 29 25 30 26 31 61 32 27 33 66 34 60 35
REMARK SMILES IDX 62 36 28 37 65 38 59 39 58 40 29 42 51 43 36 44 50 45 37 46
REMARK SMILES IDX 40 47 49 48 63 49 38 50 39 51 48 53 64 54 41 55 30 56 31 57
REMARK SMILES IDX 35 58 32 59 34 60 33 61 52 62 53 63 57 64 54 65 56 66 55 67
REMARK SMILES IDX 42 68 43 69 47 70 44 71 46 72 45 73
REMARK H PARENT 14 5 10 10 18 22 62 41 40 52
REMARK Flexibility Score: inf
ROOT
ATOM      1  C   UNL A   1      45.524  19.621  24.471  1.00  0.00     0.117 C 
ENDROOT
BRANCH   1   2
ATOM      2  N   UNL A   1      44.918  20.684  23.689  1.00  0.00    -0.355 N 
ATOM      3  C   UNL A   1      45.044  22.035  23.845  1.00  0.00     0.239 C 
ATOM      4  O   UNL A   1      44.367  22.775  23.127  1.00  0.00    -0.273 OA
ATOM      5  H   UNL A   1      44.338  20.392  22.949  1.00  0.00     0.163 HD
BRANCH   3   6
ATOM      6  C   UNL A   1      45.986  22.600  24.906  1.00  0.00     0.216 C 
BRANCH   6   7
ATOM      7  N   UNL A   1      45.552  23.903  25.379  1.00  0.00    -0.343 N 
ATOM      8  O   UNL A   1      47.216  25.062  24.321  1.00  0.00    -0.270 OA
ATOM      9  C   UNL A   1      46.215  25.044  25.032  1.00  0.00     0.244 C 
ATOM     10  H   UNL A   1      44.761  23.964  25.964  1.00  0.00     0.164 HD
BRANCH   9  11
ATOM     11  C   UNL A   1      45.672  26.332  25.528  1.00  0.00     0.072 C 
ATOM     12  C   UNL A   1      46.374  27.395  25.949  1.00  0.00     0.024 C 
BRANCH  12  13
ATOM     13  C   UNL A   1      45.719  28.592  26.371  1.00  0.00     0.027 A 
ATOM     14  C   UNL A   1      44.378  28.854  26.613  1.00  0.00     0.020 A 
ATOM     15  S   UNL A   1      46.661  30.008  26.665  1.00  0.00    -0.144 S 
ATOM     16  C   UNL A   1      44.130  30.200  27.010  1.00  0.00     0.012 A 
ATOM     17  C   UNL A   1      45.288  30.937  27.071  1.00  0.00     0.065 A 
ENDBRANCH  12  13
ENDBRANCH   9  11
ENDBRANCH   6   7
ENDBRANCH   3   6
ENDBRANCH   1   2
BRANCH   1  18
ATOM     18  C   UNL A   1      44.519  18.520  24.808  1.00  0.00     0.042 C 
BRANCH  18  19
ATOM     19  C   UNL A   1      43.653  18.818  26.032  1.00  0.00     0.118 C 
BRANCH  19  20
ATOM     20  N   UNL A   1      42.228  18.777  25.738  1.00  0.00    -0.352 N 
ATOM     21  C   UNL A   1      41.235  19.679  26.023  1.00  0.00     0.251 C 
ATOM     22  H   UNL A   1      41.929  17.973  25.256  1.00  0.00     0.163 HD
ATOM     23  O   UNL A   1      40.062  19.368  25.824  1.00  0.00    -0.269 OA
BRANCH  21  24
ATOM     24  C   UNL A   1      41.549  21.013  26.581  1.00  0.00     0.039 A 
ATOM     25  C   UNL A   1      41.440  21.201  27.963  1.00  0.00     0.014 A 
ATOM     26  C   UNL A   1      41.894  22.088  25.758  1.00  0.00     0.014 A 
ATOM     27  C   UNL A   1      41.733  22.446  28.525  1.00  0.00     0.010 A 
ATOM     28  C   UNL A   1      42.243  23.315  26.325  1.00  0.00     0.010 A 
ATOM     29  C   UNL A   1      42.167  23.506  27.713  1.00  0.00    -0.014 A 
BRANCH  29  30
ATOM     30  C   UNL A   1      42.549  24.815  28.300  1.00  0.00     0.031 A 
ATOM     31  C   UNL A   1      41.521  25.900  28.477  1.00  0.00     0.074 A 
ATOM     32  C   UNL A   1      43.836  25.051  28.623  1.00  0.00     0.049 A 
ATOM     33  N   UNL A   1      41.684  27.130  28.897  1.00  0.00    -0.248 NA
ATOM     34  C   UNL A   1      40.134  25.564  28.122  1.00  0.00     0.031 C 
ATOM     35  C   UNL A   1      44.937  24.095  28.477  1.00  0.00     0.029 A 
ATOM     36  N   UNL A   1      44.438  26.174  29.132  1.00  0.00    -0.354 N 
ATOM     37  C   UNL A   1      40.426  27.718  28.842  1.00  0.00     0.074 A 
ATOM     38  C   UNL A   1      39.518  26.723  28.311  1.00  0.00     0.031 C 
ATOM     39  C   UNL A   1      46.074  24.667  28.903  1.00  0.00     0.029 A 
ATOM     40  C   UNL A   1      45.792  26.038  29.315  1.00  0.00     0.049 A 
ATOM     41  H   UNL A   1      43.946  26.999  29.346  1.00  0.00     0.167 HD
ATOM     42  C   UNL A   1      40.056  28.967  29.213  1.00  0.00     0.031 A 
ATOM     43  C   UNL A   1      46.709  26.922  29.754  1.00  0.00     0.031 A 
ATOM     44  C   UNL A   1      40.952  29.955  29.751  1.00  0.00     0.049 A 
ATOM     45  C   UNL A   1      46.272  28.307  30.142  1.00  0.00     0.074 A 
ATOM     46  C   UNL A   1      40.659  31.236  30.189  1.00  0.00     0.029 A 
ATOM     47  N   UNL A   1      42.313  29.771  29.931  1.00  0.00    -0.354 N 
ATOM     48  N   UNL A   1      45.072  28.830  30.123  1.00  0.00    -0.248 NA
ATOM     49  C   UNL A   1      47.321  29.219  30.621  1.00  0.00     0.031 C 
ATOM     50  C   UNL A   1      41.851  31.841  30.600  1.00  0.00     0.029 A 
ATOM     51  C   UNL A   1      42.877  30.920  30.460  1.00  0.00     0.049 A 
ATOM     52  H   UNL A   1      42.806  28.948  29.715  1.00  0.00     0.167 HD
ATOM     53  C   UNL A   1      45.215  30.121  30.614  1.00  0.00     0.074 A 
ATOM     54  C   UNL A   1      46.615  30.297  30.936  1.00  0.00     0.031 C 
ATOM     55  C   UNL A   1      44.269  31.077  30.783  1.00  0.00     0.031 A 
BRANCH  42  56
ATOM     56  C   UNL A   1      38.609  29.338  29.050  1.00  0.00    -0.014 A 
ATOM     57  C   UNL A   1      38.106  29.754  27.807  1.00  0.00     0.009 A 
ATOM     58  C   UNL A   1      37.728  29.219  30.135  1.00  0.00     0.009 A 
ATOM     59  C   UNL A   1      36.754  30.068  27.662  1.00  0.00     0.001 A 
ATOM     60  C   UNL A   1      36.371  29.510  29.981  1.00  0.00     0.001 A 
ATOM     61  C   UNL A   1      35.887  29.941  28.747  1.00  0.00     0.000 A 
ENDBRANCH  42  56
BRANCH  43  62
ATOM     62  C   UNL A   1      48.138  26.529  29.856  1.00  0.00    -0.014 A 
ATOM     63  C   UNL A   1      49.016  26.752  28.785  1.00  0.00     0.009 A 
ATOM     64  C   UNL A   1      48.624  25.902  31.014  1.00  0.00     0.009 A 
ATOM     65  C   UNL A   1      50.344  26.326  28.858  1.00  0.00     0.001 A 
ATOM     66  C   UNL A   1      49.960  25.503  31.095  1.00  0.00     0.001 A 
ATOM     67  C   UNL A   1      50.815  25.705  30.014  1.00  0.00     0.000 A 
ENDBRANCH  43  62
BRANCH  55  68
ATOM     68  C   UNL A   1      44.713  32.381  31.379  1.00  0.00    -0.014 A 
ATOM     69  C   UNL A   1      44.738  32.577  32.768  1.00  0.00     0.009 A 
ATOM     70  C   UNL A   1      45.145  33.417  30.536  1.00  0.00     0.009 A 
ATOM     71  C   UNL A   1      45.158  33.797  33.300  1.00  0.00     0.001 A 
ATOM     72  C   UNL A   1      45.589  34.627  31.072  1.00  0.00     0.001 A 
ATOM     73  C   UNL A   1      45.587  34.819  32.453  1.00  0.00     0.000 A 
ENDBRANCH  55  68
ENDBRANCH  29  30
ENDBRANCH  21  24
ENDBRANCH  19  20
ENDBRANCH  18  19
ENDBRANCH   1  18
TORSDOF 13
ENDMDL
MODEL 3
REMARK VINA RESULT:      -8.4      4.845     10.724
REMARK SMILES O=C(/C=C/c1cccs1)NCC(=O)NCCCNC(=O)c1ccc(-c2c3nc(c(-c4ccccc4)c4ccc([nH]4)c(-c4ccccc4)c4nc(c(-c5ccccc5)c5ccc2[nH]5)C=C4)C=C3)cc1
REMARK SMILES IDX 15 1 14 2 12 3 13 4 11 6 10 7 1 8 2 9 3 11 4 12 5 13 6 14
REMARK SMILES IDX 9 15 7 16 8 17 16 18 17 19 18 20 19 21 20 23 21 24 22 25
REMARK SMILES IDX 68 26 23 27 67 28 24 29 25 30 26 31 61 32 27 33 66 34 60 35
REMARK SMILES IDX 62 36 28 37 65 38 59 39 58 40 29 42 51 43 36 44 50 45 37 46
REMARK SMILES IDX 40 47 49 48 63 49 38 50 39 51 48 53 64 54 41 55 30 56 31 57
REMARK SMILES IDX 35 58 32 59 34 60 33 61 52 62 53 63 57 64 54 65 56 66 55 67
REMARK SMILES IDX 42 68 43 69 47 70 44 71 46 72 45 73
REMARK H PARENT 14 5 10 10 18 22 62 41 40 52
REMARK Flexibility Score: inf
ROOT
ATOM      1  C   UNL A   1      33.141  34.804  29.283  1.00  0.00     0.117 C 
ENDROOT
BRANCH   1   2
ATOM      2  N   UNL A   1      33.137  36.176  29.760  1.00  0.00    -0.355 N 
ATOM      3  C   UNL A   1      33.011  36.633  31.041  1.00  0.00     0.239 C 
ATOM      4  O   UNL A   1      32.939  37.850  31.226  1.00  0.00    -0.273 OA
ATOM      5  H   UNL A   1      33.238  36.869  29.068  1.00  0.00     0.163 HD
BRANCH   3   6
ATOM      6  C   UNL A   1      32.936  35.645  32.203  1.00  0.00     0.216 C 
BRANCH   6   7
ATOM      7  N   UNL A   1      34.222  35.023  32.469  1.00  0.00    -0.343 N 
ATOM      8  O   UNL A   1      33.337  33.025  33.146  1.00  0.00    -0.270 OA
ATOM      9  C   UNL A   1      34.311  33.737  32.921  1.00  0.00     0.244 C 
ATOM     10  H   UNL A   1      35.047  35.539  32.321  1.00  0.00     0.164 HD
BRANCH   9  11
ATOM     11  C   UNL A   1      35.667  33.172  33.122  1.00  0.00     0.072 C 
ATOM     12  C   UNL A   1      36.356  33.118  34.272  1.00  0.00     0.024 C 
BRANCH  12  13
ATOM     13  C   UNL A   1      37.648  32.512  34.331  1.00  0.00     0.027 A 
ATOM     14  C   UNL A   1      38.847  32.983  34.844  1.00  0.00     0.020 A 
ATOM     15  S   UNL A   1      37.862  30.922  33.691  1.00  0.00    -0.144 S 
ATOM     16  C   UNL A   1      39.925  32.064  34.692  1.00  0.00     0.012 A 
ATOM     17  C   UNL A   1      39.525  30.905  34.072  1.00  0.00     0.065 A 
ENDBRANCH  12  13
ENDBRANCH   9  11
ENDBRANCH   6   7
ENDBRANCH   3   6
ENDBRANCH   1   2
BRANCH   1  18
ATOM     18  C   UNL A   1      34.554  34.319  28.961  1.00  0.00     0.042 C 
BRANCH  18  19
ATOM     19  C   UNL A   1      34.850  32.897  29.438  1.00  0.00     0.118 C 
BRANCH  19  20
ATOM     20  N   UNL A   1      34.132  31.886  28.675  1.00  0.00    -0.352 N 
ATOM     21  C   UNL A   1      34.566  30.699  28.145  1.00  0.00     0.251 C 
ATOM     22  H   UNL A   1      33.182  32.087  28.515  1.00  0.00     0.163 HD
ATOM     23  O   UNL A   1      33.826  30.068  27.391  1.00  0.00    -0.269 OA
BRANCH  21  24
ATOM     24  C   UNL A   1      35.914  30.169  28.450  1.00  0.00     0.039 A 
ATOM     25  C   UNL A   1      36.896  30.230  27.455  1.00  0.00     0.014 A 
ATOM     26  C   UNL A   1      36.205  29.570  29.678  1.00  0.00     0.014 A 
ATOM     27  C   UNL A   1      38.181  29.745  27.709  1.00  0.00     0.010 A 
ATOM     28  C   UNL A   1      37.504  29.139  29.952  1.00  0.00     0.010 A 
ATOM     29  C   UNL A   1      38.504  29.222  28.971  1.00  0.00    -0.014 A 
BRANCH  29  30
ATOM     30  C   UNL A   1      39.882  28.765  29.282  1.00  0.00     0.031 A 
ATOM     31  C   UNL A   1      40.842  29.672  30.003  1.00  0.00     0.074 A 
ATOM     32  C   UNL A   1      40.291  27.551  28.864  1.00  0.00     0.049 A 
ATOM     33  N   UNL A   1      42.105  29.476  30.289  1.00  0.00    -0.248 NA
ATOM     34  C   UNL A   1      40.319  30.974  30.445  1.00  0.00     0.031 C 
ATOM     35  C   UNL A   1      39.470  26.583  28.133  1.00  0.00     0.029 A 
ATOM     36  N   UNL A   1      41.507  26.927  28.988  1.00  0.00    -0.354 N 
ATOM     37  C   UNL A   1      42.531  30.634  30.930  1.00  0.00     0.074 A 
ATOM     38  C   UNL A   1      41.404  31.541  30.956  1.00  0.00     0.031 C 
ATOM     39  C   UNL A   1      40.200  25.483  27.889  1.00  0.00     0.029 A 
ATOM     40  C   UNL A   1      41.548  25.681  28.410  1.00  0.00     0.049 A 
ATOM     41  H   UNL A   1      42.277  27.333  29.447  1.00  0.00     0.167 HD
ATOM     42  C   UNL A   1      43.745  30.910  31.462  1.00  0.00     0.031 A 
ATOM     43  C   UNL A   1      42.561  24.800  28.300  1.00  0.00     0.031 A 
ATOM     44  C   UNL A   1      44.865  30.008  31.450  1.00  0.00     0.049 A 
ATOM     45  C   UNL A   1      43.903  25.142  28.885  1.00  0.00     0.074 A 
ATOM     46  C   UNL A   1      46.124  30.189  31.997  1.00  0.00     0.029 A 
ATOM     47  N   UNL A   1      44.859  28.752  30.865  1.00  0.00    -0.354 N 
ATOM     48  N   UNL A   1      44.274  26.223  29.526  1.00  0.00    -0.248 NA
ATOM     49  C   UNL A   1      44.963  24.134  28.740  1.00  0.00     0.031 C 
ATOM     50  C   UNL A   1      46.893  29.056  31.711  1.00  0.00     0.029 A 
ATOM     51  C   UNL A   1      46.097  28.152  31.026  1.00  0.00     0.049 A 
ATOM     52  H   UNL A   1      44.090  28.347  30.404  1.00  0.00     0.167 HD
ATOM     53  C   UNL A   1      45.599  26.014  29.883  1.00  0.00     0.074 A 
ATOM     54  C   UNL A   1      45.963  24.698  29.402  1.00  0.00     0.031 C 
ATOM     55  C   UNL A   1      46.441  26.840  30.551  1.00  0.00     0.031 A 
BRANCH  42  56
ATOM     56  C   UNL A   1      43.927  32.254  32.111  1.00  0.00    -0.014 A 
ATOM     57  C   UNL A   1      44.402  33.352  31.376  1.00  0.00     0.009 A 
ATOM     58  C   UNL A   1      43.568  32.439  33.455  1.00  0.00     0.009 A 
ATOM     59  C   UNL A   1      44.540  34.601  31.983  1.00  0.00     0.001 A 
ATOM     60  C   UNL A   1      43.684  33.695  34.052  1.00  0.00     0.001 A 
ATOM     61  C   UNL A   1      44.176  34.773  33.318  1.00  0.00     0.000 A 
ENDBRANCH  42  56
BRANCH  43  62
ATOM     62  C   UNL A   1      42.352  23.501  27.610  1.00  0.00    -0.014 A 
ATOM     63  C   UNL A   1      42.636  23.368  26.243  1.00  0.00     0.009 A 
ATOM     64  C   UNL A   1      41.839  22.397  28.309  1.00  0.00     0.009 A 
ATOM     65  C   UNL A   1      42.381  22.165  25.581  1.00  0.00     0.001 A 
ATOM     66  C   UNL A   1      41.612  21.187  27.651  1.00  0.00     0.001 A 
ATOM     67  C   UNL A   1      41.871  21.075  26.286  1.00  0.00     0.000 A 
ENDBRANCH  43  62
BRANCH  55  68
ATOM     68  C   UNL A   1      47.822  26.326  30.835  1.00  0.00    -0.014 A 
ATOM     69  C   UNL A   1      48.861  26.473  29.903  1.00  0.00     0.009 A 
ATOM     70  C   UNL A   1      48.095  25.717  32.070  1.00  0.00     0.009 A 
ATOM     71  C   UNL A   1      50.138  25.990  30.190  1.00  0.00     0.001 A 
ATOM     72  C   UNL A   1      49.380  25.259  32.365  1.00  0.00     0.001 A 
ATOM     73  C   UNL A   1      50.398  25.388  31.422  1.00  0.00     0.000 A 
ENDBRANCH  55  68
ENDBRANCH  29  30
ENDBRANCH  21  24
ENDBRANCH  19  20
ENDBRANCH  18  19
ENDBRANCH   1  18
TORSDOF 13
ENDMDL
