MODEL 1
REMARK VINA RESULT:     -12.2      0.000      0.000
REMARK SMILES CC(C)(C)OC(=O)N1CCC[C@H]1C(=O)N1CCC[C@H]1C(=O)N1CCC[C@@H]1C(=O)NCCCNC(=O)c1ccc(-c2c3nc(c(-c4ccccc4)c4ccc([nH]4)c(-c4ccccc4)c4nc(c(-c5ccccc5)c5ccc2[nH]5)C=C4)C=C3)cc1
REMARK SMILES IDX 22 1 23 2 24 3 25 4 26 5 20 6 21 7 19 8 15 9 16 10 17 11
REMARK SMILES IDX 18 12 13 13 14 14 12 15 8 16 9 17 10 18 11 19 6 20 7 21 5 22
REMARK SMILES IDX 2 23 1 24 3 25 4 26 27 27 28 28 29 29 30 31 31 32 32 33
REMARK SMILES IDX 33 34 34 35 35 37 36 38 37 39 83 40 38 41 82 42 39 43 40 44
REMARK SMILES IDX 41 45 76 46 42 47 81 48 75 49 77 50 43 51 80 52 74 53 73 54
REMARK SMILES IDX 44 56 66 57 51 58 65 59 52 60 55 61 64 62 78 63 53 64 54 65
REMARK SMILES IDX 63 67 79 68 56 69 45 70 46 71 50 72 47 73 49 74 48 75 67 76
REMARK SMILES IDX 68 77 72 78 69 79 71 80 70 81 57 82 58 83 62 84 59 85 61 86
REMARK SMILES IDX 60 87
REMARK H PARENT 29 30 33 36 77 55 55 66
REMARK Flexibility Score: inf
ROOT
ATOM      1  N   UNL A   1      33.636  22.163  24.169  1.00  0.00    -0.329 N 
ATOM      2  C   UNL A   1      32.665  21.486  23.335  1.00  0.00     0.120 C 
ATOM      3  C   UNL A   1      32.403  20.193  24.081  1.00  0.00     0.024 C 
ATOM      4  C   UNL A   1      33.762  19.852  24.705  1.00  0.00     0.037 C 
ATOM      5  C   UNL A   1      34.579  21.152  24.637  1.00  0.00     0.174 C 
ENDROOT
BRANCH   1   6
ATOM      6  C   UNL A   1      34.128  23.385  23.762  1.00  0.00     0.246 C 
ATOM      7  O   UNL A   1      34.943  23.448  22.837  1.00  0.00    -0.272 OA
BRANCH   6   8
ATOM      8  C   UNL A   1      33.502  24.672  24.371  1.00  0.00     0.174 C 
ATOM      9  N   UNL A   1      32.539  25.481  23.601  1.00  0.00    -0.329 N 
ATOM     10  C   UNL A   1      31.193  25.179  24.041  1.00  0.00     0.120 C 
ATOM     11  C   UNL A   1      31.349  24.990  25.528  1.00  0.00     0.024 C 
ATOM     12  C   UNL A   1      32.669  24.229  25.612  1.00  0.00     0.037 C 
BRANCH   9  13
ATOM     13  C   UNL A   1      32.917  26.447  22.699  1.00  0.00     0.246 C 
ATOM     14  O   UNL A   1      33.595  26.156  21.706  1.00  0.00    -0.272 OA
BRANCH  13  15
ATOM     15  C   UNL A   1      32.713  27.962  22.982  1.00  0.00     0.178 C 
ATOM     16  N   UNL A   1      31.490  28.459  23.589  1.00  0.00    -0.296 N 
ATOM     17  C   UNL A   1      31.700  28.851  24.966  1.00  0.00     0.124 C 
ATOM     18  C   UNL A   1      33.136  29.341  24.953  1.00  0.00     0.024 C 
ATOM     19  C   UNL A   1      33.818  28.386  23.978  1.00  0.00     0.037 C 
BRANCH  16  20
ATOM     20  C   UNL A   1      30.400  28.775  22.813  1.00  0.00     0.410 C 
ATOM     21  O   UNL A   1      30.201  28.248  21.735  1.00  0.00    -0.224 OA
BRANCH  20  22
ATOM     22  O   UNL A   1      29.580  29.655  23.436  1.00  0.00    -0.444 OA
BRANCH  22  23
ATOM     23  C   UNL A   1      28.305  30.067  22.871  1.00  0.00     0.106 C 
ATOM     24  C   UNL A   1      27.886  31.298  23.684  1.00  0.00     0.056 C 
ATOM     25  C   UNL A   1      27.306  28.931  23.116  1.00  0.00     0.056 C 
ATOM     26  C   UNL A   1      28.333  30.457  21.391  1.00  0.00     0.056 C 
ENDBRANCH  22  23
ENDBRANCH  20  22
ENDBRANCH  16  20
ENDBRANCH  13  15
ENDBRANCH   9  13
ENDBRANCH   6   8
ENDBRANCH   1   6
BRANCH   5  27
ATOM     27  C   UNL A   1      35.285  21.503  25.955  1.00  0.00     0.242 C 
ATOM     28  O   UNL A   1      34.635  21.727  26.981  1.00  0.00    -0.273 OA
ATOM     29  N   UNL A   1      36.629  21.690  26.033  1.00  0.00    -0.354 N 
ATOM     30  H   UNL A   1      36.972  21.858  26.940  1.00  0.00     0.163 HD
BRANCH  29  31
ATOM     31  C   UNL A   1      37.638  21.681  24.992  1.00  0.00     0.117 C 
BRANCH  31  32
ATOM     32  C   UNL A   1      38.431  20.386  24.968  1.00  0.00     0.042 C 
BRANCH  32  33
ATOM     33  C   UNL A   1      39.347  20.191  26.169  1.00  0.00     0.118 C 
BRANCH  33  34
ATOM     34  N   UNL A   1      40.518  19.362  25.910  1.00  0.00    -0.352 N 
ATOM     35  C   UNL A   1      41.849  19.656  26.084  1.00  0.00     0.251 C 
ATOM     36  H   UNL A   1      40.328  18.462  25.562  1.00  0.00     0.163 HD
ATOM     37  O   UNL A   1      42.717  18.816  25.880  1.00  0.00    -0.269 OA
BRANCH  35  38
ATOM     38  C   UNL A   1      42.226  21.008  26.523  1.00  0.00     0.039 A 
ATOM     39  C   UNL A   1      42.558  21.976  25.572  1.00  0.00     0.014 A 
ATOM     40  C   UNL A   1      42.202  21.316  27.883  1.00  0.00     0.014 A 
ATOM     41  C   UNL A   1      42.809  23.285  25.987  1.00  0.00     0.010 A 
ATOM     42  C   UNL A   1      42.362  22.634  28.283  1.00  0.00     0.010 A 
ATOM     43  C   UNL A   1      42.679  23.629  27.342  1.00  0.00    -0.014 A 
BRANCH  43  44
ATOM     44  C   UNL A   1      42.908  25.007  27.837  1.00  0.00     0.031 A 
ATOM     45  C   UNL A   1      44.284  25.394  28.305  1.00  0.00     0.074 A 
ATOM     46  C   UNL A   1      41.874  25.858  27.980  1.00  0.00     0.049 A 
ATOM     47  N   UNL A   1      44.671  26.462  28.952  1.00  0.00    -0.248 NA
ATOM     48  C   UNL A   1      45.362  24.422  28.049  1.00  0.00     0.031 C 
ATOM     49  C   UNL A   1      40.487  25.585  27.598  1.00  0.00     0.029 A 
ATOM     50  N   UNL A   1      41.831  27.121  28.513  1.00  0.00    -0.354 N 
ATOM     51  C   UNL A   1      46.019  26.269  29.222  1.00  0.00     0.074 A 
ATOM     52  C   UNL A   1      46.376  24.966  28.705  1.00  0.00     0.031 C 
ATOM     53  C   UNL A   1      39.732  26.655  27.897  1.00  0.00     0.029 A 
ATOM     54  C   UNL A   1      40.570  27.667  28.532  1.00  0.00     0.049 A 
ATOM     55  H   UNL A   1      42.627  27.592  28.849  1.00  0.00     0.167 HD
ATOM     56  C   UNL A   1      46.888  27.107  29.833  1.00  0.00     0.031 A 
ATOM     57  C   UNL A   1      40.139  28.843  29.023  1.00  0.00     0.031 A 
ATOM     58  C   UNL A   1      46.538  28.416  30.308  1.00  0.00     0.049 A 
ATOM     59  C   UNL A   1      41.129  29.770  29.673  1.00  0.00     0.074 A 
ATOM     60  C   UNL A   1      47.356  29.376  30.875  1.00  0.00     0.029 A 
ATOM     61  N   UNL A   1      45.259  28.952  30.262  1.00  0.00    -0.354 N 
ATOM     62  N   UNL A   1      42.413  29.597  29.875  1.00  0.00    -0.248 NA
ATOM     63  C   UNL A   1      40.610  31.059  30.154  1.00  0.00     0.031 C 
ATOM     64  C   UNL A   1      46.564  30.481  31.205  1.00  0.00     0.029 A 
ATOM     65  C   UNL A   1      45.264  30.225  30.802  1.00  0.00     0.049 A 
ATOM     66  H   UNL A   1      44.468  28.493  29.899  1.00  0.00     0.167 HD
ATOM     67  C   UNL A   1      42.862  30.763  30.482  1.00  0.00     0.074 A 
ATOM     68  C   UNL A   1      41.714  31.641  30.602  1.00  0.00     0.031 C 
ATOM     69  C   UNL A   1      44.109  31.080  30.904  1.00  0.00     0.031 A 
BRANCH  56  70
ATOM     70  C   UNL A   1      48.298  26.622  30.025  1.00  0.00    -0.014 A 
ATOM     71  C   UNL A   1      49.298  26.886  29.075  1.00  0.00     0.009 A 
ATOM     72  C   UNL A   1      48.637  25.905  31.183  1.00  0.00     0.009 A 
ATOM     73  C   UNL A   1      50.595  26.405  29.259  1.00  0.00     0.001 A 
ATOM     74  C   UNL A   1      49.943  25.452  31.381  1.00  0.00     0.001 A 
ATOM     75  C   UNL A   1      50.918  25.693  30.414  1.00  0.00     0.000 A 
ENDBRANCH  56  70
BRANCH  57  76
ATOM     76  C   UNL A   1      38.706  29.221  28.907  1.00  0.00    -0.014 A 
ATOM     77  C   UNL A   1      37.842  29.060  29.999  1.00  0.00     0.009 A 
ATOM     78  C   UNL A   1      38.195  29.744  27.709  1.00  0.00     0.009 A 
ATOM     79  C   UNL A   1      36.488  29.390  29.888  1.00  0.00     0.001 A 
ATOM     80  C   UNL A   1      36.848  30.098  27.608  1.00  0.00     0.001 A 
ATOM     81  C   UNL A   1      35.994  29.913  28.694  1.00  0.00     0.000 A 
ENDBRANCH  57  76
BRANCH  69  82
ATOM     82  C   UNL A   1      44.304  32.445  31.497  1.00  0.00    -0.014 A 
ATOM     83  C   UNL A   1      44.220  32.657  32.880  1.00  0.00     0.009 A 
ATOM     84  C   UNL A   1      44.623  33.524  30.657  1.00  0.00     0.009 A 
ATOM     85  C   UNL A   1      44.421  33.933  33.410  1.00  0.00     0.001 A 
ATOM     86  C   UNL A   1      44.849  34.793  31.192  1.00  0.00     0.001 A 
ATOM     87  C   UNL A   1      44.740  34.997  32.567  1.00  0.00     0.000 A 
ENDBRANCH  69  82
ENDBRANCH  43  44
ENDBRANCH  35  38
ENDBRANCH  33  34
ENDBRANCH  32  33
ENDBRANCH  31  32
ENDBRANCH  29  31
ENDBRANCH   5  27
TORSDOF 17
ENDMDL
MODEL 2
REMARK VINA RESULT:     -12.2      1.338      5.777
REMARK SMILES CC(C)(C)OC(=O)N1CCC[C@H]1C(=O)N1CCC[C@H]1C(=O)N1CCC[C@@H]1C(=O)NCCCNC(=O)c1ccc(-c2c3nc(c(-c4ccccc4)c4ccc([nH]4)c(-c4ccccc4)c4nc(c(-c5ccccc5)c5ccc2[nH]5)C=C4)C=C3)cc1
REMARK SMILES IDX 22 1 23 2 24 3 25 4 26 5 20 6 21 7 19 8 15 9 16 10 17 11
REMARK SMILES IDX 18 12 13 13 14 14 12 15 8 16 9 17 10 18 11 19 6 20 7 21 5 22
REMARK SMILES IDX 2 23 1 24 3 25 4 26 27 27 28 28 29 29 30 31 31 32 32 33
REMARK SMILES IDX 33 34 34 35 35 37 36 38 37 39 83 40 38 41 82 42 39 43 40 44
REMARK SMILES IDX 41 45 76 46 42 47 81 48 75 49 77 50 43 51 80 52 74 53 73 54
REMARK SMILES IDX 44 56 66 57 51 58 65 59 52 60 55 61 64 62 78 63 53 64 54 65
REMARK SMILES IDX 63 67 79 68 56 69 45 70 46 71 50 72 47 73 49 74 48 75 67 76
REMARK SMILES IDX 68 77 72 78 69 79 71 80 70 81 57 82 58 83 62 84 59 85 61 86
REMARK SMILES IDX 60 87
REMARK H PARENT 29 30 33 36 77 55 55 66
REMARK Flexibility Score: inf
ROOT
ATOM      1  N   UNL A   1      33.402  22.275  24.114  1.00  0.00    -0.329 N 
ATOM      2  C   UNL A   1      32.480  21.532  23.279  1.00  0.00     0.120 C 
ATOM      3  C   UNL A   1      32.266  20.245  24.051  1.00  0.00     0.024 C 
ATOM      4  C   UNL A   1      33.628  19.985  24.707  1.00  0.00     0.037 C 
ATOM      5  C   UNL A   1      34.383  21.321  24.622  1.00  0.00     0.174 C 
ENDROOT
BRANCH   1   6
ATOM      6  C   UNL A   1      33.841  23.509  23.686  1.00  0.00     0.246 C 
ATOM      7  O   UNL A   1      34.639  23.592  22.748  1.00  0.00    -0.272 OA
BRANCH   6   8
ATOM      8  C   UNL A   1      33.178  24.779  24.292  1.00  0.00     0.174 C 
ATOM      9  N   UNL A   1      32.326  25.654  23.465  1.00  0.00    -0.329 N 
ATOM     10  C   UNL A   1      30.933  25.366  23.734  1.00  0.00     0.120 C 
ATOM     11  C   UNL A   1      30.914  25.094  25.216  1.00  0.00     0.024 C 
ATOM     12  C   UNL A   1      32.200  24.294  25.405  1.00  0.00     0.037 C 
BRANCH   9  13
ATOM     13  C   UNL A   1      32.825  26.656  22.666  1.00  0.00     0.246 C 
ATOM     14  O   UNL A   1      33.623  26.402  21.757  1.00  0.00    -0.272 OA
BRANCH  13  15
ATOM     15  C   UNL A   1      32.597  28.158  22.992  1.00  0.00     0.178 C 
ATOM     16  N   UNL A   1      31.335  28.630  23.535  1.00  0.00    -0.296 N 
ATOM     17  C   UNL A   1      31.450  28.970  24.936  1.00  0.00     0.124 C 
ATOM     18  C   UNL A   1      32.882  29.461  25.039  1.00  0.00     0.024 C 
ATOM     19  C   UNL A   1      33.631  28.545  24.077  1.00  0.00     0.037 C 
BRANCH  16  20
ATOM     20  C   UNL A   1      30.298  28.975  22.700  1.00  0.00     0.410 C 
ATOM     21  O   UNL A   1      30.123  28.426  21.628  1.00  0.00    -0.224 OA
BRANCH  20  22
ATOM     22  O   UNL A   1      29.496  29.913  23.258  1.00  0.00    -0.444 OA
BRANCH  22  23
ATOM     23  C   UNL A   1      28.148  30.171  22.778  1.00  0.00     0.106 C 
ATOM     24  C   UNL A   1      27.659  31.379  23.588  1.00  0.00     0.056 C 
ATOM     25  C   UNL A   1      27.295  28.947  23.124  1.00  0.00     0.056 C 
ATOM     26  C   UNL A   1      28.030  30.513  21.290  1.00  0.00     0.056 C 
ENDBRANCH  22  23
ENDBRANCH  20  22
ENDBRANCH  16  20
ENDBRANCH  13  15
ENDBRANCH   9  13
ENDBRANCH   6   8
ENDBRANCH   1   6
BRANCH   5  27
ATOM     27  C   UNL A   1      35.046  21.736  25.944  1.00  0.00     0.242 C 
ATOM     28  O   UNL A   1      34.365  22.001  26.939  1.00  0.00    -0.273 OA
ATOM     29  N   UNL A   1      36.387  21.936  26.054  1.00  0.00    -0.354 N 
ATOM     30  H   UNL A   1      36.701  22.148  26.962  1.00  0.00     0.163 HD
BRANCH  29  31
ATOM     31  C   UNL A   1      37.426  21.889  25.045  1.00  0.00     0.117 C 
BRANCH  31  32
ATOM     32  C   UNL A   1      38.123  20.540  24.998  1.00  0.00     0.042 C 
BRANCH  32  33
ATOM     33  C   UNL A   1      39.135  20.320  26.116  1.00  0.00     0.118 C 
BRANCH  33  34
ATOM     34  N   UNL A   1      40.126  19.287  25.841  1.00  0.00    -0.352 N 
ATOM     35  C   UNL A   1      41.494  19.337  25.964  1.00  0.00     0.251 C 
ATOM     36  H   UNL A   1      39.763  18.430  25.521  1.00  0.00     0.163 HD
ATOM     37  O   UNL A   1      42.187  18.349  25.754  1.00  0.00    -0.269 OA
BRANCH  35  38
ATOM     38  C   UNL A   1      42.126  20.606  26.357  1.00  0.00     0.039 A 
ATOM     39  C   UNL A   1      42.530  21.510  25.371  1.00  0.00     0.014 A 
ATOM     40  C   UNL A   1      42.270  20.907  27.711  1.00  0.00     0.014 A 
ATOM     41  C   UNL A   1      43.028  22.758  25.751  1.00  0.00     0.010 A 
ATOM     42  C   UNL A   1      42.680  22.179  28.083  1.00  0.00     0.010 A 
ATOM     43  C   UNL A   1      43.074  23.112  27.109  1.00  0.00    -0.014 A 
BRANCH  43  44
ATOM     44  C   UNL A   1      43.569  24.430  27.569  1.00  0.00     0.031 A 
ATOM     45  C   UNL A   1      42.574  25.472  28.001  1.00  0.00     0.074 A 
ATOM     46  C   UNL A   1      44.879  24.731  27.483  1.00  0.00     0.049 A 
ATOM     47  N   UNL A   1      42.758  26.742  28.250  1.00  0.00    -0.248 NA
ATOM     48  C   UNL A   1      41.174  25.031  28.125  1.00  0.00     0.031 C 
ATOM     49  C   UNL A   1      45.937  23.819  27.044  1.00  0.00     0.029 A 
ATOM     50  N   UNL A   1      45.539  25.906  27.741  1.00  0.00    -0.354 N 
ATOM     51  C   UNL A   1      41.495  27.259  28.511  1.00  0.00     0.074 A 
ATOM     52  C   UNL A   1      40.549  26.176  28.351  1.00  0.00     0.031 C 
ATOM     53  C   UNL A   1      47.114  24.465  27.075  1.00  0.00     0.029 A 
ATOM     54  C   UNL A   1      46.888  25.846  27.490  1.00  0.00     0.049 A 
ATOM     55  H   UNL A   1      45.089  26.716  28.073  1.00  0.00     0.167 HD
ATOM     56  C   UNL A   1      41.154  28.519  28.865  1.00  0.00     0.031 A 
ATOM     57  C   UNL A   1      47.832  26.802  27.571  1.00  0.00     0.031 A 
ATOM     58  C   UNL A   1      42.102  29.580  29.061  1.00  0.00     0.049 A 
ATOM     59  C   UNL A   1      47.433  28.189  27.995  1.00  0.00     0.074 A 
ATOM     60  C   UNL A   1      41.872  30.874  29.492  1.00  0.00     0.029 A 
ATOM     61  N   UNL A   1      43.467  29.463  28.847  1.00  0.00    -0.354 N 
ATOM     62  N   UNL A   1      46.241  28.651  28.289  1.00  0.00    -0.248 NA
ATOM     63  C   UNL A   1      48.510  29.182  28.106  1.00  0.00     0.031 C 
ATOM     64  C   UNL A   1      43.096  31.552  29.503  1.00  0.00     0.029 A 
ATOM     65  C   UNL A   1      44.091  30.666  29.124  1.00  0.00     0.049 A 
ATOM     66  H   UNL A   1      43.922  28.645  28.542  1.00  0.00     0.167 HD
ATOM     67  C   UNL A   1      46.428  29.980  28.644  1.00  0.00     0.074 A 
ATOM     68  C   UNL A   1      47.850  30.245  28.543  1.00  0.00     0.031 C 
ATOM     69  C   UNL A   1      45.508  30.901  29.020  1.00  0.00     0.031 A 
BRANCH  56  70
ATOM     70  C   UNL A   1      39.691  28.813  29.054  1.00  0.00    -0.014 A 
ATOM     71  C   UNL A   1      39.075  28.680  30.309  1.00  0.00     0.009 A 
ATOM     72  C   UNL A   1      38.921  29.246  27.963  1.00  0.00     0.009 A 
ATOM     73  C   UNL A   1      37.711  28.933  30.458  1.00  0.00     0.001 A 
ATOM     74  C   UNL A   1      37.563  29.528  28.121  1.00  0.00     0.001 A 
ATOM     75  C   UNL A   1      36.956  29.361  29.366  1.00  0.00     0.000 A 
ENDBRANCH  56  70
BRANCH  57  76
ATOM     76  C   UNL A   1      49.249  26.481  27.260  1.00  0.00    -0.014 A 
ATOM     77  C   UNL A   1      49.683  26.412  25.928  1.00  0.00     0.009 A 
ATOM     78  C   UNL A   1      50.175  26.243  28.288  1.00  0.00     0.009 A 
ATOM     79  C   UNL A   1      51.009  26.085  25.630  1.00  0.00     0.001 A 
ATOM     80  C   UNL A   1      51.506  25.943  27.988  1.00  0.00     0.001 A 
ATOM     81  C   UNL A   1      51.919  25.856  26.660  1.00  0.00     0.000 A 
ENDBRANCH  57  76
BRANCH  69  82
ATOM     82  C   UNL A   1      46.016  32.265  29.387  1.00  0.00    -0.014 A 
ATOM     83  C   UNL A   1      46.101  33.290  28.435  1.00  0.00     0.009 A 
ATOM     84  C   UNL A   1      46.369  32.536  30.718  1.00  0.00     0.009 A 
ATOM     85  C   UNL A   1      46.562  34.556  28.803  1.00  0.00     0.001 A 
ATOM     86  C   UNL A   1      46.804  33.809  31.089  1.00  0.00     0.001 A 
ATOM     87  C   UNL A   1      46.907  34.814  30.128  1.00  0.00     0.000 A 
ENDBRANCH  69  82
ENDBRANCH  43  44
ENDBRANCH  35  38
ENDBRANCH  33  34
ENDBRANCH  32  33
ENDBRANCH  31  32
ENDBRANCH  29  31
ENDBRANCH   5  27
TORSDOF 17
ENDMDL
MODEL 3
REMARK VINA RESULT:     -11.6      1.667      6.186
REMARK SMILES CC(C)(C)OC(=O)N1CCC[C@H]1C(=O)N1CCC[C@H]1C(=O)N1CCC[C@@H]1C(=O)NCCCNC(=O)c1ccc(-c2c3nc(c(-c4ccccc4)c4ccc([nH]4)c(-c4ccccc4)c4nc(c(-c5ccccc5)c5ccc2[nH]5)C=C4)C=C3)cc1
REMARK SMILES IDX 22 1 23 2 24 3 25 4 26 5 20 6 21 7 19 8 15 9 16 10 17 11
REMARK SMILES IDX 18 12 13 13 14 14 12 15 8 16 9 17 10 18 11 19 6 20 7 21 5 22
REMARK SMILES IDX 2 23 1 24 3 25 4 26 27 27 28 28 29 29 30 31 31 32 32 33
REMARK SMILES IDX 33 34 34 35 35 37 36 38 37 39 83 40 38 41 82 42 39 43 40 44
REMARK SMILES IDX 41 45 76 46 42 47 81 48 75 49 77 50 43 51 80 52 74 53 73 54
REMARK SMILES IDX 44 56 66 57 51 58 65 59 52 60 55 61 64 62 78 63 53 64 54 65
REMARK SMILES IDX 63 67 79 68 56 69 45 70 46 71 50 72 47 73 49 74 48 75 67 76
REMARK SMILES IDX 68 77 72 78 69 79 71 80 70 81 57 82 58 83 62 84 59 85 61 86
REMARK SMILES IDX 60 87
REMARK H PARENT 29 30 33 36 77 55 55 66
REMARK Flexibility Score: inf
ROOT
ATOM      1  N   UNL A   1      34.265  23.740  25.435  1.00  0.00    -0.329 N 
ATOM      2  C   UNL A   1      35.147  24.863  25.192  1.00  0.00     0.120 C 
ATOM      3  C   UNL A   1      36.531  24.251  25.290  1.00  0.00     0.024 C 
ATOM      4  C   UNL A   1      36.375  23.175  26.371  1.00  0.00     0.037 C 
ATOM      5  C   UNL A   1      34.860  22.954  26.511  1.00  0.00     0.174 C 
ENDROOT
BRANCH   1   6
ATOM      6  C   UNL A   1      32.904  23.952  25.448  1.00  0.00     0.246 C 
ATOM      7  O   UNL A   1      32.360  24.428  26.449  1.00  0.00    -0.272 OA
BRANCH   6   8
ATOM      8  C   UNL A   1      32.113  23.745  24.125  1.00  0.00     0.174 C 
ATOM      9  N   UNL A   1      32.604  24.311  22.855  1.00  0.00    -0.329 N 
ATOM     10  C   UNL A   1      33.253  23.273  22.083  1.00  0.00     0.120 C 
ATOM     11  C   UNL A   1      32.406  22.057  22.353  1.00  0.00     0.024 C 
ATOM     12  C   UNL A   1      32.097  22.214  23.839  1.00  0.00     0.037 C 
BRANCH   9  13
ATOM     13  C   UNL A   1      32.353  25.604  22.458  1.00  0.00     0.246 C 
ATOM     14  O   UNL A   1      32.742  26.016  21.359  1.00  0.00    -0.272 OA
BRANCH  13  15
ATOM     15  C   UNL A   1      31.775  26.666  23.434  1.00  0.00     0.178 C 
ATOM     16  N   UNL A   1      32.030  28.084  23.246  1.00  0.00    -0.296 N 
ATOM     17  C   UNL A   1      30.858  28.778  22.761  1.00  0.00     0.124 C 
ATOM     18  C   UNL A   1      29.725  27.995  23.398  1.00  0.00     0.024 C 
ATOM     19  C   UNL A   1      30.233  26.557  23.356  1.00  0.00     0.037 C 
BRANCH  16  20
ATOM     20  C   UNL A   1      33.158  28.668  23.771  1.00  0.00     0.410 C 
ATOM     21  O   UNL A   1      34.265  28.467  23.308  1.00  0.00    -0.224 OA
BRANCH  20  22
ATOM     22  O   UNL A   1      32.858  29.522  24.779  1.00  0.00    -0.444 OA
BRANCH  22  23
ATOM     23  C   UNL A   1      33.020  29.164  26.179  1.00  0.00     0.106 C 
ATOM     24  C   UNL A   1      31.644  28.652  26.623  1.00  0.00     0.056 C 
ATOM     25  C   UNL A   1      33.358  30.448  26.945  1.00  0.00     0.056 C 
ATOM     26  C   UNL A   1      34.053  28.072  26.467  1.00  0.00     0.056 C 
ENDBRANCH  22  23
ENDBRANCH  20  22
ENDBRANCH  16  20
ENDBRANCH  13  15
ENDBRANCH   9  13
ENDBRANCH   6   8
ENDBRANCH   1   6
BRANCH   5  27
ATOM     27  C   UNL A   1      34.454  21.472  26.515  1.00  0.00     0.242 C 
ATOM     28  O   UNL A   1      33.638  21.041  27.335  1.00  0.00    -0.273 OA
ATOM     29  N   UNL A   1      35.044  20.554  25.703  1.00  0.00    -0.354 N 
ATOM     30  H   UNL A   1      34.664  19.648  25.758  1.00  0.00     0.163 HD
BRANCH  29  31
ATOM     31  C   UNL A   1      36.143  20.698  24.770  1.00  0.00     0.117 C 
BRANCH  31  32
ATOM     32  C   UNL A   1      37.207  19.632  24.964  1.00  0.00     0.042 C 
BRANCH  32  33
ATOM     33  C   UNL A   1      38.472  20.128  25.654  1.00  0.00     0.118 C 
BRANCH  33  34
ATOM     34  N   UNL A   1      39.598  19.205  25.591  1.00  0.00    -0.352 N 
ATOM     35  C   UNL A   1      40.894  19.382  26.012  1.00  0.00     0.251 C 
ATOM     36  H   UNL A   1      39.402  18.328  25.190  1.00  0.00     0.163 HD
ATOM     37  O   UNL A   1      41.713  18.473  25.948  1.00  0.00    -0.269 OA
BRANCH  35  38
ATOM     38  C   UNL A   1      41.294  20.692  26.549  1.00  0.00     0.039 A 
ATOM     39  C   UNL A   1      41.667  20.804  27.890  1.00  0.00     0.014 A 
ATOM     40  C   UNL A   1      41.339  21.795  25.696  1.00  0.00     0.014 A 
ATOM     41  C   UNL A   1      42.149  22.025  28.366  1.00  0.00     0.010 A 
ATOM     42  C   UNL A   1      41.902  22.979  26.148  1.00  0.00     0.010 A 
ATOM     43  C   UNL A   1      42.301  23.110  27.488  1.00  0.00    -0.014 A 
BRANCH  43  44
ATOM     44  C   UNL A   1      42.831  24.421  27.932  1.00  0.00     0.031 A 
ATOM     45  C   UNL A   1      41.863  25.509  28.310  1.00  0.00     0.074 A 
ATOM     46  C   UNL A   1      44.153  24.672  27.878  1.00  0.00     0.049 A 
ATOM     47  N   UNL A   1      42.086  26.777  28.534  1.00  0.00    -0.248 NA
ATOM     48  C   UNL A   1      40.444  25.122  28.402  1.00  0.00     0.031 C 
ATOM     49  C   UNL A   1      45.189  23.712  27.491  1.00  0.00     0.029 A 
ATOM     50  N   UNL A   1      44.848  25.829  28.127  1.00  0.00    -0.354 N 
ATOM     51  C   UNL A   1      40.836  27.345  28.744  1.00  0.00     0.074 A 
ATOM     52  C   UNL A   1      39.856  26.294  28.582  1.00  0.00     0.031 C 
ATOM     53  C   UNL A   1      46.388  24.316  27.542  1.00  0.00     0.029 A 
ATOM     54  C   UNL A   1      46.201  25.713  27.918  1.00  0.00     0.049 A 
ATOM     55  H   UNL A   1      44.419  26.662  28.427  1.00  0.00     0.167 HD
ATOM     56  C   UNL A   1      40.532  28.626  29.058  1.00  0.00     0.031 A 
ATOM     57  C   UNL A   1      47.177  26.636  28.005  1.00  0.00     0.031 A 
ATOM     58  C   UNL A   1      41.512  29.656  29.258  1.00  0.00     0.049 A 
ATOM     59  C   UNL A   1      46.816  28.046  28.383  1.00  0.00     0.074 A 
ATOM     60  C   UNL A   1      41.318  30.968  29.651  1.00  0.00     0.029 A 
ATOM     61  N   UNL A   1      42.878  29.484  29.086  1.00  0.00    -0.354 N 
ATOM     62  N   UNL A   1      45.635  28.559  28.630  1.00  0.00    -0.248 NA
ATOM     63  C   UNL A   1      47.926  29.002  28.503  1.00  0.00     0.031 C 
ATOM     64  C   UNL A   1      42.565  31.601  29.682  1.00  0.00     0.029 A 
ATOM     65  C   UNL A   1      43.538  30.670  29.353  1.00  0.00     0.049 A 
ATOM     66  H   UNL A   1      43.311  28.643  28.815  1.00  0.00     0.167 HD
ATOM     67  C   UNL A   1      45.860  29.889  28.960  1.00  0.00     0.074 A 
ATOM     68  C   UNL A   1      47.293  30.099  28.895  1.00  0.00     0.031 C 
ATOM     69  C   UNL A   1      44.965  30.851  29.286  1.00  0.00     0.031 A 
BRANCH  56  70
ATOM     70  C   UNL A   1      39.076  28.977  29.196  1.00  0.00    -0.014 A 
ATOM     71  C   UNL A   1      38.430  28.936  30.442  1.00  0.00     0.009 A 
ATOM     72  C   UNL A   1      38.344  29.371  28.066  1.00  0.00     0.009 A 
ATOM     73  C   UNL A   1      37.072  29.241  30.545  1.00  0.00     0.001 A 
ATOM     74  C   UNL A   1      36.993  29.705  28.176  1.00  0.00     0.001 A 
ATOM     75  C   UNL A   1      36.355  29.630  29.414  1.00  0.00     0.000 A 
ENDBRANCH  56  70
BRANCH  57  76
ATOM     76  C   UNL A   1      48.590  26.256  27.744  1.00  0.00    -0.014 A 
ATOM     77  C   UNL A   1      49.131  26.388  26.457  1.00  0.00     0.009 A 
ATOM     78  C   UNL A   1      49.403  25.762  28.775  1.00  0.00     0.009 A 
ATOM     79  C   UNL A   1      50.451  26.008  26.200  1.00  0.00     0.001 A 
ATOM     80  C   UNL A   1      50.731  25.409  28.522  1.00  0.00     0.001 A 
ATOM     81  C   UNL A   1      51.251  25.524  27.234  1.00  0.00     0.000 A 
ENDBRANCH  57  76
BRANCH  69  82
ATOM     82  C   UNL A   1      45.512  32.205  29.636  1.00  0.00    -0.014 A 
ATOM     83  C   UNL A   1      45.662  33.203  28.663  1.00  0.00     0.009 A 
ATOM     84  C   UNL A   1      45.837  32.496  30.970  1.00  0.00     0.009 A 
ATOM     85  C   UNL A   1      46.158  34.459  29.014  1.00  0.00     0.001 A 
ATOM     86  C   UNL A   1      46.308  33.761  31.323  1.00  0.00     0.001 A 
ATOM     87  C   UNL A   1      46.475  34.738  30.343  1.00  0.00     0.000 A 
ENDBRANCH  69  82
ENDBRANCH  43  44
ENDBRANCH  35  38
ENDBRANCH  33  34
ENDBRANCH  32  33
ENDBRANCH  31  32
ENDBRANCH  29  31
ENDBRANCH   5  27
TORSDOF 17
ENDMDL
