MODEL 1
REMARK VINA RESULT:     -11.8      0.000      0.000
REMARK SMILES CS(=O)(=O)c1ccc(C2=NN(c3ccc(C(=O)NCCCNC(=O)c4ccc(-c5c6nc(c(-c7ccccc7)c7ccc([nH]7)c(-c7ccccc7)c7nc(c(-c8ccccc8)c8ccc5[nH]8)C=C7)C=C6)cc4)cc3)[C@H](c3cccs3)C2)cc1
REMARK SMILES IDX 19 1 18 2 16 3 17 4 15 6 12 7 13 8 74 9 14 10 73 11 11 12
REMARK SMILES IDX 9 13 10 14 81 15 75 16 8 17 5 18 6 19 83 20 7 21 82 22 2 23
REMARK SMILES IDX 1 24 3 25 4 26 76 27 77 28 80 29 78 30 79 31 20 32 21 33
REMARK SMILES IDX 22 34 23 35 24 37 25 38 26 39 72 40 27 41 71 42 28 43 29 44
REMARK SMILES IDX 30 45 65 46 31 47 70 48 64 49 66 50 32 51 69 52 63 53 62 54
REMARK SMILES IDX 33 56 55 57 40 58 54 59 41 60 44 61 53 62 67 63 42 64 43 65
REMARK SMILES IDX 52 67 68 68 45 69 34 70 35 71 39 72 36 73 38 74 37 75 56 76
REMARK SMILES IDX 57 77 61 78 58 79 60 80 59 81 46 82 47 83 51 84 48 85 50 86
REMARK SMILES IDX 49 87
REMARK H PARENT 18 5 22 36 66 55 44 66
REMARK Flexibility Score: inf
ROOT
ATOM      1  C   UNL A   1      44.841  24.015  32.984  1.00  0.00     0.118 C 
ENDROOT
BRANCH   1   2
ATOM      2  N   UNL A   1      45.487  24.970  32.101  1.00  0.00    -0.352 N 
ATOM      3  C   UNL A   1      45.355  25.198  30.754  1.00  0.00     0.251 C 
ATOM      4  O   UNL A   1      45.978  26.138  30.264  1.00  0.00    -0.269 OA
ATOM      5  H   UNL A   1      46.135  25.561  32.549  1.00  0.00     0.163 HD
BRANCH   3   6
ATOM      6  C   UNL A   1      44.448  24.393  29.895  1.00  0.00     0.039 A 
ATOM      7  C   UNL A   1      42.658  23.017  28.205  1.00  0.00     0.060 A 
ATOM      8  C   UNL A   1      43.247  24.216  27.792  1.00  0.00     0.029 A 
ATOM      9  C   UNL A   1      43.034  22.482  29.438  1.00  0.00     0.029 A 
ATOM     10  C   UNL A   1      44.130  24.904  28.630  1.00  0.00     0.016 A 
ATOM     11  C   UNL A   1      43.936  23.150  30.265  1.00  0.00     0.016 A 
BRANCH   7  12
ATOM     12  N   UNL A   1      41.765  22.338  27.403  1.00  0.00    -0.257 N 
ATOM     13  C   UNL A   1      39.880  21.991  26.517  1.00  0.00     0.071 C 
ATOM     14  N   UNL A   1      40.582  22.908  27.100  1.00  0.00    -0.176 NA
ATOM     15  C   UNL A   1      40.512  20.628  26.431  1.00  0.00     0.091 C 
ATOM     16  C   UNL A   1      41.923  20.953  26.952  1.00  0.00     0.154 C 
BRANCH  13  17
ATOM     17  C   UNL A   1      38.551  22.277  25.968  1.00  0.00    -0.002 A 
ATOM     18  C   UNL A   1      36.073  22.741  24.808  1.00  0.00     0.067 A 
ATOM     19  C   UNL A   1      36.609  21.452  24.782  1.00  0.00     0.021 A 
ATOM     20  C   UNL A   1      36.771  23.797  25.410  1.00  0.00     0.021 A 
ATOM     21  C   UNL A   1      37.862  21.226  25.351  1.00  0.00     0.011 A 
ATOM     22  C   UNL A   1      38.013  23.563  26.005  1.00  0.00     0.011 A 
BRANCH  18  23
ATOM     23  S   UNL A   1      34.494  23.082  24.063  1.00  0.00     0.175 S 
ATOM     24  C   UNL A   1      33.621  21.541  24.008  1.00  0.00     0.163 C 
ATOM     25  O   UNL A   1      34.753  23.472  22.691  1.00  0.00    -0.224 OA
ATOM     26  O   UNL A   1      33.797  23.967  24.978  1.00  0.00    -0.224 OA
ENDBRANCH  18  23
ENDBRANCH  13  17
BRANCH  16  27
ATOM     27  C   UNL A   1      43.082  20.711  25.991  1.00  0.00     0.030 A 
ATOM     28  C   UNL A   1      43.821  21.691  25.343  1.00  0.00     0.017 A 
ATOM     29  S   UNL A   1      43.614  19.152  25.515  1.00  0.00    -0.147 S 
ATOM     30  C   UNL A   1      44.811  21.161  24.470  1.00  0.00     0.012 A 
ATOM     31  C   UNL A   1      44.827  19.787  24.494  1.00  0.00     0.065 A 
ENDBRANCH  16  27
ENDBRANCH   7  12
ENDBRANCH   3   6
ENDBRANCH   1   2
BRANCH   1  32
ATOM     32  C   UNL A   1      45.837  23.434  33.986  1.00  0.00     0.042 C 
BRANCH  32  33
ATOM     33  C   UNL A   1      47.035  24.342  34.234  1.00  0.00     0.118 C 
BRANCH  33  34
ATOM     34  N   UNL A   1      47.121  24.759  35.626  1.00  0.00    -0.352 N 
ATOM     35  C   UNL A   1      46.529  25.818  36.264  1.00  0.00     0.251 C 
ATOM     36  H   UNL A   1      47.691  24.195  36.196  1.00  0.00     0.163 HD
ATOM     37  O   UNL A   1      46.910  26.141  37.387  1.00  0.00    -0.269 OA
BRANCH  35  38
ATOM     38  C   UNL A   1      45.444  26.579  35.608  1.00  0.00     0.039 A 
ATOM     39  C   UNL A   1      45.769  27.737  34.897  1.00  0.00     0.014 A 
ATOM     40  C   UNL A   1      44.111  26.177  35.722  1.00  0.00     0.014 A 
ATOM     41  C   UNL A   1      44.762  28.461  34.256  1.00  0.00     0.010 A 
ATOM     42  C   UNL A   1      43.120  26.853  35.018  1.00  0.00     0.010 A 
ATOM     43  C   UNL A   1      43.434  28.007  34.284  1.00  0.00    -0.014 A 
BRANCH  43  44
ATOM     44  C   UNL A   1      42.357  28.724  33.558  1.00  0.00     0.031 A 
ATOM     45  C   UNL A   1      41.458  29.683  34.289  1.00  0.00     0.074 A 
ATOM     46  C   UNL A   1      42.146  28.459  32.254  1.00  0.00     0.049 A 
ATOM     47  N   UNL A   1      40.420  30.344  33.844  1.00  0.00    -0.248 NA
ATOM     48  C   UNL A   1      41.749  29.910  35.714  1.00  0.00     0.031 C 
ATOM     49  C   UNL A   1      42.928  27.527  31.439  1.00  0.00     0.029 A 
ATOM     50  N   UNL A   1      41.202  28.947  31.385  1.00  0.00    -0.354 N 
ATOM     51  C   UNL A   1      39.925  31.049  34.935  1.00  0.00     0.074 A 
ATOM     52  C   UNL A   1      40.744  30.695  36.073  1.00  0.00     0.031 C 
ATOM     53  C   UNL A   1      42.449  27.529  30.186  1.00  0.00     0.029 A 
ATOM     54  C   UNL A   1      41.299  28.424  30.119  1.00  0.00     0.049 A 
ATOM     55  H   UNL A   1      40.521  29.608  31.645  1.00  0.00     0.167 HD
ATOM     56  C   UNL A   1      38.893  31.924  34.982  1.00  0.00     0.031 A 
ATOM     57  C   UNL A   1      40.537  28.632  29.027  1.00  0.00     0.031 A 
ATOM     58  C   UNL A   1      38.080  32.275  33.847  1.00  0.00     0.049 A 
ATOM     59  C   UNL A   1      39.378  29.585  29.113  1.00  0.00     0.074 A 
ATOM     60  C   UNL A   1      37.043  33.189  33.779  1.00  0.00     0.029 A 
ATOM     61  N   UNL A   1      38.211  31.723  32.582  1.00  0.00    -0.354 N 
ATOM     62  N   UNL A   1      38.963  30.293  30.136  1.00  0.00    -0.248 NA
ATOM     63  C   UNL A   1      38.588  29.775  27.889  1.00  0.00     0.031 C 
ATOM     64  C   UNL A   1      36.507  33.145  32.489  1.00  0.00     0.029 A 
ATOM     65  C   UNL A   1      37.254  32.256  31.734  1.00  0.00     0.049 A 
ATOM     66  H   UNL A   1      38.883  31.051  32.325  1.00  0.00     0.167 HD
ATOM     67  C   UNL A   1      37.886  31.035  29.671  1.00  0.00     0.074 A 
ATOM     68  C   UNL A   1      37.723  30.704  28.270  1.00  0.00     0.031 C 
ATOM     69  C   UNL A   1      37.104  31.916  30.342  1.00  0.00     0.031 A 
BRANCH  56  70
ATOM     70  C   UNL A   1      38.576  32.553  36.312  1.00  0.00    -0.014 A 
ATOM     71  C   UNL A   1      37.796  31.883  37.269  1.00  0.00     0.009 A 
ATOM     72  C   UNL A   1      39.093  33.820  36.626  1.00  0.00     0.009 A 
ATOM     73  C   UNL A   1      37.506  32.486  38.494  1.00  0.00     0.001 A 
ATOM     74  C   UNL A   1      38.828  34.406  37.865  1.00  0.00     0.001 A 
ATOM     75  C   UNL A   1      38.027  33.744  38.795  1.00  0.00     0.000 A 
ENDBRANCH  56  70
BRANCH  57  76
ATOM     76  C   UNL A   1      40.853  27.931  27.755  1.00  0.00    -0.014 A 
ATOM     77  C   UNL A   1      41.725  28.510  26.819  1.00  0.00     0.009 A 
ATOM     78  C   UNL A   1      40.280  26.683  27.463  1.00  0.00     0.009 A 
ATOM     79  C   UNL A   1      41.991  27.869  25.608  1.00  0.00     0.001 A 
ATOM     80  C   UNL A   1      40.574  26.029  26.266  1.00  0.00     0.001 A 
ATOM     81  C   UNL A   1      41.420  26.627  25.334  1.00  0.00     0.000 A 
ENDBRANCH  57  76
BRANCH  69  82
ATOM     82  C   UNL A   1      36.028  32.617  29.560  1.00  0.00    -0.014 A 
ATOM     83  C   UNL A   1      36.141  33.970  29.205  1.00  0.00     0.009 A 
ATOM     84  C   UNL A   1      34.901  31.895  29.137  1.00  0.00     0.009 A 
ATOM     85  C   UNL A   1      35.129  34.594  28.472  1.00  0.00     0.001 A 
ATOM     86  C   UNL A   1      33.908  32.512  28.376  1.00  0.00     0.001 A 
ATOM     87  C   UNL A   1      34.017  33.863  28.053  1.00  0.00     0.000 A 
ENDBRANCH  69  82
ENDBRANCH  43  44
ENDBRANCH  35  38
ENDBRANCH  33  34
ENDBRANCH  32  33
ENDBRANCH   1  32
TORSDOF 14
ENDMDL
MODEL 2
REMARK VINA RESULT:     -11.7      0.892      5.669
REMARK SMILES CS(=O)(=O)c1ccc(C2=NN(c3ccc(C(=O)NCCCNC(=O)c4ccc(-c5c6nc(c(-c7ccccc7)c7ccc([nH]7)c(-c7ccccc7)c7nc(c(-c8ccccc8)c8ccc5[nH]8)C=C7)C=C6)cc4)cc3)[C@H](c3cccs3)C2)cc1
REMARK SMILES IDX 19 1 18 2 16 3 17 4 15 6 12 7 13 8 74 9 14 10 73 11 11 12
REMARK SMILES IDX 9 13 10 14 81 15 75 16 8 17 5 18 6 19 83 20 7 21 82 22 2 23
REMARK SMILES IDX 1 24 3 25 4 26 76 27 77 28 80 29 78 30 79 31 20 32 21 33
REMARK SMILES IDX 22 34 23 35 24 37 25 38 26 39 72 40 27 41 71 42 28 43 29 44
REMARK SMILES IDX 30 45 65 46 31 47 70 48 64 49 66 50 32 51 69 52 63 53 62 54
REMARK SMILES IDX 33 56 55 57 40 58 54 59 41 60 44 61 53 62 67 63 42 64 43 65
REMARK SMILES IDX 52 67 68 68 45 69 34 70 35 71 39 72 36 73 38 74 37 75 56 76
REMARK SMILES IDX 57 77 61 78 58 79 60 80 59 81 46 82 47 83 51 84 48 85 50 86
REMARK SMILES IDX 49 87
REMARK H PARENT 18 5 22 36 66 55 44 66
REMARK Flexibility Score: inf
ROOT
ATOM      1  C   UNL A   1      44.563  24.298  32.896  1.00  0.00     0.118 C 
ENDROOT
BRANCH   1   2
ATOM      2  N   UNL A   1      45.217  25.238  32.003  1.00  0.00    -0.352 N 
ATOM      3  C   UNL A   1      45.125  25.420  30.646  1.00  0.00     0.251 C 
ATOM      4  O   UNL A   1      45.745  26.358  30.146  1.00  0.00    -0.269 OA
ATOM      5  H   UNL A   1      45.838  25.857  32.453  1.00  0.00     0.163 HD
BRANCH   3   6
ATOM      6  C   UNL A   1      44.264  24.569  29.784  1.00  0.00     0.039 A 
ATOM      7  C   UNL A   1      42.516  23.088  28.139  1.00  0.00     0.060 A 
ATOM      8  C   UNL A   1      42.709  24.456  27.923  1.00  0.00     0.029 A 
ATOM      9  C   UNL A   1      43.263  22.462  29.138  1.00  0.00     0.029 A 
ATOM     10  C   UNL A   1      43.570  25.194  28.741  1.00  0.00     0.016 A 
ATOM     11  C   UNL A   1      44.145  23.188  29.937  1.00  0.00     0.016 A 
BRANCH   7  12
ATOM     12  N   UNL A   1      41.652  22.350  27.359  1.00  0.00    -0.257 N 
ATOM     13  C   UNL A   1      39.790  21.915  26.464  1.00  0.00     0.071 C 
ATOM     14  N   UNL A   1      40.461  22.876  27.010  1.00  0.00    -0.176 NA
ATOM     15  C   UNL A   1      40.453  20.565  26.455  1.00  0.00     0.091 C 
ATOM     16  C   UNL A   1      41.849  20.948  26.980  1.00  0.00     0.154 C 
BRANCH  13  17
ATOM     17  C   UNL A   1      38.463  22.142  25.882  1.00  0.00    -0.002 A 
ATOM     18  C   UNL A   1      35.998  22.502  24.658  1.00  0.00     0.067 A 
ATOM     19  C   UNL A   1      36.615  21.252  24.597  1.00  0.00     0.021 A 
ATOM     20  C   UNL A   1      36.609  23.572  25.327  1.00  0.00     0.021 A 
ATOM     21  C   UNL A   1      37.861  21.078  25.199  1.00  0.00     0.011 A 
ATOM     22  C   UNL A   1      37.844  23.390  25.954  1.00  0.00     0.011 A 
BRANCH  18  23
ATOM     23  S   UNL A   1      34.426  22.778  23.874  1.00  0.00     0.175 S 
ATOM     24  C   UNL A   1      33.614  24.047  24.808  1.00  0.00     0.163 C 
ATOM     25  O   UNL A   1      33.652  21.564  24.047  1.00  0.00    -0.224 OA
ATOM     26  O   UNL A   1      34.718  23.302  22.552  1.00  0.00    -0.224 OA
ENDBRANCH  18  23
ENDBRANCH  13  17
BRANCH  16  27
ATOM     27  C   UNL A   1      43.027  20.687  26.049  1.00  0.00     0.030 A 
ATOM     28  C   UNL A   1      43.839  21.653  25.472  1.00  0.00     0.017 A 
ATOM     29  S   UNL A   1      43.495  19.122  25.522  1.00  0.00    -0.147 S 
ATOM     30  C   UNL A   1      44.831  21.109  24.609  1.00  0.00     0.012 A 
ATOM     31  C   UNL A   1      44.775  19.735  24.573  1.00  0.00     0.065 A 
ENDBRANCH  16  27
ENDBRANCH   7  12
ENDBRANCH   3   6
ENDBRANCH   1   2
BRANCH   1  32
ATOM     32  C   UNL A   1      45.522  23.809  33.978  1.00  0.00     0.042 C 
BRANCH  32  33
ATOM     33  C   UNL A   1      46.806  24.628  34.053  1.00  0.00     0.118 C 
BRANCH  33  34
ATOM     34  N   UNL A   1      47.088  25.073  35.410  1.00  0.00    -0.352 N 
ATOM     35  C   UNL A   1      46.626  26.171  36.089  1.00  0.00     0.251 C 
ATOM     36  H   UNL A   1      47.704  24.497  35.919  1.00  0.00     0.163 HD
ATOM     37  O   UNL A   1      47.162  26.503  37.143  1.00  0.00    -0.269 OA
BRANCH  35  38
ATOM     38  C   UNL A   1      45.497  26.962  35.556  1.00  0.00     0.039 A 
ATOM     39  C   UNL A   1      45.772  28.085  34.771  1.00  0.00     0.014 A 
ATOM     40  C   UNL A   1      44.174  26.624  35.856  1.00  0.00     0.014 A 
ATOM     41  C   UNL A   1      44.720  28.837  34.244  1.00  0.00     0.010 A 
ATOM     42  C   UNL A   1      43.129  27.325  35.267  1.00  0.00     0.010 A 
ATOM     43  C   UNL A   1      43.390  28.444  34.461  1.00  0.00    -0.014 A 
BRANCH  43  44
ATOM     44  C   UNL A   1      42.257  29.190  33.859  1.00  0.00     0.031 A 
ATOM     45  C   UNL A   1      41.790  28.864  32.467  1.00  0.00     0.074 A 
ATOM     46  C   UNL A   1      41.695  30.207  34.540  1.00  0.00     0.049 A 
ATOM     47  N   UNL A   1      40.869  29.453  31.746  1.00  0.00    -0.248 NA
ATOM     48  C   UNL A   1      42.462  27.745  31.786  1.00  0.00     0.031 C 
ATOM     49  C   UNL A   1      42.078  30.642  35.885  1.00  0.00     0.029 A 
ATOM     50  N   UNL A   1      40.683  31.066  34.190  1.00  0.00    -0.354 N 
ATOM     51  C   UNL A   1      40.865  28.789  30.525  1.00  0.00     0.074 A 
ATOM     52  C   UNL A   1      41.908  27.789  30.584  1.00  0.00     0.031 C 
ATOM     53  C   UNL A   1      41.296  31.668  36.254  1.00  0.00     0.029 A 
ATOM     54  C   UNL A   1      40.390  31.994  35.159  1.00  0.00     0.049 A 
ATOM     55  H   UNL A   1      40.213  31.020  33.326  1.00  0.00     0.167 HD
ATOM     56  C   UNL A   1      40.055  28.983  29.457  1.00  0.00     0.031 A 
ATOM     57  C   UNL A   1      39.499  33.004  35.160  1.00  0.00     0.031 A 
ATOM     58  C   UNL A   1      39.017  29.979  29.402  1.00  0.00     0.049 A 
ATOM     59  C   UNL A   1      38.632  33.218  33.951  1.00  0.00     0.074 A 
ATOM     60  C   UNL A   1      38.110  30.222  28.386  1.00  0.00     0.029 A 
ATOM     61  N   UNL A   1      38.753  30.899  30.404  1.00  0.00    -0.354 N 
ATOM     62  N   UNL A   1      38.597  32.541  32.828  1.00  0.00    -0.248 NA
ATOM     63  C   UNL A   1      37.677  34.331  34.013  1.00  0.00     0.031 C 
ATOM     64  C   UNL A   1      37.337  31.329  28.748  1.00  0.00     0.029 A 
ATOM     65  C   UNL A   1      37.715  31.731  30.018  1.00  0.00     0.049 A 
ATOM     66  H   UNL A   1      39.232  30.954  31.262  1.00  0.00     0.167 HD
ATOM     67  C   UNL A   1      37.594  33.125  32.065  1.00  0.00     0.074 A 
ATOM     68  C   UNL A   1      37.036  34.200  32.859  1.00  0.00     0.031 C 
ATOM     69  C   UNL A   1      37.171  32.797  30.820  1.00  0.00     0.031 A 
BRANCH  56  70
ATOM     70  C   UNL A   1      40.272  28.107  28.253  1.00  0.00    -0.014 A 
ATOM     71  C   UNL A   1      41.173  28.470  27.238  1.00  0.00     0.009 A 
ATOM     72  C   UNL A   1      39.591  26.884  28.147  1.00  0.00     0.009 A 
ATOM     73  C   UNL A   1      41.355  27.647  26.124  1.00  0.00     0.001 A 
ATOM     74  C   UNL A   1      39.800  26.048  27.049  1.00  0.00     0.001 A 
ATOM     75  C   UNL A   1      40.673  26.434  26.033  1.00  0.00     0.000 A 
ENDBRANCH  56  70
BRANCH  57  76
ATOM     76  C   UNL A   1      39.374  33.885  36.351  1.00  0.00    -0.014 A 
ATOM     77  C   UNL A   1      40.034  35.123  36.393  1.00  0.00     0.009 A 
ATOM     78  C   UNL A   1      38.602  33.490  37.456  1.00  0.00     0.009 A 
ATOM     79  C   UNL A   1      39.947  35.933  37.528  1.00  0.00     0.001 A 
ATOM     80  C   UNL A   1      38.491  34.318  38.575  1.00  0.00     0.001 A 
ATOM     81  C   UNL A   1      39.172  35.532  38.615  1.00  0.00     0.000 A 
ENDBRANCH  57  76
BRANCH  69  82
ATOM     82  C   UNL A   1      36.020  33.583  30.256  1.00  0.00    -0.014 A 
ATOM     83  C   UNL A   1      34.890  33.888  31.030  1.00  0.00     0.009 A 
ATOM     84  C   UNL A   1      36.090  34.061  28.937  1.00  0.00     0.009 A 
ATOM     85  C   UNL A   1      33.837  34.626  30.481  1.00  0.00     0.001 A 
ATOM     86  C   UNL A   1      35.053  34.827  28.404  1.00  0.00     0.001 A 
ATOM     87  C   UNL A   1      33.923  35.099  29.172  1.00  0.00     0.000 A 
ENDBRANCH  69  82
ENDBRANCH  43  44
ENDBRANCH  35  38
ENDBRANCH  33  34
ENDBRANCH  32  33
ENDBRANCH   1  32
TORSDOF 14
ENDMDL
MODEL 3
REMARK VINA RESULT:     -11.5      3.684     12.586
REMARK SMILES CS(=O)(=O)c1ccc(C2=NN(c3ccc(C(=O)NCCCNC(=O)c4ccc(-c5c6nc(c(-c7ccccc7)c7ccc([nH]7)c(-c7ccccc7)c7nc(c(-c8ccccc8)c8ccc5[nH]8)C=C7)C=C6)cc4)cc3)[C@H](c3cccs3)C2)cc1
REMARK SMILES IDX 19 1 18 2 16 3 17 4 15 6 12 7 13 8 74 9 14 10 73 11 11 12
REMARK SMILES IDX 9 13 10 14 81 15 75 16 8 17 5 18 6 19 83 20 7 21 82 22 2 23
REMARK SMILES IDX 1 24 3 25 4 26 76 27 77 28 80 29 78 30 79 31 20 32 21 33
REMARK SMILES IDX 22 34 23 35 24 37 25 38 26 39 72 40 27 41 71 42 28 43 29 44
REMARK SMILES IDX 30 45 65 46 31 47 70 48 64 49 66 50 32 51 69 52 63 53 62 54
REMARK SMILES IDX 33 56 55 57 40 58 54 59 41 60 44 61 53 62 67 63 42 64 43 65
REMARK SMILES IDX 52 67 68 68 45 69 34 70 35 71 39 72 36 73 38 74 37 75 56 76
REMARK SMILES IDX 57 77 61 78 58 79 60 80 59 81 46 82 47 83 51 84 48 85 50 86
REMARK SMILES IDX 49 87
REMARK H PARENT 18 5 22 36 66 55 44 66
REMARK Flexibility Score: inf
ROOT
ATOM      1  C   UNL A   1      35.050  34.083  30.287  1.00  0.00     0.118 C 
ENDROOT
BRANCH   1   2
ATOM      2  N   UNL A   1      34.038  33.802  31.289  1.00  0.00    -0.352 N 
ATOM      3  C   UNL A   1      34.123  33.225  32.532  1.00  0.00     0.251 C 
ATOM      4  O   UNL A   1      33.103  33.176  33.217  1.00  0.00    -0.269 OA
ATOM      5  H   UNL A   1      33.127  34.076  31.033  1.00  0.00     0.163 HD
BRANCH   3   6
ATOM      6  C   UNL A   1      35.404  32.719  33.090  1.00  0.00     0.039 A 
ATOM      7  C   UNL A   1      37.876  31.925  34.190  1.00  0.00     0.060 A 
ATOM      8  C   UNL A   1      37.131  32.949  34.782  1.00  0.00     0.029 A 
ATOM      9  C   UNL A   1      37.335  31.259  33.090  1.00  0.00     0.029 A 
ATOM     10  C   UNL A   1      35.907  33.349  34.234  1.00  0.00     0.016 A 
ATOM     11  C   UNL A   1      36.102  31.634  32.559  1.00  0.00     0.016 A 
BRANCH   7  12
ATOM     12  N   UNL A   1      39.097  31.535  34.700  1.00  0.00    -0.257 N 
ATOM     13  C   UNL A   1      40.603  30.135  35.181  1.00  0.00     0.071 C 
ATOM     14  N   UNL A   1      39.561  30.298  34.431  1.00  0.00    -0.176 NA
ATOM     15  C   UNL A   1      40.919  31.259  36.130  1.00  0.00     0.091 C 
ATOM     16  C   UNL A   1      39.897  32.307  35.654  1.00  0.00     0.154 C 
BRANCH  13  17
ATOM     17  C   UNL A   1      41.425  28.923  35.097  1.00  0.00    -0.002 A 
ATOM     18  C   UNL A   1      43.083  26.699  35.021  1.00  0.00     0.067 A 
ATOM     19  C   UNL A   1      42.864  27.347  36.238  1.00  0.00     0.021 A 
ATOM     20  C   UNL A   1      42.478  27.160  33.843  1.00  0.00     0.021 A 
ATOM     21  C   UNL A   1      42.043  28.473  36.270  1.00  0.00     0.011 A 
ATOM     22  C   UNL A   1      41.633  28.272  33.882  1.00  0.00     0.011 A 
BRANCH  18  23
ATOM     23  S   UNL A   1      44.150  25.280  34.927  1.00  0.00     0.175 S 
ATOM     24  C   UNL A   1      45.781  25.850  35.322  1.00  0.00     0.163 C 
ATOM     25  O   UNL A   1      44.171  24.861  33.540  1.00  0.00    -0.224 OA
ATOM     26  O   UNL A   1      43.718  24.377  35.980  1.00  0.00    -0.224 OA
ENDBRANCH  18  23
ENDBRANCH  13  17
BRANCH  16  27
ATOM     27  C   UNL A   1      40.459  33.618  35.117  1.00  0.00     0.030 A 
ATOM     28  C   UNL A   1      40.742  33.900  33.788  1.00  0.00     0.017 A 
ATOM     29  S   UNL A   1      40.887  34.949  36.113  1.00  0.00    -0.147 S 
ATOM     30  C   UNL A   1      41.303  35.194  33.596  1.00  0.00     0.012 A 
ATOM     31  C   UNL A   1      41.405  35.884  34.781  1.00  0.00     0.065 A 
ENDBRANCH  16  27
ENDBRANCH   7  12
ENDBRANCH   3   6
ENDBRANCH   1   2
BRANCH   1  32
ATOM     32  C   UNL A   1      34.455  34.043  28.881  1.00  0.00     0.042 C 
BRANCH  32  33
ATOM     33  C   UNL A   1      35.089  32.980  27.992  1.00  0.00     0.118 C 
BRANCH  33  34
ATOM     34  N   UNL A   1      34.274  31.777  27.918  1.00  0.00    -0.352 N 
ATOM     35  C   UNL A   1      34.650  30.458  27.913  1.00  0.00     0.251 C 
ATOM     36  H   UNL A   1      33.304  31.933  27.864  1.00  0.00     0.163 HD
ATOM     37  O   UNL A   1      33.833  29.594  27.607  1.00  0.00    -0.269 OA
BRANCH  35  38
ATOM     38  C   UNL A   1      36.033  30.072  28.263  1.00  0.00     0.039 A 
ATOM     39  C   UNL A   1      36.304  29.640  29.565  1.00  0.00     0.014 A 
ATOM     40  C   UNL A   1      37.067  30.168  27.328  1.00  0.00     0.014 A 
ATOM     41  C   UNL A   1      37.600  29.255  29.912  1.00  0.00     0.010 A 
ATOM     42  C   UNL A   1      38.340  29.709  27.652  1.00  0.00     0.010 A 
ATOM     43  C   UNL A   1      38.622  29.255  28.949  1.00  0.00    -0.014 A 
BRANCH  43  44
ATOM     44  C   UNL A   1      39.992  28.790  29.278  1.00  0.00     0.031 A 
ATOM     45  C   UNL A   1      40.460  27.434  28.826  1.00  0.00     0.074 A 
ATOM     46  C   UNL A   1      40.789  29.561  30.042  1.00  0.00     0.049 A 
ATOM     47  N   UNL A   1      41.591  26.825  29.078  1.00  0.00    -0.248 NA
ATOM     48  C   UNL A   1      39.526  26.650  28.002  1.00  0.00     0.031 C 
ATOM     49  C   UNL A   1      40.440  30.882  30.570  1.00  0.00     0.029 A 
ATOM     50  N   UNL A   1      42.058  29.339  30.516  1.00  0.00    -0.354 N 
ATOM     51  C   UNL A   1      41.496  25.583  28.460  1.00  0.00     0.074 A 
ATOM     52  C   UNL A   1      40.180  25.506  27.867  1.00  0.00     0.031 C 
ATOM     53  C   UNL A   1      41.478  31.362  31.272  1.00  0.00     0.029 A 
ATOM     54  C   UNL A   1      42.545  30.368  31.284  1.00  0.00     0.049 A 
ATOM     55  H   UNL A   1      42.570  28.521  30.322  1.00  0.00     0.167 HD
ATOM     56  C   UNL A   1      42.427  24.603  28.381  1.00  0.00     0.031 A 
ATOM     57  C   UNL A   1      43.716  30.492  31.938  1.00  0.00     0.031 A 
ATOM     58  C   UNL A   1      43.736  24.683  28.972  1.00  0.00     0.049 A 
ATOM     59  C   UNL A   1      44.721  29.376  31.860  1.00  0.00     0.074 A 
ATOM     60  C   UNL A   1      44.769  23.764  28.906  1.00  0.00     0.029 A 
ATOM     61  N   UNL A   1      44.191  25.742  29.743  1.00  0.00    -0.354 N 
ATOM     62  N   UNL A   1      44.640  28.235  31.218  1.00  0.00    -0.248 NA
ATOM     63  C   UNL A   1      45.981  29.571  32.588  1.00  0.00     0.031 C 
ATOM     64  C   UNL A   1      45.827  24.241  29.687  1.00  0.00     0.029 A 
ATOM     65  C   UNL A   1      45.479  25.486  30.183  1.00  0.00     0.049 A 
ATOM     66  H   UNL A   1      43.673  26.554  29.948  1.00  0.00     0.167 HD
ATOM     67  C   UNL A   1      45.851  27.591  31.439  1.00  0.00     0.074 A 
ATOM     68  C   UNL A   1      46.653  28.476  32.259  1.00  0.00     0.031 C 
ATOM     69  C   UNL A   1      46.264  26.377  30.998  1.00  0.00     0.031 A 
BRANCH  56  70
ATOM     70  C   UNL A   1      42.052  23.349  27.638  1.00  0.00    -0.014 A 
ATOM     71  C   UNL A   1      42.423  23.156  26.297  1.00  0.00     0.009 A 
ATOM     72  C   UNL A   1      41.346  22.330  28.297  1.00  0.00     0.009 A 
ATOM     73  C   UNL A   1      42.059  21.989  25.621  1.00  0.00     0.001 A 
ATOM     74  C   UNL A   1      41.013  21.151  27.629  1.00  0.00     0.001 A 
ATOM     75  C   UNL A   1      41.359  20.985  26.289  1.00  0.00     0.000 A 
ENDBRANCH  56  70
BRANCH  57  76
ATOM     76  C   UNL A   1      44.008  31.725  32.717  1.00  0.00    -0.014 A 
ATOM     77  C   UNL A   1      44.491  32.875  32.074  1.00  0.00     0.009 A 
ATOM     78  C   UNL A   1      43.813  31.756  34.107  1.00  0.00     0.009 A 
ATOM     79  C   UNL A   1      44.800  34.021  32.811  1.00  0.00     0.001 A 
ATOM     80  C   UNL A   1      44.092  32.913  34.836  1.00  0.00     0.001 A 
ATOM     81  C   UNL A   1      44.596  34.041  34.190  1.00  0.00     0.000 A 
ENDBRANCH  57  76
BRANCH  69  82
ATOM     82  C   UNL A   1      47.660  25.953  31.358  1.00  0.00    -0.014 A 
ATOM     83  C   UNL A   1      47.952  25.368  32.600  1.00  0.00     0.009 A 
ATOM     84  C   UNL A   1      48.693  26.105  30.419  1.00  0.00     0.009 A 
ATOM     85  C   UNL A   1      49.259  24.977  32.906  1.00  0.00     0.001 A 
ATOM     86  C   UNL A   1      49.989  25.683  30.715  1.00  0.00     0.001 A 
ATOM     87  C   UNL A   1      50.274  25.129  31.962  1.00  0.00     0.000 A 
ENDBRANCH  69  82
ENDBRANCH  43  44
ENDBRANCH  35  38
ENDBRANCH  33  34
ENDBRANCH  32  33
ENDBRANCH   1  32
TORSDOF 14
ENDMDL
