MODEL 1
REMARK VINA RESULT:     -12.6      0.000      0.000
REMARK SMILES O=C(NCCCNC(=O)[C@@H]1CCCN(c2ccc3cc(S(=O)(=O)N4CCCCC4)ccc3n2)C1)c1ccc(-c2c3nc(c(-c4ccccc4)c4ccc([nH]4)c(-c4ccccc4)c4nc(c(-c5ccccc5)c5ccc2[nH]5)C=C4)C=C3)cc1
REMARK SMILES IDX 5 1 4 2 3 3 1 4 2 5 35 7 36 8 82 9 37 10 81 11 38 12 39 13
REMARK SMILES IDX 40 14 75 15 41 16 80 17 74 18 76 19 42 20 79 21 73 22 72 23
REMARK SMILES IDX 43 25 65 26 50 27 64 28 51 29 54 30 63 31 77 32 52 33 53 34
REMARK SMILES IDX 62 36 78 37 55 38 44 39 45 40 49 41 46 42 48 43 47 44 66 45
REMARK SMILES IDX 67 46 71 47 68 48 70 49 69 50 56 51 57 52 61 53 58 54 60 55
REMARK SMILES IDX 59 56 6 57 7 58 8 59 9 61 10 62 11 63 34 64 12 65 14 66
REMARK SMILES IDX 13 67 15 68 16 69 33 70 17 71 32 72 18 73 31 74 19 75 30 76
REMARK SMILES IDX 20 77 21 78 22 79 23 80 24 81 25 82 29 83 26 84 28 85 27 86
REMARK H PARENT 3 6 76 24 54 35 7 60
REMARK Flexibility Score: inf
ROOT
ATOM      1  C   UNL A   1      32.724  28.931  24.845  1.00  0.00     0.042 C 
ENDROOT
BRANCH   1   2
ATOM      2  C   UNL A   1      32.383  29.286  26.285  1.00  0.00     0.118 C 
BRANCH   2   3
ATOM      3  N   UNL A   1      32.121  30.702  26.506  1.00  0.00    -0.352 N 
ATOM      4  O   UNL A   1      32.438  32.803  27.264  1.00  0.00    -0.269 OA
ATOM      5  C   UNL A   1      32.883  31.669  27.124  1.00  0.00     0.251 C 
ATOM      6  H   UNL A   1      31.258  31.020  26.156  1.00  0.00     0.163 HD
BRANCH   5   7
ATOM      7  C   UNL A   1      34.215  31.323  27.666  1.00  0.00     0.039 A 
ATOM      8  C   UNL A   1      34.566  29.994  27.888  1.00  0.00     0.014 A 
ATOM      9  C   UNL A   1      35.110  32.343  27.999  1.00  0.00     0.014 A 
ATOM     10  C   UNL A   1      35.676  29.700  28.663  1.00  0.00     0.010 A 
ATOM     11  C   UNL A   1      36.310  32.030  28.650  1.00  0.00     0.010 A 
ATOM     12  C   UNL A   1      36.578  30.709  29.037  1.00  0.00    -0.014 A 
BRANCH  12  13
ATOM     13  C   UNL A   1      37.812  30.328  29.771  1.00  0.00     0.031 A 
ATOM     14  C   UNL A   1      38.017  30.696  31.216  1.00  0.00     0.074 A 
ATOM     15  C   UNL A   1      38.735  29.583  29.128  1.00  0.00     0.049 A 
ATOM     16  N   UNL A   1      39.026  30.404  32.001  1.00  0.00    -0.248 NA
ATOM     17  C   UNL A   1      36.969  31.498  31.865  1.00  0.00     0.031 C 
ATOM     18  C   UNL A   1      38.648  29.160  27.727  1.00  0.00     0.029 A 
ATOM     19  N   UNL A   1      39.901  29.017  29.571  1.00  0.00    -0.354 N 
ATOM     20  C   UNL A   1      38.751  31.012  33.220  1.00  0.00     0.074 A 
ATOM     21  C   UNL A   1      37.488  31.703  33.069  1.00  0.00     0.031 C 
ATOM     22  C   UNL A   1      39.666  28.337  27.451  1.00  0.00     0.029 A 
ATOM     23  C   UNL A   1      40.530  28.251  28.620  1.00  0.00     0.049 A 
ATOM     24  H   UNL A   1      40.254  29.147  30.481  1.00  0.00     0.167 HD
ATOM     25  C   UNL A   1      39.485  30.997  34.359  1.00  0.00     0.031 A 
ATOM     26  C   UNL A   1      41.687  27.569  28.667  1.00  0.00     0.031 A 
ATOM     27  C   UNL A   1      40.739  30.303  34.508  1.00  0.00     0.049 A 
ATOM     28  C   UNL A   1      42.494  27.598  29.928  1.00  0.00     0.074 A 
ATOM     29  C   UNL A   1      41.545  30.207  35.630  1.00  0.00     0.029 A 
ATOM     30  N   UNL A   1      41.373  29.591  33.500  1.00  0.00    -0.354 N 
ATOM     31  N   UNL A   1      42.211  28.169  31.073  1.00  0.00    -0.248 NA
ATOM     32  C   UNL A   1      43.784  26.899  29.898  1.00  0.00     0.031 C 
ATOM     33  C   UNL A   1      42.690  29.480  35.285  1.00  0.00     0.029 A 
ATOM     34  C   UNL A   1      42.572  29.075  33.966  1.00  0.00     0.049 A 
ATOM     35  H   UNL A   1      41.022  29.469  32.588  1.00  0.00     0.167 HD
ATOM     36  C   UNL A   1      43.284  27.893  31.905  1.00  0.00     0.074 A 
ATOM     37  C   UNL A   1      44.210  27.080  31.140  1.00  0.00     0.031 C 
ATOM     38  C   UNL A   1      43.488  28.283  33.187  1.00  0.00     0.031 A 
BRANCH  25  39
ATOM     39  C   UNL A   1      38.970  31.790  35.531  1.00  0.00    -0.014 A 
ATOM     40  C   UNL A   1      38.153  31.207  36.512  1.00  0.00     0.009 A 
ATOM     41  C   UNL A   1      39.345  33.136  35.676  1.00  0.00     0.009 A 
ATOM     42  C   UNL A   1      37.694  31.965  37.594  1.00  0.00     0.001 A 
ATOM     43  C   UNL A   1      38.907  33.883  36.771  1.00  0.00     0.001 A 
ATOM     44  C   UNL A   1      38.076  33.300  37.725  1.00  0.00     0.000 A 
ENDBRANCH  25  39
BRANCH  26  45
ATOM     45  C   UNL A   1      42.154  26.831  27.465  1.00  0.00    -0.014 A 
ATOM     46  C   UNL A   1      41.717  25.522  27.214  1.00  0.00     0.009 A 
ATOM     47  C   UNL A   1      43.010  27.452  26.540  1.00  0.00     0.009 A 
ATOM     48  C   UNL A   1      42.140  24.847  26.067  1.00  0.00     0.001 A 
ATOM     49  C   UNL A   1      43.405  26.785  25.380  1.00  0.00     0.001 A 
ATOM     50  C   UNL A   1      42.975  25.481  25.148  1.00  0.00     0.000 A 
ENDBRANCH  26  45
BRANCH  38  51
ATOM     51  C   UNL A   1      44.755  27.813  33.842  1.00  0.00    -0.014 A 
ATOM     52  C   UNL A   1      45.917  28.600  33.822  1.00  0.00     0.009 A 
ATOM     53  C   UNL A   1      44.780  26.574  34.499  1.00  0.00     0.009 A 
ATOM     54  C   UNL A   1      47.092  28.137  34.417  1.00  0.00     0.001 A 
ATOM     55  C   UNL A   1      45.948  26.128  35.118  1.00  0.00     0.001 A 
ATOM     56  C   UNL A   1      47.104  26.904  35.067  1.00  0.00     0.000 A 
ENDBRANCH  38  51
ENDBRANCH  12  13
ENDBRANCH   5   7
ENDBRANCH   2   3
ENDBRANCH   1   2
BRANCH   1  57
ATOM     57  C   UNL A   1      33.722  27.797  24.711  1.00  0.00     0.117 C 
BRANCH  57  58
ATOM     58  N   UNL A   1      33.452  26.691  25.608  1.00  0.00    -0.356 N 
ATOM     59  C   UNL A   1      33.271  25.371  25.347  1.00  0.00     0.224 C 
ATOM     60  H   UNL A   1      33.388  26.937  26.559  1.00  0.00     0.163 HD
ATOM     61  O   UNL A   1      33.190  24.638  26.337  1.00  0.00    -0.275 OA
BRANCH  59  62
ATOM     62  C   UNL A   1      33.079  24.852  23.923  1.00  0.00     0.098 C 
ATOM     63  C   UNL A   1      31.915  23.828  23.875  1.00  0.00     0.017 C 
ATOM     64  C   UNL A   1      34.314  24.206  23.294  1.00  0.00     0.131 C 
ATOM     65  C   UNL A   1      32.296  22.454  24.463  1.00  0.00     0.022 C 
ATOM     66  N   UNL A   1      34.597  22.954  23.960  1.00  0.00    -0.356 N 
ATOM     67  C   UNL A   1      33.604  21.907  23.888  1.00  0.00     0.118 C 
BRANCH  66  68
ATOM     68  C   UNL A   1      35.785  22.767  24.612  1.00  0.00     0.129 A 
ATOM     69  C   UNL A   1      36.380  23.811  25.312  1.00  0.00     0.047 A 
ATOM     70  N   UNL A   1      36.374  21.564  24.505  1.00  0.00    -0.231 NA
ATOM     71  C   UNL A   1      37.639  23.634  25.877  1.00  0.00     0.014 A 
ATOM     72  C   UNL A   1      37.572  21.378  25.079  1.00  0.00     0.073 A 
ATOM     73  C   UNL A   1      38.266  22.394  25.764  1.00  0.00     0.002 A 
ATOM     74  C   UNL A   1      38.153  20.125  25.003  1.00  0.00     0.030 A 
ATOM     75  C   UNL A   1      39.533  22.145  26.322  1.00  0.00     0.032 A 
ATOM     76  C   UNL A   1      39.397  19.856  25.582  1.00  0.00     0.024 A 
ATOM     77  C   UNL A   1      40.100  20.869  26.229  1.00  0.00     0.083 A 
BRANCH  77  78
ATOM     78  S   UNL A   1      41.689  20.626  27.010  1.00  0.00     0.243 S 
ATOM     79  O   UNL A   1      41.947  21.820  27.788  1.00  0.00    -0.207 OA
ATOM     80  O   UNL A   1      41.632  19.318  27.626  1.00  0.00    -0.207 OA
BRANCH  78  81
ATOM     81  N   UNL A   1      42.864  20.552  25.768  1.00  0.00    -0.198 NA
ATOM     82  C   UNL A   1      43.779  21.716  25.681  1.00  0.00     0.102 C 
ATOM     83  C   UNL A   1      43.383  19.200  25.446  1.00  0.00     0.102 C 
ATOM     84  C   UNL A   1      44.704  21.637  24.477  1.00  0.00     0.017 C 
ATOM     85  C   UNL A   1      44.358  19.200  24.277  1.00  0.00     0.017 C 
ATOM     86  C   UNL A   1      45.406  20.292  24.415  1.00  0.00     0.003 C 
ENDBRANCH  78  81
ENDBRANCH  77  78
ENDBRANCH  66  68
ENDBRANCH  59  62
ENDBRANCH  57  58
ENDBRANCH   1  57
TORSDOF 13
ENDMDL
MODEL 2
REMARK VINA RESULT:     -12.5      3.964      8.054
REMARK SMILES O=C(NCCCNC(=O)[C@@H]1CCCN(c2ccc3cc(S(=O)(=O)N4CCCCC4)ccc3n2)C1)c1ccc(-c2c3nc(c(-c4ccccc4)c4ccc([nH]4)c(-c4ccccc4)c4nc(c(-c5ccccc5)c5ccc2[nH]5)C=C4)C=C3)cc1
REMARK SMILES IDX 5 1 4 2 3 3 1 4 2 5 35 7 36 8 82 9 37 10 81 11 38 12 39 13
REMARK SMILES IDX 40 14 75 15 41 16 80 17 74 18 76 19 42 20 79 21 73 22 72 23
REMARK SMILES IDX 43 25 65 26 50 27 64 28 51 29 54 30 63 31 77 32 52 33 53 34
REMARK SMILES IDX 62 36 78 37 55 38 44 39 45 40 49 41 46 42 48 43 47 44 66 45
REMARK SMILES IDX 67 46 71 47 68 48 70 49 69 50 56 51 57 52 61 53 58 54 60 55
REMARK SMILES IDX 59 56 6 57 7 58 8 59 9 61 10 62 11 63 34 64 12 65 14 66
REMARK SMILES IDX 13 67 15 68 16 69 33 70 17 71 32 72 18 73 31 74 19 75 30 76
REMARK SMILES IDX 20 77 21 78 22 79 23 80 24 81 25 82 29 83 26 84 28 85 27 86
REMARK H PARENT 3 6 76 24 54 35 7 60
REMARK Flexibility Score: inf
ROOT
ATOM      1  C   UNL A   1      35.191  33.260  28.223  1.00  0.00     0.042 C 
ENDROOT
BRANCH   1   2
ATOM      2  C   UNL A   1      34.403  32.220  29.006  1.00  0.00     0.118 C 
BRANCH   2   3
ATOM      3  N   UNL A   1      33.959  31.083  28.211  1.00  0.00    -0.352 N 
ATOM      4  O   UNL A   1      34.091  29.159  27.040  1.00  0.00    -0.269 OA
ATOM      5  C   UNL A   1      34.647  29.976  27.766  1.00  0.00     0.251 C 
ATOM      6  H   UNL A   1      33.011  31.111  27.947  1.00  0.00     0.163 HD
BRANCH   5   7
ATOM      7  C   UNL A   1      36.073  29.803  28.122  1.00  0.00     0.039 A 
ATOM      8  C   UNL A   1      37.074  30.153  27.221  1.00  0.00     0.014 A 
ATOM      9  C   UNL A   1      36.412  29.241  29.356  1.00  0.00     0.014 A 
ATOM     10  C   UNL A   1      38.372  29.715  27.436  1.00  0.00     0.010 A 
ATOM     11  C   UNL A   1      37.750  28.937  29.636  1.00  0.00     0.010 A 
ATOM     12  C   UNL A   1      38.736  29.121  28.656  1.00  0.00    -0.014 A 
BRANCH  12  13
ATOM     13  C   UNL A   1      40.162  28.772  28.882  1.00  0.00     0.031 A 
ATOM     14  C   UNL A   1      41.103  29.709  29.589  1.00  0.00     0.074 A 
ATOM     15  C   UNL A   1      40.593  27.556  28.488  1.00  0.00     0.049 A 
ATOM     16  N   UNL A   1      42.366  29.530  29.891  1.00  0.00    -0.248 NA
ATOM     17  C   UNL A   1      40.569  31.015  30.006  1.00  0.00     0.031 C 
ATOM     18  C   UNL A   1      39.774  26.556  27.794  1.00  0.00     0.029 A 
ATOM     19  N   UNL A   1      41.804  26.936  28.646  1.00  0.00    -0.354 N 
ATOM     20  C   UNL A   1      42.785  30.707  30.499  1.00  0.00     0.074 A 
ATOM     21  C   UNL A   1      41.647  31.602  30.511  1.00  0.00     0.031 C 
ATOM     22  C   UNL A   1      40.477  25.425  27.662  1.00  0.00     0.029 A 
ATOM     23  C   UNL A   1      41.823  25.647  28.171  1.00  0.00     0.049 A 
ATOM     24  H   UNL A   1      42.585  27.371  29.059  1.00  0.00     0.167 HD
ATOM     25  C   UNL A   1      44.007  31.014  30.999  1.00  0.00     0.031 A 
ATOM     26  C   UNL A   1      42.816  24.743  28.126  1.00  0.00     0.031 A 
ATOM     27  C   UNL A   1      45.135  30.119  30.992  1.00  0.00     0.049 A 
ATOM     28  C   UNL A   1      44.165  25.122  28.654  1.00  0.00     0.074 A 
ATOM     29  C   UNL A   1      46.407  30.328  31.498  1.00  0.00     0.029 A 
ATOM     30  N   UNL A   1      45.130  28.844  30.444  1.00  0.00    -0.354 N 
ATOM     31  N   UNL A   1      44.537  26.235  29.237  1.00  0.00    -0.248 NA
ATOM     32  C   UNL A   1      45.231  24.124  28.510  1.00  0.00     0.031 C 
ATOM     33  C   UNL A   1      47.184  29.201  31.210  1.00  0.00     0.029 A 
ATOM     34  C   UNL A   1      46.383  28.266  30.575  1.00  0.00     0.049 A 
ATOM     35  H   UNL A   1      44.350  28.414  30.024  1.00  0.00     0.167 HD
ATOM     36  C   UNL A   1      45.881  26.071  29.536  1.00  0.00     0.074 A 
ATOM     37  C   UNL A   1      46.249  24.739  29.095  1.00  0.00     0.031 C 
ATOM     38  C   UNL A   1      46.735  26.947  30.117  1.00  0.00     0.031 A 
BRANCH  25  39
ATOM     39  C   UNL A   1      44.201  32.395  31.565  1.00  0.00    -0.014 A 
ATOM     40  C   UNL A   1      44.098  32.648  32.942  1.00  0.00     0.009 A 
ATOM     41  C   UNL A   1      44.536  33.456  30.707  1.00  0.00     0.009 A 
ATOM     42  C   UNL A   1      44.291  33.940  33.442  1.00  0.00     0.001 A 
ATOM     43  C   UNL A   1      44.753  34.739  31.212  1.00  0.00     0.001 A 
ATOM     44  C   UNL A   1      44.622  34.982  32.578  1.00  0.00     0.000 A 
ENDBRANCH  25  39
BRANCH  26  45
ATOM     45  C   UNL A   1      42.566  23.407  27.526  1.00  0.00    -0.014 A 
ATOM     46  C   UNL A   1      42.040  22.362  28.300  1.00  0.00     0.009 A 
ATOM     47  C   UNL A   1      42.817  23.184  26.162  1.00  0.00     0.009 A 
ATOM     48  C   UNL A   1      41.783  21.117  27.721  1.00  0.00     0.001 A 
ATOM     49  C   UNL A   1      42.528  21.949  25.580  1.00  0.00     0.001 A 
ATOM     50  C   UNL A   1      42.018  20.915  26.362  1.00  0.00     0.000 A 
ENDBRANCH  26  45
BRANCH  38  51
ATOM     51  C   UNL A   1      48.146  26.477  30.326  1.00  0.00    -0.014 A 
ATOM     52  C   UNL A   1      49.130  26.680  29.346  1.00  0.00     0.009 A 
ATOM     53  C   UNL A   1      48.496  25.836  31.523  1.00  0.00     0.009 A 
ATOM     54  C   UNL A   1      50.432  26.216  29.549  1.00  0.00     0.001 A 
ATOM     55  C   UNL A   1      49.804  25.399  31.734  1.00  0.00     0.001 A 
ATOM     56  C   UNL A   1      50.767  25.580  30.743  1.00  0.00     0.000 A 
ENDBRANCH  38  51
ENDBRANCH  12  13
ENDBRANCH   5   7
ENDBRANCH   2   3
ENDBRANCH   1   2
BRANCH   1  57
ATOM     57  C   UNL A   1      35.527  34.506  29.020  1.00  0.00     0.117 C 
BRANCH  57  58
ATOM     58  N   UNL A   1      36.749  34.379  29.788  1.00  0.00    -0.356 N 
ATOM     59  C   UNL A   1      36.955  33.895  31.040  1.00  0.00     0.224 C 
ATOM     60  H   UNL A   1      37.560  34.693  29.329  1.00  0.00     0.163 HD
ATOM     61  O   UNL A   1      38.135  33.786  31.382  1.00  0.00    -0.275 OA
BRANCH  59  62
ATOM     62  C   UNL A   1      35.794  33.606  31.991  1.00  0.00     0.098 C 
ATOM     63  C   UNL A   1      35.738  34.675  33.113  1.00  0.00     0.017 C 
ATOM     64  C   UNL A   1      35.816  32.224  32.644  1.00  0.00     0.131 C 
ATOM     65  C   UNL A   1      36.832  34.484  34.183  1.00  0.00     0.022 C 
ATOM     66  N   UNL A   1      36.910  32.152  33.586  1.00  0.00    -0.356 N 
ATOM     67  C   UNL A   1      36.892  33.051  34.717  1.00  0.00     0.118 C 
BRANCH  66  68
ATOM     68  C   UNL A   1      37.913  31.237  33.419  1.00  0.00     0.129 A 
ATOM     69  C   UNL A   1      37.662  30.018  32.797  1.00  0.00     0.047 A 
ATOM     70  N   UNL A   1      39.123  31.535  33.921  1.00  0.00    -0.231 NA
ATOM     71  C   UNL A   1      38.665  29.056  32.732  1.00  0.00     0.014 A 
ATOM     72  C   UNL A   1      40.103  30.625  33.830  1.00  0.00     0.073 A 
ATOM     73  C   UNL A   1      39.922  29.349  33.260  1.00  0.00     0.002 A 
ATOM     74  C   UNL A   1      41.357  30.955  34.309  1.00  0.00     0.030 A 
ATOM     75  C   UNL A   1      40.983  28.427  33.217  1.00  0.00     0.032 A 
ATOM     76  C   UNL A   1      42.428  30.059  34.242  1.00  0.00     0.024 A 
ATOM     77  C   UNL A   1      42.242  28.785  33.711  1.00  0.00     0.083 A 
BRANCH  77  78
ATOM     78  S   UNL A   1      43.546  27.571  33.571  1.00  0.00     0.243 S 
ATOM     79  O   UNL A   1      43.504  27.085  32.208  1.00  0.00    -0.207 OA
ATOM     80  O   UNL A   1      44.731  28.199  34.115  1.00  0.00    -0.207 OA
BRANCH  78  81
ATOM     81  N   UNL A   1      43.144  26.266  34.602  1.00  0.00    -0.198 NA
ATOM     82  C   UNL A   1      41.991  26.495  35.506  1.00  0.00     0.102 C 
ATOM     83  C   UNL A   1      43.367  24.908  34.047  1.00  0.00     0.102 C 
ATOM     84  C   UNL A   1      41.778  25.346  36.478  1.00  0.00     0.017 C 
ATOM     85  C   UNL A   1      43.067  23.800  35.046  1.00  0.00     0.017 C 
ATOM     86  C   UNL A   1      41.736  24.015  35.747  1.00  0.00     0.003 C 
ENDBRANCH  78  81
ENDBRANCH  77  78
ENDBRANCH  66  68
ENDBRANCH  59  62
ENDBRANCH  57  58
ENDBRANCH   1  57
TORSDOF 13
ENDMDL
MODEL 3
REMARK VINA RESULT:     -12.5      0.422      5.637
REMARK SMILES O=C(NCCCNC(=O)[C@@H]1CCCN(c2ccc3cc(S(=O)(=O)N4CCCCC4)ccc3n2)C1)c1ccc(-c2c3nc(c(-c4ccccc4)c4ccc([nH]4)c(-c4ccccc4)c4nc(c(-c5ccccc5)c5ccc2[nH]5)C=C4)C=C3)cc1
REMARK SMILES IDX 5 1 4 2 3 3 1 4 2 5 35 7 36 8 82 9 37 10 81 11 38 12 39 13
REMARK SMILES IDX 40 14 75 15 41 16 80 17 74 18 76 19 42 20 79 21 73 22 72 23
REMARK SMILES IDX 43 25 65 26 50 27 64 28 51 29 54 30 63 31 77 32 52 33 53 34
REMARK SMILES IDX 62 36 78 37 55 38 44 39 45 40 49 41 46 42 48 43 47 44 66 45
REMARK SMILES IDX 67 46 71 47 68 48 70 49 69 50 56 51 57 52 61 53 58 54 60 55
REMARK SMILES IDX 59 56 6 57 7 58 8 59 9 61 10 62 11 63 34 64 12 65 14 66
REMARK SMILES IDX 13 67 15 68 16 69 33 70 17 71 32 72 18 73 31 74 19 75 30 76
REMARK SMILES IDX 20 77 21 78 22 79 23 80 24 81 25 82 29 83 26 84 28 85 27 86
REMARK H PARENT 3 6 76 24 54 35 7 60
REMARK Flexibility Score: inf
ROOT
ATOM      1  C   UNL A   1      32.347  29.117  24.770  1.00  0.00     0.042 C 
ENDROOT
BRANCH   1   2
ATOM      2  C   UNL A   1      32.019  29.480  26.211  1.00  0.00     0.118 C 
BRANCH   2   3
ATOM      3  N   UNL A   1      31.800  30.903  26.433  1.00  0.00    -0.352 N 
ATOM      4  O   UNL A   1      32.170  32.990  27.207  1.00  0.00    -0.269 OA
ATOM      5  C   UNL A   1      32.580  31.842  27.070  1.00  0.00     0.251 C 
ATOM      6  H   UNL A   1      30.954  31.250  26.069  1.00  0.00     0.163 HD
BRANCH   5   7
ATOM      7  C   UNL A   1      33.891  31.451  27.635  1.00  0.00     0.039 A 
ATOM      8  C   UNL A   1      34.228  30.108  27.775  1.00  0.00     0.014 A 
ATOM      9  C   UNL A   1      34.776  32.441  28.071  1.00  0.00     0.014 A 
ATOM     10  C   UNL A   1      35.308  29.754  28.568  1.00  0.00     0.010 A 
ATOM     11  C   UNL A   1      35.949  32.075  28.742  1.00  0.00     0.010 A 
ATOM     12  C   UNL A   1      36.199  30.729  29.044  1.00  0.00    -0.014 A 
BRANCH  12  13
ATOM     13  C   UNL A   1      37.404  30.290  29.795  1.00  0.00     0.031 A 
ATOM     14  C   UNL A   1      38.512  29.519  29.129  1.00  0.00     0.074 A 
ATOM     15  C   UNL A   1      37.518  30.649  31.090  1.00  0.00     0.049 A 
ATOM     16  N   UNL A   1      39.641  29.097  29.644  1.00  0.00    -0.248 NA
ATOM     17  C   UNL A   1      38.334  29.169  27.712  1.00  0.00     0.031 C 
ATOM     18  C   UNL A   1      36.511  31.401  31.847  1.00  0.00     0.029 A 
ATOM     19  N   UNL A   1      38.538  30.472  31.987  1.00  0.00    -0.354 N 
ATOM     20  C   UNL A   1      40.290  28.405  28.628  1.00  0.00     0.074 A 
ATOM     21  C   UNL A   1      39.423  28.449  27.470  1.00  0.00     0.031 C 
ATOM     22  C   UNL A   1      36.996  31.689  33.060  1.00  0.00     0.029 A 
ATOM     23  C   UNL A   1      38.303  31.064  33.204  1.00  0.00     0.049 A 
ATOM     24  H   UNL A   1      39.358  29.967  31.780  1.00  0.00     0.167 HD
ATOM     25  C   UNL A   1      41.496  27.787  28.660  1.00  0.00     0.031 A 
ATOM     26  C   UNL A   1      39.043  31.088  34.325  1.00  0.00     0.031 A 
ATOM     27  C   UNL A   1      42.359  27.750  29.813  1.00  0.00     0.049 A 
ATOM     28  C   UNL A   1      40.356  30.368  34.342  1.00  0.00     0.074 A 
ATOM     29  C   UNL A   1      43.612  27.173  29.936  1.00  0.00     0.029 A 
ATOM     30  N   UNL A   1      42.056  28.310  31.046  1.00  0.00    -0.354 N 
ATOM     31  N   UNL A   1      40.957  29.730  33.368  1.00  0.00    -0.248 NA
ATOM     32  C   UNL A   1      41.086  30.363  35.615  1.00  0.00     0.031 C 
ATOM     33  C   UNL A   1      44.042  27.338  31.258  1.00  0.00     0.029 A 
ATOM     34  C   UNL A   1      43.084  28.067  31.943  1.00  0.00     0.049 A 
ATOM     35  H   UNL A   1      41.231  28.806  31.253  1.00  0.00     0.167 HD
ATOM     36  C   UNL A   1      42.141  29.252  33.907  1.00  0.00     0.074 A 
ATOM     37  C   UNL A   1      42.185  29.698  35.286  1.00  0.00     0.031 C 
ATOM     38  C   UNL A   1      43.104  28.505  33.315  1.00  0.00     0.031 A 
BRANCH  25  39
ATOM     39  C   UNL A   1      41.941  27.063  27.418  1.00  0.00    -0.014 A 
ATOM     40  C   UNL A   1      41.594  25.724  27.182  1.00  0.00     0.009 A 
ATOM     41  C   UNL A   1      42.689  27.749  26.446  1.00  0.00     0.009 A 
ATOM     42  C   UNL A   1      42.015  25.078  26.015  1.00  0.00     0.001 A 
ATOM     43  C   UNL A   1      43.086  27.109  25.270  1.00  0.00     0.001 A 
ATOM     44  C   UNL A   1      42.756  25.772  25.059  1.00  0.00     0.000 A 
ENDBRANCH  25  39
BRANCH  26  45
ATOM     45  C   UNL A   1      38.532  31.796  35.527  1.00  0.00    -0.014 A 
ATOM     46  C   UNL A   1      37.964  31.080  36.591  1.00  0.00     0.009 A 
ATOM     47  C   UNL A   1      38.647  33.192  35.631  1.00  0.00     0.009 A 
ATOM     48  C   UNL A   1      37.511  31.752  37.729  1.00  0.00     0.001 A 
ATOM     49  C   UNL A   1      38.223  33.855  36.783  1.00  0.00     0.001 A 
ATOM     50  C   UNL A   1      37.649  33.135  37.828  1.00  0.00     0.000 A 
ENDBRANCH  26  45
BRANCH  38  51
ATOM     51  C   UNL A   1      44.293  28.144  34.158  1.00  0.00    -0.014 A 
ATOM     52  C   UNL A   1      45.353  29.045  34.339  1.00  0.00     0.009 A 
ATOM     53  C   UNL A   1      44.345  26.892  34.788  1.00  0.00     0.009 A 
ATOM     54  C   UNL A   1      46.461  28.683  35.109  1.00  0.00     0.001 A 
ATOM     55  C   UNL A   1      45.440  26.545  35.580  1.00  0.00     0.001 A 
ATOM     56  C   UNL A   1      46.501  27.436  35.730  1.00  0.00     0.000 A 
ENDBRANCH  38  51
ENDBRANCH  12  13
ENDBRANCH   5   7
ENDBRANCH   2   3
ENDBRANCH   1   2
BRANCH   1  57
ATOM     57  C   UNL A   1      33.413  28.047  24.633  1.00  0.00     0.117 C 
BRANCH  57  58
ATOM     58  N   UNL A   1      33.205  26.918  25.518  1.00  0.00    -0.356 N 
ATOM     59  C   UNL A   1      33.104  25.592  25.242  1.00  0.00     0.224 C 
ATOM     60  H   UNL A   1      33.123  27.149  26.470  1.00  0.00     0.163 HD
ATOM     61  O   UNL A   1      33.062  24.846  26.224  1.00  0.00    -0.275 OA
BRANCH  59  62
ATOM     62  C   UNL A   1      32.949  25.077  23.812  1.00  0.00     0.098 C 
ATOM     63  C   UNL A   1      31.784  24.057  23.730  1.00  0.00     0.017 C 
ATOM     64  C   UNL A   1      34.198  24.429  23.215  1.00  0.00     0.131 C 
ATOM     65  C   UNL A   1      32.144  22.681  24.324  1.00  0.00     0.022 C 
ATOM     66  N   UNL A   1      34.460  23.175  23.885  1.00  0.00    -0.356 N 
ATOM     67  C   UNL A   1      33.466  22.132  23.783  1.00  0.00     0.118 C 
BRANCH  66  68
ATOM     68  C   UNL A   1      35.629  22.982  24.568  1.00  0.00     0.129 A 
ATOM     69  C   UNL A   1      36.190  24.013  25.316  1.00  0.00     0.047 A 
ATOM     70  N   UNL A   1      36.236  21.790  24.446  1.00  0.00    -0.231 NA
ATOM     71  C   UNL A   1      37.433  23.834  25.915  1.00  0.00     0.014 A 
ATOM     72  C   UNL A   1      37.418  21.601  25.051  1.00  0.00     0.073 A 
ATOM     73  C   UNL A   1      38.078  22.605  25.787  1.00  0.00     0.002 A 
ATOM     74  C   UNL A   1      38.016  20.358  24.958  1.00  0.00     0.030 A 
ATOM     75  C   UNL A   1      39.330  22.354  26.376  1.00  0.00     0.032 A 
ATOM     76  C   UNL A   1      39.245  20.086  25.568  1.00  0.00     0.024 A 
ATOM     77  C   UNL A   1      39.915  21.088  26.265  1.00  0.00     0.083 A 
BRANCH  77  78
ATOM     78  S   UNL A   1      41.482  20.841  27.088  1.00  0.00     0.243 S 
ATOM     79  O   UNL A   1      41.771  22.073  27.791  1.00  0.00    -0.207 OA
ATOM     80  O   UNL A   1      41.368  19.579  27.787  1.00  0.00    -0.207 OA
BRANCH  78  81
ATOM     81  N   UNL A   1      42.672  20.644  25.874  1.00  0.00    -0.198 NA
ATOM     82  C   UNL A   1      43.608  21.781  25.704  1.00  0.00     0.102 C 
ATOM     83  C   UNL A   1      43.173  19.262  25.675  1.00  0.00     0.102 C 
ATOM     84  C   UNL A   1      44.548  21.588  24.524  1.00  0.00     0.017 C 
ATOM     85  C   UNL A   1      44.164  19.148  24.526  1.00  0.00     0.017 C 
ATOM     86  C   UNL A   1      45.228  20.231  24.587  1.00  0.00     0.003 C 
ENDBRANCH  78  81
ENDBRANCH  77  78
ENDBRANCH  66  68
ENDBRANCH  59  62
ENDBRANCH  57  58
ENDBRANCH   1  57
TORSDOF 13
ENDMDL
