MODEL 1
REMARK VINA RESULT:     -11.7      0.000      0.000
REMARK SMILES O=C(CCCc1nc(-c2ccc(Cl)c(Cl)c2)c(-c2ccccc2)o1)NCCCNC(=O)c1ccc(-c2c3nc(c(-c4ccccc4)c4ccc([nH]4)c(-c4ccccc4)c4nc(c(-c5ccccc5)c5ccc2[nH]5)C=C4)C=C3)cc1
REMARK SMILES IDX 26 1 25 2 1 3 2 4 3 6 4 7 5 8 6 9 7 10 24 11 8 12 17 13 9 14
REMARK SMILES IDX 10 15 16 16 11 17 14 18 12 19 15 20 13 21 18 22 19 23 23 24
REMARK SMILES IDX 20 25 22 26 21 27 27 28 28 29 29 30 30 31 31 33 32 34 33 35
REMARK SMILES IDX 79 36 34 37 78 38 35 39 36 40 37 41 72 42 38 43 77 44 71 45
REMARK SMILES IDX 73 46 39 47 76 48 70 49 69 50 40 52 62 53 47 54 61 55 48 56
REMARK SMILES IDX 51 57 60 58 74 59 49 60 50 61 59 63 75 64 52 65 41 66 42 67
REMARK SMILES IDX 46 68 43 69 45 70 44 71 63 72 64 73 68 74 65 75 67 76 66 77
REMARK SMILES IDX 53 78 54 79 58 80 55 81 57 82 56 83
REMARK H PARENT 25 5 29 32 73 51 51 62
REMARK Flexibility Score: inf
ROOT
ATOM      1  C   UNL A   1      33.442  27.205  26.209  1.00  0.00     0.117 C 
ENDROOT
BRANCH   1   2
ATOM      2  N   UNL A   1      32.381  27.061  25.232  1.00  0.00    -0.356 N 
ATOM      3  O   UNL A   1      30.762  26.508  26.764  1.00  0.00    -0.275 OA
ATOM      4  C   UNL A   1      31.092  26.765  25.611  1.00  0.00     0.220 C 
ATOM      5  H   UNL A   1      32.588  27.178  24.276  1.00  0.00     0.163 HD
BRANCH   4   6
ATOM      6  C   UNL A   1      30.086  26.834  24.484  1.00  0.00     0.100 C 
BRANCH   6   7
ATOM      7  C   UNL A   1      29.865  25.461  23.842  1.00  0.00     0.020 C 
BRANCH   7   8
ATOM      8  C   UNL A   1      30.909  25.055  22.794  1.00  0.00     0.098 C 
BRANCH   8   9
ATOM      9  C   UNL A   1      31.916  24.113  23.345  1.00  0.00     0.195 A 
ATOM     10  N   UNL A   1      33.128  24.385  23.786  1.00  0.00    -0.213 NA
ATOM     11  O   UNL A   1      31.585  22.781  23.357  1.00  0.00    -0.440 OA
ATOM     12  C   UNL A   1      33.637  23.155  24.113  1.00  0.00     0.117 A 
ATOM     13  C   UNL A   1      32.690  22.174  23.899  1.00  0.00     0.162 A 
BRANCH  12  14
ATOM     14  C   UNL A   1      34.975  22.947  24.618  1.00  0.00     0.006 A 
ATOM     15  C   UNL A   1      35.626  23.971  25.311  1.00  0.00     0.012 A 
ATOM     16  C   UNL A   1      35.623  21.718  24.428  1.00  0.00     0.032 A 
ATOM     17  C   UNL A   1      36.902  23.757  25.840  1.00  0.00     0.023 A 
ATOM     18  C   UNL A   1      36.904  21.508  24.949  1.00  0.00     0.060 A 
ATOM     19  C   UNL A   1      37.541  22.527  25.664  1.00  0.00     0.059 A 
ATOM     20  Cl  UNL A   1      37.635  19.966  24.677  1.00  0.00    -0.083 Cl
ATOM     21  Cl  UNL A   1      39.112  22.329  26.355  1.00  0.00    -0.083 Cl
ENDBRANCH  12  14
BRANCH  13  22
ATOM     22  C   UNL A   1      32.620  20.749  24.160  1.00  0.00     0.020 A 
ATOM     23  C   UNL A   1      32.433  19.828  23.124  1.00  0.00     0.012 A 
ATOM     24  C   UNL A   1      32.821  20.274  25.465  1.00  0.00     0.012 A 
ATOM     25  C   UNL A   1      32.465  18.456  23.388  1.00  0.00     0.001 A 
ATOM     26  C   UNL A   1      32.845  18.904  25.729  1.00  0.00     0.001 A 
ATOM     27  C   UNL A   1      32.673  17.995  24.689  1.00  0.00     0.000 A 
ENDBRANCH  13  22
ENDBRANCH   8   9
ENDBRANCH   7   8
ENDBRANCH   6   7
ENDBRANCH   4   6
ENDBRANCH   1   2
BRANCH   1  28
ATOM     28  C   UNL A   1      33.631  28.641  26.674  1.00  0.00     0.042 C 
BRANCH  28  29
ATOM     29  C   UNL A   1      34.993  28.948  27.285  1.00  0.00     0.118 C 
BRANCH  29  30
ATOM     30  N   UNL A   1      34.927  29.775  28.477  1.00  0.00    -0.352 N 
ATOM     31  C   UNL A   1      35.911  30.103  29.377  1.00  0.00     0.251 C 
ATOM     32  H   UNL A   1      34.041  30.159  28.670  1.00  0.00     0.163 HD
ATOM     33  O   UNL A   1      35.617  30.749  30.383  1.00  0.00    -0.269 OA
BRANCH  31  34
ATOM     34  C   UNL A   1      37.311  29.666  29.176  1.00  0.00     0.039 A 
ATOM     35  C   UNL A   1      37.885  29.820  27.910  1.00  0.00     0.014 A 
ATOM     36  C   UNL A   1      38.052  29.072  30.200  1.00  0.00     0.014 A 
ATOM     37  C   UNL A   1      39.206  29.423  27.685  1.00  0.00     0.010 A 
ATOM     38  C   UNL A   1      39.394  28.750  29.997  1.00  0.00     0.010 A 
ATOM     39  C   UNL A   1      39.982  28.904  28.733  1.00  0.00    -0.014 A 
BRANCH  39  40
ATOM     40  C   UNL A   1      41.393  28.494  28.510  1.00  0.00     0.031 A 
ATOM     41  C   UNL A   1      41.728  27.071  28.148  1.00  0.00     0.074 A 
ATOM     42  C   UNL A   1      42.386  29.393  28.665  1.00  0.00     0.049 A 
ATOM     43  N   UNL A   1      42.898  26.536  27.896  1.00  0.00    -0.248 NA
ATOM     44  C   UNL A   1      40.609  26.118  28.083  1.00  0.00     0.031 C 
ATOM     45  C   UNL A   1      42.212  30.790  29.068  1.00  0.00     0.029 A 
ATOM     46  N   UNL A   1      43.742  29.263  28.496  1.00  0.00    -0.354 N 
ATOM     47  C   UNL A   1      42.655  25.189  27.655  1.00  0.00     0.074 A 
ATOM     48  C   UNL A   1      41.237  24.976  27.845  1.00  0.00     0.031 C 
ATOM     49  C   UNL A   1      43.410  31.396  29.079  1.00  0.00     0.029 A 
ATOM     50  C   UNL A   1      44.438  30.428  28.708  1.00  0.00     0.049 A 
ATOM     51  H   UNL A   1      44.176  28.414  28.245  1.00  0.00     0.167 HD
ATOM     52  C   UNL A   1      43.525  24.220  27.284  1.00  0.00     0.031 A 
ATOM     53  C   UNL A   1      45.753  30.693  28.603  1.00  0.00     0.031 A 
ATOM     54  C   UNL A   1      44.934  24.426  27.074  1.00  0.00     0.049 A 
ATOM     55  C   UNL A   1      46.696  29.608  28.164  1.00  0.00     0.074 A 
ATOM     56  C   UNL A   1      45.885  23.516  26.646  1.00  0.00     0.029 A 
ATOM     57  N   UNL A   1      45.591  25.628  27.274  1.00  0.00    -0.354 N 
ATOM     58  N   UNL A   1      46.436  28.358  27.868  1.00  0.00    -0.248 NA
ATOM     59  C   UNL A   1      48.110  29.981  28.022  1.00  0.00     0.031 C 
ATOM     60  C   UNL A   1      47.127  24.160  26.622  1.00  0.00     0.029 A 
ATOM     61  C   UNL A   1      46.939  25.483  26.988  1.00  0.00     0.049 A 
ATOM     62  H   UNL A   1      45.165  26.463  27.574  1.00  0.00     0.167 HD
ATOM     63  C   UNL A   1      47.647  27.805  27.469  1.00  0.00     0.074 A 
ATOM     64  C   UNL A   1      48.637  28.858  27.553  1.00  0.00     0.031 C 
ATOM     65  C   UNL A   1      47.913  26.538  27.068  1.00  0.00     0.031 A 
BRANCH  52  66
ATOM     66  C   UNL A   1      42.968  22.839  27.077  1.00  0.00    -0.014 A 
ATOM     67  C   UNL A   1      42.499  22.076  28.159  1.00  0.00     0.009 A 
ATOM     68  C   UNL A   1      42.886  22.303  25.783  1.00  0.00     0.009 A 
ATOM     69  C   UNL A   1      41.995  20.790  27.953  1.00  0.00     0.001 A 
ATOM     70  C   UNL A   1      42.356  21.028  25.577  1.00  0.00     0.001 A 
ATOM     71  C   UNL A   1      41.921  20.269  26.663  1.00  0.00     0.000 A 
ENDBRANCH  52  66
BRANCH  53  72
ATOM     72  C   UNL A   1      46.259  32.065  28.871  1.00  0.00    -0.014 A 
ATOM     73  C   UNL A   1      46.320  33.013  27.838  1.00  0.00     0.009 A 
ATOM     74  C   UNL A   1      46.692  32.427  30.155  1.00  0.00     0.009 A 
ATOM     75  C   UNL A   1      46.834  34.289  28.080  1.00  0.00     0.001 A 
ATOM     76  C   UNL A   1      47.180  33.713  30.399  1.00  0.00     0.001 A 
ATOM     77  C   UNL A   1      47.260  34.639  29.359  1.00  0.00     0.000 A 
ENDBRANCH  53  72
BRANCH  65  78
ATOM     78  C   UNL A   1      49.322  26.236  26.641  1.00  0.00    -0.014 A 
ATOM     79  C   UNL A   1      49.765  26.504  25.337  1.00  0.00     0.009 A 
ATOM     80  C   UNL A   1      50.225  25.694  27.570  1.00  0.00     0.009 A 
ATOM     81  C   UNL A   1      51.074  26.195  24.959  1.00  0.00     0.001 A 
ATOM     82  C   UNL A   1      51.539  25.413  27.198  1.00  0.00     0.001 A 
ATOM     83  C   UNL A   1      51.960  25.654  25.891  1.00  0.00     0.000 A 
ENDBRANCH  65  78
ENDBRANCH  39  40
ENDBRANCH  31  34
ENDBRANCH  29  30
ENDBRANCH  28  29
ENDBRANCH   1  28
TORSDOF 15
ENDMDL
MODEL 2
REMARK VINA RESULT:     -11.7      3.239      8.058
REMARK SMILES O=C(CCCc1nc(-c2ccc(Cl)c(Cl)c2)c(-c2ccccc2)o1)NCCCNC(=O)c1ccc(-c2c3nc(c(-c4ccccc4)c4ccc([nH]4)c(-c4ccccc4)c4nc(c(-c5ccccc5)c5ccc2[nH]5)C=C4)C=C3)cc1
REMARK SMILES IDX 26 1 25 2 1 3 2 4 3 6 4 7 5 8 6 9 7 10 24 11 8 12 17 13 9 14
REMARK SMILES IDX 10 15 16 16 11 17 14 18 12 19 15 20 13 21 18 22 19 23 23 24
REMARK SMILES IDX 20 25 22 26 21 27 27 28 28 29 29 30 30 31 31 33 32 34 33 35
REMARK SMILES IDX 79 36 34 37 78 38 35 39 36 40 37 41 72 42 38 43 77 44 71 45
REMARK SMILES IDX 73 46 39 47 76 48 70 49 69 50 40 52 62 53 47 54 61 55 48 56
REMARK SMILES IDX 51 57 60 58 74 59 49 60 50 61 59 63 75 64 52 65 41 66 42 67
REMARK SMILES IDX 46 68 43 69 45 70 44 71 63 72 64 73 68 74 65 75 67 76 66 77
REMARK SMILES IDX 53 78 54 79 58 80 55 81 57 82 56 83
REMARK H PARENT 25 5 29 32 73 51 51 62
REMARK Flexibility Score: inf
ROOT
ATOM      1  C   UNL A   1      37.205  20.988  24.816  1.00  0.00     0.117 C 
ENDROOT
BRANCH   1   2
ATOM      2  N   UNL A   1      35.851  20.491  24.680  1.00  0.00    -0.356 N 
ATOM      3  O   UNL A   1      34.898  22.126  25.981  1.00  0.00    -0.275 OA
ATOM      4  C   UNL A   1      34.785  21.149  25.249  1.00  0.00     0.220 C 
ATOM      5  H   UNL A   1      35.691  19.665  24.168  1.00  0.00     0.163 HD
BRANCH   4   6
ATOM      6  C   UNL A   1      33.435  20.594  24.853  1.00  0.00     0.100 C 
BRANCH   6   7
ATOM      7  C   UNL A   1      32.552  21.667  24.208  1.00  0.00     0.020 C 
BRANCH   7   8
ATOM      8  C   UNL A   1      31.424  22.205  25.097  1.00  0.00     0.098 C 
BRANCH   8   9
ATOM      9  C   UNL A   1      31.265  23.677  24.968  1.00  0.00     0.195 A 
ATOM     10  N   UNL A   1      30.433  24.339  24.190  1.00  0.00    -0.213 NA
ATOM     11  O   UNL A   1      32.116  24.463  25.703  1.00  0.00    -0.440 OA
ATOM     12  C   UNL A   1      30.751  25.652  24.420  1.00  0.00     0.117 A 
ATOM     13  C   UNL A   1      31.744  25.743  25.375  1.00  0.00     0.162 A 
BRANCH  12  14
ATOM     14  C   UNL A   1      30.113  26.764  23.752  1.00  0.00     0.006 A 
ATOM     15  C   UNL A   1      30.866  27.609  22.932  1.00  0.00     0.012 A 
ATOM     16  C   UNL A   1      28.740  26.996  23.911  1.00  0.00     0.032 A 
ATOM     17  C   UNL A   1      30.244  28.657  22.248  1.00  0.00     0.023 A 
ATOM     18  C   UNL A   1      28.119  28.051  23.235  1.00  0.00     0.060 A 
ATOM     19  C   UNL A   1      28.872  28.879  22.395  1.00  0.00     0.059 A 
ATOM     20  Cl  UNL A   1      26.423  28.270  23.479  1.00  0.00    -0.083 Cl
ATOM     21  Cl  UNL A   1      28.167  30.185  21.511  1.00  0.00    -0.083 Cl
ENDBRANCH  12  14
BRANCH  13  22
ATOM     22  C   UNL A   1      32.385  26.836  26.079  1.00  0.00     0.020 A 
ATOM     23  C   UNL A   1      33.712  27.192  25.816  1.00  0.00     0.012 A 
ATOM     24  C   UNL A   1      31.641  27.605  26.988  1.00  0.00     0.012 A 
ATOM     25  C   UNL A   1      34.277  28.310  26.439  1.00  0.00     0.001 A 
ATOM     26  C   UNL A   1      32.209  28.715  27.615  1.00  0.00     0.001 A 
ATOM     27  C   UNL A   1      33.525  29.070  27.334  1.00  0.00     0.000 A 
ENDBRANCH  13  22
ENDBRANCH   8   9
ENDBRANCH   7   8
ENDBRANCH   6   7
ENDBRANCH   4   6
ENDBRANCH   1   2
BRANCH   1  28
ATOM     28  C   UNL A   1      38.242  19.876  24.891  1.00  0.00     0.042 C 
BRANCH  28  29
ATOM     29  C   UNL A   1      39.206  19.972  26.067  1.00  0.00     0.118 C 
BRANCH  29  30
ATOM     30  N   UNL A   1      40.417  19.187  25.897  1.00  0.00    -0.352 N 
ATOM     31  C   UNL A   1      41.732  19.559  26.022  1.00  0.00     0.251 C 
ATOM     32  H   UNL A   1      40.271  18.243  25.654  1.00  0.00     0.163 HD
ATOM     33  O   UNL A   1      42.617  18.750  25.738  1.00  0.00    -0.269 OA
BRANCH  31  34
ATOM     34  C   UNL A   1      42.106  20.923  26.461  1.00  0.00     0.039 A 
ATOM     35  C   UNL A   1      42.164  21.192  27.832  1.00  0.00     0.014 A 
ATOM     36  C   UNL A   1      42.360  21.948  25.546  1.00  0.00     0.014 A 
ATOM     37  C   UNL A   1      42.518  22.467  28.282  1.00  0.00     0.010 A 
ATOM     38  C   UNL A   1      42.790  23.196  25.996  1.00  0.00     0.010 A 
ATOM     39  C   UNL A   1      42.856  23.477  27.368  1.00  0.00    -0.014 A 
BRANCH  39  40
ATOM     40  C   UNL A   1      43.250  24.831  27.836  1.00  0.00     0.031 A 
ATOM     41  C   UNL A   1      42.202  25.864  28.158  1.00  0.00     0.074 A 
ATOM     42  C   UNL A   1      44.555  25.152  27.941  1.00  0.00     0.049 A 
ATOM     43  N   UNL A   1      42.358  27.089  28.598  1.00  0.00    -0.248 NA
ATOM     44  C   UNL A   1      40.799  25.482  27.935  1.00  0.00     0.031 C 
ATOM     45  C   UNL A   1      45.676  24.270  27.610  1.00  0.00     0.029 A 
ATOM     46  N   UNL A   1      45.158  26.310  28.365  1.00  0.00    -0.354 N 
ATOM     47  C   UNL A   1      41.078  27.623  28.692  1.00  0.00     0.074 A 
ATOM     48  C   UNL A   1      40.163  26.611  28.213  1.00  0.00     0.031 C 
ATOM     49  C   UNL A   1      46.829  24.906  27.877  1.00  0.00     0.029 A 
ATOM     50  C   UNL A   1      46.530  26.245  28.374  1.00  0.00     0.049 A 
ATOM     51  H   UNL A   1      44.655  27.112  28.637  1.00  0.00     0.167 HD
ATOM     52  C   UNL A   1      40.693  28.835  29.159  1.00  0.00     0.031 A 
ATOM     53  C   UNL A   1      47.447  27.154  28.755  1.00  0.00     0.031 A 
ATOM     54  C   UNL A   1      41.594  29.841  29.656  1.00  0.00     0.049 A 
ATOM     55  C   UNL A   1      46.995  28.482  29.295  1.00  0.00     0.074 A 
ATOM     56  C   UNL A   1      41.292  31.078  30.199  1.00  0.00     0.029 A 
ATOM     57  N   UNL A   1      42.974  29.721  29.673  1.00  0.00    -0.354 N 
ATOM     58  N   UNL A   1      45.777  28.941  29.447  1.00  0.00    -0.248 NA
ATOM     59  C   UNL A   1      48.048  29.407  29.737  1.00  0.00     0.031 C 
ATOM     60  C   UNL A   1      42.494  31.723  30.512  1.00  0.00     0.029 A 
ATOM     61  C   UNL A   1      43.540  30.867  30.208  1.00  0.00     0.049 A 
ATOM     62  H   UNL A   1      43.478  28.939  29.354  1.00  0.00     0.167 HD
ATOM     63  C   UNL A   1      45.915  30.191  30.037  1.00  0.00     0.074 A 
ATOM     64  C   UNL A   1      47.333  30.413  30.223  1.00  0.00     0.031 C 
ATOM     65  C   UNL A   1      44.952  31.075  30.395  1.00  0.00     0.031 A 
BRANCH  52  66
ATOM     66  C   UNL A   1      39.220  29.136  29.157  1.00  0.00    -0.014 A 
ATOM     67  C   UNL A   1      38.427  28.886  30.289  1.00  0.00     0.009 A 
ATOM     68  C   UNL A   1      38.622  29.701  28.021  1.00  0.00     0.009 A 
ATOM     69  C   UNL A   1      37.057  29.160  30.269  1.00  0.00     0.001 A 
ATOM     70  C   UNL A   1      37.258  30.000  28.014  1.00  0.00     0.001 A 
ATOM     71  C   UNL A   1      36.475  29.720  29.133  1.00  0.00     0.000 A 
ENDBRANCH  52  66
BRANCH  53  72
ATOM     72  C   UNL A   1      48.895  26.824  28.686  1.00  0.00    -0.014 A 
ATOM     73  C   UNL A   1      49.635  27.114  27.529  1.00  0.00     0.009 A 
ATOM     74  C   UNL A   1      49.539  26.208  29.770  1.00  0.00     0.009 A 
ATOM     75  C   UNL A   1      50.985  26.767  27.448  1.00  0.00     0.001 A 
ATOM     76  C   UNL A   1      50.896  25.887  29.694  1.00  0.00     0.001 A 
ATOM     77  C   UNL A   1      51.615  26.157  28.531  1.00  0.00     0.000 A 
ENDBRANCH  53  72
BRANCH  65  78
ATOM     78  C   UNL A   1      45.399  32.341  31.069  1.00  0.00    -0.014 A 
ATOM     79  C   UNL A   1      45.556  32.413  32.461  1.00  0.00     0.009 A 
ATOM     80  C   UNL A   1      45.687  33.473  30.291  1.00  0.00     0.009 A 
ATOM     81  C   UNL A   1      45.954  33.608  33.065  1.00  0.00     0.001 A 
ATOM     82  C   UNL A   1      46.112  34.657  30.894  1.00  0.00     0.001 A 
ATOM     83  C   UNL A   1      46.235  34.727  32.281  1.00  0.00     0.000 A 
ENDBRANCH  65  78
ENDBRANCH  39  40
ENDBRANCH  31  34
ENDBRANCH  29  30
ENDBRANCH  28  29
ENDBRANCH   1  28
TORSDOF 15
ENDMDL
MODEL 3
REMARK VINA RESULT:     -11.6      3.757      5.710
REMARK SMILES O=C(CCCc1nc(-c2ccc(Cl)c(Cl)c2)c(-c2ccccc2)o1)NCCCNC(=O)c1ccc(-c2c3nc(c(-c4ccccc4)c4ccc([nH]4)c(-c4ccccc4)c4nc(c(-c5ccccc5)c5ccc2[nH]5)C=C4)C=C3)cc1
REMARK SMILES IDX 26 1 25 2 1 3 2 4 3 6 4 7 5 8 6 9 7 10 24 11 8 12 17 13 9 14
REMARK SMILES IDX 10 15 16 16 11 17 14 18 12 19 15 20 13 21 18 22 19 23 23 24
REMARK SMILES IDX 20 25 22 26 21 27 27 28 28 29 29 30 30 31 31 33 32 34 33 35
REMARK SMILES IDX 79 36 34 37 78 38 35 39 36 40 37 41 72 42 38 43 77 44 71 45
REMARK SMILES IDX 73 46 39 47 76 48 70 49 69 50 40 52 62 53 47 54 61 55 48 56
REMARK SMILES IDX 51 57 60 58 74 59 49 60 50 61 59 63 75 64 52 65 41 66 42 67
REMARK SMILES IDX 46 68 43 69 45 70 44 71 63 72 64 73 68 74 65 75 67 76 66 77
REMARK SMILES IDX 53 78 54 79 58 80 55 81 57 82 56 83
REMARK H PARENT 25 5 29 32 73 51 51 62
REMARK Flexibility Score: inf
ROOT
ATOM      1  C   UNL A   1      32.038  29.663  25.103  1.00  0.00     0.117 C 
ENDROOT
BRANCH   1   2
ATOM      2  N   UNL A   1      30.977  28.719  24.812  1.00  0.00    -0.356 N 
ATOM      3  O   UNL A   1      30.554  29.526  22.704  1.00  0.00    -0.275 OA
ATOM      4  C   UNL A   1      30.347  28.704  23.589  1.00  0.00     0.220 C 
ATOM      5  H   UNL A   1      30.703  28.075  25.505  1.00  0.00     0.163 HD
BRANCH   4   6
ATOM      6  C   UNL A   1      29.399  27.541  23.399  1.00  0.00     0.100 C 
BRANCH   6   7
ATOM      7  C   UNL A   1      30.085  26.202  23.688  1.00  0.00     0.020 C 
BRANCH   7   8
ATOM      8  C   UNL A   1      31.198  25.814  22.707  1.00  0.00     0.098 C 
BRANCH   8   9
ATOM      9  C   UNL A   1      31.955  24.620  23.166  1.00  0.00     0.195 A 
ATOM     10  N   UNL A   1      31.549  23.368  23.210  1.00  0.00    -0.213 NA
ATOM     11  O   UNL A   1      33.218  24.834  23.659  1.00  0.00    -0.440 OA
ATOM     12  C   UNL A   1      32.609  22.703  23.768  1.00  0.00     0.117 A 
ATOM     13  C   UNL A   1      33.650  23.578  24.005  1.00  0.00     0.162 A 
BRANCH  12  14
ATOM     14  C   UNL A   1      32.613  21.285  24.049  1.00  0.00     0.006 A 
ATOM     15  C   UNL A   1      32.783  20.835  25.362  1.00  0.00     0.012 A 
ATOM     16  C   UNL A   1      32.436  20.355  23.016  1.00  0.00     0.032 A 
ATOM     17  C   UNL A   1      32.741  19.467  25.643  1.00  0.00     0.023 A 
ATOM     18  C   UNL A   1      32.405  18.986  23.296  1.00  0.00     0.060 A 
ATOM     19  C   UNL A   1      32.550  18.541  24.614  1.00  0.00     0.059 A 
ATOM     20  Cl  UNL A   1      32.180  17.902  21.969  1.00  0.00    -0.083 Cl
ATOM     21  Cl  UNL A   1      32.497  16.867  25.037  1.00  0.00    -0.083 Cl
ENDBRANCH  12  14
BRANCH  13  22
ATOM     22  C   UNL A   1      35.019  23.436  24.463  1.00  0.00     0.020 A 
ATOM     23  C   UNL A   1      35.491  24.139  25.576  1.00  0.00     0.012 A 
ATOM     24  C   UNL A   1      35.870  22.518  23.827  1.00  0.00     0.012 A 
ATOM     25  C   UNL A   1      36.784  23.913  26.055  1.00  0.00     0.001 A 
ATOM     26  C   UNL A   1      37.163  22.298  24.301  1.00  0.00     0.001 A 
ATOM     27  C   UNL A   1      37.618  22.992  25.420  1.00  0.00     0.000 A 
ENDBRANCH  13  22
ENDBRANCH   8   9
ENDBRANCH   7   8
ENDBRANCH   6   7
ENDBRANCH   4   6
ENDBRANCH   1   2
BRANCH   1  28
ATOM     28  C   UNL A   1      31.549  30.894  25.852  1.00  0.00     0.042 C 
BRANCH  28  29
ATOM     29  C   UNL A   1      32.474  31.385  26.960  1.00  0.00     0.118 C 
BRANCH  29  30
ATOM     30  N   UNL A   1      32.267  32.777  27.320  1.00  0.00    -0.352 N 
ATOM     31  C   UNL A   1      33.060  33.623  28.055  1.00  0.00     0.251 C 
ATOM     32  H   UNL A   1      31.430  33.175  26.987  1.00  0.00     0.163 HD
ATOM     33  O   UNL A   1      32.648  34.752  28.326  1.00  0.00    -0.269 OA
BRANCH  31  34
ATOM     34  C   UNL A   1      34.386  33.193  28.555  1.00  0.00     0.039 A 
ATOM     35  C   UNL A   1      34.442  32.411  29.713  1.00  0.00     0.014 A 
ATOM     36  C   UNL A   1      35.572  33.579  27.927  1.00  0.00     0.014 A 
ATOM     37  C   UNL A   1      35.676  31.983  30.211  1.00  0.00     0.010 A 
ATOM     38  C   UNL A   1      36.796  33.086  28.378  1.00  0.00     0.010 A 
ATOM     39  C   UNL A   1      36.865  32.298  29.536  1.00  0.00    -0.014 A 
BRANCH  39  40
ATOM     40  C   UNL A   1      38.181  31.834  30.047  1.00  0.00     0.031 A 
ATOM     41  C   UNL A   1      38.809  30.575  29.511  1.00  0.00     0.074 A 
ATOM     42  C   UNL A   1      38.805  32.528  31.020  1.00  0.00     0.049 A 
ATOM     43  N   UNL A   1      39.959  30.028  29.822  1.00  0.00    -0.248 NA
ATOM     44  C   UNL A   1      38.036  29.815  28.516  1.00  0.00     0.031 C 
ATOM     45  C   UNL A   1      38.288  33.734  31.670  1.00  0.00     0.029 A 
ATOM     46  N   UNL A   1      40.018  32.316  31.629  1.00  0.00    -0.354 N 
ATOM     47  C   UNL A   1      40.040  28.862  29.071  1.00  0.00     0.074 A 
ATOM     48  C   UNL A   1      38.801  28.749  28.333  1.00  0.00     0.031 C 
ATOM     49  C   UNL A   1      39.193  34.175  32.560  1.00  0.00     0.029 A 
ATOM     50  C   UNL A   1      40.340  33.273  32.560  1.00  0.00     0.049 A 
ATOM     51  H   UNL A   1      40.602  31.552  31.418  1.00  0.00     0.167 HD
ATOM     52  C   UNL A   1      41.060  27.975  28.981  1.00  0.00     0.031 A 
ATOM     53  C   UNL A   1      41.441  33.419  33.320  1.00  0.00     0.031 A 
ATOM     54  C   UNL A   1      42.303  28.088  29.697  1.00  0.00     0.049 A 
ATOM     55  C   UNL A   1      42.572  32.438  33.184  1.00  0.00     0.074 A 
ATOM     56  C   UNL A   1      43.416  27.268  29.629  1.00  0.00     0.029 A 
ATOM     57  N   UNL A   1      42.598  29.089  30.608  1.00  0.00    -0.354 N 
ATOM     58  N   UNL A   1      42.661  31.382  32.412  1.00  0.00    -0.248 NA
ATOM     59  C   UNL A   1      43.763  32.685  34.008  1.00  0.00     0.031 C 
ATOM     60  C   UNL A   1      44.372  27.752  30.529  1.00  0.00     0.029 A 
ATOM     61  C   UNL A   1      43.872  28.901  31.119  1.00  0.00     0.049 A 
ATOM     62  H   UNL A   1      41.993  29.824  30.856  1.00  0.00     0.167 HD
ATOM     63  C   UNL A   1      43.931  30.861  32.630  1.00  0.00     0.074 A 
ATOM     64  C   UNL A   1      44.577  31.722  33.597  1.00  0.00     0.031 C 
ATOM     65  C   UNL A   1      44.508  29.767  32.076  1.00  0.00     0.031 A 
BRANCH  52  66
ATOM     66  C   UNL A   1      40.870  26.799  28.065  1.00  0.00    -0.014 A 
ATOM     67  C   UNL A   1      41.243  26.866  26.712  1.00  0.00     0.009 A 
ATOM     68  C   UNL A   1      40.338  25.600  28.563  1.00  0.00     0.009 A 
ATOM     69  C   UNL A   1      41.049  25.769  25.869  1.00  0.00     0.001 A 
ATOM     70  C   UNL A   1      40.172  24.497  27.724  1.00  0.00     0.001 A 
ATOM     71  C   UNL A   1      40.518  24.585  26.376  1.00  0.00     0.000 A 
ENDBRANCH  52  66
BRANCH  53  72
ATOM     72  C   UNL A   1      41.556  34.572  34.251  1.00  0.00    -0.014 A 
ATOM     73  C   UNL A   1      42.179  35.760  33.836  1.00  0.00     0.009 A 
ATOM     74  C   UNL A   1      41.055  34.487  35.558  1.00  0.00     0.009 A 
ATOM     75  C   UNL A   1      42.325  36.829  34.723  1.00  0.00     0.001 A 
ATOM     76  C   UNL A   1      41.178  35.568  36.433  1.00  0.00     0.001 A 
ATOM     77  C   UNL A   1      41.821  36.734  36.018  1.00  0.00     0.000 A 
ENDBRANCH  53  72
BRANCH  65  78
ATOM     78  C   UNL A   1      45.929  29.471  32.465  1.00  0.00    -0.014 A 
ATOM     79  C   UNL A   1      47.011  30.001  31.746  1.00  0.00     0.009 A 
ATOM     80  C   UNL A   1      46.184  28.664  33.586  1.00  0.00     0.009 A 
ATOM     81  C   UNL A   1      48.323  29.694  32.118  1.00  0.00     0.001 A 
ATOM     82  C   UNL A   1      47.495  28.383  33.971  1.00  0.00     0.001 A 
ATOM     83  C   UNL A   1      48.563  28.889  33.231  1.00  0.00     0.000 A 
ENDBRANCH  65  78
ENDBRANCH  39  40
ENDBRANCH  31  34
ENDBRANCH  29  30
ENDBRANCH  28  29
ENDBRANCH   1  28
TORSDOF 15
ENDMDL
