MODEL 1
REMARK VINA RESULT:     -12.3      0.000      0.000
REMARK SMILES COc1ccc(/C=C2\SC(=S)N(c3cc(C(=O)NCCCNC(=O)c4ccc(-c5c6nc(c(-c7ccccc7)c7ccc([nH]7)c(-c7ccccc7)c7nc(c(-c8ccccc8)c8ccc5[nH]8)C=C7)C=C6)cc4)ccc3C)C2=O)cc1
REMARK SMILES IDX 19 1 18 2 16 3 17 4 15 6 13 7 14 8 75 9 74 10 76 11 73 12
REMARK SMILES IDX 12 13 7 14 8 15 9 16 77 17 10 18 78 19 11 20 6 21 3 22 4 23
REMARK SMILES IDX 80 24 5 25 79 26 2 27 1 28 20 29 21 30 22 31 23 32 24 34
REMARK SMILES IDX 25 35 26 36 72 37 27 38 71 39 28 40 29 41 30 42 65 43 31 44
REMARK SMILES IDX 70 45 64 46 66 47 32 48 69 49 63 50 62 51 33 53 55 54 40 55
REMARK SMILES IDX 54 56 41 57 44 58 53 59 67 60 42 61 43 62 52 64 68 65 45 66
REMARK SMILES IDX 34 67 35 68 39 69 36 70 38 71 37 72 56 73 57 74 61 75 58 76
REMARK SMILES IDX 60 77 59 78 46 79 47 80 51 81 48 82 50 83 49 84
REMARK H PARENT 18 5 22 33 66 52 44 63
REMARK Flexibility Score: inf
ROOT
ATOM      1  C   UNL A   1      37.367  20.957  24.671  1.00  0.00     0.118 C 
ENDROOT
BRANCH   1   2
ATOM      2  N   UNL A   1      37.777  22.228  25.252  1.00  0.00    -0.352 N 
ATOM      3  C   UNL A   1      37.067  23.256  25.827  1.00  0.00     0.251 C 
ATOM      4  O   UNL A   1      37.686  24.251  26.203  1.00  0.00    -0.269 OA
ATOM      5  H   UNL A   1      38.749  22.381  25.229  1.00  0.00     0.163 HD
BRANCH   3   6
ATOM      6  C   UNL A   1      35.587  23.227  25.966  1.00  0.00     0.041 A 
ATOM      7  C   UNL A   1      33.414  23.899  25.094  1.00  0.00     0.054 A 
ATOM      8  C   UNL A   1      34.816  23.934  25.031  1.00  0.00     0.041 A 
ATOM      9  C   UNL A   1      32.790  23.009  25.990  1.00  0.00    -0.027 A 
ATOM     10  C   UNL A   1      33.562  22.395  26.981  1.00  0.00     0.006 A 
ATOM     11  C   UNL A   1      31.343  22.608  25.884  1.00  0.00     0.046 C 
ATOM     12  C   UNL A   1      34.940  22.578  27.015  1.00  0.00     0.014 A 
BRANCH   7  13
ATOM     13  N   UNL A   1      32.651  24.831  24.334  1.00  0.00    -0.261 N 
ATOM     14  C   UNL A   1      30.622  27.836  24.221  1.00  0.00     0.029 C 
ATOM     15  C   UNL A   1      31.325  26.735  23.917  1.00  0.00     0.081 C 
ATOM     16  S   UNL A   1      31.520  26.040  22.358  1.00  0.00    -0.054 SA
ATOM     17  C   UNL A   1      32.060  25.934  24.939  1.00  0.00     0.270 C 
ATOM     18  C   UNL A   1      32.371  24.640  22.985  1.00  0.00     0.152 C 
ATOM     19  O   UNL A   1      32.114  26.257  26.120  1.00  0.00    -0.268 OA
ATOM     20  S   UNL A   1      32.642  23.309  22.004  1.00  0.00    -0.051 S 
BRANCH  14  21
ATOM     21  C   UNL A   1      29.856  28.621  23.245  1.00  0.00    -0.024 A 
ATOM     22  C   UNL A   1      28.378  30.200  21.449  1.00  0.00     0.118 A 
ATOM     23  C   UNL A   1      27.743  29.240  22.241  1.00  0.00     0.047 A 
ATOM     24  C   UNL A   1      29.757  30.368  21.555  1.00  0.00     0.047 A 
ATOM     25  C   UNL A   1      28.476  28.446  23.129  1.00  0.00     0.012 A 
ATOM     26  C   UNL A   1      30.493  29.575  22.441  1.00  0.00     0.012 A 
BRANCH  22  27
ATOM     27  O   UNL A   1      27.548  30.927  20.642  1.00  0.00    -0.497 OA
ATOM     28  C   UNL A   1      27.976  32.247  20.324  1.00  0.00     0.278 C 
ENDBRANCH  22  27
ENDBRANCH  14  21
ENDBRANCH   7  13
ENDBRANCH   3   6
ENDBRANCH   1   2
BRANCH   1  29
ATOM     29  C   UNL A   1      38.345  19.822  24.921  1.00  0.00     0.042 C 
BRANCH  29  30
ATOM     30  C   UNL A   1      39.407  20.128  25.962  1.00  0.00     0.118 C 
BRANCH  30  31
ATOM     31  N   UNL A   1      40.532  19.200  25.920  1.00  0.00    -0.352 N 
ATOM     32  C   UNL A   1      41.885  19.421  26.029  1.00  0.00     0.251 C 
ATOM     33  H   UNL A   1      40.280  18.258  25.790  1.00  0.00     0.163 HD
ATOM     34  O   UNL A   1      42.672  18.513  25.778  1.00  0.00    -0.269 OA
BRANCH  32  35
ATOM     35  C   UNL A   1      42.401  20.752  26.416  1.00  0.00     0.039 A 
ATOM     36  C   UNL A   1      42.874  21.617  25.424  1.00  0.00     0.014 A 
ATOM     37  C   UNL A   1      42.419  21.153  27.751  1.00  0.00     0.014 A 
ATOM     38  C   UNL A   1      43.267  22.914  25.763  1.00  0.00     0.010 A 
ATOM     39  C   UNL A   1      42.699  22.475  28.072  1.00  0.00     0.010 A 
ATOM     40  C   UNL A   1      43.129  23.372  27.083  1.00  0.00    -0.014 A 
BRANCH  40  41
ATOM     41  C   UNL A   1      43.420  24.777  27.466  1.00  0.00     0.031 A 
ATOM     42  C   UNL A   1      44.847  25.227  27.640  1.00  0.00     0.074 A 
ATOM     43  C   UNL A   1      42.408  25.618  27.755  1.00  0.00     0.049 A 
ATOM     44  N   UNL A   1      45.303  26.365  28.095  1.00  0.00    -0.248 NA
ATOM     45  C   UNL A   1      45.896  24.257  27.288  1.00  0.00     0.031 C 
ATOM     46  C   UNL A   1      40.981  25.296  27.664  1.00  0.00     0.029 A 
ATOM     47  N   UNL A   1      42.424  26.916  28.201  1.00  0.00    -0.354 N 
ATOM     48  C   UNL A   1      46.687  26.237  28.108  1.00  0.00     0.074 A 
ATOM     49  C   UNL A   1      46.992  24.893  27.670  1.00  0.00     0.031 C 
ATOM     50  C   UNL A   1      40.263  26.374  28.017  1.00  0.00     0.029 A 
ATOM     51  C   UNL A   1      41.173  27.444  28.412  1.00  0.00     0.049 A 
ATOM     52  H   UNL A   1      43.256  27.421  28.357  1.00  0.00     0.167 HD
ATOM     53  C   UNL A   1      47.622  27.160  28.436  1.00  0.00     0.031 A 
ATOM     54  C   UNL A   1      40.798  28.647  28.887  1.00  0.00     0.031 A 
ATOM     55  C   UNL A   1      47.318  28.500  28.861  1.00  0.00     0.049 A 
ATOM     56  C   UNL A   1      41.856  29.645  29.271  1.00  0.00     0.074 A 
ATOM     57  C   UNL A   1      48.194  29.527  29.160  1.00  0.00     0.029 A 
ATOM     58  N   UNL A   1      46.037  28.996  29.048  1.00  0.00    -0.354 N 
ATOM     59  N   UNL A   1      43.160  29.530  29.215  1.00  0.00    -0.248 NA
ATOM     60  C   UNL A   1      41.387  30.943  29.777  1.00  0.00     0.031 C 
ATOM     61  C   UNL A   1      47.445  30.627  29.587  1.00  0.00     0.029 A 
ATOM     62  C   UNL A   1      46.100  30.306  29.488  1.00  0.00     0.049 A 
ATOM     63  H   UNL A   1      45.207  28.490  28.893  1.00  0.00     0.167 HD
ATOM     64  C   UNL A   1      43.667  30.749  29.646  1.00  0.00     0.074 A 
ATOM     65  C   UNL A   1      42.529  31.593  29.946  1.00  0.00     0.031 C 
ATOM     66  C   UNL A   1      44.959  31.136  29.777  1.00  0.00     0.031 A 
BRANCH  53  67
ATOM     67  C   UNL A   1      49.066  26.744  28.358  1.00  0.00    -0.014 A 
ATOM     68  C   UNL A   1      49.786  26.824  27.154  1.00  0.00     0.009 A 
ATOM     69  C   UNL A   1      49.726  26.296  29.513  1.00  0.00     0.009 A 
ATOM     70  C   UNL A   1      51.123  26.426  27.101  1.00  0.00     0.001 A 
ATOM     71  C   UNL A   1      51.073  25.932  29.464  1.00  0.00     0.001 A 
ATOM     72  C   UNL A   1      51.767  25.986  28.256  1.00  0.00     0.000 A 
ENDBRANCH  53  67
BRANCH  54  73
ATOM     73  C   UNL A   1      39.355  28.981  29.021  1.00  0.00    -0.014 A 
ATOM     74  C   UNL A   1      38.669  28.711  30.214  1.00  0.00     0.009 A 
ATOM     75  C   UNL A   1      38.652  29.562  27.953  1.00  0.00     0.009 A 
ATOM     76  C   UNL A   1      37.304  28.987  30.326  1.00  0.00     0.001 A 
ATOM     77  C   UNL A   1      37.295  29.869  28.079  1.00  0.00     0.001 A 
ATOM     78  C   UNL A   1      36.619  29.570  29.260  1.00  0.00     0.000 A 
ENDBRANCH  54  73
BRANCH  66  79
ATOM     79  C   UNL A   1      45.218  32.549  30.220  1.00  0.00    -0.014 A 
ATOM     80  C   UNL A   1      45.555  32.850  31.548  1.00  0.00     0.009 A 
ATOM     81  C   UNL A   1      45.182  33.587  29.275  1.00  0.00     0.009 A 
ATOM     82  C   UNL A   1      45.821  34.168  31.926  1.00  0.00     0.001 A 
ATOM     83  C   UNL A   1      45.480  34.898  29.648  1.00  0.00     0.001 A 
ATOM     84  C   UNL A   1      45.791  35.188  30.974  1.00  0.00     0.000 A 
ENDBRANCH  66  79
ENDBRANCH  40  41
ENDBRANCH  32  35
ENDBRANCH  30  31
ENDBRANCH  29  30
ENDBRANCH   1  29
TORSDOF 13
ENDMDL
MODEL 2
REMARK VINA RESULT:     -12.1      1.076      5.886
REMARK SMILES COc1ccc(/C=C2\SC(=S)N(c3cc(C(=O)NCCCNC(=O)c4ccc(-c5c6nc(c(-c7ccccc7)c7ccc([nH]7)c(-c7ccccc7)c7nc(c(-c8ccccc8)c8ccc5[nH]8)C=C7)C=C6)cc4)ccc3C)C2=O)cc1
REMARK SMILES IDX 19 1 18 2 16 3 17 4 15 6 13 7 14 8 75 9 74 10 76 11 73 12
REMARK SMILES IDX 12 13 7 14 8 15 9 16 77 17 10 18 78 19 11 20 6 21 3 22 4 23
REMARK SMILES IDX 80 24 5 25 79 26 2 27 1 28 20 29 21 30 22 31 23 32 24 34
REMARK SMILES IDX 25 35 26 36 72 37 27 38 71 39 28 40 29 41 30 42 65 43 31 44
REMARK SMILES IDX 70 45 64 46 66 47 32 48 69 49 63 50 62 51 33 53 55 54 40 55
REMARK SMILES IDX 54 56 41 57 44 58 53 59 67 60 42 61 43 62 52 64 68 65 45 66
REMARK SMILES IDX 34 67 35 68 39 69 36 70 38 71 37 72 56 73 57 74 61 75 58 76
REMARK SMILES IDX 60 77 59 78 46 79 47 80 51 81 48 82 50 83 49 84
REMARK H PARENT 18 5 22 33 66 52 44 63
REMARK Flexibility Score: inf
ROOT
ATOM      1  C   UNL A   1      36.696  21.143  24.629  1.00  0.00     0.118 C 
ENDROOT
BRANCH   1   2
ATOM      2  N   UNL A   1      37.275  22.451  24.905  1.00  0.00    -0.352 N 
ATOM      3  C   UNL A   1      36.752  23.601  25.448  1.00  0.00     0.251 C 
ATOM      4  O   UNL A   1      37.480  24.590  25.525  1.00  0.00    -0.269 OA
ATOM      5  H   UNL A   1      38.225  22.525  24.656  1.00  0.00     0.163 HD
BRANCH   3   6
ATOM      6  C   UNL A   1      35.339  23.702  25.896  1.00  0.00     0.041 A 
ATOM      7  C   UNL A   1      33.156  24.752  25.634  1.00  0.00     0.054 A 
ATOM      8  C   UNL A   1      34.509  24.650  25.277  1.00  0.00     0.041 A 
ATOM      9  C   UNL A   1      32.597  23.780  26.488  1.00  0.00    -0.027 A 
ATOM     10  C   UNL A   1      33.451  22.914  27.176  1.00  0.00     0.006 A 
ATOM     11  C   UNL A   1      31.115  23.561  26.633  1.00  0.00     0.046 C 
ATOM     12  C   UNL A   1      34.821  22.940  26.941  1.00  0.00     0.014 A 
BRANCH   7  13
ATOM     13  N   UNL A   1      32.401  25.886  25.218  1.00  0.00    -0.261 N 
ATOM     14  C   UNL A   1      29.963  27.348  22.965  1.00  0.00     0.029 C 
ATOM     15  C   UNL A   1      30.852  27.124  23.944  1.00  0.00     0.081 C 
ATOM     16  S   UNL A   1      31.415  28.265  25.099  1.00  0.00    -0.054 SA
ATOM     17  C   UNL A   1      31.496  25.797  24.167  1.00  0.00     0.270 C 
ATOM     18  C   UNL A   1      32.597  27.151  25.762  1.00  0.00     0.152 C 
ATOM     19  O   UNL A   1      31.219  24.806  23.501  1.00  0.00    -0.268 OA
ATOM     20  S   UNL A   1      33.784  27.705  26.807  1.00  0.00    -0.051 S 
BRANCH  14  21
ATOM     21  C   UNL A   1      29.343  28.651  22.696  1.00  0.00    -0.024 A 
ATOM     22  C   UNL A   1      28.111  31.105  22.095  1.00  0.00     0.118 A 
ATOM     23  C   UNL A   1      29.405  30.831  21.646  1.00  0.00     0.047 A 
ATOM     24  C   UNL A   1      27.433  30.150  22.849  1.00  0.00     0.047 A 
ATOM     25  C   UNL A   1      30.025  29.615  21.950  1.00  0.00     0.012 A 
ATOM     26  C   UNL A   1      28.050  28.934  23.156  1.00  0.00     0.012 A 
BRANCH  22  27
ATOM     27  O   UNL A   1      27.608  32.317  21.709  1.00  0.00    -0.497 OA
ATOM     28  C   UNL A   1      27.670  32.612  20.318  1.00  0.00     0.278 C 
ENDBRANCH  22  27
ENDBRANCH  14  21
ENDBRANCH   7  13
ENDBRANCH   3   6
ENDBRANCH   1   2
BRANCH   1  29
ATOM     29  C   UNL A   1      37.595  19.979  25.007  1.00  0.00     0.042 C 
BRANCH  29  30
ATOM     30  C   UNL A   1      38.838  20.373  25.785  1.00  0.00     0.118 C 
BRANCH  30  31
ATOM     31  N   UNL A   1      39.825  19.302  25.866  1.00  0.00    -0.352 N 
ATOM     32  C   UNL A   1      41.179  19.341  26.104  1.00  0.00     0.251 C 
ATOM     33  H   UNL A   1      39.461  18.399  25.726  1.00  0.00     0.163 HD
ATOM     34  O   UNL A   1      41.855  18.329  25.943  1.00  0.00    -0.269 OA
BRANCH  32  35
ATOM     35  C   UNL A   1      41.833  20.602  26.519  1.00  0.00     0.039 A 
ATOM     36  C   UNL A   1      42.130  21.569  25.553  1.00  0.00     0.014 A 
ATOM     37  C   UNL A   1      42.153  20.835  27.855  1.00  0.00     0.014 A 
ATOM     38  C   UNL A   1      42.652  22.804  25.946  1.00  0.00     0.010 A 
ATOM     39  C   UNL A   1      42.563  22.100  28.257  1.00  0.00     0.010 A 
ATOM     40  C   UNL A   1      42.819  23.100  27.307  1.00  0.00    -0.014 A 
BRANCH  40  41
ATOM     41  C   UNL A   1      43.258  24.440  27.777  1.00  0.00     0.031 A 
ATOM     42  C   UNL A   1      42.232  25.493  28.104  1.00  0.00     0.074 A 
ATOM     43  C   UNL A   1      44.571  24.742  27.813  1.00  0.00     0.049 A 
ATOM     44  N   UNL A   1      42.411  26.754  28.401  1.00  0.00    -0.248 NA
ATOM     45  C   UNL A   1      40.820  25.081  28.059  1.00  0.00     0.031 C 
ATOM     46  C   UNL A   1      45.664  23.824  27.484  1.00  0.00     0.029 A 
ATOM     47  N   UNL A   1      45.209  25.916  28.128  1.00  0.00    -0.354 N 
ATOM     48  C   UNL A   1      41.138  27.289  28.551  1.00  0.00     0.074 A 
ATOM     49  C   UNL A   1      40.196  26.231  28.257  1.00  0.00     0.031 C 
ATOM     50  C   UNL A   1      46.836  24.462  27.640  1.00  0.00     0.029 A 
ATOM     51  C   UNL A   1      46.577  25.845  28.025  1.00  0.00     0.049 A 
ATOM     52  H   UNL A   1      44.730  26.732  28.401  1.00  0.00     0.167 HD
ATOM     53  C   UNL A   1      40.781  28.543  28.918  1.00  0.00     0.031 A 
ATOM     54  C   UNL A   1      47.518  26.791  28.202  1.00  0.00     0.031 A 
ATOM     55  C   UNL A   1      41.717  29.591  29.220  1.00  0.00     0.049 A 
ATOM     56  C   UNL A   1      47.096  28.184  28.582  1.00  0.00     0.074 A 
ATOM     57  C   UNL A   1      41.458  30.878  29.657  1.00  0.00     0.029 A 
ATOM     58  N   UNL A   1      43.095  29.473  29.114  1.00  0.00    -0.354 N 
ATOM     59  N   UNL A   1      45.890  28.656  28.783  1.00  0.00    -0.248 NA
ATOM     60  C   UNL A   1      48.168  29.173  28.767  1.00  0.00     0.031 C 
ATOM     61  C   UNL A   1      42.676  31.557  29.757  1.00  0.00     0.029 A 
ATOM     62  C   UNL A   1      43.697  30.673  29.450  1.00  0.00     0.049 A 
ATOM     63  H   UNL A   1      43.572  28.657  28.840  1.00  0.00     0.167 HD
ATOM     64  C   UNL A   1      46.059  29.984  29.150  1.00  0.00     0.074 A 
ATOM     65  C   UNL A   1      47.484  30.239  29.158  1.00  0.00     0.031 C 
ATOM     66  C   UNL A   1      45.118  30.910  29.458  1.00  0.00     0.031 A 
BRANCH  53  67
ATOM     67  C   UNL A   1      39.311  28.851  29.001  1.00  0.00    -0.014 A 
ATOM     68  C   UNL A   1      38.598  28.697  30.203  1.00  0.00     0.009 A 
ATOM     69  C   UNL A   1      38.633  29.334  27.870  1.00  0.00     0.009 A 
ATOM     70  C   UNL A   1      37.233  28.981  30.258  1.00  0.00     0.001 A 
ATOM     71  C   UNL A   1      37.275  29.649  27.938  1.00  0.00     0.001 A 
ATOM     72  C   UNL A   1      36.574  29.462  29.128  1.00  0.00     0.000 A 
ENDBRANCH  53  67
BRANCH  54  73
ATOM     73  C   UNL A   1      48.957  26.456  28.028  1.00  0.00    -0.014 A 
ATOM     74  C   UNL A   1      49.736  26.066  29.129  1.00  0.00     0.009 A 
ATOM     75  C   UNL A   1      49.564  26.535  26.764  1.00  0.00     0.009 A 
ATOM     76  C   UNL A   1      51.096  25.790  28.974  1.00  0.00     0.001 A 
ATOM     77  C   UNL A   1      50.917  26.226  26.606  1.00  0.00     0.001 A 
ATOM     78  C   UNL A   1      51.685  25.866  27.712  1.00  0.00     0.000 A 
ENDBRANCH  54  73
BRANCH  66  79
ATOM     79  C   UNL A   1      45.595  32.272  29.876  1.00  0.00    -0.014 A 
ATOM     80  C   UNL A   1      45.760  33.309  28.945  1.00  0.00     0.009 A 
ATOM     81  C   UNL A   1      45.826  32.535  31.236  1.00  0.00     0.009 A 
ATOM     82  C   UNL A   1      46.175  34.574  29.366  1.00  0.00     0.001 A 
ATOM     83  C   UNL A   1      46.209  33.809  31.658  1.00  0.00     0.001 A 
ATOM     84  C   UNL A   1      46.391  34.824  30.722  1.00  0.00     0.000 A 
ENDBRANCH  66  79
ENDBRANCH  40  41
ENDBRANCH  32  35
ENDBRANCH  30  31
ENDBRANCH  29  30
ENDBRANCH   1  29
TORSDOF 13
ENDMDL
MODEL 3
REMARK VINA RESULT:     -11.9      3.325      5.003
REMARK SMILES COc1ccc(/C=C2\SC(=S)N(c3cc(C(=O)NCCCNC(=O)c4ccc(-c5c6nc(c(-c7ccccc7)c7ccc([nH]7)c(-c7ccccc7)c7nc(c(-c8ccccc8)c8ccc5[nH]8)C=C7)C=C6)cc4)ccc3C)C2=O)cc1
REMARK SMILES IDX 19 1 18 2 16 3 17 4 15 6 13 7 14 8 75 9 74 10 76 11 73 12
REMARK SMILES IDX 12 13 7 14 8 15 9 16 77 17 10 18 78 19 11 20 6 21 3 22 4 23
REMARK SMILES IDX 80 24 5 25 79 26 2 27 1 28 20 29 21 30 22 31 23 32 24 34
REMARK SMILES IDX 25 35 26 36 72 37 27 38 71 39 28 40 29 41 30 42 65 43 31 44
REMARK SMILES IDX 70 45 64 46 66 47 32 48 69 49 63 50 62 51 33 53 55 54 40 55
REMARK SMILES IDX 54 56 41 57 44 58 53 59 67 60 42 61 43 62 52 64 68 65 45 66
REMARK SMILES IDX 34 67 35 68 39 69 36 70 38 71 37 72 56 73 57 74 61 75 58 76
REMARK SMILES IDX 60 77 59 78 46 79 47 80 51 81 48 82 50 83 49 84
REMARK H PARENT 18 5 22 33 66 52 44 63
REMARK Flexibility Score: inf
ROOT
ATOM      1  C   UNL A   1      38.282  24.296  26.617  1.00  0.00     0.118 C 
ENDROOT
BRANCH   1   2
ATOM      2  N   UNL A   1      37.957  23.780  25.294  1.00  0.00    -0.352 N 
ATOM      3  C   UNL A   1      36.761  23.493  24.679  1.00  0.00     0.251 C 
ATOM      4  O   UNL A   1      36.791  23.017  23.545  1.00  0.00    -0.269 OA
ATOM      5  H   UNL A   1      38.746  23.604  24.732  1.00  0.00     0.163 HD
BRANCH   3   6
ATOM      6  C   UNL A   1      35.450  23.690  25.350  1.00  0.00     0.041 A 
ATOM      7  C   UNL A   1      33.291  24.819  25.381  1.00  0.00     0.054 A 
ATOM      8  C   UNL A   1      34.559  24.630  24.809  1.00  0.00     0.041 A 
ATOM      9  C   UNL A   1      32.854  23.936  26.388  1.00  0.00    -0.027 A 
ATOM     10  C   UNL A   1      33.784  23.081  26.987  1.00  0.00     0.006 A 
ATOM     11  C   UNL A   1      31.412  23.796  26.797  1.00  0.00     0.046 C 
ATOM     12  C   UNL A   1      35.094  23.027  26.523  1.00  0.00     0.014 A 
BRANCH   7  13
ATOM     13  N   UNL A   1      32.514  25.955  25.013  1.00  0.00    -0.261 N 
ATOM     14  C   UNL A   1      30.021  27.454  22.846  1.00  0.00     0.029 C 
ATOM     15  C   UNL A   1      30.929  27.212  23.803  1.00  0.00     0.081 C 
ATOM     16  S   UNL A   1      31.496  28.323  24.985  1.00  0.00    -0.054 SA
ATOM     17  C   UNL A   1      31.594  25.888  23.974  1.00  0.00     0.270 C 
ATOM     18  C   UNL A   1      32.703  27.205  25.594  1.00  0.00     0.152 C 
ATOM     19  O   UNL A   1      31.319  24.914  23.282  1.00  0.00    -0.268 OA
ATOM     20  S   UNL A   1      33.899  27.742  26.637  1.00  0.00    -0.051 S 
BRANCH  14  21
ATOM     21  C   UNL A   1      29.380  28.756  22.628  1.00  0.00    -0.024 A 
ATOM     22  C   UNL A   1      28.107  31.212  22.124  1.00  0.00     0.118 A 
ATOM     23  C   UNL A   1      29.403  30.974  21.658  1.00  0.00     0.047 A 
ATOM     24  C   UNL A   1      27.449  30.220  22.847  1.00  0.00     0.047 A 
ATOM     25  C   UNL A   1      30.042  29.757  21.914  1.00  0.00     0.012 A 
ATOM     26  C   UNL A   1      28.086  29.002  23.106  1.00  0.00     0.012 A 
BRANCH  22  27
ATOM     27  O   UNL A   1      27.584  32.429  21.785  1.00  0.00    -0.497 OA
ATOM     28  C   UNL A   1      27.698  32.806  20.418  1.00  0.00     0.278 C 
ENDBRANCH  22  27
ENDBRANCH  14  21
ENDBRANCH   7  13
ENDBRANCH   3   6
ENDBRANCH   1   2
BRANCH   1  29
ATOM     29  C   UNL A   1      39.720  24.766  26.758  1.00  0.00     0.042 C 
BRANCH  29  30
ATOM     30  C   UNL A   1      40.527  24.009  27.798  1.00  0.00     0.118 C 
BRANCH  30  31
ATOM     31  N   UNL A   1      41.362  22.960  27.221  1.00  0.00    -0.352 N 
ATOM     32  C   UNL A   1      42.579  23.026  26.584  1.00  0.00     0.251 C 
ATOM     33  H   UNL A   1      40.990  22.052  27.300  1.00  0.00     0.163 HD
ATOM     34  O   UNL A   1      43.019  22.036  26.008  1.00  0.00    -0.269 OA
BRANCH  32  35
ATOM     35  C   UNL A   1      43.346  24.291  26.559  1.00  0.00     0.039 A 
ATOM     36  C   UNL A   1      44.008  24.712  27.717  1.00  0.00     0.014 A 
ATOM     37  C   UNL A   1      43.419  25.062  25.400  1.00  0.00     0.014 A 
ATOM     38  C   UNL A   1      44.820  25.849  27.678  1.00  0.00     0.010 A 
ATOM     39  C   UNL A   1      44.313  26.122  25.329  1.00  0.00     0.010 A 
ATOM     40  C   UNL A   1      45.024  26.530  26.468  1.00  0.00    -0.014 A 
BRANCH  40  41
ATOM     41  C   UNL A   1      45.970  27.670  26.353  1.00  0.00     0.031 A 
ATOM     42  C   UNL A   1      47.444  27.408  26.196  1.00  0.00     0.074 A 
ATOM     43  C   UNL A   1      45.519  28.933  26.489  1.00  0.00     0.049 A 
ATOM     44  N   UNL A   1      48.439  28.257  26.209  1.00  0.00    -0.248 NA
ATOM     45  C   UNL A   1      47.856  26.004  26.036  1.00  0.00     0.031 C 
ATOM     46  C   UNL A   1      44.120  29.321  26.684  1.00  0.00     0.029 A 
ATOM     47  N   UNL A   1      46.197  30.126  26.501  1.00  0.00    -0.354 N 
ATOM     48  C   UNL A   1      49.590  27.490  26.088  1.00  0.00     0.074 A 
ATOM     49  C   UNL A   1      49.176  26.104  26.057  1.00  0.00     0.031 C 
ATOM     50  C   UNL A   1      44.042  30.659  26.769  1.00  0.00     0.029 A 
ATOM     51  C   UNL A   1      45.386  31.220  26.691  1.00  0.00     0.049 A 
ATOM     52  H   UNL A   1      47.173  30.192  26.385  1.00  0.00     0.167 HD
ATOM     53  C   UNL A   1      50.877  27.899  25.990  1.00  0.00     0.031 A 
ATOM     54  C   UNL A   1      45.691  32.526  26.809  1.00  0.00     0.031 A 
ATOM     55  C   UNL A   1      51.289  29.277  26.009  1.00  0.00     0.049 A 
ATOM     56  C   UNL A   1      47.131  32.953  26.726  1.00  0.00     0.074 A 
ATOM     57  C   UNL A   1      52.561  29.797  25.858  1.00  0.00     0.029 A 
ATOM     58  N   UNL A   1      50.433  30.352  26.192  1.00  0.00    -0.354 N 
ATOM     59  N   UNL A   1      48.201  32.219  26.544  1.00  0.00    -0.248 NA
ATOM     60  C   UNL A   1      47.402  34.392  26.855  1.00  0.00     0.031 C 
ATOM     61  C   UNL A   1      52.485  31.185  26.011  1.00  0.00     0.029 A 
ATOM     62  C   UNL A   1      51.155  31.533  26.188  1.00  0.00     0.049 A 
ATOM     63  H   UNL A   1      49.458  30.286  26.308  1.00  0.00     0.167 HD
ATOM     64  C   UNL A   1      49.268  33.108  26.504  1.00  0.00     0.074 A 
ATOM     65  C   UNL A   1      48.713  34.436  26.666  1.00  0.00     0.031 C 
ATOM     66  C   UNL A   1      50.588  32.848  26.344  1.00  0.00     0.031 A 
BRANCH  53  67
ATOM     67  C   UNL A   1      51.937  26.838  25.865  1.00  0.00    -0.014 A 
ATOM     68  C   UNL A   1      52.592  26.321  26.996  1.00  0.00     0.009 A 
ATOM     69  C   UNL A   1      52.262  26.323  24.600  1.00  0.00     0.009 A 
ATOM     70  C   UNL A   1      53.577  25.343  26.857  1.00  0.00     0.001 A 
ATOM     71  C   UNL A   1      53.224  25.319  24.469  1.00  0.00     0.001 A 
ATOM     72  C   UNL A   1      53.888  24.838  25.596  1.00  0.00     0.000 A 
ENDBRANCH  53  67
BRANCH  54  73
ATOM     73  C   UNL A   1      44.613  33.529  27.013  1.00  0.00    -0.014 A 
ATOM     74  C   UNL A   1      44.005  34.156  25.914  1.00  0.00     0.009 A 
ATOM     75  C   UNL A   1      44.192  33.877  28.307  1.00  0.00     0.009 A 
ATOM     76  C   UNL A   1      43.021  35.128  26.105  1.00  0.00     0.001 A 
ATOM     77  C   UNL A   1      43.183  34.825  28.495  1.00  0.00     0.001 A 
ATOM     78  C   UNL A   1      42.607  35.459  27.396  1.00  0.00     0.000 A 
ENDBRANCH  54  73
BRANCH  66  79
ATOM     79  C   UNL A   1      51.525  34.023  26.286  1.00  0.00    -0.014 A 
ATOM     80  C   UNL A   1      52.166  34.506  27.437  1.00  0.00     0.009 A 
ATOM     81  C   UNL A   1      51.813  34.615  25.046  1.00  0.00     0.009 A 
ATOM     82  C   UNL A   1      53.054  35.579  27.350  1.00  0.00     0.001 A 
ATOM     83  C   UNL A   1      52.727  35.666  24.957  1.00  0.00     0.001 A 
ATOM     84  C   UNL A   1      53.340  36.152  26.109  1.00  0.00     0.000 A 
ENDBRANCH  66  79
ENDBRANCH  40  41
ENDBRANCH  32  35
ENDBRANCH  30  31
ENDBRANCH  29  30
ENDBRANCH   1  29
TORSDOF 13
ENDMDL
