MODEL 1
REMARK VINA RESULT:     -11.6      0.000      0.000
REMARK SMILES C[C@H](NC(=O)CCN1C(=O)/C(=C/c2ccc([N+](=O)[O-])cc2)SC1=S)C(=O)NCCCNC(=O)c1ccc(-c2c3nc(c(-c4ccccc4)c4ccc([nH]4)c(-c4ccccc4)c4nc(c(-c5ccccc5)c5ccc2[nH]5)C=C4)C=C3)cc1
REMARK SMILES IDX 25 1 26 2 27 3 2 5 1 6 3 7 4 8 5 10 6 11 7 12 8 13 9 14
REMARK SMILES IDX 23 15 10 16 11 17 22 18 24 19 12 20 13 21 14 22 21 23 15 24
REMARK SMILES IDX 20 25 16 26 17 27 18 28 19 29 28 30 29 31 30 32 31 33 32 34
REMARK SMILES IDX 33 36 34 37 35 38 81 39 36 40 80 41 37 42 38 43 39 44 74 45
REMARK SMILES IDX 40 46 79 47 73 48 75 49 41 50 78 51 72 52 71 53 42 55 64 56
REMARK SMILES IDX 49 57 63 58 50 59 53 60 62 61 76 62 51 63 52 64 61 66 77 67
REMARK SMILES IDX 54 68 43 69 44 70 48 71 45 72 47 73 46 74 65 75 66 76 70 77
REMARK SMILES IDX 67 78 69 79 68 80 55 81 56 82 60 83 57 84 59 85 58 86
REMARK H PARENT 27 4 3 9 31 35 75 54 53 65
REMARK Flexibility Score: inf
ROOT
ATOM      1  C   UNL A   1      36.965  23.371  25.872  1.00  0.00     0.242 C 
ATOM      2  O   UNL A   1      37.711  24.346  25.958  1.00  0.00    -0.273 OA
ATOM      3  N   UNL A   1      37.513  22.125  25.928  1.00  0.00    -0.354 N 
ATOM      4  H   UNL A   1      38.155  21.928  26.648  1.00  0.00     0.163 HD
ENDROOT
BRANCH   1   5
ATOM      5  C   UNL A   1      35.442  23.491  26.017  1.00  0.00     0.168 C 
ATOM      6  C   UNL A   1      34.703  24.696  25.452  1.00  0.00     0.041 C 
BRANCH   5   7
ATOM      7  N   UNL A   1      34.880  23.140  27.289  1.00  0.00    -0.345 N 
ATOM      8  C   UNL A   1      33.814  22.316  27.469  1.00  0.00     0.222 C 
ATOM      9  H   UNL A   1      35.297  23.526  28.094  1.00  0.00     0.164 HD
ATOM     10  O   UNL A   1      33.173  22.459  28.516  1.00  0.00    -0.275 OA
BRANCH   8  11
ATOM     11  C   UNL A   1      33.504  21.136  26.532  1.00  0.00     0.122 C 
BRANCH  11  12
ATOM     12  C   UNL A   1      32.206  20.915  25.710  1.00  0.00     0.137 C 
BRANCH  12  13
ATOM     13  N   UNL A   1      31.624  22.042  24.930  1.00  0.00    -0.292 N 
ATOM     14  C   UNL A   1      30.877  23.019  25.593  1.00  0.00     0.266 C 
ATOM     15  C   UNL A   1      31.717  22.211  23.562  1.00  0.00     0.148 C 
ATOM     16  O   UNL A   1      30.520  22.979  26.762  1.00  0.00    -0.268 OA
ATOM     17  C   UNL A   1      30.621  24.197  24.703  1.00  0.00     0.081 C 
ATOM     18  S   UNL A   1      31.163  23.821  23.119  1.00  0.00    -0.054 SA
ATOM     19  S   UNL A   1      32.253  21.141  22.405  1.00  0.00    -0.052 S 
ATOM     20  C   UNL A   1      30.142  25.368  25.169  1.00  0.00     0.029 C 
BRANCH  20  21
ATOM     21  C   UNL A   1      29.963  26.659  24.458  1.00  0.00    -0.024 A 
ATOM     22  C   UNL A   1      28.776  26.887  23.734  1.00  0.00     0.015 A 
ATOM     23  C   UNL A   1      30.941  27.663  24.441  1.00  0.00     0.015 A 
ATOM     24  C   UNL A   1      28.540  28.112  23.086  1.00  0.00     0.086 A 
ATOM     25  C   UNL A   1      30.712  28.897  23.817  1.00  0.00     0.086 A 
ATOM     26  C   UNL A   1      29.504  29.123  23.153  1.00  0.00     0.269 A 
BRANCH  26  27
ATOM     27  N   UNL A   1      29.252  30.431  22.532  1.00  0.00     0.062 N 
ATOM     28  O   UNL A   1      28.925  31.368  23.273  1.00  0.00    -0.258 OA
ATOM     29  O   UNL A   1      29.396  30.521  21.304  1.00  0.00    -0.258 OA
ENDBRANCH  26  27
ENDBRANCH  20  21
ENDBRANCH  12  13
ENDBRANCH  11  12
ENDBRANCH   8  11
ENDBRANCH   5   7
ENDBRANCH   1   5
BRANCH   3  30
ATOM     30  C   UNL A   1      37.196  21.078  24.978  1.00  0.00     0.117 C 
BRANCH  30  31
ATOM     31  C   UNL A   1      38.253  19.995  25.036  1.00  0.00     0.042 C 
BRANCH  31  32
ATOM     32  C   UNL A   1      39.315  20.320  26.069  1.00  0.00     0.118 C 
BRANCH  32  33
ATOM     33  N   UNL A   1      40.410  19.356  26.015  1.00  0.00    -0.352 N 
ATOM     34  C   UNL A   1      41.763  19.606  25.991  1.00  0.00     0.251 C 
ATOM     35  H   UNL A   1      40.148  18.407  25.993  1.00  0.00     0.163 HD
ATOM     36  O   UNL A   1      42.547  18.766  25.578  1.00  0.00    -0.269 OA
BRANCH  34  37
ATOM     37  C   UNL A   1      42.224  20.925  26.463  1.00  0.00     0.039 A 
ATOM     38  C   UNL A   1      42.556  21.927  25.554  1.00  0.00     0.014 A 
ATOM     39  C   UNL A   1      42.236  21.174  27.836  1.00  0.00     0.014 A 
ATOM     40  C   UNL A   1      42.828  23.209  26.033  1.00  0.00     0.010 A 
ATOM     41  C   UNL A   1      42.345  22.473  28.291  1.00  0.00     0.010 A 
ATOM     42  C   UNL A   1      42.678  23.501  27.401  1.00  0.00    -0.014 A 
BRANCH  42  43
ATOM     43  C   UNL A   1      42.911  24.855  27.952  1.00  0.00     0.031 A 
ATOM     44  C   UNL A   1      44.299  25.244  28.392  1.00  0.00     0.074 A 
ATOM     45  C   UNL A   1      41.874  25.694  28.139  1.00  0.00     0.049 A 
ATOM     46  N   UNL A   1      44.701  26.339  28.984  1.00  0.00    -0.248 NA
ATOM     47  C   UNL A   1      45.370  24.253  28.180  1.00  0.00     0.031 C 
ATOM     48  C   UNL A   1      40.475  25.409  27.810  1.00  0.00     0.029 A 
ATOM     49  N   UNL A   1      41.839  26.964  28.659  1.00  0.00    -0.354 N 
ATOM     50  C   UNL A   1      46.055  26.151  29.236  1.00  0.00     0.074 A 
ATOM     51  C   UNL A   1      46.389  24.813  28.809  1.00  0.00     0.031 C 
ATOM     52  C   UNL A   1      39.728  26.488  28.093  1.00  0.00     0.029 A 
ATOM     53  C   UNL A   1      40.584  27.520  28.669  1.00  0.00     0.049 A 
ATOM     54  H   UNL A   1      42.639  27.430  28.993  1.00  0.00     0.167 HD
ATOM     55  C   UNL A   1      46.951  27.025  29.746  1.00  0.00     0.031 A 
ATOM     56  C   UNL A   1      40.171  28.728  29.097  1.00  0.00     0.031 A 
ATOM     57  C   UNL A   1      46.620  28.364  30.145  1.00  0.00     0.049 A 
ATOM     58  C   UNL A   1      41.185  29.683  29.663  1.00  0.00     0.074 A 
ATOM     59  C   UNL A   1      47.460  29.357  30.612  1.00  0.00     0.029 A 
ATOM     60  N   UNL A   1      45.340  28.896  30.120  1.00  0.00    -0.354 N 
ATOM     61  N   UNL A   1      42.477  29.520  29.821  1.00  0.00    -0.248 NA
ATOM     62  C   UNL A   1      40.686  30.996  30.096  1.00  0.00     0.031 C 
ATOM     63  C   UNL A   1      46.679  30.473  30.925  1.00  0.00     0.029 A 
ATOM     64  C   UNL A   1      45.363  30.197  30.587  1.00  0.00     0.049 A 
ATOM     65  H   UNL A   1      44.534  28.419  29.815  1.00  0.00     0.167 HD
ATOM     66  C   UNL A   1      42.950  30.719  30.338  1.00  0.00     0.074 A 
ATOM     67  C   UNL A   1      41.808  31.603  30.454  1.00  0.00     0.031 C 
ATOM     68  C   UNL A   1      44.215  31.060  30.685  1.00  0.00     0.031 A 
BRANCH  55  69
ATOM     69  C   UNL A   1      48.372  26.555  29.896  1.00  0.00    -0.014 A 
ATOM     70  C   UNL A   1      49.324  26.771  28.884  1.00  0.00     0.009 A 
ATOM     71  C   UNL A   1      48.771  25.903  31.072  1.00  0.00     0.009 A 
ATOM     72  C   UNL A   1      50.632  26.306  29.032  1.00  0.00     0.001 A 
ATOM     73  C   UNL A   1      50.090  25.471  31.231  1.00  0.00     0.001 A 
ATOM     74  C   UNL A   1      51.016  25.663  30.208  1.00  0.00     0.000 A 
ENDBRANCH  55  69
BRANCH  56  75
ATOM     75  C   UNL A   1      38.739  29.112  28.986  1.00  0.00    -0.014 A 
ATOM     76  C   UNL A   1      37.878  28.977  30.086  1.00  0.00     0.009 A 
ATOM     77  C   UNL A   1      38.221  29.609  27.780  1.00  0.00     0.009 A 
ATOM     78  C   UNL A   1      36.524  29.301  29.972  1.00  0.00     0.001 A 
ATOM     79  C   UNL A   1      36.873  29.964  27.678  1.00  0.00     0.001 A 
ATOM     80  C   UNL A   1      36.024  29.799  28.770  1.00  0.00     0.000 A 
ENDBRANCH  56  75
BRANCH  68  81
ATOM     81  C   UNL A   1      44.442  32.463  31.174  1.00  0.00    -0.014 A 
ATOM     82  C   UNL A   1      44.358  32.787  32.536  1.00  0.00     0.009 A 
ATOM     83  C   UNL A   1      44.804  33.461  30.255  1.00  0.00     0.009 A 
ATOM     84  C   UNL A   1      44.599  34.094  32.964  1.00  0.00     0.001 A 
ATOM     85  C   UNL A   1      45.079  34.757  30.690  1.00  0.00     0.001 A 
ATOM     86  C   UNL A   1      44.966  35.076  32.042  1.00  0.00     0.000 A 
ENDBRANCH  68  81
ENDBRANCH  42  43
ENDBRANCH  34  37
ENDBRANCH  32  33
ENDBRANCH  31  32
ENDBRANCH  30  31
ENDBRANCH   3  30
TORSDOF 16
ENDMDL
MODEL 2
REMARK VINA RESULT:     -11.5      3.793      9.214
REMARK SMILES C[C@H](NC(=O)CCN1C(=O)/C(=C/c2ccc([N+](=O)[O-])cc2)SC1=S)C(=O)NCCCNC(=O)c1ccc(-c2c3nc(c(-c4ccccc4)c4ccc([nH]4)c(-c4ccccc4)c4nc(c(-c5ccccc5)c5ccc2[nH]5)C=C4)C=C3)cc1
REMARK SMILES IDX 25 1 26 2 27 3 2 5 1 6 3 7 4 8 5 10 6 11 7 12 8 13 9 14
REMARK SMILES IDX 23 15 10 16 11 17 22 18 24 19 12 20 13 21 14 22 21 23 15 24
REMARK SMILES IDX 20 25 16 26 17 27 18 28 19 29 28 30 29 31 30 32 31 33 32 34
REMARK SMILES IDX 33 36 34 37 35 38 81 39 36 40 80 41 37 42 38 43 39 44 74 45
REMARK SMILES IDX 40 46 79 47 73 48 75 49 41 50 78 51 72 52 71 53 42 55 64 56
REMARK SMILES IDX 49 57 63 58 50 59 53 60 62 61 76 62 51 63 52 64 61 66 77 67
REMARK SMILES IDX 54 68 43 69 44 70 48 71 45 72 47 73 46 74 65 75 66 76 70 77
REMARK SMILES IDX 67 78 69 79 68 80 55 81 56 82 60 83 57 84 59 85 58 86
REMARK H PARENT 27 4 3 9 31 35 75 54 53 65
REMARK Flexibility Score: inf
ROOT
ATOM      1  C   UNL A   1      33.759  29.199  26.805  1.00  0.00     0.242 C 
ATOM      2  O   UNL A   1      34.561  28.956  27.707  1.00  0.00    -0.273 OA
ATOM      3  N   UNL A   1      33.201  30.440  26.748  1.00  0.00    -0.354 N 
ATOM      4  H   UNL A   1      33.793  31.224  26.820  1.00  0.00     0.163 HD
ENDROOT
BRANCH   1   5
ATOM      5  C   UNL A   1      33.603  28.286  25.583  1.00  0.00     0.168 C 
ATOM      6  C   UNL A   1      33.661  26.772  25.735  1.00  0.00     0.041 C 
BRANCH   5   7
ATOM      7  N   UNL A   1      34.296  28.673  24.388  1.00  0.00    -0.345 N 
ATOM      8  C   UNL A   1      33.758  28.670  23.140  1.00  0.00     0.222 C 
ATOM      9  H   UNL A   1      35.233  28.962  24.478  1.00  0.00     0.164 HD
ATOM     10  O   UNL A   1      34.549  28.578  22.195  1.00  0.00    -0.275 OA
BRANCH   8  11
ATOM     11  C   UNL A   1      32.269  28.949  22.872  1.00  0.00     0.122 C 
BRANCH  11  12
ATOM     12  C   UNL A   1      31.274  28.042  22.100  1.00  0.00     0.137 C 
BRANCH  12  13
ATOM     13  N   UNL A   1      31.151  26.603  22.465  1.00  0.00    -0.292 N 
ATOM     14  C   UNL A   1      32.047  25.680  21.921  1.00  0.00     0.266 C 
ATOM     15  C   UNL A   1      30.183  26.058  23.286  1.00  0.00     0.148 C 
ATOM     16  O   UNL A   1      32.868  25.907  21.043  1.00  0.00    -0.268 OA
ATOM     17  C   UNL A   1      31.943  24.355  22.614  1.00  0.00     0.081 C 
ATOM     18  S   UNL A   1      30.604  24.397  23.686  1.00  0.00    -0.054 SA
ATOM     19  S   UNL A   1      28.792  26.756  23.877  1.00  0.00    -0.052 S 
ATOM     20  C   UNL A   1      32.856  23.376  22.452  1.00  0.00     0.029 C 
BRANCH  20  21
ATOM     21  C   UNL A   1      32.974  22.076  23.158  1.00  0.00    -0.024 A 
ATOM     22  C   UNL A   1      32.156  21.000  22.760  1.00  0.00     0.015 A 
ATOM     23  C   UNL A   1      33.846  21.869  24.236  1.00  0.00     0.015 A 
ATOM     24  C   UNL A   1      32.266  19.737  23.365  1.00  0.00     0.086 A 
ATOM     25  C   UNL A   1      33.982  20.610  24.835  1.00  0.00     0.086 A 
ATOM     26  C   UNL A   1      33.201  19.542  24.387  1.00  0.00     0.269 A 
BRANCH  26  27
ATOM     27  N   UNL A   1      33.373  18.214  24.992  1.00  0.00     0.062 N 
ATOM     28  O   UNL A   1      32.534  17.848  25.827  1.00  0.00    -0.258 OA
ATOM     29  O   UNL A   1      34.340  17.533  24.620  1.00  0.00    -0.258 OA
ENDBRANCH  26  27
ENDBRANCH  20  21
ENDBRANCH  12  13
ENDBRANCH  11  12
ENDBRANCH   8  11
ENDBRANCH   5   7
ENDBRANCH   1   5
BRANCH   3  30
ATOM     30  C   UNL A   1      31.778  30.661  26.587  1.00  0.00     0.117 C 
BRANCH  30  31
ATOM     31  C   UNL A   1      31.447  32.110  26.875  1.00  0.00     0.042 C 
BRANCH  31  32
ATOM     32  C   UNL A   1      32.699  32.968  26.879  1.00  0.00     0.118 C 
BRANCH  32  33
ATOM     33  N   UNL A   1      32.503  34.176  27.675  1.00  0.00    -0.352 N 
ATOM     34  C   UNL A   1      33.130  34.533  28.847  1.00  0.00     0.251 C 
ATOM     35  H   UNL A   1      31.839  34.816  27.331  1.00  0.00     0.163 HD
ATOM     36  O   UNL A   1      32.631  35.357  29.597  1.00  0.00    -0.269 OA
BRANCH  34  37
ATOM     37  C   UNL A   1      34.409  33.872  29.168  1.00  0.00     0.039 A 
ATOM     38  C   UNL A   1      35.604  34.339  28.626  1.00  0.00     0.014 A 
ATOM     39  C   UNL A   1      34.403  32.826  30.090  1.00  0.00     0.014 A 
ATOM     40  C   UNL A   1      36.808  33.796  29.079  1.00  0.00     0.010 A 
ATOM     41  C   UNL A   1      35.594  32.407  30.651  1.00  0.00     0.010 A 
ATOM     42  C   UNL A   1      36.811  32.860  30.128  1.00  0.00    -0.014 A 
BRANCH  42  43
ATOM     43  C   UNL A   1      38.063  32.287  30.675  1.00  0.00     0.031 A 
ATOM     44  C   UNL A   1      38.630  31.033  30.062  1.00  0.00     0.074 A 
ATOM     45  C   UNL A   1      38.635  32.835  31.764  1.00  0.00     0.049 A 
ATOM     46  N   UNL A   1      39.657  30.319  30.442  1.00  0.00    -0.248 NA
ATOM     47  C   UNL A   1      37.922  30.482  28.890  1.00  0.00     0.031 C 
ATOM     48  C   UNL A   1      38.146  34.013  32.484  1.00  0.00     0.029 A 
ATOM     49  N   UNL A   1      39.758  32.465  32.461  1.00  0.00    -0.354 N 
ATOM     50  C   UNL A   1      39.695  29.229  29.580  1.00  0.00     0.074 A 
ATOM     51  C   UNL A   1      38.548  29.332  28.709  1.00  0.00     0.031 C 
ATOM     52  C   UNL A   1      38.989  34.295  33.491  1.00  0.00     0.029 A 
ATOM     53  C   UNL A   1      40.047  33.291  33.519  1.00  0.00     0.049 A 
ATOM     54  H   UNL A   1      40.304  31.680  32.223  1.00  0.00     0.167 HD
ATOM     55  C   UNL A   1      40.621  28.248  29.494  1.00  0.00     0.031 A 
ATOM     56  C   UNL A   1      41.053  33.241  34.412  1.00  0.00     0.031 A 
ATOM     57  C   UNL A   1      41.774  28.166  30.345  1.00  0.00     0.049 A 
ATOM     58  C   UNL A   1      42.070  32.139  34.298  1.00  0.00     0.074 A 
ATOM     59  C   UNL A   1      42.812  27.253  30.304  1.00  0.00     0.029 A 
ATOM     60  N   UNL A   1      42.042  29.034  31.391  1.00  0.00    -0.354 N 
ATOM     61  N   UNL A   1      42.137  31.161  33.427  1.00  0.00    -0.248 NA
ATOM     62  C   UNL A   1      43.159  32.142  35.285  1.00  0.00     0.031 C 
ATOM     63  C   UNL A   1      43.678  27.535  31.363  1.00  0.00     0.029 A 
ATOM     64  C   UNL A   1      43.216  28.665  32.020  1.00  0.00     0.049 A 
ATOM     65  H   UNL A   1      41.479  29.800  31.649  1.00  0.00     0.167 HD
ATOM     66  C   UNL A   1      43.292  30.455  33.737  1.00  0.00     0.074 A 
ATOM     67  C   UNL A   1      43.900  31.125  34.869  1.00  0.00     0.031 C 
ATOM     68  C   UNL A   1      43.805  29.352  33.140  1.00  0.00     0.031 A 
BRANCH  55  69
ATOM     69  C   UNL A   1      40.418  27.192  28.442  1.00  0.00    -0.014 A 
ATOM     70  C   UNL A   1      40.996  27.311  27.167  1.00  0.00     0.009 A 
ATOM     71  C   UNL A   1      39.655  26.052  28.735  1.00  0.00     0.009 A 
ATOM     72  C   UNL A   1      40.778  26.332  26.195  1.00  0.00     0.001 A 
ATOM     73  C   UNL A   1      39.468  25.058  27.773  1.00  0.00     0.001 A 
ATOM     74  C   UNL A   1      40.020  25.203  26.502  1.00  0.00     0.000 A 
ENDBRANCH  55  69
BRANCH  56  75
ATOM     75  C   UNL A   1      41.163  34.276  35.473  1.00  0.00    -0.014 A 
ATOM     76  C   UNL A   1      41.859  35.471  35.233  1.00  0.00     0.009 A 
ATOM     77  C   UNL A   1      40.580  34.075  36.735  1.00  0.00     0.009 A 
ATOM     78  C   UNL A   1      41.996  36.428  36.241  1.00  0.00     0.001 A 
ATOM     79  C   UNL A   1      40.691  35.049  37.731  1.00  0.00     0.001 A 
ATOM     80  C   UNL A   1      41.408  36.218  37.487  1.00  0.00     0.000 A 
ENDBRANCH  56  75
BRANCH  68  81
ATOM     81  C   UNL A   1      45.114  28.830  33.663  1.00  0.00    -0.014 A 
ATOM     82  C   UNL A   1      45.164  27.846  34.661  1.00  0.00     0.009 A 
ATOM     83  C   UNL A   1      46.314  29.293  33.100  1.00  0.00     0.009 A 
ATOM     84  C   UNL A   1      46.393  27.361  35.110  1.00  0.00     0.001 A 
ATOM     85  C   UNL A   1      47.539  28.782  33.526  1.00  0.00     0.001 A 
ATOM     86  C   UNL A   1      47.580  27.824  34.537  1.00  0.00     0.000 A 
ENDBRANCH  68  81
ENDBRANCH  42  43
ENDBRANCH  34  37
ENDBRANCH  32  33
ENDBRANCH  31  32
ENDBRANCH  30  31
ENDBRANCH   3  30
TORSDOF 16
ENDMDL
MODEL 3
REMARK VINA RESULT:     -11.3      4.148      9.788
REMARK SMILES C[C@H](NC(=O)CCN1C(=O)/C(=C/c2ccc([N+](=O)[O-])cc2)SC1=S)C(=O)NCCCNC(=O)c1ccc(-c2c3nc(c(-c4ccccc4)c4ccc([nH]4)c(-c4ccccc4)c4nc(c(-c5ccccc5)c5ccc2[nH]5)C=C4)C=C3)cc1
REMARK SMILES IDX 25 1 26 2 27 3 2 5 1 6 3 7 4 8 5 10 6 11 7 12 8 13 9 14
REMARK SMILES IDX 23 15 10 16 11 17 22 18 24 19 12 20 13 21 14 22 21 23 15 24
REMARK SMILES IDX 20 25 16 26 17 27 18 28 19 29 28 30 29 31 30 32 31 33 32 34
REMARK SMILES IDX 33 36 34 37 35 38 81 39 36 40 80 41 37 42 38 43 39 44 74 45
REMARK SMILES IDX 40 46 79 47 73 48 75 49 41 50 78 51 72 52 71 53 42 55 64 56
REMARK SMILES IDX 49 57 63 58 50 59 53 60 62 61 76 62 51 63 52 64 61 66 77 67
REMARK SMILES IDX 54 68 43 69 44 70 48 71 45 72 47 73 46 74 65 75 66 76 70 77
REMARK SMILES IDX 67 78 69 79 68 80 55 81 56 82 60 83 57 84 59 85 58 86
REMARK H PARENT 27 4 3 9 31 35 75 54 53 65
REMARK Flexibility Score: inf
ROOT
ATOM      1  C   UNL A   1      34.013  29.328  26.467  1.00  0.00     0.242 C 
ATOM      2  O   UNL A   1      34.986  29.295  27.219  1.00  0.00    -0.273 OA
ATOM      3  N   UNL A   1      33.354  30.511  26.308  1.00  0.00    -0.354 N 
ATOM      4  H   UNL A   1      33.883  31.320  26.125  1.00  0.00     0.163 HD
ENDROOT
BRANCH   1   5
ATOM      5  C   UNL A   1      33.704  28.198  25.477  1.00  0.00     0.168 C 
ATOM      6  C   UNL A   1      34.181  26.778  25.750  1.00  0.00     0.041 C 
BRANCH   5   7
ATOM      7  N   UNL A   1      33.858  28.494  24.082  1.00  0.00    -0.345 N 
ATOM      8  C   UNL A   1      33.259  27.813  23.070  1.00  0.00     0.222 C 
ATOM      9  H   UNL A   1      34.443  29.247  23.839  1.00  0.00     0.164 HD
ATOM     10  O   UNL A   1      33.809  27.863  21.965  1.00  0.00    -0.275 OA
BRANCH   8  11
ATOM     11  C   UNL A   1      31.874  27.157  23.211  1.00  0.00     0.122 C 
BRANCH  11  12
ATOM     12  C   UNL A   1      31.545  25.643  23.121  1.00  0.00     0.137 C 
BRANCH  12  13
ATOM     13  N   UNL A   1      32.458  24.650  23.752  1.00  0.00    -0.292 N 
ATOM     14  C   UNL A   1      33.628  24.277  23.087  1.00  0.00     0.266 C 
ATOM     15  C   UNL A   1      32.244  24.006  24.956  1.00  0.00     0.148 C 
ATOM     16  O   UNL A   1      33.933  24.583  21.942  1.00  0.00    -0.268 OA
ATOM     17  C   UNL A   1      34.537  23.501  23.991  1.00  0.00     0.081 C 
ATOM     18  S   UNL A   1      33.709  23.172  25.457  1.00  0.00    -0.054 SA
ATOM     19  S   UNL A   1      30.865  23.951  25.886  1.00  0.00    -0.052 S 
ATOM     20  C   UNL A   1      35.822  23.237  23.677  1.00  0.00     0.029 C 
BRANCH  20  21
ATOM     21  C   UNL A   1      36.882  22.610  24.506  1.00  0.00    -0.024 A 
ATOM     22  C   UNL A   1      37.190  21.248  24.314  1.00  0.00     0.015 A 
ATOM     23  C   UNL A   1      37.578  23.302  25.506  1.00  0.00     0.015 A 
ATOM     24  C   UNL A   1      38.218  20.623  25.039  1.00  0.00     0.086 A 
ATOM     25  C   UNL A   1      38.620  22.698  26.223  1.00  0.00     0.086 A 
ATOM     26  C   UNL A   1      38.947  21.362  25.976  1.00  0.00     0.269 A 
BRANCH  26  27
ATOM     27  N   UNL A   1      40.064  20.743  26.703  1.00  0.00     0.062 N 
ATOM     28  O   UNL A   1      40.525  19.684  26.258  1.00  0.00    -0.258 OA
ATOM     29  O   UNL A   1      40.488  21.328  27.712  1.00  0.00    -0.258 OA
ENDBRANCH  26  27
ENDBRANCH  20  21
ENDBRANCH  12  13
ENDBRANCH  11  12
ENDBRANCH   8  11
ENDBRANCH   5   7
ENDBRANCH   1   5
BRANCH   3  30
ATOM     30  C   UNL A   1      31.914  30.632  26.399  1.00  0.00     0.117 C 
BRANCH  30  31
ATOM     31  C   UNL A   1      31.543  32.030  26.846  1.00  0.00     0.042 C 
BRANCH  31  32
ATOM     32  C   UNL A   1      32.717  32.722  27.514  1.00  0.00     0.118 C 
BRANCH  32  33
ATOM     33  N   UNL A   1      32.489  34.160  27.615  1.00  0.00    -0.352 N 
ATOM     34  C   UNL A   1      32.960  35.031  28.570  1.00  0.00     0.251 C 
ATOM     35  H   UNL A   1      31.928  34.558  26.910  1.00  0.00     0.163 HD
ATOM     36  O   UNL A   1      32.413  36.107  28.760  1.00  0.00    -0.269 OA
BRANCH  34  37
ATOM     37  C   UNL A   1      34.129  34.610  29.364  1.00  0.00     0.039 A 
ATOM     38  C   UNL A   1      33.964  34.063  30.634  1.00  0.00     0.014 A 
ATOM     39  C   UNL A   1      35.394  34.693  28.780  1.00  0.00     0.014 A 
ATOM     40  C   UNL A   1      35.075  33.525  31.285  1.00  0.00     0.010 A 
ATOM     41  C   UNL A   1      36.453  34.019  29.354  1.00  0.00     0.010 A 
ATOM     42  C   UNL A   1      36.318  33.458  30.630  1.00  0.00    -0.014 A 
BRANCH  42  43
ATOM     43  C   UNL A   1      37.515  32.857  31.260  1.00  0.00     0.031 A 
ATOM     44  C   UNL A   1      38.159  31.653  30.622  1.00  0.00     0.074 A 
ATOM     45  C   UNL A   1      37.966  33.330  32.438  1.00  0.00     0.049 A 
ATOM     46  N   UNL A   1      39.152  30.921  31.055  1.00  0.00    -0.248 NA
ATOM     47  C   UNL A   1      37.581  31.182  29.349  1.00  0.00     0.031 C 
ATOM     48  C   UNL A   1      37.390  34.451  33.184  1.00  0.00     0.029 A 
ATOM     49  N   UNL A   1      39.017  32.919  33.218  1.00  0.00    -0.354 N 
ATOM     50  C   UNL A   1      39.292  29.896  30.127  1.00  0.00     0.074 A 
ATOM     51  C   UNL A   1      38.239  30.052  29.152  1.00  0.00     0.031 C 
ATOM     52  C   UNL A   1      38.123  34.666  34.290  1.00  0.00     0.029 A 
ATOM     53  C   UNL A   1      39.186  33.670  34.355  1.00  0.00     0.049 A 
ATOM     54  H   UNL A   1      39.596  32.157  32.983  1.00  0.00     0.167 HD
ATOM     55  C   UNL A   1      40.236  28.929  30.068  1.00  0.00     0.031 A 
ATOM     56  C   UNL A   1      40.097  33.563  35.340  1.00  0.00     0.031 A 
ATOM     57  C   UNL A   1      41.298  28.795  31.024  1.00  0.00     0.049 A 
ATOM     58  C   UNL A   1      41.136  32.479  35.255  1.00  0.00     0.074 A 
ATOM     59  C   UNL A   1      42.347  27.894  31.025  1.00  0.00     0.029 A 
ATOM     60  N   UNL A   1      41.446  29.589  32.150  1.00  0.00    -0.354 N 
ATOM     61  N   UNL A   1      41.305  31.567  34.328  1.00  0.00    -0.248 NA
ATOM     62  C   UNL A   1      42.120  32.420  36.345  1.00  0.00     0.031 C 
ATOM     63  C   UNL A   1      43.098  28.106  32.185  1.00  0.00     0.029 A 
ATOM     64  C   UNL A   1      42.556  29.183  32.869  1.00  0.00     0.049 A 
ATOM     65  H   UNL A   1      40.849  30.330  32.402  1.00  0.00     0.167 HD
ATOM     66  C   UNL A   1      42.432  30.847  34.705  1.00  0.00     0.074 A 
ATOM     67  C   UNL A   1      42.913  31.440  35.937  1.00  0.00     0.031 C 
ATOM     68  C   UNL A   1      43.018  29.793  34.087  1.00  0.00     0.031 A 
BRANCH  55  69
ATOM     69  C   UNL A   1      40.156  27.949  28.929  1.00  0.00    -0.014 A 
ATOM     70  C   UNL A   1      40.762  28.218  27.690  1.00  0.00     0.009 A 
ATOM     71  C   UNL A   1      39.481  26.731  29.103  1.00  0.00     0.009 A 
ATOM     72  C   UNL A   1      40.657  27.306  26.637  1.00  0.00     0.001 A 
ATOM     73  C   UNL A   1      39.409  25.806  28.060  1.00  0.00     0.001 A 
ATOM     74  C   UNL A   1      39.987  26.098  26.825  1.00  0.00     0.000 A 
ENDBRANCH  55  69
BRANCH  56  75
ATOM     75  C   UNL A   1      40.085  34.521  36.477  1.00  0.00    -0.014 A 
ATOM     76  C   UNL A   1      40.856  35.693  36.429  1.00  0.00     0.009 A 
ATOM     77  C   UNL A   1      39.309  34.269  37.620  1.00  0.00     0.009 A 
ATOM     78  C   UNL A   1      40.875  36.575  37.513  1.00  0.00     0.001 A 
ATOM     79  C   UNL A   1      39.304  35.170  38.688  1.00  0.00     0.001 A 
ATOM     80  C   UNL A   1      40.095  36.316  38.638  1.00  0.00     0.000 A 
ENDBRANCH  56  75
BRANCH  68  81
ATOM     81  C   UNL A   1      44.274  29.244  34.703  1.00  0.00    -0.014 A 
ATOM     82  C   UNL A   1      45.537  29.760  34.376  1.00  0.00     0.009 A 
ATOM     83  C   UNL A   1      44.181  28.232  35.671  1.00  0.00     0.009 A 
ATOM     84  C   UNL A   1      46.685  29.248  34.983  1.00  0.00     0.001 A 
ATOM     85  C   UNL A   1      45.326  27.746  36.302  1.00  0.00     0.001 A 
ATOM     86  C   UNL A   1      46.579  28.247  35.950  1.00  0.00     0.000 A 
ENDBRANCH  68  81
ENDBRANCH  42  43
ENDBRANCH  34  37
ENDBRANCH  32  33
ENDBRANCH  31  32
ENDBRANCH  30  31
ENDBRANCH   3  30
TORSDOF 16
ENDMDL
