MODEL 1
REMARK VINA RESULT:     -10.7      0.000      0.000
REMARK SMILES C[C@H](Nc1ncccc1C(=O)NCCCNC(=O)c1ccc(-c2c3nc(c(-c4ccccc4)c4ccc([nH]4)c(-c4ccccc4)c4nc(c(-c5ccccc5)c5ccc2[nH]5)C=C4)C=C3)cc1)c1ccc(Cl)cc1
REMARK SMILES IDX 13 1 12 2 10 3 11 4 9 6 4 7 5 8 6 9 8 10 7 11 3 12 2 14 1 15
REMARK SMILES IDX 67 16 68 17 73 18 69 19 72 20 70 21 71 22 14 23 15 24 16 25
REMARK SMILES IDX 17 26 18 28 19 29 20 30 66 31 21 32 65 33 22 34 23 35 24 36
REMARK SMILES IDX 59 37 25 38 64 39 58 40 60 41 26 42 63 43 57 44 56 45 27 47
REMARK SMILES IDX 49 48 34 49 48 50 35 51 38 52 47 53 61 54 36 55 37 56 46 58
REMARK SMILES IDX 62 59 39 60 28 61 29 62 33 63 30 64 32 65 31 66 50 67 51 68
REMARK SMILES IDX 55 69 52 70 54 71 53 72 40 73 41 74 45 75 42 76 44 77 43 78
REMARK H PARENT 12 5 3 13 16 27 60 46 38 57
REMARK Flexibility Score: inf
ROOT
ATOM      1  C   UNL A   1      31.989  27.892  27.288  1.00  0.00     0.118 C 
ENDROOT
BRANCH   1   2
ATOM      2  N   UNL A   1      31.275  26.684  26.930  1.00  0.00    -0.352 N 
ATOM      3  C   UNL A   1      30.699  26.146  25.808  1.00  0.00     0.255 C 
ATOM      4  O   UNL A   1      30.246  25.020  26.019  1.00  0.00    -0.269 OA
ATOM      5  H   UNL A   1      31.176  26.085  27.704  1.00  0.00     0.163 HD
BRANCH   3   6
ATOM      6  C   UNL A   1      30.634  26.780  24.446  1.00  0.00     0.082 A 
ATOM      7  C   UNL A   1      31.787  26.896  23.639  1.00  0.00     0.139 A 
ATOM      8  N   UNL A   1      31.823  27.685  22.531  1.00  0.00    -0.239 NA
ATOM      9  C   UNL A   1      30.701  28.314  22.142  1.00  0.00     0.113 A 
ATOM     10  C   UNL A   1      29.471  27.378  23.943  1.00  0.00     0.019 A 
ATOM     11  C   UNL A   1      29.500  28.163  22.791  1.00  0.00     0.021 A 
BRANCH   7  12
ATOM     12  N   UNL A   1      32.983  26.231  23.788  1.00  0.00    -0.363 N 
ATOM     13  H   UNL A   1      33.779  26.724  24.092  1.00  0.00     0.162 HD
BRANCH  12  14
ATOM     14  C   UNL A   1      33.086  24.803  23.501  1.00  0.00     0.108 C 
ATOM     15  C   UNL A   1      33.010  24.557  21.992  1.00  0.00     0.036 C 
BRANCH  14  16
ATOM     16  C   UNL A   1      34.390  24.261  24.073  1.00  0.00    -0.026 A 
ATOM     17  C   UNL A   1      34.807  24.661  25.354  1.00  0.00     0.007 A 
ATOM     18  C   UNL A   1      35.206  23.375  23.350  1.00  0.00     0.007 A 
ATOM     19  C   UNL A   1      36.007  24.195  25.896  1.00  0.00     0.021 A 
ATOM     20  C   UNL A   1      36.410  22.912  23.889  1.00  0.00     0.021 A 
ATOM     21  C   UNL A   1      36.805  23.326  25.159  1.00  0.00     0.041 A 
ATOM     22  Cl  UNL A   1      38.292  22.762  25.818  1.00  0.00    -0.084 Cl
ENDBRANCH  14  16
ENDBRANCH  12  14
ENDBRANCH   7  12
ENDBRANCH   3   6
ENDBRANCH   1   2
BRANCH   1  23
ATOM     23  C   UNL A   1      33.471  27.795  26.936  1.00  0.00     0.042 C 
BRANCH  23  24
ATOM     24  C   UNL A   1      33.966  28.958  26.071  1.00  0.00     0.118 C 
BRANCH  24  25
ATOM     25  N   UNL A   1      33.794  30.247  26.728  1.00  0.00    -0.352 N 
ATOM     26  C   UNL A   1      34.498  30.836  27.747  1.00  0.00     0.251 C 
ATOM     27  H   UNL A   1      33.045  30.786  26.384  1.00  0.00     0.163 HD
ATOM     28  O   UNL A   1      34.022  31.803  28.331  1.00  0.00    -0.269 OA
BRANCH  26  29
ATOM     29  C   UNL A   1      35.827  30.326  28.144  1.00  0.00     0.039 A 
ATOM     30  C   UNL A   1      36.881  30.406  27.229  1.00  0.00     0.014 A 
ATOM     31  C   UNL A   1      36.018  29.700  29.379  1.00  0.00     0.014 A 
ATOM     32  C   UNL A   1      38.137  29.899  27.569  1.00  0.00     0.010 A 
ATOM     33  C   UNL A   1      37.286  29.256  29.743  1.00  0.00     0.010 A 
ATOM     34  C   UNL A   1      38.355  29.341  28.838  1.00  0.00    -0.014 A 
BRANCH  34  35
ATOM     35  C   UNL A   1      39.688  28.825  29.234  1.00  0.00     0.031 A 
ATOM     36  C   UNL A   1      40.641  29.696  30.003  1.00  0.00     0.074 A 
ATOM     37  C   UNL A   1      40.070  27.598  28.834  1.00  0.00     0.049 A 
ATOM     38  N   UNL A   1      41.872  29.450  30.373  1.00  0.00    -0.248 NA
ATOM     39  C   UNL A   1      40.154  31.033  30.383  1.00  0.00     0.031 C 
ATOM     40  C   UNL A   1      39.257  26.675  28.041  1.00  0.00     0.029 A 
ATOM     41  N   UNL A   1      41.248  26.923  29.028  1.00  0.00    -0.354 N 
ATOM     42  C   UNL A   1      42.314  30.604  31.006  1.00  0.00     0.074 A 
ATOM     43  C   UNL A   1      41.237  31.568  30.927  1.00  0.00     0.031 C 
ATOM     44  C   UNL A   1      39.954  25.548  27.830  1.00  0.00     0.029 A 
ATOM     45  C   UNL A   1      41.272  25.682  28.442  1.00  0.00     0.049 A 
ATOM     46  H   UNL A   1      42.003  27.293  29.541  1.00  0.00     0.167 HD
ATOM     47  C   UNL A   1      43.501  30.838  31.615  1.00  0.00     0.031 A 
ATOM     48  C   UNL A   1      42.248  24.757  28.395  1.00  0.00     0.031 A 
ATOM     49  C   UNL A   1      44.569  29.878  31.700  1.00  0.00     0.049 A 
ATOM     50  C   UNL A   1      43.552  25.029  29.089  1.00  0.00     0.074 A 
ATOM     51  C   UNL A   1      45.789  29.996  32.341  1.00  0.00     0.029 A 
ATOM     52  N   UNL A   1      44.541  28.618  31.120  1.00  0.00    -0.354 N 
ATOM     53  N   UNL A   1      43.931  26.102  29.740  1.00  0.00    -0.248 NA
ATOM     54  C   UNL A   1      44.554  23.956  29.055  1.00  0.00     0.031 C 
ATOM     55  C   UNL A   1      46.517  28.822  32.114  1.00  0.00     0.029 A 
ATOM     56  C   UNL A   1      45.730  27.955  31.374  1.00  0.00     0.049 A 
ATOM     57  H   UNL A   1      43.787  28.250  30.605  1.00  0.00     0.167 HD
ATOM     58  C   UNL A   1      45.208  25.827  30.210  1.00  0.00     0.074 A 
ATOM     59  C   UNL A   1      45.531  24.481  29.783  1.00  0.00     0.031 C 
ATOM     60  C   UNL A   1      46.039  26.619  30.932  1.00  0.00     0.031 A 
BRANCH  47  61
ATOM     61  C   UNL A   1      43.701  32.199  32.226  1.00  0.00    -0.014 A 
ATOM     62  C   UNL A   1      44.258  33.254  31.483  1.00  0.00     0.009 A 
ATOM     63  C   UNL A   1      43.329  32.430  33.558  1.00  0.00     0.009 A 
ATOM     64  C   UNL A   1      44.486  34.497  32.079  1.00  0.00     0.001 A 
ATOM     65  C   UNL A   1      43.530  33.683  34.143  1.00  0.00     0.001 A 
ATOM     66  C   UNL A   1      44.121  34.710  33.407  1.00  0.00     0.000 A 
ENDBRANCH  47  61
BRANCH  48  67
ATOM     67  C   UNL A   1      42.009  23.478  27.680  1.00  0.00    -0.014 A 
ATOM     68  C   UNL A   1      42.430  23.317  26.352  1.00  0.00     0.009 A 
ATOM     69  C   UNL A   1      41.391  22.401  28.333  1.00  0.00     0.009 A 
ATOM     70  C   UNL A   1      42.223  22.106  25.688  1.00  0.00     0.001 A 
ATOM     71  C   UNL A   1      41.208  21.184  27.675  1.00  0.00     0.001 A 
ATOM     72  C   UNL A   1      41.619  21.039  26.351  1.00  0.00     0.000 A 
ENDBRANCH  48  67
BRANCH  60  73
ATOM     73  C   UNL A   1      47.367  26.038  31.323  1.00  0.00    -0.014 A 
ATOM     74  C   UNL A   1      48.444  26.017  30.425  1.00  0.00     0.009 A 
ATOM     75  C   UNL A   1      47.552  25.538  32.622  1.00  0.00     0.009 A 
ATOM     76  C   UNL A   1      49.674  25.478  30.812  1.00  0.00     0.001 A 
ATOM     77  C   UNL A   1      48.789  25.024  33.013  1.00  0.00     0.001 A 
ATOM     78  C   UNL A   1      49.845  24.986  32.105  1.00  0.00     0.000 A 
ENDBRANCH  60  73
ENDBRANCH  34  35
ENDBRANCH  26  29
ENDBRANCH  24  25
ENDBRANCH  23  24
ENDBRANCH   1  23
TORSDOF 13
ENDMDL
MODEL 2
REMARK VINA RESULT:     -10.7      2.983      7.694
REMARK SMILES C[C@H](Nc1ncccc1C(=O)NCCCNC(=O)c1ccc(-c2c3nc(c(-c4ccccc4)c4ccc([nH]4)c(-c4ccccc4)c4nc(c(-c5ccccc5)c5ccc2[nH]5)C=C4)C=C3)cc1)c1ccc(Cl)cc1
REMARK SMILES IDX 13 1 12 2 10 3 11 4 9 6 4 7 5 8 6 9 8 10 7 11 3 12 2 14 1 15
REMARK SMILES IDX 67 16 68 17 73 18 69 19 72 20 70 21 71 22 14 23 15 24 16 25
REMARK SMILES IDX 17 26 18 28 19 29 20 30 66 31 21 32 65 33 22 34 23 35 24 36
REMARK SMILES IDX 59 37 25 38 64 39 58 40 60 41 26 42 63 43 57 44 56 45 27 47
REMARK SMILES IDX 49 48 34 49 48 50 35 51 38 52 47 53 61 54 36 55 37 56 46 58
REMARK SMILES IDX 62 59 39 60 28 61 29 62 33 63 30 64 32 65 31 66 50 67 51 68
REMARK SMILES IDX 55 69 52 70 54 71 53 72 40 73 41 74 45 75 42 76 44 77 43 78
REMARK H PARENT 12 5 3 13 16 27 60 46 38 57
REMARK Flexibility Score: inf
ROOT
ATOM      1  C   UNL A   1      33.861  29.948  27.227  1.00  0.00     0.118 C 
ENDROOT
BRANCH   1   2
ATOM      2  N   UNL A   1      32.798  29.058  27.645  1.00  0.00    -0.352 N 
ATOM      3  C   UNL A   1      32.225  27.892  27.204  1.00  0.00     0.255 C 
ATOM      4  O   UNL A   1      31.351  27.490  27.974  1.00  0.00    -0.269 OA
ATOM      5  H   UNL A   1      32.369  29.376  28.471  1.00  0.00     0.163 HD
BRANCH   3   6
ATOM      6  C   UNL A   1      32.600  27.124  25.967  1.00  0.00     0.082 A 
ATOM      7  C   UNL A   1      31.637  26.809  24.983  1.00  0.00     0.139 A 
ATOM      8  N   UNL A   1      31.876  25.905  23.994  1.00  0.00    -0.239 NA
ATOM      9  C   UNL A   1      33.096  25.351  23.899  1.00  0.00     0.113 A 
ATOM     10  C   UNL A   1      33.880  26.593  25.763  1.00  0.00     0.019 A 
ATOM     11  C   UNL A   1      34.134  25.689  24.733  1.00  0.00     0.021 A 
BRANCH   7  12
ATOM     12  N   UNL A   1      30.387  27.366  24.828  1.00  0.00    -0.363 N 
ATOM     13  H   UNL A   1      30.019  27.942  25.536  1.00  0.00     0.162 HD
BRANCH  12  14
ATOM     14  C   UNL A   1      29.600  27.111  23.624  1.00  0.00     0.108 C 
ATOM     15  C   UNL A   1      28.342  26.308  23.971  1.00  0.00     0.036 C 
BRANCH  14  16
ATOM     16  C   UNL A   1      29.232  28.435  22.966  1.00  0.00    -0.026 A 
ATOM     17  C   UNL A   1      27.934  28.950  23.119  1.00  0.00     0.007 A 
ATOM     18  C   UNL A   1      30.153  29.161  22.192  1.00  0.00     0.007 A 
ATOM     19  C   UNL A   1      27.563  30.153  22.511  1.00  0.00     0.021 A 
ATOM     20  C   UNL A   1      29.782  30.361  21.580  1.00  0.00     0.021 A 
ATOM     21  C   UNL A   1      28.488  30.850  21.742  1.00  0.00     0.041 A 
ATOM     22  Cl  UNL A   1      28.029  32.324  20.980  1.00  0.00    -0.084 Cl
ENDBRANCH  14  16
ENDBRANCH  12  14
ENDBRANCH   7  12
ENDBRANCH   3   6
ENDBRANCH   1   2
BRANCH   1  23
ATOM     23  C   UNL A   1      33.312  31.184  26.519  1.00  0.00     0.042 C 
BRANCH  23  24
ATOM     24  C   UNL A   1      32.036  31.736  27.163  1.00  0.00     0.118 C 
BRANCH  24  25
ATOM     25  N   UNL A   1      32.075  33.186  27.310  1.00  0.00    -0.352 N 
ATOM     26  C   UNL A   1      32.921  33.992  28.027  1.00  0.00     0.251 C 
ATOM     27  H   UNL A   1      31.376  33.667  26.811  1.00  0.00     0.163 HD
ATOM     28  O   UNL A   1      32.613  35.162  28.229  1.00  0.00    -0.269 OA
BRANCH  26  29
ATOM     29  C   UNL A   1      34.201  33.474  28.550  1.00  0.00     0.039 A 
ATOM     30  C   UNL A   1      34.195  32.731  29.735  1.00  0.00     0.014 A 
ATOM     31  C   UNL A   1      35.413  33.783  27.926  1.00  0.00     0.014 A 
ATOM     32  C   UNL A   1      35.397  32.261  30.268  1.00  0.00     0.010 A 
ATOM     33  C   UNL A   1      36.603  33.257  28.419  1.00  0.00     0.010 A 
ATOM     34  C   UNL A   1      36.608  32.501  29.601  1.00  0.00    -0.014 A 
BRANCH  34  35
ATOM     35  C   UNL A   1      37.894  31.985  30.131  1.00  0.00     0.031 A 
ATOM     36  C   UNL A   1      38.470  30.701  29.604  1.00  0.00     0.074 A 
ATOM     37  C   UNL A   1      38.503  32.633  31.141  1.00  0.00     0.049 A 
ATOM     38  N   UNL A   1      39.540  30.054  29.992  1.00  0.00    -0.248 NA
ATOM     39  C   UNL A   1      37.731  30.042  28.515  1.00  0.00     0.031 C 
ATOM     40  C   UNL A   1      38.019  33.861  31.773  1.00  0.00     0.029 A 
ATOM     41  N   UNL A   1      39.656  32.338  31.823  1.00  0.00    -0.354 N 
ATOM     42  C   UNL A   1      39.589  28.906  29.213  1.00  0.00     0.074 A 
ATOM     43  C   UNL A   1      38.416  28.919  28.366  1.00  0.00     0.031 C 
ATOM     44  C   UNL A   1      38.876  34.224  32.740  1.00  0.00     0.029 A 
ATOM     45  C   UNL A   1      39.950  33.238  32.818  1.00  0.00     0.049 A 
ATOM     46  H   UNL A   1      40.220  31.557  31.617  1.00  0.00     0.167 HD
ATOM     47  C   UNL A   1      40.534  27.934  29.190  1.00  0.00     0.031 A 
ATOM     48  C   UNL A   1      40.965  33.263  33.700  1.00  0.00     0.031 A 
ATOM     49  C   UNL A   1      41.703  27.923  30.028  1.00  0.00     0.049 A 
ATOM     50  C   UNL A   1      42.010  32.185  33.649  1.00  0.00     0.074 A 
ATOM     51  C   UNL A   1      42.747  27.016  30.044  1.00  0.00     0.029 A 
ATOM     52  N   UNL A   1      41.981  28.872  31.001  1.00  0.00    -0.354 N 
ATOM     53  N   UNL A   1      42.077  31.138  32.863  1.00  0.00    -0.248 NA
ATOM     54  C   UNL A   1      43.126  32.303  34.597  1.00  0.00     0.031 C 
ATOM     55  C   UNL A   1      43.637  27.392  31.058  1.00  0.00     0.029 A 
ATOM     56  C   UNL A   1      43.172  28.561  31.637  1.00  0.00     0.049 A 
ATOM     57  H   UNL A   1      41.416  29.651  31.209  1.00  0.00     0.167 HD
ATOM     58  C   UNL A   1      43.251  30.482  33.205  1.00  0.00     0.074 A 
ATOM     59  C   UNL A   1      43.872  31.258  34.260  1.00  0.00     0.031 C 
ATOM     60  C   UNL A   1      43.770  29.340  32.692  1.00  0.00     0.031 A 
BRANCH  47  61
ATOM     61  C   UNL A   1      40.321  26.796  28.229  1.00  0.00    -0.014 A 
ATOM     62  C   UNL A   1      40.864  26.826  26.933  1.00  0.00     0.009 A 
ATOM     63  C   UNL A   1      39.569  25.679  28.623  1.00  0.00     0.009 A 
ATOM     64  C   UNL A   1      40.614  25.786  26.036  1.00  0.00     0.001 A 
ATOM     65  C   UNL A   1      39.346  24.626  27.732  1.00  0.00     0.001 A 
ATOM     66  C   UNL A   1      39.857  24.687  26.436  1.00  0.00     0.000 A 
ENDBRANCH  47  61
BRANCH  48  67
ATOM     67  C   UNL A   1      41.047  34.367  34.689  1.00  0.00    -0.014 A 
ATOM     68  C   UNL A   1      40.472  34.225  35.961  1.00  0.00     0.009 A 
ATOM     69  C   UNL A   1      41.730  35.552  34.379  1.00  0.00     0.009 A 
ATOM     70  C   UNL A   1      40.567  35.257  36.897  1.00  0.00     0.001 A 
ATOM     71  C   UNL A   1      41.845  36.572  35.325  1.00  0.00     0.001 A 
ATOM     72  C   UNL A   1      41.259  36.426  36.582  1.00  0.00     0.000 A 
ENDBRANCH  48  67
BRANCH  60  73
ATOM     73  C   UNL A   1      45.083  28.874  33.250  1.00  0.00    -0.014 A 
ATOM     74  C   UNL A   1      45.139  27.988  34.336  1.00  0.00     0.009 A 
ATOM     75  C   UNL A   1      46.281  29.302  32.657  1.00  0.00     0.009 A 
ATOM     76  C   UNL A   1      46.372  27.562  34.836  1.00  0.00     0.001 A 
ATOM     77  C   UNL A   1      47.511  28.854  33.143  1.00  0.00     0.001 A 
ATOM     78  C   UNL A   1      47.555  27.993  34.237  1.00  0.00     0.000 A 
ENDBRANCH  60  73
ENDBRANCH  34  35
ENDBRANCH  26  29
ENDBRANCH  24  25
ENDBRANCH  23  24
ENDBRANCH   1  23
TORSDOF 13
ENDMDL
MODEL 3
REMARK VINA RESULT:     -10.7      1.673      3.111
REMARK SMILES C[C@H](Nc1ncccc1C(=O)NCCCNC(=O)c1ccc(-c2c3nc(c(-c4ccccc4)c4ccc([nH]4)c(-c4ccccc4)c4nc(c(-c5ccccc5)c5ccc2[nH]5)C=C4)C=C3)cc1)c1ccc(Cl)cc1
REMARK SMILES IDX 13 1 12 2 10 3 11 4 9 6 4 7 5 8 6 9 8 10 7 11 3 12 2 14 1 15
REMARK SMILES IDX 67 16 68 17 73 18 69 19 72 20 70 21 71 22 14 23 15 24 16 25
REMARK SMILES IDX 17 26 18 28 19 29 20 30 66 31 21 32 65 33 22 34 23 35 24 36
REMARK SMILES IDX 59 37 25 38 64 39 58 40 60 41 26 42 63 43 57 44 56 45 27 47
REMARK SMILES IDX 49 48 34 49 48 50 35 51 38 52 47 53 61 54 36 55 37 56 46 58
REMARK SMILES IDX 62 59 39 60 28 61 29 62 33 63 30 64 32 65 31 66 50 67 51 68
REMARK SMILES IDX 55 69 52 70 54 71 53 72 40 73 41 74 45 75 42 76 44 77 43 78
REMARK H PARENT 12 5 3 13 16 27 60 46 38 57
REMARK Flexibility Score: inf
ROOT
ATOM      1  C   UNL A   1      33.167  26.811  25.392  1.00  0.00     0.118 C 
ENDROOT
BRANCH   1   2
ATOM      2  N   UNL A   1      32.866  25.571  26.077  1.00  0.00    -0.352 N 
ATOM      3  C   UNL A   1      33.395  24.308  26.158  1.00  0.00     0.255 C 
ATOM      4  O   UNL A   1      32.774  23.601  26.954  1.00  0.00    -0.269 OA
ATOM      5  H   UNL A   1      32.062  25.658  26.638  1.00  0.00     0.163 HD
BRANCH   3   6
ATOM      6  C   UNL A   1      34.605  23.797  25.427  1.00  0.00     0.082 A 
ATOM      7  C   UNL A   1      34.535  22.644  24.615  1.00  0.00     0.139 A 
ATOM      8  N   UNL A   1      35.647  22.009  24.155  1.00  0.00    -0.239 NA
ATOM      9  C   UNL A   1      36.854  22.540  24.413  1.00  0.00     0.113 A 
ATOM     10  C   UNL A   1      35.878  24.360  25.583  1.00  0.00     0.019 A 
ATOM     11  C   UNL A   1      37.017  23.726  25.087  1.00  0.00     0.021 A 
BRANCH   7  12
ATOM     12  N   UNL A   1      33.402  22.030  24.130  1.00  0.00    -0.363 N 
ATOM     13  H   UNL A   1      32.902  21.406  24.705  1.00  0.00     0.162 HD
BRANCH  12  14
ATOM     14  C   UNL A   1      32.932  22.293  22.772  1.00  0.00     0.108 C 
ATOM     15  C   UNL A   1      31.932  21.217  22.338  1.00  0.00     0.036 C 
BRANCH  14  16
ATOM     16  C   UNL A   1      32.297  23.676  22.711  1.00  0.00    -0.026 A 
ATOM     17  C   UNL A   1      31.080  23.913  23.372  1.00  0.00     0.007 A 
ATOM     18  C   UNL A   1      32.888  24.734  21.998  1.00  0.00     0.007 A 
ATOM     19  C   UNL A   1      30.466  25.166  23.317  1.00  0.00     0.021 A 
ATOM     20  C   UNL A   1      32.272  25.986  21.939  1.00  0.00     0.021 A 
ATOM     21  C   UNL A   1      31.063  26.196  22.598  1.00  0.00     0.041 A 
ATOM     22  Cl  UNL A   1      30.301  27.737  22.517  1.00  0.00    -0.084 Cl
ENDBRANCH  14  16
ENDBRANCH  12  14
ENDBRANCH   7  12
ENDBRANCH   3   6
ENDBRANCH   1   2
BRANCH   1  23
ATOM     23  C   UNL A   1      34.071  27.711  26.230  1.00  0.00     0.042 C 
BRANCH  23  24
ATOM     24  C   UNL A   1      33.353  28.350  27.423  1.00  0.00     0.118 C 
BRANCH  24  25
ATOM     25  N   UNL A   1      33.422  29.806  27.393  1.00  0.00    -0.352 N 
ATOM     26  C   UNL A   1      34.384  30.667  27.854  1.00  0.00     0.251 C 
ATOM     27  H   UNL A   1      32.649  30.245  26.971  1.00  0.00     0.163 HD
ATOM     28  O   UNL A   1      34.121  31.860  27.971  1.00  0.00    -0.269 OA
BRANCH  26  29
ATOM     29  C   UNL A   1      35.735  30.181  28.203  1.00  0.00     0.039 A 
ATOM     30  C   UNL A   1      35.969  29.713  29.500  1.00  0.00     0.014 A 
ATOM     31  C   UNL A   1      36.787  30.258  27.286  1.00  0.00     0.014 A 
ATOM     32  C   UNL A   1      37.247  29.282  29.863  1.00  0.00     0.010 A 
ATOM     33  C   UNL A   1      38.043  29.765  27.627  1.00  0.00     0.010 A 
ATOM     34  C   UNL A   1      38.288  29.283  28.922  1.00  0.00    -0.014 A 
BRANCH  34  35
ATOM     35  C   UNL A   1      39.645  28.799  29.275  1.00  0.00     0.031 A 
ATOM     36  C   UNL A   1      40.607  29.700  29.997  1.00  0.00     0.074 A 
ATOM     37  C   UNL A   1      40.037  27.574  28.878  1.00  0.00     0.049 A 
ATOM     38  N   UNL A   1      41.856  29.483  30.325  1.00  0.00    -0.248 NA
ATOM     39  C   UNL A   1      40.108  31.032  30.376  1.00  0.00     0.031 C 
ATOM     40  C   UNL A   1      39.214  26.624  28.128  1.00  0.00     0.029 A 
ATOM     41  N   UNL A   1      41.234  26.925  29.039  1.00  0.00    -0.354 N 
ATOM     42  C   UNL A   1      42.297  30.655  30.925  1.00  0.00     0.074 A 
ATOM     43  C   UNL A   1      41.198  31.596  30.873  1.00  0.00     0.031 C 
ATOM     44  C   UNL A   1      39.926  25.507  27.908  1.00  0.00     0.029 A 
ATOM     45  C   UNL A   1      41.262  25.676  28.469  1.00  0.00     0.049 A 
ATOM     46  H   UNL A   1      42.000  27.317  29.518  1.00  0.00     0.167 HD
ATOM     47  C   UNL A   1      43.500  30.921  31.488  1.00  0.00     0.031 A 
ATOM     48  C   UNL A   1      42.255  24.770  28.399  1.00  0.00     0.031 A 
ATOM     49  C   UNL A   1      44.590  29.984  31.546  1.00  0.00     0.049 A 
ATOM     50  C   UNL A   1      43.577  25.078  29.041  1.00  0.00     0.074 A 
ATOM     51  C   UNL A   1      45.830  30.135  32.141  1.00  0.00     0.029 A 
ATOM     52  N   UNL A   1      44.567  28.715  30.986  1.00  0.00    -0.354 N 
ATOM     53  N   UNL A   1      43.958  26.167  29.663  1.00  0.00    -0.248 NA
ATOM     54  C   UNL A   1      44.599  24.024  28.985  1.00  0.00     0.031 C 
ATOM     55  C   UNL A   1      46.573  28.972  31.903  1.00  0.00     0.029 A 
ATOM     56  C   UNL A   1      45.777  28.079  31.205  1.00  0.00     0.049 A 
ATOM     57  H   UNL A   1      43.802  28.324  30.503  1.00  0.00     0.167 HD
ATOM     58  C   UNL A   1      45.256  25.925  30.089  1.00  0.00     0.074 A 
ATOM     59  C   UNL A   1      45.591  24.579  29.669  1.00  0.00     0.031 C 
ATOM     60  C   UNL A   1      46.097  26.743  30.770  1.00  0.00     0.031 A 
BRANCH  47  61
ATOM     61  C   UNL A   1      43.695  32.294  32.071  1.00  0.00    -0.014 A 
ATOM     62  C   UNL A   1      43.382  32.565  33.415  1.00  0.00     0.009 A 
ATOM     63  C   UNL A   1      44.195  33.331  31.270  1.00  0.00     0.009 A 
ATOM     64  C   UNL A   1      43.518  33.856  33.928  1.00  0.00     0.001 A 
ATOM     65  C   UNL A   1      44.359  34.616  31.795  1.00  0.00     0.001 A 
ATOM     66  C   UNL A   1      44.008  34.880  33.118  1.00  0.00     0.000 A 
ENDBRANCH  47  61
BRANCH  48  67
ATOM     67  C   UNL A   1      42.016  23.477  27.712  1.00  0.00    -0.014 A 
ATOM     68  C   UNL A   1      41.378  22.422  28.381  1.00  0.00     0.009 A 
ATOM     69  C   UNL A   1      42.394  23.302  26.372  1.00  0.00     0.009 A 
ATOM     70  C   UNL A   1      41.136  21.213  27.726  1.00  0.00     0.001 A 
ATOM     71  C   UNL A   1      42.129  22.101  25.711  1.00  0.00     0.001 A 
ATOM     72  C   UNL A   1      41.505  21.055  26.391  1.00  0.00     0.000 A 
ENDBRANCH  48  67
BRANCH  60  73
ATOM     73  C   UNL A   1      47.450  26.195  31.120  1.00  0.00    -0.014 A 
ATOM     74  C   UNL A   1      48.507  26.225  30.199  1.00  0.00     0.009 A 
ATOM     75  C   UNL A   1      47.678  25.674  32.403  1.00  0.00     0.009 A 
ATOM     76  C   UNL A   1      49.760  25.714  30.548  1.00  0.00     0.001 A 
ATOM     77  C   UNL A   1      48.938  25.189  32.757  1.00  0.00     0.001 A 
ATOM     78  C   UNL A   1      49.974  25.202  31.826  1.00  0.00     0.000 A 
ENDBRANCH  60  73
ENDBRANCH  34  35
ENDBRANCH  26  29
ENDBRANCH  24  25
ENDBRANCH  23  24
ENDBRANCH   1  23
TORSDOF 13
ENDMDL
