MODEL 1
REMARK VINA RESULT:     -12.6      0.000      0.000
REMARK SMILES CCc1cc(S(F)(F)(F)(F)F)cc2c1O[C@@H](C(F)(F)F)C(C(=O)NCCCNC(=O)c1ccc(-c3c4nc(c(-c5ccccc5)c5ccc([nH]5)c(-c5ccccc5)c5nc(c(-c6ccccc6)c6ccc3[nH]6)C=C5)C=C4)cc1)=C2
REMARK SMILES IDX 26 1 25 2 24 3 22 4 23 5 21 7 3 8 4 9 14 10 5 11 13 12 15 13
REMARK SMILES IDX 12 14 79 15 16 16 2 17 1 18 6 19 7 20 8 21 9 22 10 23 11 24
REMARK SMILES IDX 17 25 18 26 19 27 20 28 27 29 28 30 29 31 30 33 31 34 32 35
REMARK SMILES IDX 78 36 33 37 77 38 34 39 35 40 36 41 71 42 37 43 76 44 70 45
REMARK SMILES IDX 72 46 38 47 75 48 69 49 68 50 39 52 61 53 46 54 60 55 47 56
REMARK SMILES IDX 50 57 59 58 73 59 48 60 49 61 58 63 74 64 51 65 40 66 41 67
REMARK SMILES IDX 45 68 42 69 44 70 43 71 62 72 63 73 67 74 64 75 66 76 65 77
REMARK SMILES IDX 52 78 53 79 57 80 54 81 56 82 55 83
REMARK H PARENT 24 6 28 32 72 51 50 62
REMARK Flexibility Score: inf
ROOT
ATOM      1  C   UNL A   1      33.016  27.871  25.904  1.00  0.00     0.042 C 
ENDROOT
BRANCH   1   2
ATOM      2  C   UNL A   1      33.706  26.793  25.086  1.00  0.00     0.118 C 
BRANCH   2   3
ATOM      3  N   UNL A   1      33.639  27.141  23.659  1.00  0.00    -0.352 N 
ATOM      4  C   UNL A   1      33.633  26.078  22.643  1.00  0.00     0.251 C 
ATOM      5  O   UNL A   1      33.575  26.380  21.410  1.00  0.00    -0.270 OA
ATOM      6  H   UNL A   1      33.597  28.086  23.385  1.00  0.00     0.163 HD
BRANCH   4   7
ATOM      7  C   UNL A   1      33.696  24.620  23.068  1.00  0.00     0.067 C 
ATOM      8  C   UNL A   1      33.664  20.766  24.678  1.00  0.00    -0.004 A 
ATOM      9  C   UNL A   1      34.857  20.130  24.968  1.00  0.00     0.032 A 
ATOM     10  C   UNL A   1      33.702  22.053  24.200  1.00  0.00     0.131 A 
ATOM     11  C   UNL A   1      36.058  20.766  24.788  1.00  0.00     0.108 A 
ATOM     12  C   UNL A   1      34.895  22.721  23.988  1.00  0.00     0.019 A 
ATOM     13  O   UNL A   1      32.510  22.711  24.023  1.00  0.00    -0.475 OA
ATOM     14  C   UNL A   1      36.076  22.054  24.294  1.00  0.00     0.036 A 
ATOM     15  C   UNL A   1      34.829  24.094  23.516  1.00  0.00     0.025 C 
ATOM     16  C   UNL A   1      32.462  23.733  22.988  1.00  0.00     0.314 C 
BRANCH   8  17
ATOM     17  C   UNL A   1      32.327  20.043  24.693  1.00  0.00     0.036 C 
ATOM     18  C   UNL A   1      32.530  18.595  24.279  1.00  0.00     0.009 C 
ENDBRANCH   8  17
BRANCH  11  19
ATOM     19  S   UNL A   1      37.606  19.923  25.197  1.00  0.00     0.310 S 
ATOM     20  F   UNL A   1      38.190  19.779  23.729  1.00  0.00    -0.094 F 
ATOM     21  F   UNL A   1      36.932  18.514  24.994  1.00  0.00    -0.094 F 
ATOM     22  F   UNL A   1      38.911  19.255  25.715  1.00  0.00    -0.094 F 
ATOM     23  F   UNL A   1      38.313  21.334  25.261  1.00  0.00    -0.094 F 
ATOM     24  F   UNL A   1      36.329  20.608  24.566  1.00  0.00    -0.094 F 
ENDBRANCH  11  19
BRANCH  16  25
ATOM     25  C   UNL A   1      31.221  24.588  23.193  1.00  0.00     0.429 C 
ATOM     26  F   UNL A   1      30.139  23.817  23.137  1.00  0.00    -0.167 F 
ATOM     27  F   UNL A   1      31.282  25.181  24.381  1.00  0.00    -0.167 F 
ATOM     28  F   UNL A   1      31.158  25.512  22.238  1.00  0.00    -0.167 F 
ENDBRANCH  16  25
ENDBRANCH   4   7
ENDBRANCH   2   3
ENDBRANCH   1   2
BRANCH   1  29
ATOM     29  C   UNL A   1      33.982  28.418  26.942  1.00  0.00     0.118 C 
BRANCH  29  30
ATOM     30  N   UNL A   1      33.534  29.749  27.377  1.00  0.00    -0.352 N 
ATOM     31  C   UNL A   1      34.462  30.643  28.085  1.00  0.00     0.251 C 
ATOM     32  H   UNL A   1      32.611  30.041  27.196  1.00  0.00     0.163 HD
ATOM     33  O   UNL A   1      34.075  31.793  28.460  1.00  0.00    -0.269 OA
BRANCH  31  34
ATOM     34  C   UNL A   1      35.887  30.191  28.364  1.00  0.00     0.039 A 
ATOM     35  C   UNL A   1      36.845  30.339  27.374  1.00  0.00     0.014 A 
ATOM     36  C   UNL A   1      36.195  29.686  29.552  1.00  0.00     0.014 A 
ATOM     37  C   UNL A   1      38.053  29.651  27.640  1.00  0.00     0.010 A 
ATOM     38  C   UNL A   1      37.440  29.153  29.783  1.00  0.00     0.010 A 
ATOM     39  C   UNL A   1      38.418  29.211  28.830  1.00  0.00    -0.014 A 
BRANCH  39  40
ATOM     40  C   UNL A   1      39.850  28.792  29.124  1.00  0.00     0.031 A 
ATOM     41  C   UNL A   1      40.696  29.721  29.731  1.00  0.00     0.074 A 
ATOM     42  C   UNL A   1      40.238  27.516  28.755  1.00  0.00     0.049 A 
ATOM     43  N   UNL A   1      41.971  29.550  30.085  1.00  0.00    -0.248 NA
ATOM     44  C   UNL A   1      40.296  31.089  30.092  1.00  0.00     0.031 C 
ATOM     45  C   UNL A   1      39.387  26.570  28.151  1.00  0.00     0.029 A 
ATOM     46  N   UNL A   1      41.480  26.936  28.896  1.00  0.00    -0.354 N 
ATOM     47  C   UNL A   1      42.444  30.660  30.656  1.00  0.00     0.074 A 
ATOM     48  C   UNL A   1      41.375  31.668  30.663  1.00  0.00     0.031 C 
ATOM     49  C   UNL A   1      40.107  25.441  27.920  1.00  0.00     0.029 A 
ATOM     50  C   UNL A   1      41.421  25.661  28.378  1.00  0.00     0.049 A 
ATOM     51  H   UNL A   1      42.271  27.359  29.299  1.00  0.00     0.167 HD
ATOM     52  C   UNL A   1      43.724  30.869  31.172  1.00  0.00     0.031 A 
ATOM     53  C   UNL A   1      42.444  24.730  28.297  1.00  0.00     0.031 A 
ATOM     54  C   UNL A   1      44.734  29.923  31.131  1.00  0.00     0.049 A 
ATOM     55  C   UNL A   1      43.741  24.960  28.761  1.00  0.00     0.074 A 
ATOM     56  C   UNL A   1      46.027  30.116  31.654  1.00  0.00     0.029 A 
ATOM     57  N   UNL A   1      44.683  28.657  30.590  1.00  0.00    -0.354 N 
ATOM     58  N   UNL A   1      44.202  26.056  29.368  1.00  0.00    -0.248 NA
ATOM     59  C   UNL A   1      44.841  23.994  28.652  1.00  0.00     0.031 C 
ATOM     60  C   UNL A   1      46.748  28.986  31.424  1.00  0.00     0.029 A 
ATOM     61  C   UNL A   1      45.917  28.069  30.752  1.00  0.00     0.049 A 
ATOM     62  H   UNL A   1      43.899  28.244  30.161  1.00  0.00     0.167 HD
ATOM     63  C   UNL A   1      45.489  25.899  29.684  1.00  0.00     0.074 A 
ATOM     64  C   UNL A   1      45.920  24.573  29.222  1.00  0.00     0.031 C 
ATOM     65  C   UNL A   1      46.319  26.807  30.343  1.00  0.00     0.031 A 
BRANCH  52  66
ATOM     66  C   UNL A   1      44.025  32.213  31.817  1.00  0.00    -0.014 A 
ATOM     67  C   UNL A   1      44.560  33.241  31.060  1.00  0.00     0.009 A 
ATOM     68  C   UNL A   1      43.827  32.350  33.124  1.00  0.00     0.009 A 
ATOM     69  C   UNL A   1      45.128  34.284  31.828  1.00  0.00     0.001 A 
ATOM     70  C   UNL A   1      44.292  33.460  33.787  1.00  0.00     0.001 A 
ATOM     71  C   UNL A   1      44.884  34.489  33.111  1.00  0.00     0.000 A 
ENDBRANCH  52  66
BRANCH  53  72
ATOM     72  C   UNL A   1      42.138  23.381  27.667  1.00  0.00    -0.014 A 
ATOM     73  C   UNL A   1      42.429  23.251  26.318  1.00  0.00     0.009 A 
ATOM     74  C   UNL A   1      41.648  22.364  28.367  1.00  0.00     0.009 A 
ATOM     75  C   UNL A   1      41.894  22.082  25.726  1.00  0.00     0.001 A 
ATOM     76  C   UNL A   1      41.272  21.201  27.741  1.00  0.00     0.001 A 
ATOM     77  C   UNL A   1      41.476  21.026  26.400  1.00  0.00     0.000 A 
ENDBRANCH  53  72
BRANCH  65  78
ATOM     78  C   UNL A   1      47.751  26.386  30.630  1.00  0.00    -0.014 A 
ATOM     79  C   UNL A   1      48.718  26.570  29.656  1.00  0.00     0.009 A 
ATOM     80  C   UNL A   1      48.056  25.865  31.813  1.00  0.00     0.009 A 
ATOM     81  C   UNL A   1      49.936  25.901  29.923  1.00  0.00     0.001 A 
ATOM     82  C   UNL A   1      49.309  25.351  32.050  1.00  0.00     0.001 A 
ATOM     83  C   UNL A   1      50.296  25.445  31.109  1.00  0.00     0.000 A 
ENDBRANCH  65  78
ENDBRANCH  39  40
ENDBRANCH  31  34
ENDBRANCH  29  30
ENDBRANCH   1  29
TORSDOF 13
ENDMDL
MODEL 2
REMARK VINA RESULT:     -12.5      1.303      6.000
REMARK SMILES CCc1cc(S(F)(F)(F)(F)F)cc2c1O[C@@H](C(F)(F)F)C(C(=O)NCCCNC(=O)c1ccc(-c3c4nc(c(-c5ccccc5)c5ccc([nH]5)c(-c5ccccc5)c5nc(c(-c6ccccc6)c6ccc3[nH]6)C=C5)C=C4)cc1)=C2
REMARK SMILES IDX 26 1 25 2 24 3 22 4 23 5 21 7 3 8 4 9 14 10 5 11 13 12 15 13
REMARK SMILES IDX 12 14 79 15 16 16 2 17 1 18 6 19 7 20 8 21 9 22 10 23 11 24
REMARK SMILES IDX 17 25 18 26 19 27 20 28 27 29 28 30 29 31 30 33 31 34 32 35
REMARK SMILES IDX 78 36 33 37 77 38 34 39 35 40 36 41 71 42 37 43 76 44 70 45
REMARK SMILES IDX 72 46 38 47 75 48 69 49 68 50 39 52 61 53 46 54 60 55 47 56
REMARK SMILES IDX 50 57 59 58 73 59 48 60 49 61 58 63 74 64 51 65 40 66 41 67
REMARK SMILES IDX 45 68 42 69 44 70 43 71 62 72 63 73 67 74 64 75 66 76 65 77
REMARK SMILES IDX 52 78 53 79 57 80 54 81 56 82 55 83
REMARK H PARENT 24 6 28 32 72 51 50 62
REMARK Flexibility Score: inf
ROOT
ATOM      1  C   UNL A   1      34.135  29.395  25.799  1.00  0.00     0.042 C 
ENDROOT
BRANCH   1   2
ATOM      2  C   UNL A   1      32.761  29.186  25.186  1.00  0.00     0.118 C 
BRANCH   2   3
ATOM      3  N   UNL A   1      31.805  28.820  26.242  1.00  0.00    -0.352 N 
ATOM      4  C   UNL A   1      31.501  27.404  26.499  1.00  0.00     0.251 C 
ATOM      5  O   UNL A   1      30.675  27.088  27.412  1.00  0.00    -0.270 OA
ATOM      6  H   UNL A   1      31.368  29.522  26.775  1.00  0.00     0.163 HD
BRANCH   4   7
ATOM      7  C   UNL A   1      32.176  26.320  25.676  1.00  0.00     0.067 C 
ATOM      8  C   UNL A   1      33.663  23.026  23.582  1.00  0.00    -0.004 A 
ATOM      9  C   UNL A   1      34.880  22.475  23.937  1.00  0.00     0.032 A 
ATOM     10  C   UNL A   1      33.173  24.074  24.321  1.00  0.00     0.131 A 
ATOM     11  C   UNL A   1      35.587  22.957  25.008  1.00  0.00     0.108 A 
ATOM     12  C   UNL A   1      33.866  24.600  25.396  1.00  0.00     0.019 A 
ATOM     13  O   UNL A   1      31.914  24.537  24.027  1.00  0.00    -0.475 OA
ATOM     14  C   UNL A   1      35.085  24.020  25.729  1.00  0.00     0.036 A 
ATOM     15  C   UNL A   1      33.245  25.684  26.139  1.00  0.00     0.025 C 
ATOM     16  C   UNL A   1      31.640  25.940  24.302  1.00  0.00     0.314 C 
BRANCH   8  17
ATOM     17  C   UNL A   1      32.934  22.643  22.304  1.00  0.00     0.036 C 
ATOM     18  C   UNL A   1      32.033  21.449  22.574  1.00  0.00     0.009 C 
ENDBRANCH   8  17
BRANCH  11  19
ATOM     19  S   UNL A   1      37.167  22.206  25.470  1.00  0.00     0.310 S 
ATOM     20  F   UNL A   1      37.570  21.614  24.055  1.00  0.00    -0.094 F 
ATOM     21  F   UNL A   1      36.463  20.828  25.769  1.00  0.00    -0.094 F 
ATOM     22  F   UNL A   1      38.520  21.663  26.013  1.00  0.00    -0.094 F 
ATOM     23  F   UNL A   1      37.888  23.543  25.036  1.00  0.00    -0.094 F 
ATOM     24  F   UNL A   1      35.829  22.730  24.813  1.00  0.00    -0.094 F 
ENDBRANCH  11  19
BRANCH  16  25
ATOM     25  C   UNL A   1      30.138  26.167  24.275  1.00  0.00     0.429 C 
ATOM     26  F   UNL A   1      29.619  25.570  23.205  1.00  0.00    -0.167 F 
ATOM     27  F   UNL A   1      29.592  25.657  25.374  1.00  0.00    -0.167 F 
ATOM     28  F   UNL A   1      29.887  27.472  24.220  1.00  0.00    -0.167 F 
ENDBRANCH  16  25
ENDBRANCH   4   7
ENDBRANCH   2   3
ENDBRANCH   1   2
BRANCH   1  29
ATOM     29  C   UNL A   1      34.056  29.195  27.304  1.00  0.00     0.118 C 
BRANCH  29  30
ATOM     30  N   UNL A   1      33.703  30.467  27.951  1.00  0.00    -0.352 N 
ATOM     31  C   UNL A   1      34.709  31.196  28.738  1.00  0.00     0.251 C 
ATOM     32  H   UNL A   1      32.792  30.831  27.858  1.00  0.00     0.163 HD
ATOM     33  O   UNL A   1      34.404  32.295  29.296  1.00  0.00    -0.269 OA
BRANCH  31  34
ATOM     34  C   UNL A   1      36.114  30.634  28.881  1.00  0.00     0.039 A 
ATOM     35  C   UNL A   1      37.027  30.837  27.858  1.00  0.00     0.014 A 
ATOM     36  C   UNL A   1      36.452  29.980  29.986  1.00  0.00     0.014 A 
ATOM     37  C   UNL A   1      38.200  30.055  27.974  1.00  0.00     0.010 A 
ATOM     38  C   UNL A   1      37.671  29.353  30.082  1.00  0.00     0.010 A 
ATOM     39  C   UNL A   1      38.599  29.463  29.085  1.00  0.00    -0.014 A 
BRANCH  39  40
ATOM     40  C   UNL A   1      40.014  28.930  29.245  1.00  0.00     0.031 A 
ATOM     41  C   UNL A   1      40.277  27.626  28.824  1.00  0.00     0.074 A 
ATOM     42  C   UNL A   1      40.958  29.765  29.817  1.00  0.00     0.049 A 
ATOM     43  N   UNL A   1      41.444  26.979  28.860  1.00  0.00    -0.248 NA
ATOM     44  C   UNL A   1      39.268  26.725  28.247  1.00  0.00     0.031 C 
ATOM     45  C   UNL A   1      40.701  31.085  30.236  1.00  0.00     0.029 A 
ATOM     46  N   UNL A   1      42.281  29.488  30.083  1.00  0.00    -0.354 N 
ATOM     47  C   UNL A   1      41.308  25.753  28.352  1.00  0.00     0.074 A 
ATOM     48  C   UNL A   1      39.904  25.570  27.956  1.00  0.00     0.031 C 
ATOM     49  C   UNL A   1      41.849  31.593  30.758  1.00  0.00     0.029 A 
ATOM     50  C   UNL A   1      42.843  30.599  30.672  1.00  0.00     0.049 A 
ATOM     51  H   UNL A   1      42.744  28.643  29.885  1.00  0.00     0.167 HD
ATOM     52  C   UNL A   1      42.298  24.781  28.202  1.00  0.00     0.031 A 
ATOM     53  C   UNL A   1      44.145  30.754  31.118  1.00  0.00     0.031 A 
ATOM     54  C   UNL A   1      43.611  24.953  28.608  1.00  0.00     0.049 A 
ATOM     55  C   UNL A   1      45.123  29.761  31.022  1.00  0.00     0.074 A 
ATOM     56  C   UNL A   1      44.624  23.986  28.457  1.00  0.00     0.029 A 
ATOM     57  N   UNL A   1      44.168  26.054  29.220  1.00  0.00    -0.354 N 
ATOM     58  N   UNL A   1      44.996  28.550  30.477  1.00  0.00    -0.248 NA
ATOM     59  C   UNL A   1      46.497  29.904  31.520  1.00  0.00     0.031 C 
ATOM     60  C   UNL A   1      45.773  24.494  28.978  1.00  0.00     0.029 A 
ATOM     61  C   UNL A   1      45.496  25.787  29.465  1.00  0.00     0.049 A 
ATOM     62  H   UNL A   1      43.697  26.889  29.444  1.00  0.00     0.167 HD
ATOM     63  C   UNL A   1      46.153  27.889  30.552  1.00  0.00     0.074 A 
ATOM     64  C   UNL A   1      47.133  28.747  31.230  1.00  0.00     0.031 C 
ATOM     65  C   UNL A   1      46.431  26.606  30.078  1.00  0.00     0.031 A 
BRANCH  52  66
ATOM     66  C   UNL A   1      41.915  23.461  27.554  1.00  0.00    -0.014 A 
ATOM     67  C   UNL A   1      41.400  22.433  28.328  1.00  0.00     0.009 A 
ATOM     68  C   UNL A   1      42.146  23.297  26.257  1.00  0.00     0.009 A 
ATOM     69  C   UNL A   1      41.433  21.167  27.696  1.00  0.00     0.001 A 
ATOM     70  C   UNL A   1      42.028  22.057  25.677  1.00  0.00     0.001 A 
ATOM     71  C   UNL A   1      41.582  20.983  26.396  1.00  0.00     0.000 A 
ENDBRANCH  52  66
BRANCH  53  72
ATOM     72  C   UNL A   1      44.533  32.081  31.751  1.00  0.00    -0.014 A 
ATOM     73  C   UNL A   1      44.361  32.183  33.122  1.00  0.00     0.009 A 
ATOM     74  C   UNL A   1      45.041  33.084  31.043  1.00  0.00     0.009 A 
ATOM     75  C   UNL A   1      44.488  33.503  33.619  1.00  0.00     0.001 A 
ATOM     76  C   UNL A   1      45.267  34.307  31.627  1.00  0.00     0.001 A 
ATOM     77  C   UNL A   1      45.062  34.497  32.966  1.00  0.00     0.000 A 
ENDBRANCH  53  72
BRANCH  65  78
ATOM     78  C   UNL A   1      47.846  26.074  30.244  1.00  0.00    -0.014 A 
ATOM     79  C   UNL A   1      48.238  25.569  31.473  1.00  0.00     0.009 A 
ATOM     80  C   UNL A   1      48.676  26.088  29.209  1.00  0.00     0.009 A 
ATOM     81  C   UNL A   1      49.632  25.362  31.589  1.00  0.00     0.001 A 
ATOM     82  C   UNL A   1      49.997  25.743  29.366  1.00  0.00     0.001 A 
ATOM     83  C   UNL A   1      50.467  25.291  30.568  1.00  0.00     0.000 A 
ENDBRANCH  65  78
ENDBRANCH  39  40
ENDBRANCH  31  34
ENDBRANCH  29  30
ENDBRANCH   1  29
TORSDOF 13
ENDMDL
MODEL 3
REMARK VINA RESULT:     -12.4      3.461      8.182
REMARK SMILES CCc1cc(S(F)(F)(F)(F)F)cc2c1O[C@@H](C(F)(F)F)C(C(=O)NCCCNC(=O)c1ccc(-c3c4nc(c(-c5ccccc5)c5ccc([nH]5)c(-c5ccccc5)c5nc(c(-c6ccccc6)c6ccc3[nH]6)C=C5)C=C4)cc1)=C2
REMARK SMILES IDX 26 1 25 2 24 3 22 4 23 5 21 7 3 8 4 9 14 10 5 11 13 12 15 13
REMARK SMILES IDX 12 14 79 15 16 16 2 17 1 18 6 19 7 20 8 21 9 22 10 23 11 24
REMARK SMILES IDX 17 25 18 26 19 27 20 28 27 29 28 30 29 31 30 33 31 34 32 35
REMARK SMILES IDX 78 36 33 37 77 38 34 39 35 40 36 41 71 42 37 43 76 44 70 45
REMARK SMILES IDX 72 46 38 47 75 48 69 49 68 50 39 52 61 53 46 54 60 55 47 56
REMARK SMILES IDX 50 57 59 58 73 59 48 60 49 61 58 63 74 64 51 65 40 66 41 67
REMARK SMILES IDX 45 68 42 69 44 70 43 71 62 72 63 73 67 74 64 75 66 76 65 77
REMARK SMILES IDX 52 78 53 79 57 80 54 81 56 82 55 83
REMARK H PARENT 24 6 28 32 72 51 50 62
REMARK Flexibility Score: inf
ROOT
ATOM      1  C   UNL A   1      35.545  23.225  25.232  1.00  0.00     0.042 C 
ENDROOT
BRANCH   1   2
ATOM      2  C   UNL A   1      34.497  24.159  25.813  1.00  0.00     0.118 C 
BRANCH   2   3
ATOM      3  N   UNL A   1      33.584  23.396  26.676  1.00  0.00    -0.352 N 
ATOM      4  C   UNL A   1      32.200  23.855  26.869  1.00  0.00     0.251 C 
ATOM      5  O   UNL A   1      31.410  23.195  27.615  1.00  0.00    -0.270 OA
ATOM      6  H   UNL A   1      33.898  22.577  27.124  1.00  0.00     0.163 HD
BRANCH   4   7
ATOM      7  C   UNL A   1      31.714  25.118  26.176  1.00  0.00     0.067 C 
ATOM      8  C   UNL A   1      30.751  28.505  23.930  1.00  0.00    -0.004 A 
ATOM      9  C   UNL A   1      30.948  29.765  24.464  1.00  0.00     0.032 A 
ATOM     10  C   UNL A   1      31.127  27.410  24.669  1.00  0.00     0.131 A 
ATOM     11  C   UNL A   1      31.511  29.926  25.703  1.00  0.00     0.108 A 
ATOM     12  C   UNL A   1      31.679  27.532  25.931  1.00  0.00     0.019 A 
ATOM     13  O   UNL A   1      31.029  26.172  24.083  1.00  0.00    -0.475 OA
ATOM     14  C   UNL A   1      31.868  28.814  26.437  1.00  0.00     0.036 A 
ATOM     15  C   UNL A   1      32.080  26.315  26.617  1.00  0.00     0.025 C 
ATOM     16  C   UNL A   1      30.799  25.036  24.963  1.00  0.00     0.314 C 
BRANCH   8  17
ATOM     17  C   UNL A   1      29.974  28.274  22.645  1.00  0.00     0.036 C 
ATOM     18  C   UNL A   1      28.818  29.258  22.567  1.00  0.00     0.009 C 
ENDBRANCH   8  17
BRANCH  11  19
ATOM     19  S   UNL A   1      31.782  31.586  26.373  1.00  0.00     0.310 S 
ATOM     20  F   UNL A   1      30.713  31.545  27.544  1.00  0.00    -0.094 F 
ATOM     21  F   UNL A   1      30.649  32.179  25.452  1.00  0.00    -0.094 F 
ATOM     22  F   UNL A   1      32.170  33.010  26.860  1.00  0.00    -0.094 F 
ATOM     23  F   UNL A   1      32.816  30.965  27.392  1.00  0.00    -0.094 F 
ATOM     24  F   UNL A   1      31.323  30.127  25.972  1.00  0.00    -0.094 F 
ENDBRANCH  11  19
BRANCH  16  25
ATOM     25  C   UNL A   1      31.095  23.753  24.203  1.00  0.00     0.429 C 
ATOM     26  F   UNL A   1      30.319  23.688  23.124  1.00  0.00    -0.167 F 
ATOM     27  F   UNL A   1      32.371  23.740  23.832  1.00  0.00    -0.167 F 
ATOM     28  F   UNL A   1      30.850  22.707  24.988  1.00  0.00    -0.167 F 
ENDBRANCH  16  25
ENDBRANCH   4   7
ENDBRANCH   2   3
ENDBRANCH   1   2
BRANCH   1  29
ATOM     29  C   UNL A   1      36.930  23.800  25.478  1.00  0.00     0.118 C 
BRANCH  29  30
ATOM     30  N   UNL A   1      37.924  22.716  25.450  1.00  0.00    -0.352 N 
ATOM     31  C   UNL A   1      39.225  22.894  26.109  1.00  0.00     0.251 C 
ATOM     32  H   UNL A   1      37.717  21.871  24.987  1.00  0.00     0.163 HD
ATOM     33  O   UNL A   1      40.083  21.958  26.085  1.00  0.00    -0.269 OA
BRANCH  31  34
ATOM     34  C   UNL A   1      39.542  24.199  26.823  1.00  0.00     0.039 A 
ATOM     35  C   UNL A   1      39.181  24.342  28.153  1.00  0.00     0.014 A 
ATOM     36  C   UNL A   1      40.178  25.167  26.173  1.00  0.00     0.014 A 
ATOM     37  C   UNL A   1      39.280  25.670  28.633  1.00  0.00     0.010 A 
ATOM     38  C   UNL A   1      40.358  26.398  26.756  1.00  0.00     0.010 A 
ATOM     39  C   UNL A   1      39.973  26.629  28.046  1.00  0.00    -0.014 A 
BRANCH  39  40
ATOM     40  C   UNL A   1      40.323  27.920  28.768  1.00  0.00     0.031 A 
ATOM     41  C   UNL A   1      39.357  28.927  28.820  1.00  0.00     0.074 A 
ATOM     42  C   UNL A   1      41.588  28.032  29.318  1.00  0.00     0.049 A 
ATOM     43  N   UNL A   1      39.455  30.118  29.413  1.00  0.00    -0.248 NA
ATOM     44  C   UNL A   1      38.024  28.824  28.207  1.00  0.00     0.031 C 
ATOM     45  C   UNL A   1      42.564  27.017  29.277  1.00  0.00     0.029 A 
ATOM     46  N   UNL A   1      42.127  29.109  29.986  1.00  0.00    -0.354 N 
ATOM     47  C   UNL A   1      38.318  30.802  29.265  1.00  0.00     0.074 A 
ATOM     48  C   UNL A   1      37.383  29.981  28.482  1.00  0.00     0.031 C 
ATOM     49  C   UNL A   1      43.679  27.480  29.901  1.00  0.00     0.029 A 
ATOM     50  C   UNL A   1      43.418  28.791  30.344  1.00  0.00     0.049 A 
ATOM     51  H   UNL A   1      41.668  29.958  30.176  1.00  0.00     0.167 HD
ATOM     52  C   UNL A   1      38.024  32.075  29.754  1.00  0.00     0.031 A 
ATOM     53  C   UNL A   1      44.333  29.586  31.015  1.00  0.00     0.031 A 
ATOM     54  C   UNL A   1      38.923  32.853  30.464  1.00  0.00     0.049 A 
ATOM     55  C   UNL A   1      44.059  30.884  31.454  1.00  0.00     0.074 A 
ATOM     56  C   UNL A   1      38.640  34.136  30.971  1.00  0.00     0.029 A 
ATOM     57  N   UNL A   1      40.223  32.545  30.800  1.00  0.00    -0.354 N 
ATOM     58  N   UNL A   1      42.908  31.551  31.341  1.00  0.00    -0.248 NA
ATOM     59  C   UNL A   1      45.030  31.747  32.138  1.00  0.00     0.031 C 
ATOM     60  C   UNL A   1      39.756  34.599  31.595  1.00  0.00     0.029 A 
ATOM     61  C   UNL A   1      40.755  33.612  31.487  1.00  0.00     0.049 A 
ATOM     62  H   UNL A   1      40.692  31.707  30.584  1.00  0.00     0.167 HD
ATOM     63  C   UNL A   1      43.021  32.758  31.898  1.00  0.00     0.074 A 
ATOM     64  C   UNL A   1      44.389  32.905  32.411  1.00  0.00     0.031 C 
ATOM     65  C   UNL A   1      42.036  33.742  32.000  1.00  0.00     0.031 A 
BRANCH  52  66
ATOM     66  C   UNL A   1      36.636  32.639  29.494  1.00  0.00    -0.014 A 
ATOM     67  C   UNL A   1      36.392  33.379  28.348  1.00  0.00     0.009 A 
ATOM     68  C   UNL A   1      35.695  32.465  30.415  1.00  0.00     0.009 A 
ATOM     69  C   UNL A   1      35.202  34.143  28.401  1.00  0.00     0.001 A 
ATOM     70  C   UNL A   1      34.502  33.142  30.332  1.00  0.00     0.001 A 
ATOM     71  C   UNL A   1      34.217  33.937  29.257  1.00  0.00     0.000 A 
ENDBRANCH  52  66
BRANCH  53  72
ATOM     72  C   UNL A   1      45.715  29.015  31.290  1.00  0.00    -0.014 A 
ATOM     73  C   UNL A   1      46.676  29.235  30.316  1.00  0.00     0.009 A 
ATOM     74  C   UNL A   1      46.006  28.367  32.412  1.00  0.00     0.009 A 
ATOM     75  C   UNL A   1      47.856  28.473  30.494  1.00  0.00     0.001 A 
ATOM     76  C   UNL A   1      47.229  27.762  32.573  1.00  0.00     0.001 A 
ATOM     77  C   UNL A   1      48.206  27.888  31.624  1.00  0.00     0.000 A 
ENDBRANCH  53  72
BRANCH  65  78
ATOM     78  C   UNL A   1      42.391  35.035  32.718  1.00  0.00    -0.014 A 
ATOM     79  C   UNL A   1      43.117  36.004  32.046  1.00  0.00     0.009 A 
ATOM     80  C   UNL A   1      41.987  35.221  33.969  1.00  0.00     0.009 A 
ATOM     81  C   UNL A   1      43.619  37.028  32.883  1.00  0.00     0.001 A 
ATOM     82  C   UNL A   1      42.408  36.316  34.685  1.00  0.00     0.001 A 
ATOM     83  C   UNL A   1      43.177  37.283  34.101  1.00  0.00     0.000 A 
ENDBRANCH  65  78
ENDBRANCH  39  40
ENDBRANCH  31  34
ENDBRANCH  29  30
ENDBRANCH   1  29
TORSDOF 13
ENDMDL
