MODEL 1
REMARK VINA RESULT:     -11.9      0.000      0.000
REMARK SMILES Cc1cccc(-c2cc(C(=O)NCCCNC(=O)c3ccc(-c4c5nc(c(-c6ccccc6)c6ccc([nH]6)c(-c6ccccc6)c6nc(c(-c7ccccc7)c7ccc4[nH]7)C=C6)C=C5)cc3)ccn2)c1
REMARK SMILES IDX 14 1 13 2 12 3 10 4 11 5 9 7 7 8 8 9 69 10 68 11 67 12 6 13
REMARK SMILES IDX 1 14 2 15 3 16 70 17 4 18 5 19 15 20 16 21 17 22 18 24 19 25
REMARK SMILES IDX 20 26 66 27 21 28 65 29 22 30 23 31 24 32 59 33 25 34 64 35
REMARK SMILES IDX 58 36 60 37 26 38 63 39 57 40 56 41 27 43 49 44 34 45 48 46
REMARK SMILES IDX 35 47 38 48 47 49 61 50 36 51 37 52 46 54 62 55 39 56 28 57
REMARK SMILES IDX 29 58 33 59 30 60 32 61 31 62 50 63 51 64 55 65 52 66 54 67
REMARK SMILES IDX 53 68 40 69 41 70 45 71 42 72 44 73 43 74
REMARK H PARENT 12 6 16 23 60 42 38 53
REMARK Flexibility Score: inf
ROOT
ATOM      1  C   UNL A   1      33.431  31.418  27.617  1.00  0.00     0.042 C 
ENDROOT
BRANCH   1   2
ATOM      2  C   UNL A   1      32.457  30.568  26.792  1.00  0.00     0.118 C 
BRANCH   2   3
ATOM      3  N   UNL A   1      32.989  30.228  25.476  1.00  0.00    -0.352 N 
ATOM      4  C   UNL A   1      32.991  29.069  24.732  1.00  0.00     0.251 C 
ATOM      5  O   UNL A   1      33.421  29.143  23.580  1.00  0.00    -0.269 OA
ATOM      6  H   UNL A   1      33.436  30.982  25.029  1.00  0.00     0.163 HD
BRANCH   4   7
ATOM      7  C   UNL A   1      32.508  27.744  25.221  1.00  0.00     0.043 A 
ATOM      8  C   UNL A   1      32.804  25.431  25.847  1.00  0.00     0.071 A 
ATOM      9  C   UNL A   1      33.322  26.637  25.389  1.00  0.00     0.042 A 
ATOM     10  N   UNL A   1      31.491  25.260  26.093  1.00  0.00    -0.256 NA
ATOM     11  C   UNL A   1      30.693  26.336  25.905  1.00  0.00     0.112 A 
ATOM     12  C   UNL A   1      31.147  27.579  25.483  1.00  0.00     0.034 A 
BRANCH   8  13
ATOM     13  C   UNL A   1      33.727  24.319  26.097  1.00  0.00     0.000 A 
ATOM     14  C   UNL A   1      37.342  23.440  25.204  1.00  0.00     0.044 C 
ATOM     15  C   UNL A   1      35.937  23.322  25.713  1.00  0.00    -0.050 A 
ATOM     16  C   UNL A   1      35.472  22.120  26.249  1.00  0.00     0.003 A 
ATOM     17  C   UNL A   1      35.062  24.414  25.653  1.00  0.00     0.013 A 
ATOM     18  C   UNL A   1      34.161  22.014  26.721  1.00  0.00     0.001 A 
ATOM     19  C   UNL A   1      33.294  23.108  26.649  1.00  0.00     0.010 A 
ENDBRANCH   8  13
ENDBRANCH   4   7
ENDBRANCH   2   3
ENDBRANCH   1   2
BRANCH   1  20
ATOM     20  C   UNL A   1      34.866  30.921  27.595  1.00  0.00     0.118 C 
BRANCH  20  21
ATOM     21  N   UNL A   1      35.783  31.725  28.402  1.00  0.00    -0.352 N 
ATOM     22  C   UNL A   1      37.012  31.341  28.917  1.00  0.00     0.251 C 
ATOM     23  H   UNL A   1      35.495  32.645  28.602  1.00  0.00     0.163 HD
ATOM     24  O   UNL A   1      37.711  32.113  29.549  1.00  0.00    -0.269 OA
BRANCH  22  25
ATOM     25  C   UNL A   1      37.497  29.988  28.567  1.00  0.00     0.039 A 
ATOM     26  C   UNL A   1      37.622  29.068  29.609  1.00  0.00     0.014 A 
ATOM     27  C   UNL A   1      38.121  29.784  27.336  1.00  0.00     0.014 A 
ATOM     28  C   UNL A   1      38.588  28.075  29.506  1.00  0.00     0.010 A 
ATOM     29  C   UNL A   1      39.137  28.850  27.267  1.00  0.00     0.010 A 
ATOM     30  C   UNL A   1      39.420  28.056  28.385  1.00  0.00    -0.014 A 
BRANCH  30  31
ATOM     31  C   UNL A   1      40.699  27.354  28.391  1.00  0.00     0.031 A 
ATOM     32  C   UNL A   1      40.752  25.893  28.230  1.00  0.00     0.074 A 
ATOM     33  C   UNL A   1      41.845  28.042  28.586  1.00  0.00     0.049 A 
ATOM     34  N   UNL A   1      41.648  25.135  28.770  1.00  0.00    -0.248 NA
ATOM     35  C   UNL A   1      39.736  25.160  27.490  1.00  0.00     0.031 C 
ATOM     36  C   UNL A   1      43.214  27.555  28.449  1.00  0.00     0.029 A 
ATOM     37  N   UNL A   1      41.979  29.289  29.190  1.00  0.00    -0.354 N 
ATOM     38  C   UNL A   1      41.517  23.890  28.203  1.00  0.00     0.074 A 
ATOM     39  C   UNL A   1      40.244  23.926  27.519  1.00  0.00     0.031 C 
ATOM     40  C   UNL A   1      44.029  28.354  29.157  1.00  0.00     0.029 A 
ATOM     41  C   UNL A   1      43.196  29.298  29.885  1.00  0.00     0.049 A 
ATOM     42  H   UNL A   1      41.335  30.031  29.139  1.00  0.00     0.167 HD
ATOM     43  C   UNL A   1      42.572  23.026  28.223  1.00  0.00     0.031 A 
ATOM     44  C   UNL A   1      43.233  29.489  31.235  1.00  0.00     0.031 A 
ATOM     45  C   UNL A   1      43.695  23.544  29.012  1.00  0.00     0.049 A 
ATOM     46  C   UNL A   1      43.809  28.320  32.004  1.00  0.00     0.074 A 
ATOM     47  C   UNL A   1      44.911  24.108  28.660  1.00  0.00     0.029 A 
ATOM     48  N   UNL A   1      43.531  23.784  30.373  1.00  0.00    -0.354 N 
ATOM     49  N   UNL A   1      43.954  27.121  31.514  1.00  0.00    -0.248 NA
ATOM     50  C   UNL A   1      44.213  28.403  33.405  1.00  0.00     0.031 C 
ATOM     51  C   UNL A   1      45.453  24.741  29.807  1.00  0.00     0.029 A 
ATOM     52  C   UNL A   1      44.579  24.545  30.862  1.00  0.00     0.049 A 
ATOM     53  H   UNL A   1      42.777  23.458  30.914  1.00  0.00     0.167 HD
ATOM     54  C   UNL A   1      44.426  26.282  32.492  1.00  0.00     0.074 A 
ATOM     55  C   UNL A   1      44.593  27.138  33.651  1.00  0.00     0.031 C 
ATOM     56  C   UNL A   1      44.618  24.949  32.262  1.00  0.00     0.031 A 
BRANCH  43  57
ATOM     57  C   UNL A   1      42.705  21.874  27.245  1.00  0.00    -0.014 A 
ATOM     58  C   UNL A   1      42.011  20.673  27.484  1.00  0.00     0.009 A 
ATOM     59  C   UNL A   1      43.554  21.868  26.126  1.00  0.00     0.009 A 
ATOM     60  C   UNL A   1      42.244  19.511  26.733  1.00  0.00     0.001 A 
ATOM     61  C   UNL A   1      43.825  20.703  25.393  1.00  0.00     0.001 A 
ATOM     62  C   UNL A   1      43.181  19.517  25.707  1.00  0.00     0.000 A 
ENDBRANCH  43  57
BRANCH  44  63
ATOM     63  C   UNL A   1      42.152  30.373  31.752  1.00  0.00    -0.014 A 
ATOM     64  C   UNL A   1      41.087  29.788  32.468  1.00  0.00     0.009 A 
ATOM     65  C   UNL A   1      42.328  31.761  31.831  1.00  0.00     0.009 A 
ATOM     66  C   UNL A   1      40.288  30.556  33.320  1.00  0.00     0.001 A 
ATOM     67  C   UNL A   1      41.517  32.528  32.676  1.00  0.00     0.001 A 
ATOM     68  C   UNL A   1      40.521  31.923  33.444  1.00  0.00     0.000 A 
ENDBRANCH  44  63
BRANCH  56  69
ATOM     69  C   UNL A   1      44.939  23.902  33.304  1.00  0.00    -0.014 A 
ATOM     70  C   UNL A   1      44.044  22.920  33.750  1.00  0.00     0.009 A 
ATOM     71  C   UNL A   1      46.261  23.816  33.798  1.00  0.00     0.009 A 
ATOM     72  C   UNL A   1      44.432  21.941  34.677  1.00  0.00     0.001 A 
ATOM     73  C   UNL A   1      46.665  22.815  34.686  1.00  0.00     0.001 A 
ATOM     74  C   UNL A   1      45.743  21.883  35.137  1.00  0.00     0.000 A 
ENDBRANCH  56  69
ENDBRANCH  30  31
ENDBRANCH  22  25
ENDBRANCH  20  21
ENDBRANCH   1  20
TORSDOF 11
ENDMDL
MODEL 2
REMARK VINA RESULT:     -11.8      3.663      9.108
REMARK SMILES Cc1cccc(-c2cc(C(=O)NCCCNC(=O)c3ccc(-c4c5nc(c(-c6ccccc6)c6ccc([nH]6)c(-c6ccccc6)c6nc(c(-c7ccccc7)c7ccc4[nH]7)C=C6)C=C5)cc3)ccn2)c1
REMARK SMILES IDX 14 1 13 2 12 3 10 4 11 5 9 7 7 8 8 9 69 10 68 11 67 12 6 13
REMARK SMILES IDX 1 14 2 15 3 16 70 17 4 18 5 19 15 20 16 21 17 22 18 24 19 25
REMARK SMILES IDX 20 26 66 27 21 28 65 29 22 30 23 31 24 32 59 33 25 34 64 35
REMARK SMILES IDX 58 36 60 37 26 38 63 39 57 40 56 41 27 43 49 44 34 45 48 46
REMARK SMILES IDX 35 47 38 48 47 49 61 50 36 51 37 52 46 54 62 55 39 56 28 57
REMARK SMILES IDX 29 58 33 59 30 60 32 61 31 62 50 63 51 64 55 65 52 66 54 67
REMARK SMILES IDX 53 68 40 69 41 70 45 71 42 72 44 73 43 74
REMARK H PARENT 12 6 16 23 60 42 38 53
REMARK Flexibility Score: inf
ROOT
ATOM      1  C   UNL A   1      38.184  21.431  25.701  1.00  0.00     0.042 C 
ENDROOT
BRANCH   1   2
ATOM      2  C   UNL A   1      37.027  21.477  24.696  1.00  0.00     0.118 C 
BRANCH   2   3
ATOM      3  N   UNL A   1      35.770  21.009  25.271  1.00  0.00    -0.352 N 
ATOM      4  C   UNL A   1      34.475  21.477  25.212  1.00  0.00     0.251 C 
ATOM      5  O   UNL A   1      33.600  20.770  25.713  1.00  0.00    -0.269 OA
ATOM      6  H   UNL A   1      35.866  20.192  25.810  1.00  0.00     0.163 HD
BRANCH   4   7
ATOM      7  C   UNL A   1      34.065  22.767  24.583  1.00  0.00     0.043 A 
ATOM      8  C   UNL A   1      33.269  25.045  24.644  1.00  0.00     0.071 A 
ATOM      9  C   UNL A   1      33.637  23.874  25.296  1.00  0.00     0.042 A 
ATOM     10  N   UNL A   1      33.252  25.146  23.302  1.00  0.00    -0.256 NA
ATOM     11  C   UNL A   1      33.647  24.055  22.606  1.00  0.00     0.112 A 
ATOM     12  C   UNL A   1      34.061  22.866  23.192  1.00  0.00     0.034 A 
BRANCH   8  13
ATOM     13  C   UNL A   1      32.914  26.217  25.453  1.00  0.00     0.000 A 
ATOM     14  C   UNL A   1      34.736  29.228  26.954  1.00  0.00     0.044 C 
ATOM     15  C   UNL A   1      33.661  28.230  26.641  1.00  0.00    -0.050 A 
ATOM     16  C   UNL A   1      32.407  28.320  27.249  1.00  0.00     0.003 A 
ATOM     17  C   UNL A   1      33.898  27.185  25.740  1.00  0.00     0.013 A 
ATOM     18  C   UNL A   1      31.410  27.387  26.955  1.00  0.00     0.001 A 
ATOM     19  C   UNL A   1      31.659  26.343  26.060  1.00  0.00     0.010 A 
ENDBRANCH   8  13
ENDBRANCH   4   7
ENDBRANCH   2   3
ENDBRANCH   1   2
BRANCH   1  20
ATOM     20  C   UNL A   1      38.672  22.796  26.155  1.00  0.00     0.118 C 
BRANCH  20  21
ATOM     21  N   UNL A   1      40.117  22.868  26.367  1.00  0.00    -0.352 N 
ATOM     22  C   UNL A   1      40.851  23.956  26.816  1.00  0.00     0.251 C 
ATOM     23  H   UNL A   1      40.628  22.050  26.168  1.00  0.00     0.163 HD
ATOM     24  O   UNL A   1      42.054  23.889  26.990  1.00  0.00    -0.269 OA
BRANCH  22  25
ATOM     25  C   UNL A   1      40.095  25.172  27.189  1.00  0.00     0.039 A 
ATOM     26  C   UNL A   1      40.406  26.349  26.507  1.00  0.00     0.014 A 
ATOM     27  C   UNL A   1      39.384  25.192  28.389  1.00  0.00     0.014 A 
ATOM     28  C   UNL A   1      40.236  27.561  27.162  1.00  0.00     0.010 A 
ATOM     29  C   UNL A   1      39.292  26.389  29.073  1.00  0.00     0.010 A 
ATOM     30  C   UNL A   1      39.796  27.557  28.488  1.00  0.00    -0.014 A 
BRANCH  30  31
ATOM     31  C   UNL A   1      39.998  28.703  29.367  1.00  0.00     0.031 A 
ATOM     32  C   UNL A   1      38.960  29.734  29.506  1.00  0.00     0.074 A 
ATOM     33  C   UNL A   1      41.166  28.844  30.033  1.00  0.00     0.049 A 
ATOM     34  N   UNL A   1      39.201  30.982  29.735  1.00  0.00    -0.248 NA
ATOM     35  C   UNL A   1      37.547  29.437  29.321  1.00  0.00     0.031 C 
ATOM     36  C   UNL A   1      41.487  29.809  31.079  1.00  0.00     0.029 A 
ATOM     37  N   UNL A   1      42.390  28.267  29.705  1.00  0.00    -0.354 N 
ATOM     38  C   UNL A   1      37.999  31.576  30.039  1.00  0.00     0.074 A 
ATOM     39  C   UNL A   1      36.998  30.611  29.643  1.00  0.00     0.031 C 
ATOM     40  C   UNL A   1      42.821  29.944  31.147  1.00  0.00     0.029 A 
ATOM     41  C   UNL A   1      43.397  29.177  30.054  1.00  0.00     0.049 A 
ATOM     42  H   UNL A   1      42.524  27.381  29.300  1.00  0.00     0.167 HD
ATOM     43  C   UNL A   1      37.984  32.740  30.750  1.00  0.00     0.031 A 
ATOM     44  C   UNL A   1      44.247  29.680  29.113  1.00  0.00     0.031 A 
ATOM     45  C   UNL A   1      39.332  33.270  30.971  1.00  0.00     0.049 A 
ATOM     46  C   UNL A   1      44.163  31.181  28.951  1.00  0.00     0.074 A 
ATOM     47  C   UNL A   1      40.169  33.284  32.076  1.00  0.00     0.029 A 
ATOM     48  N   UNL A   1      40.116  33.644  29.883  1.00  0.00    -0.354 N 
ATOM     49  N   UNL A   1      43.177  31.912  29.391  1.00  0.00    -0.248 NA
ATOM     50  C   UNL A   1      45.160  31.967  28.228  1.00  0.00     0.031 C 
ATOM     51  C   UNL A   1      41.476  33.612  31.637  1.00  0.00     0.029 A 
ATOM     52  C   UNL A   1      41.433  33.819  30.270  1.00  0.00     0.049 A 
ATOM     53  H   UNL A   1      39.781  33.767  28.967  1.00  0.00     0.167 HD
ATOM     54  C   UNL A   1      43.369  33.216  29.011  1.00  0.00     0.074 A 
ATOM     55  C   UNL A   1      44.636  33.202  28.304  1.00  0.00     0.031 C 
ATOM     56  C   UNL A   1      42.453  34.189  29.296  1.00  0.00     0.031 A 
BRANCH  43  57
ATOM     57  C   UNL A   1      36.769  33.202  31.533  1.00  0.00    -0.014 A 
ATOM     58  C   UNL A   1      36.649  32.868  32.895  1.00  0.00     0.009 A 
ATOM     59  C   UNL A   1      35.674  33.887  30.981  1.00  0.00     0.009 A 
ATOM     60  C   UNL A   1      35.468  33.090  33.619  1.00  0.00     0.001 A 
ATOM     61  C   UNL A   1      34.474  34.079  31.683  1.00  0.00     0.001 A 
ATOM     62  C   UNL A   1      34.366  33.665  33.001  1.00  0.00     0.000 A 
ENDBRANCH  43  57
BRANCH  44  63
ATOM     63  C   UNL A   1      44.542  28.738  27.997  1.00  0.00    -0.014 A 
ATOM     64  C   UNL A   1      45.318  27.593  28.268  1.00  0.00     0.009 A 
ATOM     65  C   UNL A   1      43.815  28.786  26.800  1.00  0.00     0.009 A 
ATOM     66  C   UNL A   1      45.283  26.485  27.416  1.00  0.00     0.001 A 
ATOM     67  C   UNL A   1      43.794  27.679  25.943  1.00  0.00     0.001 A 
ATOM     68  C   UNL A   1      44.499  26.519  26.266  1.00  0.00     0.000 A 
ENDBRANCH  44  63
BRANCH  56  69
ATOM     69  C   UNL A   1      42.459  35.603  28.761  1.00  0.00    -0.014 A 
ATOM     70  C   UNL A   1      43.090  36.688  29.384  1.00  0.00     0.009 A 
ATOM     71  C   UNL A   1      41.892  35.852  27.490  1.00  0.00     0.009 A 
ATOM     72  C   UNL A   1      43.107  37.962  28.796  1.00  0.00     0.001 A 
ATOM     73  C   UNL A   1      41.946  37.108  26.879  1.00  0.00     0.001 A 
ATOM     74  C   UNL A   1      42.543  38.169  27.542  1.00  0.00     0.000 A 
ENDBRANCH  56  69
ENDBRANCH  30  31
ENDBRANCH  22  25
ENDBRANCH  20  21
ENDBRANCH   1  20
TORSDOF 11
ENDMDL
MODEL 3
REMARK VINA RESULT:     -11.6      3.922      9.268
REMARK SMILES Cc1cccc(-c2cc(C(=O)NCCCNC(=O)c3ccc(-c4c5nc(c(-c6ccccc6)c6ccc([nH]6)c(-c6ccccc6)c6nc(c(-c7ccccc7)c7ccc4[nH]7)C=C6)C=C5)cc3)ccn2)c1
REMARK SMILES IDX 14 1 13 2 12 3 10 4 11 5 9 7 7 8 8 9 69 10 68 11 67 12 6 13
REMARK SMILES IDX 1 14 2 15 3 16 70 17 4 18 5 19 15 20 16 21 17 22 18 24 19 25
REMARK SMILES IDX 20 26 66 27 21 28 65 29 22 30 23 31 24 32 59 33 25 34 64 35
REMARK SMILES IDX 58 36 60 37 26 38 63 39 57 40 56 41 27 43 49 44 34 45 48 46
REMARK SMILES IDX 35 47 38 48 47 49 61 50 36 51 37 52 46 54 62 55 39 56 28 57
REMARK SMILES IDX 29 58 33 59 30 60 32 61 31 62 50 63 51 64 55 65 52 66 54 67
REMARK SMILES IDX 53 68 40 69 41 70 45 71 42 72 44 73 43 74
REMARK H PARENT 12 6 16 23 60 42 38 53
REMARK Flexibility Score: inf
ROOT
ATOM      1  C   UNL A   1      38.142  22.082  25.548  1.00  0.00     0.042 C 
ENDROOT
BRANCH   1   2
ATOM      2  C   UNL A   1      37.054  22.321  24.493  1.00  0.00     0.118 C 
BRANCH   2   3
ATOM      3  N   UNL A   1      36.361  23.591  24.684  1.00  0.00    -0.352 N 
ATOM      4  C   UNL A   1      35.064  23.916  25.016  1.00  0.00     0.251 C 
ATOM      5  O   UNL A   1      34.820  25.105  25.227  1.00  0.00    -0.269 OA
ATOM      6  H   UNL A   1      36.938  24.376  24.548  1.00  0.00     0.163 HD
BRANCH   4   7
ATOM      7  C   UNL A   1      33.947  22.933  25.143  1.00  0.00     0.043 A 
ATOM      8  C   UNL A   1      32.889  20.800  24.746  1.00  0.00     0.071 A 
ATOM      9  C   UNL A   1      33.967  21.664  24.590  1.00  0.00     0.042 A 
ATOM     10  N   UNL A   1      31.761  21.165  25.384  1.00  0.00    -0.256 NA
ATOM     11  C   UNL A   1      31.734  22.415  25.902  1.00  0.00     0.112 A 
ATOM     12  C   UNL A   1      32.786  23.318  25.815  1.00  0.00     0.034 A 
BRANCH   8  13
ATOM     13  C   UNL A   1      33.002  19.435  24.221  1.00  0.00     0.000 A 
ATOM     14  C   UNL A   1      35.059  16.306  25.001  1.00  0.00     0.044 C 
ATOM     15  C   UNL A   1      34.126  17.256  24.313  1.00  0.00    -0.050 A 
ATOM     16  C   UNL A   1      33.520  16.908  23.104  1.00  0.00     0.003 A 
ATOM     17  C   UNL A   1      33.851  18.512  24.865  1.00  0.00     0.013 A 
ATOM     18  C   UNL A   1      32.652  17.797  22.465  1.00  0.00     0.001 A 
ATOM     19  C   UNL A   1      32.391  19.053  23.021  1.00  0.00     0.010 A 
ENDBRANCH   8  13
ENDBRANCH   4   7
ENDBRANCH   2   3
ENDBRANCH   1   2
BRANCH   1  20
ATOM     20  C   UNL A   1      38.600  23.338  26.267  1.00  0.00     0.118 C 
BRANCH  20  21
ATOM     21  N   UNL A   1      40.033  23.364  26.559  1.00  0.00    -0.352 N 
ATOM     22  C   UNL A   1      40.768  24.416  27.085  1.00  0.00     0.251 C 
ATOM     23  H   UNL A   1      40.533  22.540  26.359  1.00  0.00     0.163 HD
ATOM     24  O   UNL A   1      41.958  24.311  27.320  1.00  0.00    -0.269 OA
BRANCH  22  25
ATOM     25  C   UNL A   1      40.024  25.638  27.459  1.00  0.00     0.039 A 
ATOM     26  C   UNL A   1      40.285  26.794  26.722  1.00  0.00     0.014 A 
ATOM     27  C   UNL A   1      39.383  25.694  28.697  1.00  0.00     0.014 A 
ATOM     28  C   UNL A   1      40.141  28.027  27.344  1.00  0.00     0.010 A 
ATOM     29  C   UNL A   1      39.319  26.914  29.344  1.00  0.00     0.010 A 
ATOM     30  C   UNL A   1      39.778  28.064  28.692  1.00  0.00    -0.014 A 
BRANCH  30  31
ATOM     31  C   UNL A   1      40.020  29.241  29.519  1.00  0.00     0.031 A 
ATOM     32  C   UNL A   1      39.008  30.303  29.627  1.00  0.00     0.074 A 
ATOM     33  C   UNL A   1      41.200  29.381  30.163  1.00  0.00     0.049 A 
ATOM     34  N   UNL A   1      39.283  31.553  29.800  1.00  0.00    -0.248 NA
ATOM     35  C   UNL A   1      37.587  30.033  29.473  1.00  0.00     0.031 C 
ATOM     36  C   UNL A   1      41.558  30.381  31.164  1.00  0.00     0.029 A 
ATOM     37  N   UNL A   1      42.405  28.761  29.845  1.00  0.00    -0.354 N 
ATOM     38  C   UNL A   1      38.100  32.189  30.093  1.00  0.00     0.074 A 
ATOM     39  C   UNL A   1      37.070  31.233  29.751  1.00  0.00     0.031 C 
ATOM     40  C   UNL A   1      42.896  30.486  31.209  1.00  0.00     0.029 A 
ATOM     41  C   UNL A   1      43.438  29.660  30.143  1.00  0.00     0.049 A 
ATOM     42  H   UNL A   1      42.512  27.855  29.476  1.00  0.00     0.167 HD
ATOM     43  C   UNL A   1      38.122  33.381  30.755  1.00  0.00     0.031 A 
ATOM     44  C   UNL A   1      44.287  30.101  29.170  1.00  0.00     0.031 A 
ATOM     45  C   UNL A   1      39.486  33.887  30.936  1.00  0.00     0.049 A 
ATOM     46  C   UNL A   1      44.237  31.596  28.946  1.00  0.00     0.074 A 
ATOM     47  C   UNL A   1      40.338  33.927  32.028  1.00  0.00     0.029 A 
ATOM     48  N   UNL A   1      40.264  34.195  29.823  1.00  0.00    -0.354 N 
ATOM     49  N   UNL A   1      43.275  32.369  29.367  1.00  0.00    -0.248 NA
ATOM     50  C   UNL A   1      45.243  32.326  28.177  1.00  0.00     0.031 C 
ATOM     51  C   UNL A   1      41.647  34.204  31.559  1.00  0.00     0.029 A 
ATOM     52  C   UNL A   1      41.590  34.354  30.185  1.00  0.00     0.049 A 
ATOM     53  H   UNL A   1      39.919  34.288  28.906  1.00  0.00     0.167 HD
ATOM     54  C   UNL A   1      43.493  33.650  28.928  1.00  0.00     0.074 A 
ATOM     55  C   UNL A   1      44.750  33.576  28.207  1.00  0.00     0.031 C 
ATOM     56  C   UNL A   1      42.605  34.657  29.184  1.00  0.00     0.031 A 
BRANCH  43  57
ATOM     57  C   UNL A   1      36.930  33.906  31.532  1.00  0.00    -0.014 A 
ATOM     58  C   UNL A   1      37.077  34.243  32.891  1.00  0.00     0.009 A 
ATOM     59  C   UNL A   1      35.625  34.011  31.023  1.00  0.00     0.009 A 
ATOM     60  C   UNL A   1      35.979  34.541  33.712  1.00  0.00     0.001 A 
ATOM     61  C   UNL A   1      34.515  34.268  31.842  1.00  0.00     0.001 A 
ATOM     62  C   UNL A   1      34.691  34.518  33.193  1.00  0.00     0.000 A 
ENDBRANCH  43  57
BRANCH  44  63
ATOM     63  C   UNL A   1      44.544  29.106  28.092  1.00  0.00    -0.014 A 
ATOM     64  C   UNL A   1      45.321  27.970  28.394  1.00  0.00     0.009 A 
ATOM     65  C   UNL A   1      43.783  29.103  26.915  1.00  0.00     0.009 A 
ATOM     66  C   UNL A   1      45.255  26.823  27.596  1.00  0.00     0.001 A 
ATOM     67  C   UNL A   1      43.730  27.957  26.112  1.00  0.00     0.001 A 
ATOM     68  C   UNL A   1      44.438  26.809  26.469  1.00  0.00     0.000 A 
ENDBRANCH  44  63
BRANCH  56  69
ATOM     69  C   UNL A   1      42.638  36.046  28.589  1.00  0.00    -0.014 A 
ATOM     70  C   UNL A   1      42.008  36.417  27.393  1.00  0.00     0.009 A 
ATOM     71  C   UNL A   1      43.244  37.089  29.328  1.00  0.00     0.009 A 
ATOM     72  C   UNL A   1      42.030  37.743  26.934  1.00  0.00     0.001 A 
ATOM     73  C   UNL A   1      43.228  38.418  28.898  1.00  0.00     0.001 A 
ATOM     74  C   UNL A   1      42.631  38.743  27.690  1.00  0.00     0.000 A 
ENDBRANCH  56  69
ENDBRANCH  30  31
ENDBRANCH  22  25
ENDBRANCH  20  21
ENDBRANCH   1  20
TORSDOF 11
ENDMDL
