MODEL 1
REMARK VINA RESULT:     -11.4      0.000      0.000
REMARK SMILES Cc1cc(C(=O)N[C@H](CC(C)C)C(=O)NCCCNC(=O)c2ccc(-c3c4nc(c(-c5ccccc5)c5ccc([nH]5)c(-c5ccccc5)c5nc(c(-c6ccccc6)c6ccc3[nH]6)C=C5)C=C4)cc2)sc1Br
REMARK SMILES IDX 17 1 16 2 15 3 13 4 14 5 8 7 7 8 5 9 6 10 4 12 1 13 2 14
REMARK SMILES IDX 3 15 71 16 70 17 72 18 9 19 10 20 11 21 12 22 18 23 19 24
REMARK SMILES IDX 20 25 21 27 22 28 23 29 69 30 24 31 68 32 25 33 26 34 27 35
REMARK SMILES IDX 62 36 28 37 67 38 61 39 63 40 29 41 66 42 60 43 59 44 30 46
REMARK SMILES IDX 52 47 37 48 51 49 38 50 41 51 50 52 64 53 39 54 40 55 49 57
REMARK SMILES IDX 65 58 42 59 31 60 32 61 36 62 33 63 35 64 34 65 53 66 54 67
REMARK SMILES IDX 58 68 55 69 57 70 56 71 43 72 44 73 48 74 45 75 47 76 46 77
REMARK H PARENT 15 6 7 11 19 26 63 45 41 56
REMARK Flexibility Score: inf
ROOT
ATOM      1  C   UNL A   1      31.443  31.564  26.677  1.00  0.00     0.042 C 
ENDROOT
BRANCH   1   2
ATOM      2  C   UNL A   1      31.875  30.380  25.809  1.00  0.00     0.117 C 
BRANCH   2   3
ATOM      3  N   UNL A   1      31.029  30.188  24.639  1.00  0.00    -0.354 N 
ATOM      4  C   UNL A   1      30.899  29.132  23.786  1.00  0.00     0.242 C 
ATOM      5  O   UNL A   1      30.217  29.298  22.771  1.00  0.00    -0.273 OA
ATOM      6  H   UNL A   1      30.450  30.955  24.427  1.00  0.00     0.163 HD
BRANCH   4   7
ATOM      7  C   UNL A   1      31.636  27.799  24.030  1.00  0.00     0.171 C 
BRANCH   7   8
ATOM      8  N   UNL A   1      32.451  27.480  22.856  1.00  0.00    -0.340 N 
ATOM      9  C   UNL A   1      33.285  26.452  22.502  1.00  0.00     0.262 C 
ATOM     10  O   UNL A   1      33.783  26.589  21.379  1.00  0.00    -0.268 OA
ATOM     11  H   UNL A   1      32.383  28.166  22.154  1.00  0.00     0.164 HD
BRANCH   9  12
ATOM     12  C   UNL A   1      33.573  25.318  23.370  1.00  0.00     0.093 A 
ATOM     13  C   UNL A   1      35.093  23.482  26.298  1.00  0.00     0.046 C 
ATOM     14  C   UNL A   1      34.348  23.838  25.054  1.00  0.00    -0.025 A 
ATOM     15  C   UNL A   1      34.307  25.173  24.531  1.00  0.00     0.030 A 
ATOM     16  C   UNL A   1      33.617  23.002  24.246  1.00  0.00     0.074 A 
ATOM     17  S   UNL A   1      32.913  23.784  22.922  1.00  0.00    -0.123 S 
ATOM     18  Br  UNL A   1      33.396  21.162  24.547  1.00  0.00    -0.039 Br
ENDBRANCH   9  12
ENDBRANCH   7   8
BRANCH   7  19
ATOM     19  C   UNL A   1      30.624  26.688  24.379  1.00  0.00     0.038 C 
BRANCH  19  20
ATOM     20  C   UNL A   1      30.619  26.200  25.841  1.00  0.00    -0.015 C 
ATOM     21  C   UNL A   1      30.686  24.675  25.947  1.00  0.00     0.007 C 
ATOM     22  C   UNL A   1      31.816  26.804  26.586  1.00  0.00     0.007 C 
ENDBRANCH  19  20
ENDBRANCH   7  19
ENDBRANCH   4   7
ENDBRANCH   2   3
ENDBRANCH   1   2
BRANCH   1  23
ATOM     23  C   UNL A   1      32.617  32.312  27.277  1.00  0.00     0.118 C 
BRANCH  23  24
ATOM     24  N   UNL A   1      32.323  33.717  27.560  1.00  0.00    -0.352 N 
ATOM     25  C   UNL A   1      32.955  34.541  28.480  1.00  0.00     0.251 C 
ATOM     26  H   UNL A   1      31.595  34.125  27.038  1.00  0.00     0.163 HD
ATOM     27  O   UNL A   1      32.456  35.579  28.864  1.00  0.00    -0.269 OA
BRANCH  25  28
ATOM     28  C   UNL A   1      34.274  34.108  28.967  1.00  0.00     0.039 A 
ATOM     29  C   UNL A   1      34.435  33.449  30.189  1.00  0.00     0.014 A 
ATOM     30  C   UNL A   1      35.342  34.291  28.096  1.00  0.00     0.014 A 
ATOM     31  C   UNL A   1      35.680  32.900  30.485  1.00  0.00     0.010 A 
ATOM     32  C   UNL A   1      36.488  33.579  28.296  1.00  0.00     0.010 A 
ATOM     33  C   UNL A   1      36.696  32.954  29.520  1.00  0.00    -0.014 A 
BRANCH  33  34
ATOM     34  C   UNL A   1      37.981  32.299  29.716  1.00  0.00     0.031 A 
ATOM     35  C   UNL A   1      38.025  30.862  29.335  1.00  0.00     0.074 A 
ATOM     36  C   UNL A   1      39.102  33.010  29.970  1.00  0.00     0.049 A 
ATOM     37  N   UNL A   1      38.209  29.849  30.113  1.00  0.00    -0.248 NA
ATOM     38  C   UNL A   1      37.712  30.494  27.943  1.00  0.00     0.031 C 
ATOM     39  C   UNL A   1      39.263  34.471  30.035  1.00  0.00     0.029 A 
ATOM     40  N   UNL A   1      40.382  32.572  30.079  1.00  0.00    -0.354 N 
ATOM     41  C   UNL A   1      38.239  28.727  29.289  1.00  0.00     0.074 A 
ATOM     42  C   UNL A   1      37.754  29.161  28.002  1.00  0.00     0.031 C 
ATOM     43  C   UNL A   1      40.568  34.791  29.898  1.00  0.00     0.029 A 
ATOM     44  C   UNL A   1      41.343  33.566  29.938  1.00  0.00     0.049 A 
ATOM     45  H   UNL A   1      40.611  31.630  30.244  1.00  0.00     0.167 HD
ATOM     46  C   UNL A   1      38.899  27.594  29.659  1.00  0.00     0.031 A 
ATOM     47  C   UNL A   1      42.681  33.393  29.833  1.00  0.00     0.031 A 
ATOM     48  C   UNL A   1      39.248  27.619  31.056  1.00  0.00     0.049 A 
ATOM     49  C   UNL A   1      42.990  32.040  30.349  1.00  0.00     0.074 A 
ATOM     50  C   UNL A   1      38.538  27.708  32.236  1.00  0.00     0.029 A 
ATOM     51  N   UNL A   1      40.542  27.968  31.366  1.00  0.00    -0.354 N 
ATOM     52  N   UNL A   1      42.827  31.701  31.597  1.00  0.00    -0.248 NA
ATOM     53  C   UNL A   1      43.008  30.937  29.400  1.00  0.00     0.031 C 
ATOM     54  C   UNL A   1      39.313  28.578  33.060  1.00  0.00     0.029 A 
ATOM     55  C   UNL A   1      40.486  28.896  32.373  1.00  0.00     0.049 A 
ATOM     56  H   UNL A   1      41.358  27.616  30.943  1.00  0.00     0.167 HD
ATOM     57  C   UNL A   1      42.275  30.427  31.546  1.00  0.00     0.074 A 
ATOM     58  C   UNL A   1      42.506  29.971  30.176  1.00  0.00     0.031 C 
ATOM     59  C   UNL A   1      41.428  29.985  32.524  1.00  0.00     0.031 A 
BRANCH  46  60
ATOM     60  C   UNL A   1      39.605  26.674  28.694  1.00  0.00    -0.014 A 
ATOM     61  C   UNL A   1      40.538  27.227  27.798  1.00  0.00     0.009 A 
ATOM     62  C   UNL A   1      39.178  25.358  28.431  1.00  0.00     0.009 A 
ATOM     63  C   UNL A   1      40.953  26.533  26.656  1.00  0.00     0.001 A 
ATOM     64  C   UNL A   1      39.622  24.647  27.314  1.00  0.00     0.001 A 
ATOM     65  C   UNL A   1      40.486  25.246  26.409  1.00  0.00     0.000 A 
ENDBRANCH  46  60
BRANCH  47  66
ATOM     66  C   UNL A   1      43.651  34.203  29.067  1.00  0.00    -0.014 A 
ATOM     67  C   UNL A   1      45.025  33.924  29.106  1.00  0.00     0.009 A 
ATOM     68  C   UNL A   1      43.193  35.101  28.084  1.00  0.00     0.009 A 
ATOM     69  C   UNL A   1      45.903  34.500  28.175  1.00  0.00     0.001 A 
ATOM     70  C   UNL A   1      44.068  35.674  27.155  1.00  0.00     0.001 A 
ATOM     71  C   UNL A   1      45.422  35.363  27.193  1.00  0.00     0.000 A 
ENDBRANCH  47  66
BRANCH  59  72
ATOM     72  C   UNL A   1      41.272  30.830  33.767  1.00  0.00    -0.014 A 
ATOM     73  C   UNL A   1      40.363  31.899  33.863  1.00  0.00     0.009 A 
ATOM     74  C   UNL A   1      41.938  30.421  34.929  1.00  0.00     0.009 A 
ATOM     75  C   UNL A   1      40.148  32.551  35.083  1.00  0.00     0.001 A 
ATOM     76  C   UNL A   1      41.711  31.058  36.151  1.00  0.00     0.001 A 
ATOM     77  C   UNL A   1      40.819  32.125  36.227  1.00  0.00     0.000 A 
ENDBRANCH  59  72
ENDBRANCH  33  34
ENDBRANCH  25  28
ENDBRANCH  23  24
ENDBRANCH   1  23
TORSDOF 14
ENDMDL
MODEL 2
REMARK VINA RESULT:     -11.4      4.354      9.098
REMARK SMILES Cc1cc(C(=O)N[C@H](CC(C)C)C(=O)NCCCNC(=O)c2ccc(-c3c4nc(c(-c5ccccc5)c5ccc([nH]5)c(-c5ccccc5)c5nc(c(-c6ccccc6)c6ccc3[nH]6)C=C5)C=C4)cc2)sc1Br
REMARK SMILES IDX 17 1 16 2 15 3 13 4 14 5 8 7 7 8 5 9 6 10 4 12 1 13 2 14
REMARK SMILES IDX 3 15 71 16 70 17 72 18 9 19 10 20 11 21 12 22 18 23 19 24
REMARK SMILES IDX 20 25 21 27 22 28 23 29 69 30 24 31 68 32 25 33 26 34 27 35
REMARK SMILES IDX 62 36 28 37 67 38 61 39 63 40 29 41 66 42 60 43 59 44 30 46
REMARK SMILES IDX 52 47 37 48 51 49 38 50 41 51 50 52 64 53 39 54 40 55 49 57
REMARK SMILES IDX 65 58 42 59 31 60 32 61 36 62 33 63 35 64 34 65 53 66 54 67
REMARK SMILES IDX 58 68 55 69 57 70 56 71 43 72 44 73 48 74 45 75 47 76 46 77
REMARK H PARENT 15 6 7 11 19 26 63 45 41 56
REMARK Flexibility Score: inf
ROOT
ATOM      1  C   UNL A   1      37.942  19.973  24.764  1.00  0.00     0.042 C 
ENDROOT
BRANCH   1   2
ATOM      2  C   UNL A   1      36.684  20.795  25.052  1.00  0.00     0.117 C 
BRANCH   2   3
ATOM      3  N   UNL A   1      35.469  19.994  25.082  1.00  0.00    -0.354 N 
ATOM      4  C   UNL A   1      34.155  20.353  25.156  1.00  0.00     0.242 C 
ATOM      5  O   UNL A   1      33.326  19.454  25.328  1.00  0.00    -0.273 OA
ATOM      6  H   UNL A   1      35.623  19.023  25.042  1.00  0.00     0.163 HD
BRANCH   4   7
ATOM      7  C   UNL A   1      33.716  21.830  25.105  1.00  0.00     0.171 C 
BRANCH   7   8
ATOM      8  N   UNL A   1      32.850  22.113  26.252  1.00  0.00    -0.340 N 
ATOM      9  C   UNL A   1      32.192  23.217  26.724  1.00  0.00     0.262 C 
ATOM     10  O   UNL A   1      31.551  23.002  27.759  1.00  0.00    -0.268 OA
ATOM     11  H   UNL A   1      32.706  21.320  26.818  1.00  0.00     0.164 HD
BRANCH   9  12
ATOM     12  C   UNL A   1      32.254  24.523  26.081  1.00  0.00     0.093 A 
ATOM     13  C   UNL A   1      33.801  27.792  24.998  1.00  0.00     0.046 C 
ATOM     14  C   UNL A   1      32.864  26.656  25.240  1.00  0.00    -0.025 A 
ATOM     15  C   UNL A   1      33.250  25.469  25.947  1.00  0.00     0.030 A 
ATOM     16  C   UNL A   1      31.551  26.554  24.851  1.00  0.00     0.074 A 
ATOM     17  S   UNL A   1      30.817  25.101  25.312  1.00  0.00    -0.123 S 
ATOM     18  Br  UNL A   1      30.621  27.878  23.898  1.00  0.00    -0.039 Br
ENDBRANCH   9  12
ENDBRANCH   7   8
BRANCH   7  19
ATOM     19  C   UNL A   1      33.041  22.138  23.752  1.00  0.00     0.038 C 
BRANCH  19  20
ATOM     20  C   UNL A   1      33.829  23.040  22.783  1.00  0.00    -0.015 C 
ATOM     21  C   UNL A   1      32.988  24.202  22.252  1.00  0.00     0.007 C 
ATOM     22  C   UNL A   1      35.063  23.604  23.498  1.00  0.00     0.007 C 
ENDBRANCH  19  20
ENDBRANCH   7  19
ENDBRANCH   4   7
ENDBRANCH   2   3
ENDBRANCH   1   2
BRANCH   1  23
ATOM     23  C   UNL A   1      39.049  20.221  25.769  1.00  0.00     0.118 C 
BRANCH  23  24
ATOM     24  N   UNL A   1      40.074  19.176  25.769  1.00  0.00    -0.352 N 
ATOM     25  C   UNL A   1      41.443  19.339  25.930  1.00  0.00     0.251 C 
ATOM     26  H   UNL A   1      39.757  18.253  25.640  1.00  0.00     0.163 HD
ATOM     27  O   UNL A   1      42.235  18.476  25.613  1.00  0.00    -0.269 OA
BRANCH  25  28
ATOM     28  C   UNL A   1      41.898  20.608  26.519  1.00  0.00     0.039 A 
ATOM     29  C   UNL A   1      42.395  21.654  25.737  1.00  0.00     0.014 A 
ATOM     30  C   UNL A   1      41.707  20.755  27.888  1.00  0.00     0.014 A 
ATOM     31  C   UNL A   1      42.619  22.886  26.346  1.00  0.00     0.010 A 
ATOM     32  C   UNL A   1      41.729  22.006  28.429  1.00  0.00     0.010 A 
ATOM     33  C   UNL A   1      42.263  23.056  27.691  1.00  0.00    -0.014 A 
BRANCH  33  34
ATOM     34  C   UNL A   1      42.360  24.348  28.357  1.00  0.00     0.031 A 
ATOM     35  C   UNL A   1      41.215  25.268  28.125  1.00  0.00     0.074 A 
ATOM     36  C   UNL A   1      43.285  24.578  29.315  1.00  0.00     0.049 A 
ATOM     37  N   UNL A   1      41.231  26.401  27.506  1.00  0.00    -0.248 NA
ATOM     38  C   UNL A   1      39.867  24.828  28.523  1.00  0.00     0.031 C 
ATOM     39  C   UNL A   1      44.264  23.640  29.885  1.00  0.00     0.029 A 
ATOM     40  N   UNL A   1      43.447  25.676  30.096  1.00  0.00    -0.354 N 
ATOM     41  C   UNL A   1      39.943  26.918  27.610  1.00  0.00     0.074 A 
ATOM     42  C   UNL A   1      39.113  25.837  28.083  1.00  0.00     0.031 C 
ATOM     43  C   UNL A   1      44.709  24.112  31.070  1.00  0.00     0.029 A 
ATOM     44  C   UNL A   1      44.205  25.460  31.240  1.00  0.00     0.049 A 
ATOM     45  H   UNL A   1      43.060  26.552  29.871  1.00  0.00     0.167 HD
ATOM     46  C   UNL A   1      39.710  28.258  27.542  1.00  0.00     0.031 A 
ATOM     47  C   UNL A   1      44.384  26.320  32.270  1.00  0.00     0.031 A 
ATOM     48  C   UNL A   1      40.863  28.971  27.054  1.00  0.00     0.049 A 
ATOM     49  C   UNL A   1      44.032  27.672  31.779  1.00  0.00     0.074 A 
ATOM     50  C   UNL A   1      41.607  28.941  25.891  1.00  0.00     0.029 A 
ATOM     51  N   UNL A   1      41.657  29.583  27.995  1.00  0.00    -0.354 N 
ATOM     52  N   UNL A   1      44.714  28.294  30.859  1.00  0.00    -0.248 NA
ATOM     53  C   UNL A   1      42.659  28.121  31.948  1.00  0.00     0.031 C 
ATOM     54  C   UNL A   1      42.960  29.072  26.325  1.00  0.00     0.029 A 
ATOM     55  C   UNL A   1      42.958  29.260  27.708  1.00  0.00     0.049 A 
ATOM     56  H   UNL A   1      41.348  30.150  28.738  1.00  0.00     0.167 HD
ATOM     57  C   UNL A   1      43.754  28.876  30.042  1.00  0.00     0.074 A 
ATOM     58  C   UNL A   1      42.515  28.823  30.818  1.00  0.00     0.031 C 
ATOM     59  C   UNL A   1      43.986  29.075  28.710  1.00  0.00     0.031 A 
BRANCH  46  60
ATOM     60  C   UNL A   1      38.621  28.968  28.308  1.00  0.00    -0.014 A 
ATOM     61  C   UNL A   1      37.836  29.921  27.634  1.00  0.00     0.009 A 
ATOM     62  C   UNL A   1      38.534  28.957  29.713  1.00  0.00     0.009 A 
ATOM     63  C   UNL A   1      37.075  30.866  28.332  1.00  0.00     0.001 A 
ATOM     64  C   UNL A   1      37.743  29.871  30.412  1.00  0.00     0.001 A 
ATOM     65  C   UNL A   1      37.038  30.847  29.723  1.00  0.00     0.000 A 
ENDBRANCH  46  60
BRANCH  47  66
ATOM     66  C   UNL A   1      44.566  26.007  33.702  1.00  0.00    -0.014 A 
ATOM     67  C   UNL A   1      45.169  26.921  34.578  1.00  0.00     0.009 A 
ATOM     68  C   UNL A   1      43.907  24.898  34.267  1.00  0.00     0.009 A 
ATOM     69  C   UNL A   1      45.089  26.748  35.968  1.00  0.00     0.001 A 
ATOM     70  C   UNL A   1      43.824  24.725  35.653  1.00  0.00     0.001 A 
ATOM     71  C   UNL A   1      44.406  25.659  36.504  1.00  0.00     0.000 A 
ENDBRANCH  47  66
BRANCH  59  72
ATOM     72  C   UNL A   1      45.386  28.843  28.188  1.00  0.00    -0.014 A 
ATOM     73  C   UNL A   1      45.861  27.580  27.793  1.00  0.00     0.009 A 
ATOM     74  C   UNL A   1      46.185  29.964  27.926  1.00  0.00     0.009 A 
ATOM     75  C   UNL A   1      47.111  27.445  27.175  1.00  0.00     0.001 A 
ATOM     76  C   UNL A   1      47.422  29.832  27.293  1.00  0.00     0.001 A 
ATOM     77  C   UNL A   1      47.887  28.573  26.921  1.00  0.00     0.000 A 
ENDBRANCH  59  72
ENDBRANCH  33  34
ENDBRANCH  25  28
ENDBRANCH  23  24
ENDBRANCH   1  23
TORSDOF 14
ENDMDL
MODEL 3
REMARK VINA RESULT:     -11.0      2.381      5.944
REMARK SMILES Cc1cc(C(=O)N[C@H](CC(C)C)C(=O)NCCCNC(=O)c2ccc(-c3c4nc(c(-c5ccccc5)c5ccc([nH]5)c(-c5ccccc5)c5nc(c(-c6ccccc6)c6ccc3[nH]6)C=C5)C=C4)cc2)sc1Br
REMARK SMILES IDX 17 1 16 2 15 3 13 4 14 5 8 7 7 8 5 9 6 10 4 12 1 13 2 14
REMARK SMILES IDX 3 15 71 16 70 17 72 18 9 19 10 20 11 21 12 22 18 23 19 24
REMARK SMILES IDX 20 25 21 27 22 28 23 29 69 30 24 31 68 32 25 33 26 34 27 35
REMARK SMILES IDX 62 36 28 37 67 38 61 39 63 40 29 41 66 42 60 43 59 44 30 46
REMARK SMILES IDX 52 47 37 48 51 49 38 50 41 51 50 52 64 53 39 54 40 55 49 57
REMARK SMILES IDX 65 58 42 59 31 60 32 61 36 62 33 63 35 64 34 65 53 66 54 67
REMARK SMILES IDX 58 68 55 69 57 70 56 71 43 72 44 73 48 74 45 75 47 76 46 77
REMARK H PARENT 15 6 7 11 19 26 63 45 41 56
REMARK Flexibility Score: inf
ROOT
ATOM      1  C   UNL A   1      32.667  30.283  26.478  1.00  0.00     0.042 C 
ENDROOT
BRANCH   1   2
ATOM      2  C   UNL A   1      32.882  29.705  25.078  1.00  0.00     0.117 C 
BRANCH   2   3
ATOM      3  N   UNL A   1      31.655  29.619  24.298  1.00  0.00    -0.354 N 
ATOM      4  C   UNL A   1      31.046  28.559  23.694  1.00  0.00     0.242 C 
ATOM      5  O   UNL A   1      30.086  28.797  22.954  1.00  0.00    -0.273 OA
ATOM      6  H   UNL A   1      31.183  30.475  24.189  1.00  0.00     0.163 HD
BRANCH   4   7
ATOM      7  C   UNL A   1      31.574  27.119  23.859  1.00  0.00     0.171 C 
BRANCH   7   8
ATOM      8  N   UNL A   1      32.178  26.683  22.598  1.00  0.00    -0.340 N 
ATOM      9  C   UNL A   1      33.013  25.665  22.221  1.00  0.00     0.262 C 
ATOM     10  O   UNL A   1      33.278  25.668  21.014  1.00  0.00    -0.268 OA
ATOM     11  H   UNL A   1      31.921  27.257  21.841  1.00  0.00     0.164 HD
BRANCH   9  12
ATOM     12  C   UNL A   1      33.553  24.684  23.154  1.00  0.00     0.093 A 
ATOM     13  C   UNL A   1      35.540  23.425  26.106  1.00  0.00     0.046 C 
ATOM     14  C   UNL A   1      34.678  23.527  24.892  1.00  0.00    -0.025 A 
ATOM     15  C   UNL A   1      34.361  24.779  24.269  1.00  0.00     0.030 A 
ATOM     16  C   UNL A   1      34.074  22.503  24.204  1.00  0.00     0.074 A 
ATOM     17  S   UNL A   1      33.167  23.022  22.874  1.00  0.00    -0.123 S 
ATOM     18  Br  UNL A   1      34.216  20.688  24.663  1.00  0.00    -0.039 Br
ENDBRANCH   9  12
ENDBRANCH   7   8
BRANCH   7  19
ATOM     19  C   UNL A   1      30.440  26.188  24.336  1.00  0.00     0.038 C 
BRANCH  19  20
ATOM     20  C   UNL A   1      30.590  25.596  25.751  1.00  0.00    -0.015 C 
ATOM     21  C   UNL A   1      30.843  24.087  25.728  1.00  0.00     0.007 C 
ATOM     22  C   UNL A   1      31.755  26.285  26.473  1.00  0.00     0.007 C 
ENDBRANCH  19  20
ENDBRANCH   7  19
ENDBRANCH   4   7
ENDBRANCH   2   3
ENDBRANCH   1   2
BRANCH   1  23
ATOM     23  C   UNL A   1      33.965  30.498  27.231  1.00  0.00     0.118 C 
BRANCH  23  24
ATOM     24  N   UNL A   1      33.881  31.557  28.237  1.00  0.00    -0.352 N 
ATOM     25  C   UNL A   1      34.783  31.825  29.256  1.00  0.00     0.251 C 
ATOM     26  H   UNL A   1      33.095  32.148  28.185  1.00  0.00     0.163 HD
ATOM     27  O   UNL A   1      34.488  32.509  30.214  1.00  0.00    -0.269 OA
BRANCH  25  28
ATOM     28  C   UNL A   1      36.131  31.250  29.121  1.00  0.00     0.039 A 
ATOM     29  C   UNL A   1      37.279  32.046  29.091  1.00  0.00     0.014 A 
ATOM     30  C   UNL A   1      36.212  29.862  29.134  1.00  0.00     0.014 A 
ATOM     31  C   UNL A   1      38.520  31.420  29.160  1.00  0.00     0.010 A 
ATOM     32  C   UNL A   1      37.410  29.272  29.408  1.00  0.00     0.010 A 
ATOM     33  C   UNL A   1      38.573  30.030  29.338  1.00  0.00    -0.014 A 
BRANCH  33  34
ATOM     34  C   UNL A   1      39.833  29.325  29.535  1.00  0.00     0.031 A 
ATOM     35  C   UNL A   1      40.204  29.076  30.953  1.00  0.00     0.074 A 
ATOM     36  C   UNL A   1      40.468  28.720  28.508  1.00  0.00     0.049 A 
ATOM     37  N   UNL A   1      41.211  29.562  31.598  1.00  0.00    -0.248 NA
ATOM     38  C   UNL A   1      39.286  28.286  31.792  1.00  0.00     0.031 C 
ATOM     39  C   UNL A   1      40.033  28.598  27.108  1.00  0.00     0.029 A 
ATOM     40  N   UNL A   1      41.583  27.946  28.534  1.00  0.00    -0.354 N 
ATOM     41  C   UNL A   1      41.176  28.984  32.865  1.00  0.00     0.074 A 
ATOM     42  C   UNL A   1      39.884  28.355  32.984  1.00  0.00     0.031 C 
ATOM     43  C   UNL A   1      40.712  27.596  26.507  1.00  0.00     0.029 A 
ATOM     44  C   UNL A   1      41.754  27.148  27.409  1.00  0.00     0.049 A 
ATOM     45  H   UNL A   1      42.217  27.950  29.286  1.00  0.00     0.167 HD
ATOM     46  C   UNL A   1      42.306  28.852  33.614  1.00  0.00     0.031 A 
ATOM     47  C   UNL A   1      42.673  26.168  27.241  1.00  0.00     0.031 A 
ATOM     48  C   UNL A   1      43.390  29.636  33.079  1.00  0.00     0.049 A 
ATOM     49  C   UNL A   1      43.740  26.391  28.242  1.00  0.00     0.074 A 
ATOM     50  C   UNL A   1      43.591  30.979  32.833  1.00  0.00     0.029 A 
ATOM     51  N   UNL A   1      44.322  28.968  32.320  1.00  0.00    -0.354 N 
ATOM     52  N   UNL A   1      44.528  27.429  28.221  1.00  0.00    -0.248 NA
ATOM     53  C   UNL A   1      43.613  25.730  29.531  1.00  0.00     0.031 C 
ATOM     54  C   UNL A   1      44.276  31.018  31.582  1.00  0.00     0.029 A 
ATOM     55  C   UNL A   1      44.529  29.704  31.183  1.00  0.00     0.049 A 
ATOM     56  H   UNL A   1      44.761  28.118  32.551  1.00  0.00     0.167 HD
ATOM     57  C   UNL A   1      44.631  27.820  29.550  1.00  0.00     0.074 A 
ATOM     58  C   UNL A   1      44.133  26.679  30.318  1.00  0.00     0.031 C 
ATOM     59  C   UNL A   1      44.828  29.129  29.888  1.00  0.00     0.031 A 
BRANCH  46  60
ATOM     60  C   UNL A   1      42.565  27.704  34.558  1.00  0.00    -0.014 A 
ATOM     61  C   UNL A   1      43.020  26.484  34.023  1.00  0.00     0.009 A 
ATOM     62  C   UNL A   1      42.103  27.678  35.887  1.00  0.00     0.009 A 
ATOM     63  C   UNL A   1      42.935  25.292  34.751  1.00  0.00     0.001 A 
ATOM     64  C   UNL A   1      42.056  26.497  36.631  1.00  0.00     0.001 A 
ATOM     65  C   UNL A   1      42.442  25.297  36.052  1.00  0.00     0.000 A 
ENDBRANCH  46  60
BRANCH  47  66
ATOM     66  C   UNL A   1      42.542  24.915  26.469  1.00  0.00    -0.014 A 
ATOM     67  C   UNL A   1      43.405  24.621  25.404  1.00  0.00     0.009 A 
ATOM     68  C   UNL A   1      41.720  23.877  26.951  1.00  0.00     0.009 A 
ATOM     69  C   UNL A   1      43.466  23.328  24.862  1.00  0.00     0.001 A 
ATOM     70  C   UNL A   1      41.781  22.588  26.412  1.00  0.00     0.001 A 
ATOM     71  C   UNL A   1      42.664  22.310  25.375  1.00  0.00     0.000 A 
ENDBRANCH  47  66
BRANCH  59  72
ATOM     72  C   UNL A   1      45.144  30.110  28.783  1.00  0.00    -0.014 A 
ATOM     73  C   UNL A   1      46.451  30.378  28.340  1.00  0.00     0.009 A 
ATOM     74  C   UNL A   1      44.074  30.648  28.055  1.00  0.00     0.009 A 
ATOM     75  C   UNL A   1      46.678  31.179  27.214  1.00  0.00     0.001 A 
ATOM     76  C   UNL A   1      44.299  31.431  26.920  1.00  0.00     0.001 A 
ATOM     77  C   UNL A   1      45.600  31.700  26.502  1.00  0.00     0.000 A 
ENDBRANCH  59  72
ENDBRANCH  33  34
ENDBRANCH  25  28
ENDBRANCH  23  24
ENDBRANCH   1  23
TORSDOF 14
ENDMDL
