MODEL 1
REMARK VINA RESULT:     -10.5      0.000      0.000
REMARK SMILES COc1ccc(COc2cncc(C(=O)NCCCNC(=O)c3ccc(-c4c5nc(c(-c6ccccc6)c6ccc([nH]6)c(-c6ccccc6)c6nc(c(-c7ccccc7)c7ccc4[nH]7)C=C6)C=C5)cc3)n2)cc1
REMARK SMILES IDX 17 1 16 2 14 3 15 4 13 6 9 7 10 8 71 9 11 10 12 11 8 12 7 13
REMARK SMILES IDX 6 14 3 15 4 16 73 17 5 18 72 19 2 20 1 21 18 22 19 23 20 24
REMARK SMILES IDX 21 25 22 27 23 28 24 29 70 30 25 31 69 32 26 33 27 34 28 35
REMARK SMILES IDX 63 36 29 37 68 38 62 39 64 40 30 41 67 42 61 43 60 44 31 46
REMARK SMILES IDX 53 47 38 48 52 49 39 50 42 51 51 52 65 53 40 54 41 55 50 57
REMARK SMILES IDX 66 58 43 59 32 60 33 61 37 62 34 63 36 64 35 65 54 66 55 67
REMARK SMILES IDX 59 68 56 69 58 70 57 71 44 72 45 73 49 74 46 75 48 76 47 77
REMARK H PARENT 16 5 20 26 64 45 42 56
REMARK Flexibility Score: inf
ROOT
ATOM      1  C   UNL A   1      35.215  34.897  28.566  1.00  0.00     0.118 C 
ENDROOT
BRANCH   1   2
ATOM      2  N   UNL A   1      33.921  35.520  28.344  1.00  0.00    -0.351 N 
ATOM      3  C   UNL A   1      32.984  36.011  29.223  1.00  0.00     0.271 C 
ATOM      4  O   UNL A   1      31.937  36.456  28.750  1.00  0.00    -0.267 OA
ATOM      5  H   UNL A   1      33.669  35.605  27.395  1.00  0.00     0.163 HD
BRANCH   3   6
ATOM      6  C   UNL A   1      33.199  36.068  30.695  1.00  0.00     0.150 A 
ATOM      7  C   UNL A   1      33.719  35.079  32.696  1.00  0.00     0.233 A 
ATOM      8  C   UNL A   1      33.862  36.338  33.272  1.00  0.00     0.179 A 
ATOM      9  N   UNL A   1      33.378  34.921  31.401  1.00  0.00    -0.205 NA
ATOM     10  N   UNL A   1      33.613  37.486  32.599  1.00  0.00    -0.257 NA
ATOM     11  C   UNL A   1      33.289  37.320  31.293  1.00  0.00     0.145 A 
BRANCH   7  12
ATOM     12  O   UNL A   1      34.082  33.927  33.338  1.00  0.00    -0.472 OA
BRANCH  12  13
ATOM     13  C   UNL A   1      35.244  34.095  34.161  1.00  0.00     0.267 C 
BRANCH  13  14
ATOM     14  C   UNL A   1      36.243  32.992  33.907  1.00  0.00    -0.010 A 
ATOM     15  C   UNL A   1      37.899  30.742  33.628  1.00  0.00     0.118 A 
ATOM     16  C   UNL A   1      38.077  31.618  34.699  1.00  0.00     0.047 A 
ATOM     17  C   UNL A   1      36.911  31.005  32.679  1.00  0.00     0.047 A 
ATOM     18  C   UNL A   1      37.270  32.748  34.830  1.00  0.00     0.011 A 
ATOM     19  C   UNL A   1      36.090  32.130  32.813  1.00  0.00     0.011 A 
BRANCH  15  20
ATOM     20  O   UNL A   1      38.701  29.636  33.647  1.00  0.00    -0.497 OA
ATOM     21  C   UNL A   1      40.028  29.847  34.114  1.00  0.00     0.278 C 
ENDBRANCH  15  20
ENDBRANCH  13  14
ENDBRANCH  12  13
ENDBRANCH   7  12
ENDBRANCH   3   6
ENDBRANCH   1   2
BRANCH   1  22
ATOM     22  C   UNL A   1      35.228  33.457  28.061  1.00  0.00     0.042 C 
BRANCH  22  23
ATOM     23  C   UNL A   1      34.499  32.486  28.990  1.00  0.00     0.118 C 
BRANCH  23  24
ATOM     24  N   UNL A   1      33.912  31.362  28.267  1.00  0.00    -0.352 N 
ATOM     25  C   UNL A   1      34.493  30.222  27.782  1.00  0.00     0.251 C 
ATOM     26  H   UNL A   1      32.944  31.434  28.103  1.00  0.00     0.163 HD
ATOM     27  O   UNL A   1      33.856  29.492  27.020  1.00  0.00    -0.269 OA
BRANCH  25  28
ATOM     28  C   UNL A   1      35.876  29.862  28.149  1.00  0.00     0.039 A 
ATOM     29  C   UNL A   1      36.118  29.323  29.417  1.00  0.00     0.014 A 
ATOM     30  C   UNL A   1      36.940  30.093  27.272  1.00  0.00     0.014 A 
ATOM     31  C   UNL A   1      37.416  28.964  29.783  1.00  0.00     0.010 A 
ATOM     32  C   UNL A   1      38.222  29.672  27.613  1.00  0.00     0.010 A 
ATOM     33  C   UNL A   1      38.474  29.107  28.871  1.00  0.00    -0.014 A 
BRANCH  33  34
ATOM     34  C   UNL A   1      39.851  28.675  29.217  1.00  0.00     0.031 A 
ATOM     35  C   UNL A   1      40.754  29.588  30.001  1.00  0.00     0.074 A 
ATOM     36  C   UNL A   1      40.306  27.485  28.781  1.00  0.00     0.049 A 
ATOM     37  N   UNL A   1      42.013  29.424  30.325  1.00  0.00    -0.248 NA
ATOM     38  C   UNL A   1      40.175  30.859  30.464  1.00  0.00     0.031 C 
ATOM     39  C   UNL A   1      39.538  26.516  27.996  1.00  0.00     0.029 A 
ATOM     40  N   UNL A   1      41.533  26.890  28.932  1.00  0.00    -0.354 N 
ATOM     41  C   UNL A   1      42.375  30.572  31.018  1.00  0.00     0.074 A 
ATOM     42  C   UNL A   1      41.222  31.445  31.028  1.00  0.00     0.031 C 
ATOM     43  C   UNL A   1      40.304  25.440  27.754  1.00  0.00     0.029 A 
ATOM     44  C   UNL A   1      41.627  25.659  28.328  1.00  0.00     0.049 A 
ATOM     45  H   UNL A   1      42.277  27.305  29.426  1.00  0.00     0.167 HD
ATOM     46  C   UNL A   1      43.557  30.866  31.611  1.00  0.00     0.031 A 
ATOM     47  C   UNL A   1      42.666  24.807  28.238  1.00  0.00     0.031 A 
ATOM     48  C   UNL A   1      44.704  29.998  31.611  1.00  0.00     0.049 A 
ATOM     49  C   UNL A   1      43.976  25.175  28.879  1.00  0.00     0.074 A 
ATOM     50  C   UNL A   1      45.938  30.199  32.205  1.00  0.00     0.029 A 
ATOM     51  N   UNL A   1      44.754  28.759  30.991  1.00  0.00    -0.354 N 
ATOM     52  N   UNL A   1      44.288  26.248  29.563  1.00  0.00    -0.248 NA
ATOM     53  C   UNL A   1      45.072  24.206  28.741  1.00  0.00     0.031 C 
ATOM     54  C   UNL A   1      46.747  29.096  31.916  1.00  0.00     0.029 A 
ATOM     55  C   UNL A   1      46.000  28.189  31.182  1.00  0.00     0.049 A 
ATOM     56  H   UNL A   1      44.013  28.348  30.491  1.00  0.00     0.167 HD
ATOM     57  C   UNL A   1      45.605  26.068  29.965  1.00  0.00     0.074 A 
ATOM     58  C   UNL A   1      46.027  24.778  29.461  1.00  0.00     0.031 C 
ATOM     59  C   UNL A   1      46.397  26.898  30.686  1.00  0.00     0.031 A 
BRANCH  46  60
ATOM     60  C   UNL A   1      43.666  32.185  32.322  1.00  0.00    -0.014 A 
ATOM     61  C   UNL A   1      43.316  32.305  33.676  1.00  0.00     0.009 A 
ATOM     62  C   UNL A   1      44.176  33.308  31.650  1.00  0.00     0.009 A 
ATOM     63  C   UNL A   1      43.446  33.528  34.335  1.00  0.00     0.001 A 
ATOM     64  C   UNL A   1      44.330  34.523  32.318  1.00  0.00     0.001 A 
ATOM     65  C   UNL A   1      43.960  34.634  33.658  1.00  0.00     0.000 A 
ENDBRANCH  46  60
BRANCH  47  66
ATOM     66  C   UNL A   1      42.520  23.516  27.518  1.00  0.00    -0.014 A 
ATOM     67  C   UNL A   1      42.834  23.424  26.153  1.00  0.00     0.009 A 
ATOM     68  C   UNL A   1      42.028  22.380  28.179  1.00  0.00     0.009 A 
ATOM     69  C   UNL A   1      42.622  22.232  25.456  1.00  0.00     0.001 A 
ATOM     70  C   UNL A   1      41.845  21.181  27.487  1.00  0.00     0.001 A 
ATOM     71  C   UNL A   1      42.129  21.112  26.125  1.00  0.00     0.000 A 
ENDBRANCH  47  66
BRANCH  59  72
ATOM     72  C   UNL A   1      47.779  26.412  31.017  1.00  0.00    -0.014 A 
ATOM     73  C   UNL A   1      48.044  25.728  32.213  1.00  0.00     0.009 A 
ATOM     74  C   UNL A   1      48.822  26.615  30.100  1.00  0.00     0.009 A 
ATOM     75  C   UNL A   1      49.338  25.286  32.498  1.00  0.00     0.001 A 
ATOM     76  C   UNL A   1      50.107  26.147  30.375  1.00  0.00     0.001 A 
ATOM     77  C   UNL A   1      50.365  25.492  31.578  1.00  0.00     0.000 A 
ENDBRANCH  59  72
ENDBRANCH  33  34
ENDBRANCH  25  28
ENDBRANCH  23  24
ENDBRANCH  22  23
ENDBRANCH   1  22
TORSDOF 14
ENDMDL
MODEL 2
REMARK VINA RESULT:     -10.0      5.259     11.206
REMARK SMILES COc1ccc(COc2cncc(C(=O)NCCCNC(=O)c3ccc(-c4c5nc(c(-c6ccccc6)c6ccc([nH]6)c(-c6ccccc6)c6nc(c(-c7ccccc7)c7ccc4[nH]7)C=C6)C=C5)cc3)n2)cc1
REMARK SMILES IDX 17 1 16 2 14 3 15 4 13 6 9 7 10 8 71 9 11 10 12 11 8 12 7 13
REMARK SMILES IDX 6 14 3 15 4 16 73 17 5 18 72 19 2 20 1 21 18 22 19 23 20 24
REMARK SMILES IDX 21 25 22 27 23 28 24 29 70 30 25 31 69 32 26 33 27 34 28 35
REMARK SMILES IDX 63 36 29 37 68 38 62 39 64 40 30 41 67 42 61 43 60 44 31 46
REMARK SMILES IDX 53 47 38 48 52 49 39 50 42 51 51 52 65 53 40 54 41 55 50 57
REMARK SMILES IDX 66 58 43 59 32 60 33 61 37 62 34 63 36 64 35 65 54 66 55 67
REMARK SMILES IDX 59 68 56 69 58 70 57 71 44 72 45 73 49 74 46 75 48 76 47 77
REMARK H PARENT 16 5 20 26 64 45 42 56
REMARK Flexibility Score: inf
ROOT
ATOM      1  C   UNL A   1      36.757  20.074  24.985  1.00  0.00     0.118 C 
ENDROOT
BRANCH   1   2
ATOM      2  N   UNL A   1      36.976  21.449  25.401  1.00  0.00    -0.351 N 
ATOM      3  C   UNL A   1      36.338  22.617  25.055  1.00  0.00     0.271 C 
ATOM      4  O   UNL A   1      36.768  23.665  25.540  1.00  0.00    -0.267 OA
ATOM      5  H   UNL A   1      37.713  21.565  26.045  1.00  0.00     0.163 HD
BRANCH   3   6
ATOM      6  C   UNL A   1      35.140  22.661  24.172  1.00  0.00     0.150 A 
ATOM      7  C   UNL A   1      33.084  21.885  23.524  1.00  0.00     0.233 A 
ATOM      8  C   UNL A   1      32.910  23.021  22.740  1.00  0.00     0.179 A 
ATOM      9  N   UNL A   1      34.203  21.681  24.248  1.00  0.00    -0.205 NA
ATOM     10  N   UNL A   1      33.867  23.968  22.598  1.00  0.00    -0.257 NA
ATOM     11  C   UNL A   1      34.982  23.766  23.342  1.00  0.00     0.145 A 
BRANCH   7  12
ATOM     12  O   UNL A   1      32.077  20.989  23.761  1.00  0.00    -0.472 OA
BRANCH  12  13
ATOM     13  C   UNL A   1      32.071  19.903  22.825  1.00  0.00     0.267 C 
BRANCH  13  14
ATOM     14  C   UNL A   1      32.587  18.639  23.469  1.00  0.00    -0.010 A 
ATOM     15  C   UNL A   1      33.842  16.453  24.704  1.00  0.00     0.118 A 
ATOM     16  C   UNL A   1      33.917  16.618  23.321  1.00  0.00     0.047 A 
ATOM     17  C   UNL A   1      33.115  17.366  25.469  1.00  0.00     0.047 A 
ATOM     18  C   UNL A   1      33.278  17.691  22.701  1.00  0.00     0.011 A 
ATOM     19  C   UNL A   1      32.483  18.451  24.853  1.00  0.00     0.011 A 
BRANCH  15  20
ATOM     20  O   UNL A   1      34.567  15.407  25.201  1.00  0.00    -0.497 OA
ATOM     21  C   UNL A   1      35.905  15.710  25.578  1.00  0.00     0.278 C 
ENDBRANCH  15  20
ENDBRANCH  13  14
ENDBRANCH  12  13
ENDBRANCH   7  12
ENDBRANCH   3   6
ENDBRANCH   1   2
BRANCH   1  22
ATOM     22  C   UNL A   1      38.065  19.289  24.959  1.00  0.00     0.042 C 
BRANCH  22  23
ATOM     23  C   UNL A   1      39.201  19.990  25.705  1.00  0.00     0.118 C 
BRANCH  23  24
ATOM     24  N   UNL A   1      40.406  19.168  25.780  1.00  0.00    -0.352 N 
ATOM     25  C   UNL A   1      41.698  19.517  26.059  1.00  0.00     0.251 C 
ATOM     26  H   UNL A   1      40.265  18.210  25.601  1.00  0.00     0.163 HD
ATOM     27  O   UNL A   1      42.603  18.701  25.870  1.00  0.00    -0.269 OA
BRANCH  25  28
ATOM     28  C   UNL A   1      42.026  20.861  26.573  1.00  0.00     0.039 A 
ATOM     29  C   UNL A   1      42.444  21.844  25.670  1.00  0.00     0.014 A 
ATOM     30  C   UNL A   1      41.968  21.145  27.941  1.00  0.00     0.014 A 
ATOM     31  C   UNL A   1      42.748  23.126  26.132  1.00  0.00     0.010 A 
ATOM     32  C   UNL A   1      42.208  22.441  28.390  1.00  0.00     0.010 A 
ATOM     33  C   UNL A   1      42.602  23.443  27.492  1.00  0.00    -0.014 A 
BRANCH  33  34
ATOM     34  C   UNL A   1      42.862  24.815  27.994  1.00  0.00     0.031 A 
ATOM     35  C   UNL A   1      44.256  25.224  28.387  1.00  0.00     0.074 A 
ATOM     36  C   UNL A   1      41.836  25.674  28.148  1.00  0.00     0.049 A 
ATOM     37  N   UNL A   1      44.665  26.346  28.924  1.00  0.00    -0.248 NA
ATOM     38  C   UNL A   1      45.326  24.238  28.163  1.00  0.00     0.031 C 
ATOM     39  C   UNL A   1      40.436  25.393  27.824  1.00  0.00     0.029 A 
ATOM     40  N   UNL A   1      41.815  26.960  28.624  1.00  0.00    -0.354 N 
ATOM     41  C   UNL A   1      46.033  26.195  29.113  1.00  0.00     0.074 A 
ATOM     42  C   UNL A   1      46.378  24.860  28.677  1.00  0.00     0.031 C 
ATOM     43  C   UNL A   1      39.697  26.482  28.090  1.00  0.00     0.029 A 
ATOM     44  C   UNL A   1      40.560  27.521  28.641  1.00  0.00     0.049 A 
ATOM     45  H   UNL A   1      42.621  27.438  28.926  1.00  0.00     0.167 HD
ATOM     46  C   UNL A   1      46.927  27.096  29.587  1.00  0.00     0.031 A 
ATOM     47  C   UNL A   1      40.150  28.732  29.064  1.00  0.00     0.031 A 
ATOM     48  C   UNL A   1      46.590  28.428  30.013  1.00  0.00     0.049 A 
ATOM     49  C   UNL A   1      41.161  29.698  29.617  1.00  0.00     0.074 A 
ATOM     50  C   UNL A   1      47.431  29.420  30.487  1.00  0.00     0.029 A 
ATOM     51  N   UNL A   1      45.309  28.955  30.009  1.00  0.00    -0.354 N 
ATOM     52  N   UNL A   1      42.456  29.552  29.751  1.00  0.00    -0.248 NA
ATOM     53  C   UNL A   1      40.650  31.001  30.065  1.00  0.00     0.031 C 
ATOM     54  C   UNL A   1      46.653  30.537  30.803  1.00  0.00     0.029 A 
ATOM     55  C   UNL A   1      45.335  30.256  30.481  1.00  0.00     0.049 A 
ATOM     56  H   UNL A   1      44.502  28.476  29.716  1.00  0.00     0.167 HD
ATOM     57  C   UNL A   1      42.919  30.755  30.269  1.00  0.00     0.074 A 
ATOM     58  C   UNL A   1      41.769  31.624  30.410  1.00  0.00     0.031 C 
ATOM     59  C   UNL A   1      44.184  31.110  30.600  1.00  0.00     0.031 A 
BRANCH  46  60
ATOM     60  C   UNL A   1      48.366  26.670  29.661  1.00  0.00    -0.014 A 
ATOM     61  C   UNL A   1      48.851  25.960  30.771  1.00  0.00     0.009 A 
ATOM     62  C   UNL A   1      49.235  26.932  28.590  1.00  0.00     0.009 A 
ATOM     63  C   UNL A   1      50.182  25.545  30.819  1.00  0.00     0.001 A 
ATOM     64  C   UNL A   1      50.559  26.494  28.630  1.00  0.00     0.001 A 
ATOM     65  C   UNL A   1      51.034  25.806  29.746  1.00  0.00     0.000 A 
ENDBRANCH  46  60
BRANCH  47  66
ATOM     66  C   UNL A   1      38.716  29.112  28.982  1.00  0.00    -0.014 A 
ATOM     67  C   UNL A   1      38.195  29.665  27.802  1.00  0.00     0.009 A 
ATOM     68  C   UNL A   1      37.871  28.962  30.092  1.00  0.00     0.009 A 
ATOM     69  C   UNL A   1      36.867  30.097  27.748  1.00  0.00     0.001 A 
ATOM     70  C   UNL A   1      36.537  29.367  30.026  1.00  0.00     0.001 A 
ATOM     71  C   UNL A   1      36.040  29.946  28.860  1.00  0.00     0.000 A 
ENDBRANCH  47  66
BRANCH  59  72
ATOM     72  C   UNL A   1      44.396  32.511  31.096  1.00  0.00    -0.014 A 
ATOM     73  C   UNL A   1      44.448  32.798  32.469  1.00  0.00     0.009 A 
ATOM     74  C   UNL A   1      44.578  33.553  30.172  1.00  0.00     0.009 A 
ATOM     75  C   UNL A   1      44.647  34.110  32.905  1.00  0.00     0.001 A 
ATOM     76  C   UNL A   1      44.804  34.857  30.613  1.00  0.00     0.001 A 
ATOM     77  C   UNL A   1      44.828  35.135  31.978  1.00  0.00     0.000 A 
ENDBRANCH  59  72
ENDBRANCH  33  34
ENDBRANCH  25  28
ENDBRANCH  23  24
ENDBRANCH  22  23
ENDBRANCH   1  22
TORSDOF 14
ENDMDL
MODEL 3
REMARK VINA RESULT:      -9.9      1.558      6.274
REMARK SMILES COc1ccc(COc2cncc(C(=O)NCCCNC(=O)c3ccc(-c4c5nc(c(-c6ccccc6)c6ccc([nH]6)c(-c6ccccc6)c6nc(c(-c7ccccc7)c7ccc4[nH]7)C=C6)C=C5)cc3)n2)cc1
REMARK SMILES IDX 17 1 16 2 14 3 15 4 13 6 9 7 10 8 71 9 11 10 12 11 8 12 7 13
REMARK SMILES IDX 6 14 3 15 4 16 73 17 5 18 72 19 2 20 1 21 18 22 19 23 20 24
REMARK SMILES IDX 21 25 22 27 23 28 24 29 70 30 25 31 69 32 26 33 27 34 28 35
REMARK SMILES IDX 63 36 29 37 68 38 62 39 64 40 30 41 67 42 61 43 60 44 31 46
REMARK SMILES IDX 53 47 38 48 52 49 39 50 42 51 51 52 65 53 40 54 41 55 50 57
REMARK SMILES IDX 66 58 43 59 32 60 33 61 37 62 34 63 36 64 35 65 54 66 55 67
REMARK SMILES IDX 59 68 56 69 58 70 57 71 44 72 45 73 49 74 46 75 48 76 47 77
REMARK H PARENT 16 5 20 26 64 45 42 56
REMARK Flexibility Score: inf
ROOT
ATOM      1  C   UNL A   1      32.941  34.685  28.858  1.00  0.00     0.118 C 
ENDROOT
BRANCH   1   2
ATOM      2  N   UNL A   1      32.876  36.051  29.350  1.00  0.00    -0.351 N 
ATOM      3  C   UNL A   1      33.140  36.586  30.590  1.00  0.00     0.271 C 
ATOM      4  O   UNL A   1      32.958  37.795  30.738  1.00  0.00    -0.267 OA
ATOM      5  H   UNL A   1      32.593  36.712  28.676  1.00  0.00     0.163 HD
BRANCH   3   6
ATOM      6  C   UNL A   1      33.670  35.784  31.727  1.00  0.00     0.150 A 
ATOM      7  C   UNL A   1      34.569  33.863  32.592  1.00  0.00     0.233 A 
ATOM      8  C   UNL A   1      34.884  34.546  33.763  1.00  0.00     0.179 A 
ATOM      9  N   UNL A   1      33.951  34.467  31.557  1.00  0.00    -0.205 NA
ATOM     10  N   UNL A   1      34.542  35.839  33.972  1.00  0.00    -0.257 NA
ATOM     11  C   UNL A   1      33.937  36.445  32.921  1.00  0.00     0.145 A 
BRANCH   7  12
ATOM     12  O   UNL A   1      35.017  32.596  32.332  1.00  0.00    -0.472 OA
BRANCH  12  13
ATOM     13  C   UNL A   1      36.410  32.430  32.628  1.00  0.00     0.267 C 
BRANCH  13  14
ATOM     14  C   UNL A   1      37.257  33.239  31.676  1.00  0.00    -0.010 A 
ATOM     15  C   UNL A   1      39.066  34.494  29.933  1.00  0.00     0.118 A 
ATOM     16  C   UNL A   1      39.139  34.722  31.307  1.00  0.00     0.047 A 
ATOM     17  C   UNL A   1      38.069  33.660  29.425  1.00  0.00     0.047 A 
ATOM     18  C   UNL A   1      38.230  34.117  32.174  1.00  0.00     0.011 A 
ATOM     19  C   UNL A   1      37.163  33.040  30.292  1.00  0.00     0.011 A 
BRANCH  15  20
ATOM     20  O   UNL A   1      40.052  35.084  29.196  1.00  0.00    -0.497 OA
ATOM     21  C   UNL A   1      41.381  34.847  29.644  1.00  0.00     0.278 C 
ENDBRANCH  15  20
ENDBRANCH  13  14
ENDBRANCH  12  13
ENDBRANCH   7  12
ENDBRANCH   3   6
ENDBRANCH   1   2
BRANCH   1  22
ATOM     22  C   UNL A   1      34.160  34.477  27.965  1.00  0.00     0.042 C 
BRANCH  22  23
ATOM     23  C   UNL A   1      34.879  33.153  28.225  1.00  0.00     0.118 C 
BRANCH  23  24
ATOM     24  N   UNL A   1      34.040  31.997  27.920  1.00  0.00    -0.352 N 
ATOM     25  C   UNL A   1      34.368  30.676  27.792  1.00  0.00     0.251 C 
ATOM     26  H   UNL A   1      33.087  32.201  27.786  1.00  0.00     0.163 HD
ATOM     27  O   UNL A   1      33.543  29.886  27.328  1.00  0.00    -0.269 OA
BRANCH  25  28
ATOM     28  C   UNL A   1      35.701  30.184  28.190  1.00  0.00     0.039 A 
ATOM     29  C   UNL A   1      36.727  30.171  27.240  1.00  0.00     0.014 A 
ATOM     30  C   UNL A   1      35.934  29.694  29.479  1.00  0.00     0.014 A 
ATOM     31  C   UNL A   1      37.999  29.722  27.597  1.00  0.00     0.010 A 
ATOM     32  C   UNL A   1      37.220  29.309  29.851  1.00  0.00     0.010 A 
ATOM     33  C   UNL A   1      38.263  29.316  28.915  1.00  0.00    -0.014 A 
BRANCH  33  34
ATOM     34  C   UNL A   1      39.623  28.891  29.331  1.00  0.00     0.031 A 
ATOM     35  C   UNL A   1      40.161  27.553  28.902  1.00  0.00     0.074 A 
ATOM     36  C   UNL A   1      40.351  29.686  30.139  1.00  0.00     0.049 A 
ATOM     37  N   UNL A   1      41.287  26.972  29.234  1.00  0.00    -0.248 NA
ATOM     38  C   UNL A   1      39.316  26.756  27.999  1.00  0.00     0.031 C 
ATOM     39  C   UNL A   1      39.937  30.997  30.641  1.00  0.00     0.029 A 
ATOM     40  N   UNL A   1      41.597  29.501  30.684  1.00  0.00    -0.354 N 
ATOM     41  C   UNL A   1      41.278  25.741  28.590  1.00  0.00     0.074 A 
ATOM     42  C   UNL A   1      40.019  25.638  27.887  1.00  0.00     0.031 C 
ATOM     43  C   UNL A   1      40.918  31.507  31.403  1.00  0.00     0.029 A 
ATOM     44  C   UNL A   1      42.011  30.544  31.477  1.00  0.00     0.049 A 
ATOM     45  H   UNL A   1      42.142  28.697  30.524  1.00  0.00     0.167 HD
ATOM     46  C   UNL A   1      42.243  24.791  28.568  1.00  0.00     0.031 A 
ATOM     47  C   UNL A   1      43.141  30.701  32.192  1.00  0.00     0.031 A 
ATOM     48  C   UNL A   1      43.501  24.893  29.259  1.00  0.00     0.049 A 
ATOM     49  C   UNL A   1      44.180  29.614  32.175  1.00  0.00     0.074 A 
ATOM     50  C   UNL A   1      44.550  23.991  29.278  1.00  0.00     0.029 A 
ATOM     51  N   UNL A   1      43.881  25.968  30.046  1.00  0.00    -0.354 N 
ATOM     52  N   UNL A   1      44.171  28.474  31.530  1.00  0.00    -0.248 NA
ATOM     53  C   UNL A   1      45.388  29.844  32.979  1.00  0.00     0.031 C 
ATOM     54  C   UNL A   1      45.553  24.505  30.105  1.00  0.00     0.029 A 
ATOM     55  C   UNL A   1      45.146  25.747  30.562  1.00  0.00     0.049 A 
ATOM     56  H   UNL A   1      43.334  26.768  30.213  1.00  0.00     0.167 HD
ATOM     57  C   UNL A   1      45.385  27.865  31.824  1.00  0.00     0.074 A 
ATOM     58  C   UNL A   1      46.110  28.769  32.692  1.00  0.00     0.031 C 
ATOM     59  C   UNL A   1      45.858  26.664  31.412  1.00  0.00     0.031 A 
BRANCH  46  60
ATOM     60  C   UNL A   1      41.977  23.552  27.761  1.00  0.00    -0.014 A 
ATOM     61  C   UNL A   1      41.351  22.436  28.338  1.00  0.00     0.009 A 
ATOM     62  C   UNL A   1      42.304  23.517  26.395  1.00  0.00     0.009 A 
ATOM     63  C   UNL A   1      41.084  21.300  27.573  1.00  0.00     0.001 A 
ATOM     64  C   UNL A   1      42.011  22.390  25.627  1.00  0.00     0.001 A 
ATOM     65  C   UNL A   1      41.407  21.280  26.217  1.00  0.00     0.000 A 
ENDBRANCH  46  60
BRANCH  47  66
ATOM     66  C   UNL A   1      43.364  31.938  32.985  1.00  0.00    -0.014 A 
ATOM     67  C   UNL A   1      44.014  33.042  32.413  1.00  0.00     0.009 A 
ATOM     68  C   UNL A   1      42.965  32.007  34.330  1.00  0.00     0.009 A 
ATOM     69  C   UNL A   1      44.295  34.175  33.180  1.00  0.00     0.001 A 
ATOM     70  C   UNL A   1      43.221  33.152  35.086  1.00  0.00     0.001 A 
ATOM     71  C   UNL A   1      43.896  34.229  34.515  1.00  0.00     0.000 A 
ENDBRANCH  47  66
BRANCH  59  72
ATOM     72  C   UNL A   1      47.241  26.284  31.854  1.00  0.00    -0.014 A 
ATOM     73  C   UNL A   1      47.454  25.542  33.026  1.00  0.00     0.009 A 
ATOM     74  C   UNL A   1      48.345  26.648  31.066  1.00  0.00     0.009 A 
ATOM     75  C   UNL A   1      48.751  25.200  33.415  1.00  0.00     0.001 A 
ATOM     76  C   UNL A   1      49.636  26.280  31.444  1.00  0.00     0.001 A 
ATOM     77  C   UNL A   1      49.838  25.566  32.623  1.00  0.00     0.000 A 
ENDBRANCH  59  72
ENDBRANCH  33  34
ENDBRANCH  25  28
ENDBRANCH  23  24
ENDBRANCH  22  23
ENDBRANCH   1  22
TORSDOF 14
ENDMDL
