MODEL 1
REMARK VINA RESULT:     -11.2      0.000      0.000
REMARK SMILES O=C(CCC1CC[NH+]([C@H]2CCO[C@]3(CCSC3)C2)CC1)NCCCNC(=O)c1ccc(-c2c3nc(c(-c4ccccc4)c4ccc([nH]4)c(-c4ccccc4)c4nc(c(-c5ccccc5)c5ccc2[nH]5)C=C4)C=C3)cc1
REMARK SMILES IDX 22 1 21 2 1 3 2 4 3 6 4 7 5 8 6 9 20 10 7 11 19 12 8 13 9 15
REMARK SMILES IDX 10 16 18 17 11 18 13 19 12 20 14 21 17 22 15 23 16 24 23 25
REMARK SMILES IDX 24 26 25 27 26 28 27 30 28 31 29 32 75 33 30 34 74 35 31 36
REMARK SMILES IDX 32 37 33 38 68 39 34 40 73 41 67 42 69 43 35 44 72 45 66 46
REMARK SMILES IDX 65 47 36 49 58 50 43 51 57 52 44 53 47 54 56 55 70 56 45 57
REMARK SMILES IDX 46 58 55 60 71 61 48 62 37 63 38 64 42 65 39 66 41 67 40 68
REMARK SMILES IDX 59 69 60 70 64 71 61 72 63 73 62 74 49 75 50 76 54 77 51 78
REMARK SMILES IDX 53 79 52 80
REMARK H PARENT 21 5 8 14 25 29 69 48 47 59
REMARK Flexibility Score: inf
ROOT
ATOM      1  C   UNL A   1      34.283  33.806  28.796  1.00  0.00     0.117 C 
ENDROOT
BRANCH   1   2
ATOM      2  N   UNL A   1      33.822  32.523  28.305  1.00  0.00    -0.356 N 
ATOM      3  O   UNL A   1      35.878  31.696  27.710  1.00  0.00    -0.275 OA
ATOM      4  C   UNL A   1      34.671  31.542  27.849  1.00  0.00     0.220 C 
ATOM      5  H   UNL A   1      32.853  32.347  28.297  1.00  0.00     0.163 HD
BRANCH   4   6
ATOM      6  C   UNL A   1      33.977  30.227  27.534  1.00  0.00     0.100 C 
BRANCH   6   7
ATOM      7  C   UNL A   1      32.528  30.400  27.057  1.00  0.00     0.014 C 
BRANCH   7   8
ATOM      8  C   UNL A   1      31.902  29.205  26.302  1.00  0.00     0.000 C 
ATOM      9  C   UNL A   1      32.642  27.897  26.635  1.00  0.00     0.065 C 
ATOM     10  C   UNL A   1      31.804  29.402  24.780  1.00  0.00     0.065 C 
ATOM     11  C   UNL A   1      33.884  27.632  25.774  1.00  0.00     0.262 C 
ATOM     12  C   UNL A   1      33.124  29.149  24.061  1.00  0.00     0.262 C 
ATOM     13  N   UNL A   1      33.695  27.835  24.334  1.00  0.00    -0.332 N 
ATOM     14  H   UNL A   1      34.616  27.885  23.896  1.00  0.00     0.348 HD
BRANCH  13  15
ATOM     15  C   UNL A   1      33.223  26.660  23.566  1.00  0.00     0.189 C 
ATOM     16  C   UNL A   1      33.223  26.793  22.035  1.00  0.00     0.093 C 
ATOM     17  C   UNL A   1      33.911  25.335  23.976  1.00  0.00     0.101 C 
ATOM     18  C   UNL A   1      32.734  25.525  21.359  1.00  0.00     0.167 C 
ATOM     19  C   UNL A   1      33.391  24.112  23.188  1.00  0.00     0.084 C 
ATOM     20  O   UNL A   1      33.485  24.396  21.781  1.00  0.00    -0.374 OA
ATOM     21  C   UNL A   1      31.962  23.664  23.546  1.00  0.00     0.047 C 
ATOM     22  C   UNL A   1      34.271  22.874  23.431  1.00  0.00     0.105 C 
ATOM     23  C   UNL A   1      31.967  22.747  24.760  1.00  0.00     0.072 C 
ATOM     24  S   UNL A   1      33.635  22.073  24.920  1.00  0.00    -0.159 SA
ENDBRANCH  13  15
ENDBRANCH   7   8
ENDBRANCH   6   7
ENDBRANCH   4   6
ENDBRANCH   1   2
BRANCH   1  25
ATOM     25  C   UNL A   1      33.219  34.889  28.661  1.00  0.00     0.042 C 
BRANCH  25  26
ATOM     26  C   UNL A   1      33.373  36.075  29.612  1.00  0.00     0.118 C 
BRANCH  26  27
ATOM     27  N   UNL A   1      32.426  36.064  30.715  1.00  0.00    -0.352 N 
ATOM     28  C   UNL A   1      32.538  35.512  31.968  1.00  0.00     0.251 C 
ATOM     29  H   UNL A   1      31.573  36.524  30.538  1.00  0.00     0.163 HD
ATOM     30  O   UNL A   1      31.561  35.510  32.718  1.00  0.00    -0.269 OA
BRANCH  28  31
ATOM     31  C   UNL A   1      33.803  34.886  32.419  1.00  0.00     0.039 A 
ATOM     32  C   UNL A   1      33.754  33.594  32.953  1.00  0.00     0.014 A 
ATOM     33  C   UNL A   1      35.028  35.554  32.338  1.00  0.00     0.014 A 
ATOM     34  C   UNL A   1      34.935  32.950  33.330  1.00  0.00     0.010 A 
ATOM     35  C   UNL A   1      36.213  34.882  32.643  1.00  0.00     0.010 A 
ATOM     36  C   UNL A   1      36.181  33.569  33.138  1.00  0.00    -0.014 A 
BRANCH  36  37
ATOM     37  C   UNL A   1      37.446  32.835  33.414  1.00  0.00     0.031 A 
ATOM     38  C   UNL A   1      38.223  33.073  34.680  1.00  0.00     0.074 A 
ATOM     39  C   UNL A   1      37.923  31.971  32.494  1.00  0.00     0.049 A 
ATOM     40  N   UNL A   1      39.340  32.514  35.080  1.00  0.00    -0.248 NA
ATOM     41  C   UNL A   1      37.693  34.083  35.608  1.00  0.00     0.031 C 
ATOM     42  C   UNL A   1      37.297  31.679  31.201  1.00  0.00     0.029 A 
ATOM     43  N   UNL A   1      39.043  31.176  32.506  1.00  0.00    -0.354 N 
ATOM     44  C   UNL A   1      39.648  33.109  36.297  1.00  0.00     0.074 A 
ATOM     45  C   UNL A   1      38.631  34.108  36.546  1.00  0.00     0.031 C 
ATOM     46  C   UNL A   1      38.019  30.743  30.565  1.00  0.00     0.029 A 
ATOM     47  C   UNL A   1      39.180  30.399  31.380  1.00  0.00     0.049 A 
ATOM     48  H   UNL A   1      39.688  31.165  33.249  1.00  0.00     0.167 HD
ATOM     49  C   UNL A   1      40.672  32.838  37.143  1.00  0.00     0.031 A 
ATOM     50  C   UNL A   1      40.129  29.508  31.038  1.00  0.00     0.031 A 
ATOM     51  C   UNL A   1      41.689  31.846  36.900  1.00  0.00     0.049 A 
ATOM     52  C   UNL A   1      41.262  29.236  31.987  1.00  0.00     0.074 A 
ATOM     53  C   UNL A   1      42.736  31.466  37.722  1.00  0.00     0.029 A 
ATOM     54  N   UNL A   1      41.793  31.085  35.747  1.00  0.00    -0.354 N 
ATOM     55  N   UNL A   1      41.494  29.754  33.169  1.00  0.00    -0.248 NA
ATOM     56  C   UNL A   1      42.255  28.242  31.558  1.00  0.00     0.031 C 
ATOM     57  C   UNL A   1      43.507  30.517  37.043  1.00  0.00     0.029 A 
ATOM     58  C   UNL A   1      42.901  30.257  35.825  1.00  0.00     0.049 A 
ATOM     59  H   UNL A   1      41.171  31.127  34.984  1.00  0.00     0.167 HD
ATOM     60  C   UNL A   1      42.641  29.127  33.637  1.00  0.00     0.074 A 
ATOM     61  C   UNL A   1      43.044  28.177  32.621  1.00  0.00     0.031 C 
ATOM     62  C   UNL A   1      43.301  29.320  34.806  1.00  0.00     0.031 A 
BRANCH  49  63
ATOM     63  C   UNL A   1      40.750  33.636  38.417  1.00  0.00    -0.014 A 
ATOM     64  C   UNL A   1      41.461  34.846  38.477  1.00  0.00     0.009 A 
ATOM     65  C   UNL A   1      40.066  33.196  39.561  1.00  0.00     0.009 A 
ATOM     66  C   UNL A   1      41.516  35.577  39.667  1.00  0.00     0.001 A 
ATOM     67  C   UNL A   1      40.097  33.945  40.740  1.00  0.00     0.001 A 
ATOM     68  C   UNL A   1      40.830  35.129  40.794  1.00  0.00     0.000 A 
ENDBRANCH  49  63
BRANCH  50  69
ATOM     69  C   UNL A   1      40.041  28.787  29.740  1.00  0.00    -0.014 A 
ATOM     70  C   UNL A   1      39.422  27.529  29.662  1.00  0.00     0.009 A 
ATOM     71  C   UNL A   1      40.587  29.346  28.574  1.00  0.00     0.009 A 
ATOM     72  C   UNL A   1      39.379  26.835  28.451  1.00  0.00     0.001 A 
ATOM     73  C   UNL A   1      40.513  28.664  27.359  1.00  0.00     0.001 A 
ATOM     74  C   UNL A   1      39.919  27.405  27.300  1.00  0.00     0.000 A 
ENDBRANCH  50  69
BRANCH  62  75
ATOM     75  C   UNL A   1      44.507  28.457  35.063  1.00  0.00    -0.014 A 
ATOM     76  C   UNL A   1      45.796  28.864  34.683  1.00  0.00     0.009 A 
ATOM     77  C   UNL A   1      44.348  27.218  35.704  1.00  0.00     0.009 A 
ATOM     78  C   UNL A   1      46.893  28.026  34.899  1.00  0.00     0.001 A 
ATOM     79  C   UNL A   1      45.451  26.399  35.950  1.00  0.00     0.001 A 
ATOM     80  C   UNL A   1      46.720  26.797  35.534  1.00  0.00     0.000 A 
ENDBRANCH  62  75
ENDBRANCH  36  37
ENDBRANCH  28  31
ENDBRANCH  26  27
ENDBRANCH  25  26
ENDBRANCH   1  25
TORSDOF 13
ENDMDL
MODEL 2
REMARK VINA RESULT:     -11.2      5.443     10.453
REMARK SMILES O=C(CCC1CC[NH+]([C@H]2CCO[C@]3(CCSC3)C2)CC1)NCCCNC(=O)c1ccc(-c2c3nc(c(-c4ccccc4)c4ccc([nH]4)c(-c4ccccc4)c4nc(c(-c5ccccc5)c5ccc2[nH]5)C=C4)C=C3)cc1
REMARK SMILES IDX 22 1 21 2 1 3 2 4 3 6 4 7 5 8 6 9 20 10 7 11 19 12 8 13 9 15
REMARK SMILES IDX 10 16 18 17 11 18 13 19 12 20 14 21 17 22 15 23 16 24 23 25
REMARK SMILES IDX 24 26 25 27 26 28 27 30 28 31 29 32 75 33 30 34 74 35 31 36
REMARK SMILES IDX 32 37 33 38 68 39 34 40 73 41 67 42 69 43 35 44 72 45 66 46
REMARK SMILES IDX 65 47 36 49 58 50 43 51 57 52 44 53 47 54 56 55 70 56 45 57
REMARK SMILES IDX 46 58 55 60 71 61 48 62 37 63 38 64 42 65 39 66 41 67 40 68
REMARK SMILES IDX 59 69 60 70 64 71 61 72 63 73 62 74 49 75 50 76 54 77 51 78
REMARK SMILES IDX 53 79 52 80
REMARK H PARENT 21 5 8 14 25 29 69 48 47 59
REMARK Flexibility Score: inf
ROOT
ATOM      1  C   UNL A   1      36.698  21.287  24.895  1.00  0.00     0.117 C 
ENDROOT
BRANCH   1   2
ATOM      2  N   UNL A   1      35.351  20.771  24.768  1.00  0.00    -0.356 N 
ATOM      3  O   UNL A   1      34.614  21.398  26.849  1.00  0.00    -0.275 OA
ATOM      4  C   UNL A   1      34.392  20.920  25.744  1.00  0.00     0.220 C 
ATOM      5  H   UNL A   1      35.109  20.292  23.943  1.00  0.00     0.163 HD
BRANCH   4   6
ATOM      6  C   UNL A   1      33.012  20.440  25.327  1.00  0.00     0.100 C 
BRANCH   6   7
ATOM      7  C   UNL A   1      31.964  21.559  25.281  1.00  0.00     0.014 C 
BRANCH   7   8
ATOM      8  C   UNL A   1      32.477  22.974  24.924  1.00  0.00     0.000 C 
ATOM      9  C   UNL A   1      32.081  23.992  26.008  1.00  0.00     0.065 C 
ATOM     10  C   UNL A   1      32.047  23.467  23.532  1.00  0.00     0.065 C 
ATOM     11  C   UNL A   1      30.679  24.591  25.837  1.00  0.00     0.262 C 
ATOM     12  C   UNL A   1      30.617  23.992  23.502  1.00  0.00     0.262 C 
ATOM     13  N   UNL A   1      30.360  25.044  24.479  1.00  0.00    -0.332 N 
ATOM     14  H   UNL A   1      29.350  25.178  24.417  1.00  0.00     0.348 HD
BRANCH  13  15
ATOM     15  C   UNL A   1      30.722  26.444  24.157  1.00  0.00     0.189 C 
ATOM     16  C   UNL A   1      29.728  27.228  23.287  1.00  0.00     0.093 C 
ATOM     17  C   UNL A   1      31.108  27.284  25.398  1.00  0.00     0.101 C 
ATOM     18  C   UNL A   1      30.198  28.651  23.037  1.00  0.00     0.167 C 
ATOM     19  C   UNL A   1      31.511  28.734  25.047  1.00  0.00     0.084 C 
ATOM     20  O   UNL A   1      30.464  29.326  24.258  1.00  0.00    -0.374 OA
ATOM     21  C   UNL A   1      32.866  28.881  24.330  1.00  0.00     0.047 C 
ATOM     22  C   UNL A   1      31.632  29.603  26.311  1.00  0.00     0.105 C 
ATOM     23  C   UNL A   1      34.011  28.917  25.332  1.00  0.00     0.072 C 
ATOM     24  S   UNL A   1      33.314  29.381  26.932  1.00  0.00    -0.159 SA
ENDBRANCH  13  15
ENDBRANCH   7   8
ENDBRANCH   6   7
ENDBRANCH   4   6
ENDBRANCH   1   2
BRANCH   1  25
ATOM     25  C   UNL A   1      37.738  20.172  24.941  1.00  0.00     0.042 C 
BRANCH  25  26
ATOM     26  C   UNL A   1      38.816  20.331  26.011  1.00  0.00     0.118 C 
BRANCH  26  27
ATOM     27  N   UNL A   1      39.931  19.411  25.857  1.00  0.00    -0.352 N 
ATOM     28  C   UNL A   1      41.277  19.617  26.044  1.00  0.00     0.251 C 
ATOM     29  H   UNL A   1      39.685  18.500  25.576  1.00  0.00     0.163 HD
ATOM     30  O   UNL A   1      42.073  18.729  25.738  1.00  0.00    -0.269 OA
BRANCH  28  31
ATOM     31  C   UNL A   1      41.789  20.903  26.572  1.00  0.00     0.039 A 
ATOM     32  C   UNL A   1      42.198  21.882  25.662  1.00  0.00     0.014 A 
ATOM     33  C   UNL A   1      41.883  21.152  27.944  1.00  0.00     0.014 A 
ATOM     34  C   UNL A   1      42.628  23.129  26.123  1.00  0.00     0.010 A 
ATOM     35  C   UNL A   1      42.239  22.423  28.401  1.00  0.00     0.010 A 
ATOM     36  C   UNL A   1      42.610  23.429  27.496  1.00  0.00    -0.014 A 
BRANCH  36  37
ATOM     37  C   UNL A   1      42.939  24.798  27.980  1.00  0.00     0.031 A 
ATOM     38  C   UNL A   1      44.364  25.218  28.215  1.00  0.00     0.074 A 
ATOM     39  C   UNL A   1      41.938  25.661  28.250  1.00  0.00     0.049 A 
ATOM     40  N   UNL A   1      44.826  26.374  28.629  1.00  0.00    -0.248 NA
ATOM     41  C   UNL A   1      45.406  24.208  27.977  1.00  0.00     0.031 C 
ATOM     42  C   UNL A   1      40.508  25.371  28.113  1.00  0.00     0.029 A 
ATOM     43  N   UNL A   1      41.970  26.961  28.692  1.00  0.00    -0.354 N 
ATOM     44  C   UNL A   1      46.205  26.226  28.708  1.00  0.00     0.074 A 
ATOM     45  C   UNL A   1      46.501  24.855  28.350  1.00  0.00     0.031 C 
ATOM     46  C   UNL A   1      39.804  26.470  28.424  1.00  0.00     0.029 A 
ATOM     47  C   UNL A   1      40.725  27.529  28.825  1.00  0.00     0.049 A 
ATOM     48  H   UNL A   1      42.805  27.440  28.897  1.00  0.00     0.167 HD
ATOM     49  C   UNL A   1      47.144  27.150  29.029  1.00  0.00     0.031 A 
ATOM     50  C   UNL A   1      40.361  28.763  29.221  1.00  0.00     0.031 A 
ATOM     51  C   UNL A   1      46.854  28.514  29.388  1.00  0.00     0.049 A 
ATOM     52  C   UNL A   1      41.421  29.764  29.586  1.00  0.00     0.074 A 
ATOM     53  C   UNL A   1      47.743  29.536  29.680  1.00  0.00     0.029 A 
ATOM     54  N   UNL A   1      45.582  29.047  29.514  1.00  0.00    -0.354 N 
ATOM     55  N   UNL A   1      42.724  29.628  29.581  1.00  0.00    -0.248 NA
ATOM     56  C   UNL A   1      40.954  31.095  29.997  1.00  0.00     0.031 C 
ATOM     57  C   UNL A   1      47.007  30.670  30.039  1.00  0.00     0.029 A 
ATOM     58  C   UNL A   1      45.661  30.375  29.905  1.00  0.00     0.049 A 
ATOM     59  H   UNL A   1      44.744  28.555  29.351  1.00  0.00     0.167 HD
ATOM     60  C   UNL A   1      43.234  30.864  29.957  1.00  0.00     0.074 A 
ATOM     61  C   UNL A   1      42.100  31.740  30.161  1.00  0.00     0.031 C 
ATOM     62  C   UNL A   1      44.528  31.239  30.116  1.00  0.00     0.031 A 
BRANCH  49  63
ATOM     63  C   UNL A   1      48.583  26.709  29.015  1.00  0.00    -0.014 A 
ATOM     64  C   UNL A   1      49.194  26.176  30.162  1.00  0.00     0.009 A 
ATOM     65  C   UNL A   1      49.327  26.786  27.828  1.00  0.00     0.009 A 
ATOM     66  C   UNL A   1      50.530  25.766  30.129  1.00  0.00     0.001 A 
ATOM     67  C   UNL A   1      50.652  26.347  27.789  1.00  0.00     0.001 A 
ATOM     68  C   UNL A   1      51.255  25.847  28.941  1.00  0.00     0.000 A 
ENDBRANCH  49  63
BRANCH  50  69
ATOM     69  C   UNL A   1      38.921  29.133  29.277  1.00  0.00    -0.014 A 
ATOM     70  C   UNL A   1      38.277  29.668  28.150  1.00  0.00     0.009 A 
ATOM     71  C   UNL A   1      38.185  28.965  30.461  1.00  0.00     0.009 A 
ATOM     72  C   UNL A   1      36.937  30.055  28.217  1.00  0.00     0.001 A 
ATOM     73  C   UNL A   1      36.837  29.322  30.514  1.00  0.00     0.001 A 
ATOM     74  C   UNL A   1      36.217  29.877  29.396  1.00  0.00     0.000 A 
ENDBRANCH  50  69
BRANCH  62  75
ATOM     75  C   UNL A   1      44.784  32.672  30.496  1.00  0.00    -0.014 A 
ATOM     76  C   UNL A   1      44.885  33.071  31.838  1.00  0.00     0.009 A 
ATOM     77  C   UNL A   1      44.934  33.639  29.488  1.00  0.00     0.009 A 
ATOM     78  C   UNL A   1      45.084  34.414  32.163  1.00  0.00     0.001 A 
ATOM     79  C   UNL A   1      45.169  34.975  29.816  1.00  0.00     0.001 A 
ATOM     80  C   UNL A   1      45.229  35.364  31.153  1.00  0.00     0.000 A 
ENDBRANCH  62  75
ENDBRANCH  36  37
ENDBRANCH  28  31
ENDBRANCH  26  27
ENDBRANCH  25  26
ENDBRANCH   1  25
TORSDOF 13
ENDMDL
MODEL 3
REMARK VINA RESULT:     -11.2      5.474     10.303
REMARK SMILES O=C(CCC1CC[NH+]([C@H]2CCO[C@]3(CCSC3)C2)CC1)NCCCNC(=O)c1ccc(-c2c3nc(c(-c4ccccc4)c4ccc([nH]4)c(-c4ccccc4)c4nc(c(-c5ccccc5)c5ccc2[nH]5)C=C4)C=C3)cc1
REMARK SMILES IDX 22 1 21 2 1 3 2 4 3 6 4 7 5 8 6 9 20 10 7 11 19 12 8 13 9 15
REMARK SMILES IDX 10 16 18 17 11 18 13 19 12 20 14 21 17 22 15 23 16 24 23 25
REMARK SMILES IDX 24 26 25 27 26 28 27 30 28 31 29 32 75 33 30 34 74 35 31 36
REMARK SMILES IDX 32 37 33 38 68 39 34 40 73 41 67 42 69 43 35 44 72 45 66 46
REMARK SMILES IDX 65 47 36 49 58 50 43 51 57 52 44 53 47 54 56 55 70 56 45 57
REMARK SMILES IDX 46 58 55 60 71 61 48 62 37 63 38 64 42 65 39 66 41 67 40 68
REMARK SMILES IDX 59 69 60 70 64 71 61 72 63 73 62 74 49 75 50 76 54 77 51 78
REMARK SMILES IDX 53 79 52 80
REMARK H PARENT 21 5 8 14 25 29 69 48 47 59
REMARK Flexibility Score: inf
ROOT
ATOM      1  C   UNL A   1      36.517  21.220  24.726  1.00  0.00     0.117 C 
ENDROOT
BRANCH   1   2
ATOM      2  N   UNL A   1      35.159  20.717  24.702  1.00  0.00    -0.356 N 
ATOM      3  O   UNL A   1      34.569  21.404  26.811  1.00  0.00    -0.275 OA
ATOM      4  C   UNL A   1      34.269  20.901  25.735  1.00  0.00     0.220 C 
ATOM      5  H   UNL A   1      34.858  20.220  23.907  1.00  0.00     0.163 HD
BRANCH   4   6
ATOM      6  C   UNL A   1      32.860  20.427  25.423  1.00  0.00     0.100 C 
BRANCH   6   7
ATOM      7  C   UNL A   1      31.842  21.570  25.309  1.00  0.00     0.014 C 
BRANCH   7   8
ATOM      8  C   UNL A   1      32.403  22.962  24.937  1.00  0.00     0.000 C 
ATOM      9  C   UNL A   1      32.037  24.006  26.008  1.00  0.00     0.065 C 
ATOM     10  C   UNL A   1      31.995  23.453  23.538  1.00  0.00     0.065 C 
ATOM     11  C   UNL A   1      30.656  24.649  25.824  1.00  0.00     0.262 C 
ATOM     12  C   UNL A   1      30.583  24.025  23.496  1.00  0.00     0.262 C 
ATOM     13  N   UNL A   1      30.358  25.097  24.459  1.00  0.00    -0.332 N 
ATOM     14  H   UNL A   1      29.353  25.264  24.392  1.00  0.00     0.348 HD
BRANCH  13  15
ATOM     15  C   UNL A   1      30.767  26.479  24.122  1.00  0.00     0.189 C 
ATOM     16  C   UNL A   1      29.845  27.257  23.170  1.00  0.00     0.093 C 
ATOM     17  C   UNL A   1      31.093  27.348  25.361  1.00  0.00     0.101 C 
ATOM     18  C   UNL A   1      30.359  28.662  22.911  1.00  0.00     0.167 C 
ATOM     19  C   UNL A   1      31.546  28.780  24.996  1.00  0.00     0.084 C 
ATOM     20  O   UNL A   1      30.562  29.367  24.127  1.00  0.00    -0.374 OA
ATOM     21  C   UNL A   1      32.945  28.880  24.362  1.00  0.00     0.047 C 
ATOM     22  C   UNL A   1      31.605  29.682  26.241  1.00  0.00     0.105 C 
ATOM     23  C   UNL A   1      34.026  28.925  25.432  1.00  0.00     0.072 C 
ATOM     24  S   UNL A   1      33.241  29.447  26.972  1.00  0.00    -0.159 SA
ENDBRANCH  13  15
ENDBRANCH   7   8
ENDBRANCH   6   7
ENDBRANCH   4   6
ENDBRANCH   1   2
BRANCH   1  25
ATOM     25  C   UNL A   1      37.536  20.110  24.969  1.00  0.00     0.042 C 
BRANCH  25  26
ATOM     26  C   UNL A   1      38.792  20.535  25.727  1.00  0.00     0.118 C 
BRANCH  26  27
ATOM     27  N   UNL A   1      39.823  19.511  25.766  1.00  0.00    -0.352 N 
ATOM     28  C   UNL A   1      41.152  19.611  26.100  1.00  0.00     0.251 C 
ATOM     29  H   UNL A   1      39.524  18.607  25.516  1.00  0.00     0.163 HD
ATOM     30  O   UNL A   1      41.889  18.636  25.949  1.00  0.00    -0.269 OA
BRANCH  28  31
ATOM     31  C   UNL A   1      41.722  20.882  26.604  1.00  0.00     0.039 A 
ATOM     32  C   UNL A   1      42.184  21.820  25.676  1.00  0.00     0.014 A 
ATOM     33  C   UNL A   1      41.821  21.157  27.971  1.00  0.00     0.014 A 
ATOM     34  C   UNL A   1      42.671  23.055  26.112  1.00  0.00     0.010 A 
ATOM     35  C   UNL A   1      42.234  22.419  28.402  1.00  0.00     0.010 A 
ATOM     36  C   UNL A   1      42.659  23.385  27.478  1.00  0.00    -0.014 A 
BRANCH  36  37
ATOM     37  C   UNL A   1      43.050  24.747  27.934  1.00  0.00     0.031 A 
ATOM     38  C   UNL A   1      42.015  25.806  28.201  1.00  0.00     0.074 A 
ATOM     39  C   UNL A   1      44.358  25.047  28.073  1.00  0.00     0.049 A 
ATOM     40  N   UNL A   1      42.184  27.040  28.610  1.00  0.00    -0.248 NA
ATOM     41  C   UNL A   1      40.611  25.442  27.958  1.00  0.00     0.031 C 
ATOM     42  C   UNL A   1      45.471  24.132  27.803  1.00  0.00     0.029 A 
ATOM     43  N   UNL A   1      44.975  26.205  28.479  1.00  0.00    -0.354 N 
ATOM     44  C   UNL A   1      40.913  27.600  28.665  1.00  0.00     0.074 A 
ATOM     45  C   UNL A   1      39.989  26.588  28.198  1.00  0.00     0.031 C 
ATOM     46  C   UNL A   1      46.628  24.749  28.089  1.00  0.00     0.029 A 
ATOM     47  C   UNL A   1      46.346  26.115  28.520  1.00  0.00     0.049 A 
ATOM     48  H   UNL A   1      44.482  27.023  28.717  1.00  0.00     0.167 HD
ATOM     49  C   UNL A   1      40.543  28.835  29.083  1.00  0.00     0.031 A 
ATOM     50  C   UNL A   1      47.276  27.025  28.866  1.00  0.00     0.031 A 
ATOM     51  C   UNL A   1      41.459  29.846  29.547  1.00  0.00     0.049 A 
ATOM     52  C   UNL A   1      46.840  28.392  29.312  1.00  0.00     0.074 A 
ATOM     53  C   UNL A   1      41.172  31.108  30.039  1.00  0.00     0.029 A 
ATOM     54  N   UNL A   1      42.838  29.716  29.568  1.00  0.00    -0.354 N 
ATOM     55  N   UNL A   1      45.629  28.877  29.430  1.00  0.00    -0.248 NA
ATOM     56  C   UNL A   1      47.906  29.332  29.688  1.00  0.00     0.031 C 
ATOM     57  C   UNL A   1      42.380  31.763  30.302  1.00  0.00     0.029 A 
ATOM     58  C   UNL A   1      43.417  30.884  30.039  1.00  0.00     0.049 A 
ATOM     59  H   UNL A   1      43.334  28.912  29.289  1.00  0.00     0.167 HD
ATOM     60  C   UNL A   1      45.784  30.166  29.923  1.00  0.00     0.074 A 
ATOM     61  C   UNL A   1      47.205  30.378  30.102  1.00  0.00     0.031 C 
ATOM     62  C   UNL A   1      44.833  31.091  30.205  1.00  0.00     0.031 A 
BRANCH  49  63
ATOM     63  C   UNL A   1      39.076  29.167  29.051  1.00  0.00    -0.014 A 
ATOM     64  C   UNL A   1      38.467  29.672  27.889  1.00  0.00     0.009 A 
ATOM     65  C   UNL A   1      38.280  28.932  30.183  1.00  0.00     0.009 A 
ATOM     66  C   UNL A   1      37.102  29.969  27.876  1.00  0.00     0.001 A 
ATOM     67  C   UNL A   1      36.909  29.200  30.157  1.00  0.00     0.001 A 
ATOM     68  C   UNL A   1      36.324  29.728  29.007  1.00  0.00     0.000 A 
ENDBRANCH  49  63
BRANCH  50  69
ATOM     69  C   UNL A   1      48.720  26.667  28.824  1.00  0.00    -0.014 A 
ATOM     70  C   UNL A   1      49.359  26.145  29.959  1.00  0.00     0.009 A 
ATOM     71  C   UNL A   1      49.469  26.859  27.652  1.00  0.00     0.009 A 
ATOM     72  C   UNL A   1      50.724  25.852  29.931  1.00  0.00     0.001 A 
ATOM     73  C   UNL A   1      50.826  26.533  27.618  1.00  0.00     0.001 A 
ATOM     74  C   UNL A   1      51.454  26.041  28.759  1.00  0.00     0.000 A 
ENDBRANCH  50  69
BRANCH  62  75
ATOM     75  C   UNL A   1      45.301  32.404  30.772  1.00  0.00    -0.014 A 
ATOM     76  C   UNL A   1      45.608  33.495  29.944  1.00  0.00     0.009 A 
ATOM     77  C   UNL A   1      45.427  32.551  32.163  1.00  0.00     0.009 A 
ATOM     78  C   UNL A   1      46.077  34.690  30.495  1.00  0.00     0.001 A 
ATOM     79  C   UNL A   1      45.863  33.758  32.712  1.00  0.00     0.001 A 
ATOM     80  C   UNL A   1      46.201  34.821  31.878  1.00  0.00     0.000 A 
ENDBRANCH  62  75
ENDBRANCH  36  37
ENDBRANCH  28  31
ENDBRANCH  26  27
ENDBRANCH  25  26
ENDBRANCH   1  25
TORSDOF 13
ENDMDL
