MODEL 1
REMARK VINA RESULT:     -11.3      0.000      0.000
REMARK SMILES CC[C@](C)(NC(=O)c1cccc2ncccc12)C(=O)NCCCNC(=O)c1ccc(-c2c3nc(c(-c4ccccc4)c4ccc([nH]4)c(-c4ccccc4)c4nc(c(-c5ccccc5)c5ccc2[nH]5)C=C4)C=C3)cc1
REMARK SMILES IDX 22 1 21 2 20 3 18 4 19 5 3 7 4 8 2 9 1 10 5 11 6 12 7 14
REMARK SMILES IDX 8 15 9 16 17 17 10 18 12 19 16 20 11 21 13 22 15 23 14 24
REMARK SMILES IDX 23 25 24 26 25 27 26 29 27 30 28 31 74 32 29 33 73 34 30 35
REMARK SMILES IDX 31 36 32 37 67 38 33 39 72 40 66 41 68 42 34 43 71 44 65 45
REMARK SMILES IDX 64 46 35 48 57 49 42 50 56 51 43 52 46 53 55 54 69 55 44 56
REMARK SMILES IDX 45 57 54 59 70 60 47 61 36 62 37 63 41 64 38 65 40 66 39 67
REMARK SMILES IDX 58 68 59 69 63 70 60 71 62 72 61 73 48 74 49 75 53 76 50 77
REMARK SMILES IDX 52 78 51 79
REMARK H PARENT 20 6 5 13 24 28 68 47 46 58
REMARK Flexibility Score: inf
ROOT
ATOM      1  C   UNL A   1      35.887  23.983  25.727  1.00  0.00     0.042 C 
ENDROOT
BRANCH   1   2
ATOM      2  C   UNL A   1      34.793  22.941  25.986  1.00  0.00     0.117 C 
BRANCH   2   3
ATOM      3  N   UNL A   1      33.447  23.393  26.321  1.00  0.00    -0.354 N 
ATOM      4  C   UNL A   1      32.282  23.560  25.612  1.00  0.00     0.245 C 
ATOM      5  O   UNL A   1      31.283  23.841  26.284  1.00  0.00    -0.272 OA
ATOM      6  H   UNL A   1      33.352  23.635  27.270  1.00  0.00     0.163 HD
BRANCH   4   7
ATOM      7  C   UNL A   1      32.177  23.364  24.069  1.00  0.00     0.116 C 
ATOM      8  C   UNL A   1      30.769  23.677  23.527  1.00  0.00     0.045 C 
BRANCH   7   9
ATOM      9  C   UNL A   1      32.439  21.833  23.842  1.00  0.00     0.035 C 
ATOM     10  C   UNL A   1      32.117  21.319  22.432  1.00  0.00     0.007 C 
ENDBRANCH   7   9
BRANCH   7  11
ATOM     11  N   UNL A   1      33.151  24.175  23.265  1.00  0.00    -0.338 N 
ATOM     12  C   UNL A   1      33.331  25.533  23.005  1.00  0.00     0.252 C 
ATOM     13  H   UNL A   1      33.821  23.614  22.812  1.00  0.00     0.164 HD
ATOM     14  O   UNL A   1      33.920  25.775  21.949  1.00  0.00    -0.269 OA
BRANCH  12  15
ATOM     15  C   UNL A   1      32.984  26.683  23.931  1.00  0.00     0.049 A 
ATOM     16  C   UNL A   1      33.890  27.037  24.922  1.00  0.00     0.014 A 
ATOM     17  C   UNL A   1      31.891  27.586  23.723  1.00  0.00     0.013 A 
ATOM     18  C   UNL A   1      33.748  28.129  25.764  1.00  0.00     0.003 A 
ATOM     19  C   UNL A   1      31.771  28.736  24.562  1.00  0.00     0.071 A 
ATOM     20  C   UNL A   1      30.901  27.494  22.716  1.00  0.00     0.013 A 
ATOM     21  C   UNL A   1      32.675  28.967  25.575  1.00  0.00     0.029 A 
ATOM     22  N   UNL A   1      30.834  29.682  24.427  1.00  0.00    -0.256 NA
ATOM     23  C   UNL A   1      29.934  28.489  22.559  1.00  0.00     0.021 A 
ATOM     24  C   UNL A   1      29.946  29.556  23.429  1.00  0.00     0.112 A 
ENDBRANCH  12  15
ENDBRANCH   7  11
ENDBRANCH   4   7
ENDBRANCH   2   3
ENDBRANCH   1   2
BRANCH   1  25
ATOM     25  C   UNL A   1      37.044  23.641  24.789  1.00  0.00     0.118 C 
BRANCH  25  26
ATOM     26  N   UNL A   1      37.942  22.620  25.282  1.00  0.00    -0.352 N 
ATOM     27  C   UNL A   1      39.004  22.726  26.148  1.00  0.00     0.251 C 
ATOM     28  H   UNL A   1      37.765  21.712  24.946  1.00  0.00     0.163 HD
ATOM     29  O   UNL A   1      39.655  21.723  26.418  1.00  0.00    -0.269 OA
BRANCH  27  30
ATOM     30  C   UNL A   1      39.404  24.031  26.730  1.00  0.00     0.039 A 
ATOM     31  C   UNL A   1      38.988  24.310  28.036  1.00  0.00     0.014 A 
ATOM     32  C   UNL A   1      40.116  24.995  26.011  1.00  0.00     0.014 A 
ATOM     33  C   UNL A   1      39.318  25.529  28.634  1.00  0.00     0.010 A 
ATOM     34  C   UNL A   1      40.488  26.198  26.628  1.00  0.00     0.010 A 
ATOM     35  C   UNL A   1      40.092  26.478  27.946  1.00  0.00    -0.014 A 
BRANCH  35  36
ATOM     36  C   UNL A   1      40.493  27.747  28.617  1.00  0.00     0.031 A 
ATOM     37  C   UNL A   1      41.890  27.940  29.144  1.00  0.00     0.074 A 
ATOM     38  C   UNL A   1      39.590  28.739  28.760  1.00  0.00     0.049 A 
ATOM     39  N   UNL A   1      42.415  28.987  29.732  1.00  0.00    -0.248 NA
ATOM     40  C   UNL A   1      42.816  26.807  29.001  1.00  0.00     0.031 C 
ATOM     41  C   UNL A   1      38.197  28.684  28.314  1.00  0.00     0.029 A 
ATOM     42  N   UNL A   1      39.712  29.990  29.317  1.00  0.00    -0.354 N 
ATOM     43  C   UNL A   1      43.726  28.639  30.034  1.00  0.00     0.074 A 
ATOM     44  C   UNL A   1      43.903  27.268  29.605  1.00  0.00     0.031 C 
ATOM     45  C   UNL A   1      37.602  29.856  28.588  1.00  0.00     0.029 A 
ATOM     46  C   UNL A   1      38.555  30.730  29.265  1.00  0.00     0.049 A 
ATOM     47  H   UNL A   1      40.547  30.324  29.715  1.00  0.00     0.167 HD
ATOM     48  C   UNL A   1      44.699  29.392  30.604  1.00  0.00     0.031 A 
ATOM     49  C   UNL A   1      38.283  31.970  29.716  1.00  0.00     0.031 A 
ATOM     50  C   UNL A   1      44.525  30.753  31.044  1.00  0.00     0.049 A 
ATOM     51  C   UNL A   1      39.367  32.769  30.386  1.00  0.00     0.074 A 
ATOM     52  C   UNL A   1      45.467  31.607  31.593  1.00  0.00     0.029 A 
ATOM     53  N   UNL A   1      43.331  31.455  30.996  1.00  0.00    -0.354 N 
ATOM     54  N   UNL A   1      40.620  32.447  30.601  1.00  0.00    -0.248 NA
ATOM     55  C   UNL A   1      39.002  34.109  30.868  1.00  0.00     0.031 C 
ATOM     56  C   UNL A   1      44.828  32.803  31.937  1.00  0.00     0.029 A 
ATOM     57  C   UNL A   1      43.505  32.720  31.538  1.00  0.00     0.049 A 
ATOM     58  H   UNL A   1      42.485  31.106  30.633  1.00  0.00     0.167 HD
ATOM     59  C   UNL A   1      41.197  33.553  31.211  1.00  0.00     0.074 A 
ATOM     60  C   UNL A   1      40.164  34.561  31.317  1.00  0.00     0.031 C 
ATOM     61  C   UNL A   1      42.471  33.718  31.643  1.00  0.00     0.031 A 
BRANCH  48  62
ATOM     62  C   UNL A   1      46.046  28.751  30.804  1.00  0.00    -0.014 A 
ATOM     63  C   UNL A   1      47.050  28.839  29.826  1.00  0.00     0.009 A 
ATOM     64  C   UNL A   1      46.334  28.091  32.009  1.00  0.00     0.009 A 
ATOM     65  C   UNL A   1      48.297  28.246  30.034  1.00  0.00     0.001 A 
ATOM     66  C   UNL A   1      47.593  27.526  32.228  1.00  0.00     0.001 A 
ATOM     67  C   UNL A   1      48.569  27.594  31.236  1.00  0.00     0.000 A 
ENDBRANCH  48  62
BRANCH  49  68
ATOM     68  C   UNL A   1      36.920  32.543  29.550  1.00  0.00    -0.014 A 
ATOM     69  C   UNL A   1      36.578  33.255  28.389  1.00  0.00     0.009 A 
ATOM     70  C   UNL A   1      35.957  32.395  30.561  1.00  0.00     0.009 A 
ATOM     71  C   UNL A   1      35.313  33.831  28.258  1.00  0.00     0.001 A 
ATOM     72  C   UNL A   1      34.682  32.945  30.413  1.00  0.00     0.001 A 
ATOM     73  C   UNL A   1      34.364  33.671  29.268  1.00  0.00     0.000 A 
ENDBRANCH  49  68
BRANCH  61  74
ATOM     74  C   UNL A   1      42.833  35.052  32.237  1.00  0.00    -0.014 A 
ATOM     75  C   UNL A   1      43.491  36.038  31.485  1.00  0.00     0.009 A 
ATOM     76  C   UNL A   1      42.479  35.339  33.566  1.00  0.00     0.009 A 
ATOM     77  C   UNL A   1      43.818  37.267  32.061  1.00  0.00     0.001 A 
ATOM     78  C   UNL A   1      42.776  36.580  34.129  1.00  0.00     0.001 A 
ATOM     79  C   UNL A   1      43.455  37.540  33.380  1.00  0.00     0.000 A 
ENDBRANCH  61  74
ENDBRANCH  35  36
ENDBRANCH  27  30
ENDBRANCH  25  26
ENDBRANCH   1  25
TORSDOF 13
ENDMDL
MODEL 2
REMARK VINA RESULT:     -11.2      2.348      7.801
REMARK SMILES CC[C@](C)(NC(=O)c1cccc2ncccc12)C(=O)NCCCNC(=O)c1ccc(-c2c3nc(c(-c4ccccc4)c4ccc([nH]4)c(-c4ccccc4)c4nc(c(-c5ccccc5)c5ccc2[nH]5)C=C4)C=C3)cc1
REMARK SMILES IDX 22 1 21 2 20 3 18 4 19 5 3 7 4 8 2 9 1 10 5 11 6 12 7 14
REMARK SMILES IDX 8 15 9 16 17 17 10 18 12 19 16 20 11 21 13 22 15 23 14 24
REMARK SMILES IDX 23 25 24 26 25 27 26 29 27 30 28 31 74 32 29 33 73 34 30 35
REMARK SMILES IDX 31 36 32 37 67 38 33 39 72 40 66 41 68 42 34 43 71 44 65 45
REMARK SMILES IDX 64 46 35 48 57 49 42 50 56 51 43 52 46 53 55 54 69 55 44 56
REMARK SMILES IDX 45 57 54 59 70 60 47 61 36 62 37 63 41 64 38 65 40 66 39 67
REMARK SMILES IDX 58 68 59 69 63 70 60 71 62 72 61 73 48 74 49 75 53 76 50 77
REMARK SMILES IDX 52 78 51 79
REMARK H PARENT 20 6 5 13 24 28 68 47 46 58
REMARK Flexibility Score: inf
ROOT
ATOM      1  C   UNL A   1      32.275  27.930  27.276  1.00  0.00     0.042 C 
ENDROOT
BRANCH   1   2
ATOM      2  C   UNL A   1      31.364  27.969  26.044  1.00  0.00     0.117 C 
BRANCH   2   3
ATOM      3  N   UNL A   1      31.964  28.083  24.720  1.00  0.00    -0.354 N 
ATOM      4  C   UNL A   1      32.353  27.183  23.757  1.00  0.00     0.245 C 
ATOM      5  O   UNL A   1      32.707  27.674  22.679  1.00  0.00    -0.272 OA
ATOM      6  H   UNL A   1      32.130  29.016  24.456  1.00  0.00     0.163 HD
BRANCH   4   7
ATOM      7  C   UNL A   1      32.314  25.638  23.957  1.00  0.00     0.116 C 
ATOM      8  C   UNL A   1      30.972  25.150  24.538  1.00  0.00     0.045 C 
BRANCH   7   9
ATOM      9  C   UNL A   1      33.424  25.345  25.026  1.00  0.00     0.035 C 
ATOM     10  C   UNL A   1      32.978  24.472  26.208  1.00  0.00     0.007 C 
ENDBRANCH   7   9
BRANCH   7  11
ATOM     11  N   UNL A   1      32.574  24.837  22.715  1.00  0.00    -0.338 N 
ATOM     12  C   UNL A   1      33.262  23.660  22.422  1.00  0.00     0.252 C 
ATOM     13  H   UNL A   1      32.163  25.240  21.917  1.00  0.00     0.164 HD
ATOM     14  O   UNL A   1      33.651  23.575  21.256  1.00  0.00    -0.269 OA
BRANCH  12  15
ATOM     15  C   UNL A   1      33.456  22.474  23.348  1.00  0.00     0.049 A 
ATOM     16  C   UNL A   1      32.414  21.569  23.499  1.00  0.00     0.014 A 
ATOM     17  C   UNL A   1      34.717  22.086  23.910  1.00  0.00     0.013 A 
ATOM     18  C   UNL A   1      32.495  20.392  24.227  1.00  0.00     0.003 A 
ATOM     19  C   UNL A   1      34.808  20.851  24.621  1.00  0.00     0.071 A 
ATOM     20  C   UNL A   1      35.940  22.788  23.801  1.00  0.00     0.013 A 
ATOM     21  C   UNL A   1      33.701  20.050  24.790  1.00  0.00     0.029 A 
ATOM     22  N   UNL A   1      35.938  20.351  25.135  1.00  0.00    -0.256 NA
ATOM     23  C   UNL A   1      37.125  22.262  24.319  1.00  0.00     0.021 A 
ATOM     24  C   UNL A   1      37.073  21.048  24.966  1.00  0.00     0.112 A 
ENDBRANCH  12  15
ENDBRANCH   7  11
ENDBRANCH   4   7
ENDBRANCH   2   3
ENDBRANCH   1   2
BRANCH   1  25
ATOM     25  C   UNL A   1      33.602  28.687  27.254  1.00  0.00     0.118 C 
BRANCH  25  26
ATOM     26  N   UNL A   1      33.531  30.050  27.731  1.00  0.00    -0.352 N 
ATOM     27  C   UNL A   1      34.499  30.828  28.319  1.00  0.00     0.251 C 
ATOM     28  H   UNL A   1      32.656  30.487  27.618  1.00  0.00     0.163 HD
ATOM     29  O   UNL A   1      34.216  31.967  28.674  1.00  0.00    -0.269 OA
BRANCH  27  30
ATOM     30  C   UNL A   1      35.867  30.308  28.570  1.00  0.00     0.039 A 
ATOM     31  C   UNL A   1      36.798  30.412  27.532  1.00  0.00     0.014 A 
ATOM     32  C   UNL A   1      36.230  29.676  29.763  1.00  0.00     0.014 A 
ATOM     33  C   UNL A   1      38.097  29.925  27.701  1.00  0.00     0.010 A 
ATOM     34  C   UNL A   1      37.546  29.231  29.949  1.00  0.00     0.010 A 
ATOM     35  C   UNL A   1      38.494  29.350  28.919  1.00  0.00    -0.014 A 
BRANCH  35  36
ATOM     36  C   UNL A   1      39.900  28.893  29.110  1.00  0.00     0.031 A 
ATOM     37  C   UNL A   1      40.934  29.799  29.724  1.00  0.00     0.074 A 
ATOM     38  C   UNL A   1      40.254  27.651  28.723  1.00  0.00     0.049 A 
ATOM     39  N   UNL A   1      42.196  29.556  29.984  1.00  0.00    -0.248 NA
ATOM     40  C   UNL A   1      40.500  31.157  30.082  1.00  0.00     0.031 C 
ATOM     41  C   UNL A   1      39.362  26.673  28.100  1.00  0.00     0.029 A 
ATOM     42  N   UNL A   1      41.460  26.996  28.805  1.00  0.00    -0.354 N 
ATOM     43  C   UNL A   1      42.706  30.727  30.530  1.00  0.00     0.074 A 
ATOM     44  C   UNL A   1      41.630  31.695  30.521  1.00  0.00     0.031 C 
ATOM     45  C   UNL A   1      40.041  25.536  27.880  1.00  0.00     0.029 A 
ATOM     46  C   UNL A   1      41.425  25.715  28.308  1.00  0.00     0.049 A 
ATOM     47  H   UNL A   1      42.272  27.405  29.181  1.00  0.00     0.167 HD
ATOM     48  C   UNL A   1      43.951  30.974  31.008  1.00  0.00     0.031 A 
ATOM     49  C   UNL A   1      42.395  24.786  28.200  1.00  0.00     0.031 A 
ATOM     50  C   UNL A   1      45.029  30.019  31.009  1.00  0.00     0.049 A 
ATOM     51  C   UNL A   1      43.780  25.101  28.695  1.00  0.00     0.074 A 
ATOM     52  C   UNL A   1      46.311  30.168  31.511  1.00  0.00     0.029 A 
ATOM     53  N   UNL A   1      44.957  28.743  30.473  1.00  0.00    -0.354 N 
ATOM     54  N   UNL A   1      44.225  26.191  29.271  1.00  0.00    -0.248 NA
ATOM     55  C   UNL A   1      44.796  24.050  28.535  1.00  0.00     0.031 C 
ATOM     56  C   UNL A   1      47.034  29.006  31.222  1.00  0.00     0.029 A 
ATOM     57  C   UNL A   1      46.183  28.107  30.603  1.00  0.00     0.049 A 
ATOM     58  H   UNL A   1      44.156  28.347  30.061  1.00  0.00     0.167 HD
ATOM     59  C   UNL A   1      45.560  25.946  29.569  1.00  0.00     0.074 A 
ATOM     60  C   UNL A   1      45.847  24.598  29.127  1.00  0.00     0.031 C 
ATOM     61  C   UNL A   1      46.464  26.765  30.159  1.00  0.00     0.031 A 
BRANCH  48  62
ATOM     62  C   UNL A   1      44.224  32.349  31.557  1.00  0.00    -0.014 A 
ATOM     63  C   UNL A   1      44.069  32.634  32.924  1.00  0.00     0.009 A 
ATOM     64  C   UNL A   1      44.690  33.362  30.705  1.00  0.00     0.009 A 
ATOM     65  C   UNL A   1      44.337  33.913  33.416  1.00  0.00     0.001 A 
ATOM     66  C   UNL A   1      44.987  34.632  31.206  1.00  0.00     0.001 A 
ATOM     67  C   UNL A   1      44.800  34.909  32.559  1.00  0.00     0.000 A 
ENDBRANCH  48  62
BRANCH  49  68
ATOM     68  C   UNL A   1      42.095  23.460  27.596  1.00  0.00    -0.014 A 
ATOM     69  C   UNL A   1      42.394  23.202  26.249  1.00  0.00     0.009 A 
ATOM     70  C   UNL A   1      41.490  22.450  28.360  1.00  0.00     0.009 A 
ATOM     71  C   UNL A   1      42.067  21.972  25.674  1.00  0.00     0.001 A 
ATOM     72  C   UNL A   1      41.193  21.210  27.791  1.00  0.00     0.001 A 
ATOM     73  C   UNL A   1      41.472  20.975  26.446  1.00  0.00     0.000 A 
ENDBRANCH  49  68
BRANCH  61  74
ATOM     74  C   UNL A   1      47.844  26.215  30.397  1.00  0.00    -0.014 A 
ATOM     75  C   UNL A   1      48.219  25.684  31.641  1.00  0.00     0.009 A 
ATOM     76  C   UNL A   1      48.775  26.198  29.345  1.00  0.00     0.009 A 
ATOM     77  C   UNL A   1      49.508  25.182  31.837  1.00  0.00     0.001 A 
ATOM     78  C   UNL A   1      50.051  25.664  29.533  1.00  0.00     0.001 A 
ATOM     79  C   UNL A   1      50.420  25.167  30.781  1.00  0.00     0.000 A 
ENDBRANCH  61  74
ENDBRANCH  35  36
ENDBRANCH  27  30
ENDBRANCH  25  26
ENDBRANCH   1  25
TORSDOF 13
ENDMDL
MODEL 3
REMARK VINA RESULT:     -11.2      1.214      2.248
REMARK SMILES CC[C@](C)(NC(=O)c1cccc2ncccc12)C(=O)NCCCNC(=O)c1ccc(-c2c3nc(c(-c4ccccc4)c4ccc([nH]4)c(-c4ccccc4)c4nc(c(-c5ccccc5)c5ccc2[nH]5)C=C4)C=C3)cc1
REMARK SMILES IDX 22 1 21 2 20 3 18 4 19 5 3 7 4 8 2 9 1 10 5 11 6 12 7 14
REMARK SMILES IDX 8 15 9 16 17 17 10 18 12 19 16 20 11 21 13 22 15 23 14 24
REMARK SMILES IDX 23 25 24 26 25 27 26 29 27 30 28 31 74 32 29 33 73 34 30 35
REMARK SMILES IDX 31 36 32 37 67 38 33 39 72 40 66 41 68 42 34 43 71 44 65 45
REMARK SMILES IDX 64 46 35 48 57 49 42 50 56 51 43 52 46 53 55 54 69 55 44 56
REMARK SMILES IDX 45 57 54 59 70 60 47 61 36 62 37 63 41 64 38 65 40 66 39 67
REMARK SMILES IDX 58 68 59 69 63 70 60 71 62 72 61 73 48 74 49 75 53 76 50 77
REMARK SMILES IDX 52 78 51 79
REMARK H PARENT 20 6 5 13 24 28 68 47 46 58
REMARK Flexibility Score: inf
ROOT
ATOM      1  C   UNL A   1      35.767  23.992  25.682  1.00  0.00     0.042 C 
ENDROOT
BRANCH   1   2
ATOM      2  C   UNL A   1      34.576  24.768  25.107  1.00  0.00     0.117 C 
BRANCH   2   3
ATOM      3  N   UNL A   1      33.404  24.995  25.945  1.00  0.00    -0.354 N 
ATOM      4  C   UNL A   1      32.581  26.069  26.180  1.00  0.00     0.245 C 
ATOM      5  O   UNL A   1      31.583  25.836  26.872  1.00  0.00    -0.272 OA
ATOM      6  H   UNL A   1      33.145  24.198  26.460  1.00  0.00     0.163 HD
BRANCH   4   7
ATOM      7  C   UNL A   1      32.828  27.490  25.588  1.00  0.00     0.116 C 
ATOM      8  C   UNL A   1      34.141  28.120  26.089  1.00  0.00     0.045 C 
BRANCH   7   9
ATOM      9  C   UNL A   1      31.646  28.363  26.138  1.00  0.00     0.035 C 
ATOM     10  C   UNL A   1      31.687  29.844  25.735  1.00  0.00     0.007 C 
ENDBRANCH   7   9
BRANCH   7  11
ATOM     11  N   UNL A   1      32.854  27.549  24.089  1.00  0.00    -0.338 N 
ATOM     12  C   UNL A   1      31.957  27.232  23.069  1.00  0.00     0.252 C 
ATOM     13  H   UNL A   1      33.708  27.894  23.742  1.00  0.00     0.164 HD
ATOM     14  O   UNL A   1      32.488  26.968  21.988  1.00  0.00    -0.269 OA
BRANCH  12  15
ATOM     15  C   UNL A   1      30.444  27.300  23.145  1.00  0.00     0.049 A 
ATOM     16  C   UNL A   1      29.765  26.297  23.824  1.00  0.00     0.014 A 
ATOM     17  C   UNL A   1      29.666  28.442  22.763  1.00  0.00     0.013 A 
ATOM     18  C   UNL A   1      28.398  26.292  24.058  1.00  0.00     0.003 A 
ATOM     19  C   UNL A   1      28.266  28.454  23.045  1.00  0.00     0.071 A 
ATOM     20  C   UNL A   1      30.148  29.624  22.153  1.00  0.00     0.013 A 
ATOM     21  C   UNL A   1      27.660  27.378  23.655  1.00  0.00     0.029 A 
ATOM     22  N   UNL A   1      27.449  29.484  22.796  1.00  0.00    -0.256 NA
ATOM     23  C   UNL A   1      29.303  30.708  21.909  1.00  0.00     0.021 A 
ATOM     24  C   UNL A   1      27.974  30.591  22.250  1.00  0.00     0.112 A 
ENDBRANCH  12  15
ENDBRANCH   7  11
ENDBRANCH   4   7
ENDBRANCH   2   3
ENDBRANCH   1   2
BRANCH   1  25
ATOM     25  C   UNL A   1      36.978  23.708  24.795  1.00  0.00     0.118 C 
BRANCH  25  26
ATOM     26  N   UNL A   1      37.864  22.679  25.291  1.00  0.00    -0.352 N 
ATOM     27  C   UNL A   1      38.926  22.775  26.157  1.00  0.00     0.251 C 
ATOM     28  H   UNL A   1      37.678  21.771  24.957  1.00  0.00     0.163 HD
ATOM     29  O   UNL A   1      39.567  21.766  26.431  1.00  0.00    -0.269 OA
BRANCH  27  30
ATOM     30  C   UNL A   1      39.340  24.077  26.737  1.00  0.00     0.039 A 
ATOM     31  C   UNL A   1      38.926  24.363  28.042  1.00  0.00     0.014 A 
ATOM     32  C   UNL A   1      40.062  25.032  26.016  1.00  0.00     0.014 A 
ATOM     33  C   UNL A   1      39.269  25.581  28.638  1.00  0.00     0.010 A 
ATOM     34  C   UNL A   1      40.446  26.232  26.630  1.00  0.00     0.010 A 
ATOM     35  C   UNL A   1      40.053  26.520  27.948  1.00  0.00    -0.014 A 
BRANCH  35  36
ATOM     36  C   UNL A   1      40.467  27.786  28.615  1.00  0.00     0.031 A 
ATOM     37  C   UNL A   1      41.871  27.971  29.128  1.00  0.00     0.074 A 
ATOM     38  C   UNL A   1      39.571  28.782  28.769  1.00  0.00     0.049 A 
ATOM     39  N   UNL A   1      42.406  29.015  29.713  1.00  0.00    -0.248 NA
ATOM     40  C   UNL A   1      42.789  26.834  28.975  1.00  0.00     0.031 C 
ATOM     41  C   UNL A   1      38.173  28.735  28.337  1.00  0.00     0.029 A 
ATOM     42  N   UNL A   1      39.704  30.032  29.325  1.00  0.00    -0.354 N 
ATOM     43  C   UNL A   1      43.718  28.660  30.001  1.00  0.00     0.074 A 
ATOM     44  C   UNL A   1      43.885  27.289  29.569  1.00  0.00     0.031 C 
ATOM     45  C   UNL A   1      37.586  29.909  28.617  1.00  0.00     0.029 A 
ATOM     46  C   UNL A   1      38.550  30.778  29.286  1.00  0.00     0.049 A 
ATOM     47  H   UNL A   1      40.545  30.361  29.715  1.00  0.00     0.167 HD
ATOM     48  C   UNL A   1      44.701  29.408  30.562  1.00  0.00     0.031 A 
ATOM     49  C   UNL A   1      38.289  32.019  29.741  1.00  0.00     0.031 A 
ATOM     50  C   UNL A   1      44.538  30.770  31.004  1.00  0.00     0.049 A 
ATOM     51  C   UNL A   1      39.384  32.811  30.401  1.00  0.00     0.074 A 
ATOM     52  C   UNL A   1      45.490  31.618  31.545  1.00  0.00     0.029 A 
ATOM     53  N   UNL A   1      43.347  31.477  30.970  1.00  0.00    -0.354 N 
ATOM     54  N   UNL A   1      40.637  32.483  30.602  1.00  0.00    -0.248 NA
ATOM     55  C   UNL A   1      39.030  34.153  30.888  1.00  0.00     0.031 C 
ATOM     56  C   UNL A   1      44.860  32.817  31.897  1.00  0.00     0.029 A 
ATOM     57  C   UNL A   1      43.533  32.741  31.511  1.00  0.00     0.049 A 
ATOM     58  H   UNL A   1      42.496  31.133  30.615  1.00  0.00     0.167 HD
ATOM     59  C   UNL A   1      41.226  33.586  31.209  1.00  0.00     0.074 A 
ATOM     60  C   UNL A   1      40.199  34.599  31.326  1.00  0.00     0.031 C 
ATOM     61  C   UNL A   1      42.505  33.744  31.627  1.00  0.00     0.031 A 
BRANCH  48  62
ATOM     62  C   UNL A   1      46.047  28.760  30.748  1.00  0.00    -0.014 A 
ATOM     63  C   UNL A   1      47.042  28.848  29.761  1.00  0.00     0.009 A 
ATOM     64  C   UNL A   1      46.341  28.093  31.947  1.00  0.00     0.009 A 
ATOM     65  C   UNL A   1      48.289  28.248  29.957  1.00  0.00     0.001 A 
ATOM     66  C   UNL A   1      47.600  27.522  32.153  1.00  0.00     0.001 A 
ATOM     67  C   UNL A   1      48.568  27.590  31.153  1.00  0.00     0.000 A 
ENDBRANCH  48  62
BRANCH  49  68
ATOM     68  C   UNL A   1      36.927  32.598  29.589  1.00  0.00    -0.014 A 
ATOM     69  C   UNL A   1      36.556  33.256  28.406  1.00  0.00     0.009 A 
ATOM     70  C   UNL A   1      35.995  32.512  30.636  1.00  0.00     0.009 A 
ATOM     71  C   UNL A   1      35.293  33.840  28.286  1.00  0.00     0.001 A 
ATOM     72  C   UNL A   1      34.722  33.068  30.501  1.00  0.00     0.001 A 
ATOM     73  C   UNL A   1      34.376  33.741  29.331  1.00  0.00     0.000 A 
ENDBRANCH  49  68
BRANCH  61  74
ATOM     74  C   UNL A   1      42.880  35.076  32.219  1.00  0.00    -0.014 A 
ATOM     75  C   UNL A   1      43.491  36.077  31.449  1.00  0.00     0.009 A 
ATOM     76  C   UNL A   1      42.585  35.344  33.566  1.00  0.00     0.009 A 
ATOM     77  C   UNL A   1      43.831  37.304  32.023  1.00  0.00     0.001 A 
ATOM     78  C   UNL A   1      42.894  36.582  34.129  1.00  0.00     0.001 A 
ATOM     79  C   UNL A   1      43.527  37.557  33.361  1.00  0.00     0.000 A 
ENDBRANCH  61  74
ENDBRANCH  35  36
ENDBRANCH  27  30
ENDBRANCH  25  26
ENDBRANCH   1  25
TORSDOF 13
ENDMDL
