MODEL 1
REMARK VINA RESULT:     -11.1      0.000      0.000
REMARK SMILES O=C(NCCCNC(=O)[C@@H]1C[C@@H]1c1cccc(F)c1)c1ccc(-c2c3nc(c(-c4ccccc4)c4ccc([nH]4)c(-c4ccccc4)c4nc(c(-c5ccccc5)c5ccc2[nH]5)C=C4)C=C3)cc1
REMARK SMILES IDX 4 1 3 2 1 3 2 4 20 6 21 7 67 8 22 9 66 10 23 11 24 12 25 13
REMARK SMILES IDX 60 14 26 15 65 16 59 17 61 18 27 19 64 20 58 21 57 22 28 24
REMARK SMILES IDX 50 25 35 26 49 27 36 28 39 29 48 30 62 31 37 32 38 33 47 35
REMARK SMILES IDX 63 36 40 37 29 38 30 39 34 40 31 41 33 42 32 43 51 44 52 45
REMARK SMILES IDX 56 46 53 47 55 48 54 49 41 50 42 51 46 52 43 53 45 54 44 55
REMARK SMILES IDX 5 56 6 57 7 58 8 59 9 61 10 62 11 63 12 64 13 65 14 66 19 67
REMARK SMILES IDX 15 68 17 69 16 70 18 71
REMARK H PARENT 3 5 61 23 39 34 7 60
REMARK Flexibility Score: inf
ROOT
ATOM      1  C   UNL A   1      38.678  20.465  25.800  1.00  0.00     0.118 C 
ENDROOT
BRANCH   1   2
ATOM      2  N   UNL A   1      39.774  19.506  25.746  1.00  0.00    -0.352 N 
ATOM      3  O   UNL A   1      41.896  18.751  25.779  1.00  0.00    -0.269 OA
ATOM      4  C   UNL A   1      41.111  19.660  26.030  1.00  0.00     0.251 C 
ATOM      5  H   UNL A   1      39.516  18.600  25.460  1.00  0.00     0.163 HD
BRANCH   4   6
ATOM      6  C   UNL A   1      41.616  20.928  26.604  1.00  0.00     0.039 A 
ATOM      7  C   UNL A   1      41.654  21.129  27.983  1.00  0.00     0.014 A 
ATOM      8  C   UNL A   1      42.063  21.935  25.742  1.00  0.00     0.014 A 
ATOM      9  C   UNL A   1      41.945  22.391  28.489  1.00  0.00     0.010 A 
ATOM     10  C   UNL A   1      42.458  23.171  26.261  1.00  0.00     0.010 A 
ATOM     11  C   UNL A   1      42.351  23.429  27.635  1.00  0.00    -0.014 A 
BRANCH  11  12
ATOM     12  C   UNL A   1      42.668  24.763  28.213  1.00  0.00     0.031 A 
ATOM     13  C   UNL A   1      44.085  25.152  28.541  1.00  0.00     0.074 A 
ATOM     14  C   UNL A   1      41.670  25.652  28.391  1.00  0.00     0.049 A 
ATOM     15  N   UNL A   1      44.543  26.300  28.982  1.00  0.00    -0.248 NA
ATOM     16  C   UNL A   1      45.123  24.126  28.363  1.00  0.00     0.031 C 
ATOM     17  C   UNL A   1      40.254  25.399  28.114  1.00  0.00     0.029 A 
ATOM     18  N   UNL A   1      41.696  26.954  28.820  1.00  0.00    -0.354 N 
ATOM     19  C   UNL A   1      45.911  26.124  29.154  1.00  0.00     0.074 A 
ATOM     20  C   UNL A   1      46.206  24.753  28.801  1.00  0.00     0.031 C 
ATOM     21  C   UNL A   1      39.559  26.526  28.317  1.00  0.00     0.029 A 
ATOM     22  C   UNL A   1      40.464  27.561  28.803  1.00  0.00     0.049 A 
ATOM     23  H   UNL A   1      42.518  27.411  29.111  1.00  0.00     0.167 HD
ATOM     24  C   UNL A   1      46.839  27.025  29.563  1.00  0.00     0.031 A 
ATOM     25  C   UNL A   1      40.096  28.809  29.146  1.00  0.00     0.031 A 
ATOM     26  C   UNL A   1      46.547  28.390  29.915  1.00  0.00     0.049 A 
ATOM     27  C   UNL A   1      41.140  29.773  29.629  1.00  0.00     0.074 A 
ATOM     28  C   UNL A   1      47.426  29.387  30.303  1.00  0.00     0.029 A 
ATOM     29  N   UNL A   1      45.278  28.950  29.929  1.00  0.00    -0.354 N 
ATOM     30  N   UNL A   1      42.435  29.603  29.739  1.00  0.00    -0.248 NA
ATOM     31  C   UNL A   1      40.670  31.107  30.025  1.00  0.00     0.031 C 
ATOM     32  C   UNL A   1      46.683  30.530  30.613  1.00  0.00     0.029 A 
ATOM     33  C   UNL A   1      45.348  30.269  30.347  1.00  0.00     0.049 A 
ATOM     34  H   UNL A   1      44.450  28.480  29.678  1.00  0.00     0.167 HD
ATOM     35  C   UNL A   1      42.938  30.818  30.187  1.00  0.00     0.074 A 
ATOM     36  C   UNL A   1      41.810  31.719  30.308  1.00  0.00     0.031 C 
ATOM     37  C   UNL A   1      44.221  31.157  30.466  1.00  0.00     0.031 A 
BRANCH  24  38
ATOM     38  C   UNL A   1      48.263  26.549  29.689  1.00  0.00    -0.014 A 
ATOM     39  C   UNL A   1      49.189  26.709  28.645  1.00  0.00     0.009 A 
ATOM     40  C   UNL A   1      48.697  25.968  30.893  1.00  0.00     0.009 A 
ATOM     41  C   UNL A   1      50.505  26.263  28.790  1.00  0.00     0.001 A 
ATOM     42  C   UNL A   1      50.021  25.553  31.047  1.00  0.00     0.001 A 
ATOM     43  C   UNL A   1      50.921  25.690  29.992  1.00  0.00     0.000 A 
ENDBRANCH  24  38
BRANCH  25  44
ATOM     44  C   UNL A   1      38.671  29.219  29.045  1.00  0.00    -0.014 A 
ATOM     45  C   UNL A   1      38.150  29.705  27.837  1.00  0.00     0.009 A 
ATOM     46  C   UNL A   1      37.824  29.131  30.161  1.00  0.00     0.009 A 
ATOM     47  C   UNL A   1      36.820  30.124  27.757  1.00  0.00     0.001 A 
ATOM     48  C   UNL A   1      36.485  29.516  30.069  1.00  0.00     0.001 A 
ATOM     49  C   UNL A   1      35.988  30.023  28.871  1.00  0.00     0.000 A 
ENDBRANCH  25  44
BRANCH  37  50
ATOM     50  C   UNL A   1      44.477  32.581  30.877  1.00  0.00    -0.014 A 
ATOM     51  C   UNL A   1      44.473  32.971  32.227  1.00  0.00     0.009 A 
ATOM     52  C   UNL A   1      44.745  33.545  29.894  1.00  0.00     0.009 A 
ATOM     53  C   UNL A   1      44.684  34.307  32.576  1.00  0.00     0.001 A 
ATOM     54  C   UNL A   1      44.991  34.873  30.248  1.00  0.00     0.001 A 
ATOM     55  C   UNL A   1      44.946  35.255  31.587  1.00  0.00     0.000 A 
ENDBRANCH  37  50
ENDBRANCH  11  12
ENDBRANCH   4   6
ENDBRANCH   1   2
BRANCH   1  56
ATOM     56  C   UNL A   1      37.602  20.209  24.748  1.00  0.00     0.042 C 
BRANCH  56  57
ATOM     57  C   UNL A   1      36.453  21.209  24.790  1.00  0.00     0.117 C 
BRANCH  57  58
ATOM     58  N   UNL A   1      35.648  21.039  25.986  1.00  0.00    -0.356 N 
ATOM     59  C   UNL A   1      34.288  21.088  26.118  1.00  0.00     0.223 C 
ATOM     60  H   UNL A   1      36.150  20.863  26.815  1.00  0.00     0.163 HD
ATOM     61  O   UNL A   1      33.772  21.026  27.229  1.00  0.00    -0.275 OA
BRANCH  59  62
ATOM     62  C   UNL A   1      33.468  21.195  24.886  1.00  0.00     0.086 C 
ATOM     63  C   UNL A   1      32.036  20.728  24.876  1.00  0.00     0.023 C 
ATOM     64  C   UNL A   1      33.074  19.952  24.100  1.00  0.00     0.032 C 
BRANCH  64  65
ATOM     65  C   UNL A   1      33.435  18.552  24.553  1.00  0.00    -0.041 A 
ATOM     66  C   UNL A   1      34.700  18.000  24.276  1.00  0.00     0.004 A 
ATOM     67  C   UNL A   1      32.541  17.759  25.289  1.00  0.00     0.043 A 
ATOM     68  C   UNL A   1      35.046  16.705  24.681  1.00  0.00     0.003 A 
ATOM     69  C   UNL A   1      32.883  16.467  25.682  1.00  0.00     0.123 A 
ATOM     70  C   UNL A   1      34.128  15.932  25.382  1.00  0.00     0.039 A 
ATOM     71  F   UNL A   1      31.994  15.731  26.363  1.00  0.00    -0.207 F 
ENDBRANCH  64  65
ENDBRANCH  59  62
ENDBRANCH  57  58
ENDBRANCH  56  57
ENDBRANCH   1  56
TORSDOF 11
ENDMDL
MODEL 2
REMARK VINA RESULT:     -10.9      5.945     10.524
REMARK SMILES O=C(NCCCNC(=O)[C@@H]1C[C@@H]1c1cccc(F)c1)c1ccc(-c2c3nc(c(-c4ccccc4)c4ccc([nH]4)c(-c4ccccc4)c4nc(c(-c5ccccc5)c5ccc2[nH]5)C=C4)C=C3)cc1
REMARK SMILES IDX 4 1 3 2 1 3 2 4 20 6 21 7 67 8 22 9 66 10 23 11 24 12 25 13
REMARK SMILES IDX 60 14 26 15 65 16 59 17 61 18 27 19 64 20 58 21 57 22 28 24
REMARK SMILES IDX 50 25 35 26 49 27 36 28 39 29 48 30 62 31 37 32 38 33 47 35
REMARK SMILES IDX 63 36 40 37 29 38 30 39 34 40 31 41 33 42 32 43 51 44 52 45
REMARK SMILES IDX 56 46 53 47 55 48 54 49 41 50 42 51 46 52 43 53 45 54 44 55
REMARK SMILES IDX 5 56 6 57 7 58 8 59 9 61 10 62 11 63 12 64 13 65 14 66 19 67
REMARK SMILES IDX 15 68 17 69 16 70 18 71
REMARK H PARENT 3 5 61 23 39 34 7 60
REMARK Flexibility Score: inf
ROOT
ATOM      1  C   UNL A   1      32.645  32.318  27.097  1.00  0.00     0.118 C 
ENDROOT
BRANCH   1   2
ATOM      2  N   UNL A   1      32.394  33.681  27.548  1.00  0.00    -0.352 N 
ATOM      3  O   UNL A   1      32.621  35.549  28.786  1.00  0.00    -0.269 OA
ATOM      4  C   UNL A   1      33.089  34.470  28.435  1.00  0.00     0.251 C 
ATOM      5  H   UNL A   1      31.600  34.107  27.153  1.00  0.00     0.163 HD
BRANCH   4   6
ATOM      6  C   UNL A   1      34.379  34.012  28.997  1.00  0.00     0.039 A 
ATOM      7  C   UNL A   1      35.585  34.300  28.360  1.00  0.00     0.014 A 
ATOM      8  C   UNL A   1      34.381  33.282  30.190  1.00  0.00     0.014 A 
ATOM      9  C   UNL A   1      36.759  33.697  28.797  1.00  0.00     0.010 A 
ATOM     10  C   UNL A   1      35.580  32.764  30.689  1.00  0.00     0.010 A 
ATOM     11  C   UNL A   1      36.772  32.921  29.967  1.00  0.00    -0.014 A 
BRANCH  11  12
ATOM     12  C   UNL A   1      38.049  32.301  30.414  1.00  0.00     0.031 A 
ATOM     13  C   UNL A   1      38.845  32.889  31.550  1.00  0.00     0.074 A 
ATOM     14  C   UNL A   1      38.467  31.165  29.822  1.00  0.00     0.049 A 
ATOM     15  N   UNL A   1      39.939  32.435  32.111  1.00  0.00    -0.248 NA
ATOM     16  C   UNL A   1      38.360  34.152  32.127  1.00  0.00     0.031 C 
ATOM     17  C   UNL A   1      37.788  30.494  28.710  1.00  0.00     0.029 A 
ATOM     18  N   UNL A   1      39.542  30.357  30.090  1.00  0.00    -0.354 N 
ATOM     19  C   UNL A   1      40.283  33.364  33.086  1.00  0.00     0.074 A 
ATOM     20  C   UNL A   1      39.301  34.423  33.021  1.00  0.00     0.031 C 
ATOM     21  C   UNL A   1      38.426  29.347  28.434  1.00  0.00     0.029 A 
ATOM     22  C   UNL A   1      39.593  29.234  29.301  1.00  0.00     0.049 A 
ATOM     23  H   UNL A   1      40.213  30.562  30.780  1.00  0.00     0.167 HD
ATOM     24  C   UNL A   1      41.319  33.335  33.961  1.00  0.00     0.031 A 
ATOM     25  C   UNL A   1      40.483  28.224  29.269  1.00  0.00     0.031 A 
ATOM     26  C   UNL A   1      42.298  32.281  34.026  1.00  0.00     0.049 A 
ATOM     27  C   UNL A   1      41.639  28.238  30.226  1.00  0.00     0.074 A 
ATOM     28  C   UNL A   1      43.361  32.144  34.904  1.00  0.00     0.029 A 
ATOM     29  N   UNL A   1      42.339  31.185  33.177  1.00  0.00    -0.354 N 
ATOM     30  N   UNL A   1      41.920  29.100  31.172  1.00  0.00    -0.248 NA
ATOM     31  C   UNL A   1      42.596  27.128  30.114  1.00  0.00     0.031 C 
ATOM     32  C   UNL A   1      44.081  31.001  34.545  1.00  0.00     0.029 A 
ATOM     33  C   UNL A   1      43.426  30.384  33.491  1.00  0.00     0.049 A 
ATOM     34  H   UNL A   1      41.692  31.002  32.458  1.00  0.00     0.167 HD
ATOM     35  C   UNL A   1      43.068  28.621  31.790  1.00  0.00     0.074 A 
ATOM     36  C   UNL A   1      43.417  27.383  31.122  1.00  0.00     0.031 C 
ATOM     37  C   UNL A   1      43.766  29.155  32.821  1.00  0.00     0.031 A 
BRANCH  24  38
ATOM     38  C   UNL A   1      41.471  34.503  34.900  1.00  0.00    -0.014 A 
ATOM     39  C   UNL A   1      42.218  35.639  34.547  1.00  0.00     0.009 A 
ATOM     40  C   UNL A   1      40.819  34.483  36.144  1.00  0.00     0.009 A 
ATOM     41  C   UNL A   1      42.339  36.711  35.435  1.00  0.00     0.001 A 
ATOM     42  C   UNL A   1      40.915  35.569  37.016  1.00  0.00     0.001 A 
ATOM     43  C   UNL A   1      41.684  36.677  36.666  1.00  0.00     0.000 A 
ENDBRANCH  24  38
BRANCH  25  44
ATOM     44  C   UNL A   1      40.313  27.115  28.294  1.00  0.00    -0.014 A 
ATOM     45  C   UNL A   1      40.898  27.186  27.021  1.00  0.00     0.009 A 
ATOM     46  C   UNL A   1      39.558  25.981  28.632  1.00  0.00     0.009 A 
ATOM     47  C   UNL A   1      40.704  26.157  26.096  1.00  0.00     0.001 A 
ATOM     48  C   UNL A   1      39.397  24.937  27.717  1.00  0.00     0.001 A 
ATOM     49  C   UNL A   1      39.960  25.032  26.447  1.00  0.00     0.000 A 
ENDBRANCH  25  44
BRANCH  37  50
ATOM     50  C   UNL A   1      44.947  28.373  33.327  1.00  0.00    -0.014 A 
ATOM     51  C   UNL A   1      44.810  27.392  34.323  1.00  0.00     0.009 A 
ATOM     52  C   UNL A   1      46.217  28.613  32.782  1.00  0.00     0.009 A 
ATOM     53  C   UNL A   1      45.931  26.704  34.795  1.00  0.00     0.001 A 
ATOM     54  C   UNL A   1      47.330  27.899  33.230  1.00  0.00     0.001 A 
ATOM     55  C   UNL A   1      47.187  26.955  34.245  1.00  0.00     0.000 A 
ENDBRANCH  37  50
ENDBRANCH  11  12
ENDBRANCH   4   6
ENDBRANCH   1   2
BRANCH   1  56
ATOM     56  C   UNL A   1      31.431  31.670  26.436  1.00  0.00     0.042 C 
BRANCH  56  57
ATOM     57  C   UNL A   1      31.645  30.209  26.060  1.00  0.00     0.117 C 
BRANCH  57  58
ATOM     58  N   UNL A   1      32.074  30.076  24.680  1.00  0.00    -0.356 N 
ATOM     59  C   UNL A   1      31.619  29.217  23.720  1.00  0.00     0.223 C 
ATOM     60  H   UNL A   1      32.790  30.690  24.397  1.00  0.00     0.163 HD
ATOM     61  O   UNL A   1      32.170  29.165  22.625  1.00  0.00    -0.275 OA
BRANCH  59  62
ATOM     62  C   UNL A   1      30.440  28.374  24.035  1.00  0.00     0.086 C 
ATOM     63  C   UNL A   1      29.678  27.679  22.936  1.00  0.00     0.023 C 
ATOM     64  C   UNL A   1      29.034  28.832  23.671  1.00  0.00     0.032 C 
BRANCH  64  65
ATOM     65  C   UNL A   1      28.765  30.122  22.923  1.00  0.00    -0.041 A 
ATOM     66  C   UNL A   1      28.350  30.111  21.578  1.00  0.00     0.004 A 
ATOM     67  C   UNL A   1      28.889  31.375  23.542  1.00  0.00     0.043 A 
ATOM     68  C   UNL A   1      28.105  31.294  20.871  1.00  0.00     0.003 A 
ATOM     69  C   UNL A   1      28.655  32.552  22.834  1.00  0.00     0.123 A 
ATOM     70  C   UNL A   1      28.266  32.522  21.502  1.00  0.00     0.039 A 
ATOM     71  F   UNL A   1      28.807  33.731  23.452  1.00  0.00    -0.207 F 
ENDBRANCH  64  65
ENDBRANCH  59  62
ENDBRANCH  57  58
ENDBRANCH  56  57
ENDBRANCH   1  56
TORSDOF 11
ENDMDL
MODEL 3
REMARK VINA RESULT:     -10.9      0.434      6.282
REMARK SMILES O=C(NCCCNC(=O)[C@@H]1C[C@@H]1c1cccc(F)c1)c1ccc(-c2c3nc(c(-c4ccccc4)c4ccc([nH]4)c(-c4ccccc4)c4nc(c(-c5ccccc5)c5ccc2[nH]5)C=C4)C=C3)cc1
REMARK SMILES IDX 4 1 3 2 1 3 2 4 20 6 21 7 67 8 22 9 66 10 23 11 24 12 25 13
REMARK SMILES IDX 60 14 26 15 65 16 59 17 61 18 27 19 64 20 58 21 57 22 28 24
REMARK SMILES IDX 50 25 35 26 49 27 36 28 39 29 48 30 62 31 37 32 38 33 47 35
REMARK SMILES IDX 63 36 40 37 29 38 30 39 34 40 31 41 33 42 32 43 51 44 52 45
REMARK SMILES IDX 56 46 53 47 55 48 54 49 41 50 42 51 46 52 43 53 45 54 44 55
REMARK SMILES IDX 5 56 6 57 7 58 8 59 9 61 10 62 11 63 12 64 13 65 14 66 19 67
REMARK SMILES IDX 15 68 17 69 16 70 18 71
REMARK H PARENT 3 5 61 23 39 34 7 60
REMARK Flexibility Score: inf
ROOT
ATOM      1  C   UNL A   1      38.844  20.491  25.751  1.00  0.00     0.118 C 
ENDROOT
BRANCH   1   2
ATOM      2  N   UNL A   1      39.899  19.488  25.818  1.00  0.00    -0.352 N 
ATOM      3  O   UNL A   1      41.985  18.655  25.982  1.00  0.00    -0.269 OA
ATOM      4  C   UNL A   1      41.233  19.614  26.126  1.00  0.00     0.251 C 
ATOM      5  H   UNL A   1      39.610  18.571  25.608  1.00  0.00     0.163 HD
BRANCH   4   6
ATOM      6  C   UNL A   1      41.777  20.908  26.596  1.00  0.00     0.039 A 
ATOM      7  C   UNL A   1      41.810  21.224  27.953  1.00  0.00     0.014 A 
ATOM      8  C   UNL A   1      42.266  21.822  25.657  1.00  0.00     0.014 A 
ATOM      9  C   UNL A   1      42.140  22.514  28.354  1.00  0.00     0.010 A 
ATOM     10  C   UNL A   1      42.699  23.085  26.074  1.00  0.00     0.010 A 
ATOM     11  C   UNL A   1      42.589  23.462  27.420  1.00  0.00    -0.014 A 
BRANCH  11  12
ATOM     12  C   UNL A   1      42.947  24.829  27.886  1.00  0.00     0.031 A 
ATOM     13  C   UNL A   1      41.884  25.858  28.170  1.00  0.00     0.074 A 
ATOM     14  C   UNL A   1      44.243  25.127  28.106  1.00  0.00     0.049 A 
ATOM     15  N   UNL A   1      42.019  27.071  28.650  1.00  0.00    -0.248 NA
ATOM     16  C   UNL A   1      40.492  25.487  27.873  1.00  0.00     0.031 C 
ATOM     17  C   UNL A   1      45.369  24.220  27.868  1.00  0.00     0.029 A 
ATOM     18  N   UNL A   1      44.830  26.260  28.604  1.00  0.00    -0.354 N 
ATOM     19  C   UNL A   1      40.739  27.612  28.689  1.00  0.00     0.074 A 
ATOM     20  C   UNL A   1      39.844  26.609  28.156  1.00  0.00     0.031 C 
ATOM     21  C   UNL A   1      46.501  24.808  28.281  1.00  0.00     0.029 A 
ATOM     22  C   UNL A   1      46.192  26.155  28.747  1.00  0.00     0.049 A 
ATOM     23  H   UNL A   1      44.325  27.073  28.838  1.00  0.00     0.167 HD
ATOM     24  C   UNL A   1      40.344  28.830  29.134  1.00  0.00     0.031 A 
ATOM     25  C   UNL A   1      47.099  27.042  29.196  1.00  0.00     0.031 A 
ATOM     26  C   UNL A   1      41.234  29.829  29.665  1.00  0.00     0.049 A 
ATOM     27  C   UNL A   1      46.635  28.396  29.649  1.00  0.00     0.074 A 
ATOM     28  C   UNL A   1      40.922  31.078  30.176  1.00  0.00     0.029 A 
ATOM     29  N   UNL A   1      42.612  29.698  29.748  1.00  0.00    -0.354 N 
ATOM     30  N   UNL A   1      45.416  28.871  29.722  1.00  0.00    -0.248 NA
ATOM     31  C   UNL A   1      47.677  29.333  30.090  1.00  0.00     0.031 C 
ATOM     32  C   UNL A   1      42.116  31.727  30.508  1.00  0.00     0.029 A 
ATOM     33  C   UNL A   1      43.167  30.855  30.273  1.00  0.00     0.049 A 
ATOM     34  H   UNL A   1      43.122  28.902  29.474  1.00  0.00     0.167 HD
ATOM     35  C   UNL A   1      45.541  30.151  30.249  1.00  0.00     0.074 A 
ATOM     36  C   UNL A   1      46.953  30.366  30.493  1.00  0.00     0.031 C 
ATOM     37  C   UNL A   1      44.572  31.061  30.511  1.00  0.00     0.031 A 
BRANCH  24  38
ATOM     38  C   UNL A   1      38.880  29.168  29.030  1.00  0.00    -0.014 A 
ATOM     39  C   UNL A   1      38.006  29.002  30.117  1.00  0.00     0.009 A 
ATOM     40  C   UNL A   1      38.374  29.704  27.834  1.00  0.00     0.009 A 
ATOM     41  C   UNL A   1      36.653  29.328  29.995  1.00  0.00     0.001 A 
ATOM     42  C   UNL A   1      37.028  30.059  27.724  1.00  0.00     0.001 A 
ATOM     43  C   UNL A   1      36.166  29.861  28.801  1.00  0.00     0.000 A 
ENDBRANCH  24  38
BRANCH  25  44
ATOM     44  C   UNL A   1      48.539  26.677  29.239  1.00  0.00    -0.014 A 
ATOM     45  C   UNL A   1      49.085  26.053  30.371  1.00  0.00     0.009 A 
ATOM     46  C   UNL A   1      49.377  26.958  28.149  1.00  0.00     0.009 A 
ATOM     47  C   UNL A   1      50.447  25.746  30.421  1.00  0.00     0.001 A 
ATOM     48  C   UNL A   1      50.731  26.617  28.188  1.00  0.00     0.001 A 
ATOM     49  C   UNL A   1      51.267  26.022  29.328  1.00  0.00     0.000 A 
ENDBRANCH  25  44
BRANCH  37  50
ATOM     50  C   UNL A   1      45.003  32.355  31.146  1.00  0.00    -0.014 A 
ATOM     51  C   UNL A   1      45.087  32.501  32.541  1.00  0.00     0.009 A 
ATOM     52  C   UNL A   1      45.348  33.442  30.329  1.00  0.00     0.009 A 
ATOM     53  C   UNL A   1      45.460  33.725  33.101  1.00  0.00     0.001 A 
ATOM     54  C   UNL A   1      45.755  34.654  30.891  1.00  0.00     0.001 A 
ATOM     55  C   UNL A   1      45.798  34.797  32.276  1.00  0.00     0.000 A 
ENDBRANCH  37  50
ENDBRANCH  11  12
ENDBRANCH   4   6
ENDBRANCH   1   2
BRANCH   1  56
ATOM     56  C   UNL A   1      37.675  20.077  24.861  1.00  0.00     0.042 C 
BRANCH  56  57
ATOM     57  C   UNL A   1      36.551  21.105  24.808  1.00  0.00     0.117 C 
BRANCH  57  58
ATOM     58  N   UNL A   1      35.666  20.979  25.950  1.00  0.00    -0.356 N 
ATOM     59  C   UNL A   1      34.302  21.052  25.990  1.00  0.00     0.223 C 
ATOM     60  H   UNL A   1      36.109  20.818  26.815  1.00  0.00     0.163 HD
ATOM     61  O   UNL A   1      33.712  21.029  27.065  1.00  0.00    -0.275 OA
BRANCH  59  62
ATOM     62  C   UNL A   1      33.567  21.139  24.704  1.00  0.00     0.086 C 
ATOM     63  C   UNL A   1      32.130  20.694  24.610  1.00  0.00     0.023 C 
ATOM     64  C   UNL A   1      33.205  19.881  23.926  1.00  0.00     0.032 C 
BRANCH  64  65
ATOM     65  C   UNL A   1      33.511  18.489  24.438  1.00  0.00    -0.041 A 
ATOM     66  C   UNL A   1      34.778  17.906  24.251  1.00  0.00     0.004 A 
ATOM     67  C   UNL A   1      32.559  17.734  25.141  1.00  0.00     0.043 A 
ATOM     68  C   UNL A   1      35.074  16.618  24.711  1.00  0.00     0.003 A 
ATOM     69  C   UNL A   1      32.852  16.448  25.590  1.00  0.00     0.123 A 
ATOM     70  C   UNL A   1      34.102  15.882  25.379  1.00  0.00     0.039 A 
ATOM     71  F   UNL A   1      31.911  15.748  26.236  1.00  0.00    -0.207 F 
ENDBRANCH  64  65
ENDBRANCH  59  62
ENDBRANCH  57  58
ENDBRANCH  56  57
ENDBRANCH   1  56
TORSDOF 11
ENDMDL
