MODEL 1
REMARK VINA RESULT:     -13.0      0.000      0.000
REMARK SMILES Cc1cccc2c1[C@H]1c3c(C)cccc3[C@H](CC(=O)NCCCNC(=O)c3ccc(-c4c5nc(c(-c6ccccc6)c6ccc([nH]6)c(-c6ccccc6)c6nc(c(-c7ccccc7)c7ccc4[nH]7)C=C6)C=C5)cc3)C[C@H]1CC2
REMARK SMILES IDX 22 1 21 2 20 3 18 4 19 5 17 7 16 8 1 9 2 10 3 11 7 12 4 13
REMARK SMILES IDX 6 14 8 15 5 16 78 17 9 18 76 19 77 20 10 21 15 22 75 23
REMARK SMILES IDX 12 24 11 25 14 26 13 27 23 28 24 29 25 30 26 32 27 33 28 34
REMARK SMILES IDX 74 35 29 36 73 37 30 38 31 39 32 40 67 41 33 42 72 43 66 44
REMARK SMILES IDX 68 45 34 46 71 47 65 48 64 49 35 51 57 52 42 53 56 54 43 55
REMARK SMILES IDX 46 56 55 57 69 58 44 59 45 60 54 62 70 63 47 64 36 65 37 66
REMARK SMILES IDX 41 67 38 68 40 69 39 70 58 71 59 72 63 73 60 74 62 75 61 76
REMARK SMILES IDX 48 77 49 78 53 79 50 80 52 81 51 82
REMARK H PARENT 20 6 24 31 68 50 46 61
REMARK Flexibility Score: inf
ROOT
ATOM      1  C   UNL A   1      38.252  19.895  24.911  1.00  0.00     0.042 C 
ENDROOT
BRANCH   1   2
ATOM      2  C   UNL A   1      37.389  21.137  24.702  1.00  0.00     0.117 C 
BRANCH   2   3
ATOM      3  N   UNL A   1      36.560  21.411  25.861  1.00  0.00    -0.356 N 
ATOM      4  C   UNL A   1      35.211  21.528  25.977  1.00  0.00     0.220 C 
ATOM      5  O   UNL A   1      34.755  21.910  27.055  1.00  0.00    -0.275 OA
ATOM      6  H   UNL A   1      37.057  21.532  26.702  1.00  0.00     0.163 HD
BRANCH   4   7
ATOM      7  C   UNL A   1      34.302  21.146  24.833  1.00  0.00     0.108 C 
BRANCH   7   8
ATOM      8  C   UNL A   1      33.590  22.298  24.094  1.00  0.00     0.029 C 
ATOM      9  C   UNL A   1      34.021  27.805  26.111  1.00  0.00     0.044 C 
ATOM     10  C   UNL A   1      33.140  27.826  24.887  1.00  0.00    -0.047 A 
ATOM     11  C   UNL A   1      32.563  29.066  24.552  1.00  0.00     0.004 A 
ATOM     12  C   UNL A   1      32.854  26.689  24.089  1.00  0.00    -0.034 A 
ATOM     13  C   UNL A   1      31.787  29.212  23.408  1.00  0.00     0.001 A 
ATOM     14  C   UNL A   1      32.185  26.884  22.856  1.00  0.00    -0.044 A 
ATOM     15  C   UNL A   1      33.279  25.273  24.482  1.00  0.00     0.053 C 
ATOM     16  C   UNL A   1      31.629  28.136  22.545  1.00  0.00     0.004 A 
ATOM     17  C   UNL A   1      32.162  25.831  21.771  1.00  0.00     0.036 C 
ATOM     18  C   UNL A   1      32.244  24.302  25.112  1.00  0.00    -0.034 A 
ATOM     19  C   UNL A   1      33.909  24.658  23.212  1.00  0.00     0.002 C 
ATOM     20  C   UNL A   1      32.849  24.507  22.106  1.00  0.00     0.009 C 
ATOM     21  C   UNL A   1      31.147  24.709  25.926  1.00  0.00    -0.047 A 
ATOM     22  C   UNL A   1      32.448  22.892  24.938  1.00  0.00    -0.040 A 
ATOM     23  C   UNL A   1      34.589  23.352  23.606  1.00  0.00     0.013 C 
ATOM     24  C   UNL A   1      30.295  23.744  26.504  1.00  0.00     0.004 A 
ATOM     25  C   UNL A   1      30.792  26.133  26.256  1.00  0.00     0.044 C 
ATOM     26  C   UNL A   1      31.533  21.972  25.497  1.00  0.00     0.004 A 
ATOM     27  C   UNL A   1      30.478  22.391  26.286  1.00  0.00     0.001 A 
ENDBRANCH   7   8
ENDBRANCH   4   7
ENDBRANCH   2   3
ENDBRANCH   1   2
BRANCH   1  28
ATOM     28  C   UNL A   1      39.230  20.015  26.076  1.00  0.00     0.118 C 
BRANCH  28  29
ATOM     29  N   UNL A   1      40.430  19.222  25.868  1.00  0.00    -0.352 N 
ATOM     30  C   UNL A   1      41.739  19.627  25.970  1.00  0.00     0.251 C 
ATOM     31  H   UNL A   1      40.288  18.278  25.625  1.00  0.00     0.163 HD
ATOM     32  O   UNL A   1      42.654  18.912  25.586  1.00  0.00    -0.269 OA
BRANCH  30  33
ATOM     33  C   UNL A   1      42.023  20.956  26.543  1.00  0.00     0.039 A 
ATOM     34  C   UNL A   1      42.317  22.016  25.684  1.00  0.00     0.014 A 
ATOM     35  C   UNL A   1      41.973  21.146  27.928  1.00  0.00     0.014 A 
ATOM     36  C   UNL A   1      42.535  23.286  26.218  1.00  0.00     0.010 A 
ATOM     37  C   UNL A   1      42.140  22.423  28.453  1.00  0.00     0.010 A 
ATOM     38  C   UNL A   1      42.440  23.496  27.603  1.00  0.00    -0.014 A 
BRANCH  38  39
ATOM     39  C   UNL A   1      42.722  24.831  28.177  1.00  0.00     0.031 A 
ATOM     40  C   UNL A   1      44.132  25.203  28.528  1.00  0.00     0.074 A 
ATOM     41  C   UNL A   1      41.719  25.704  28.379  1.00  0.00     0.049 A 
ATOM     42  N   UNL A   1      44.592  26.337  28.987  1.00  0.00    -0.248 NA
ATOM     43  C   UNL A   1      45.158  24.162  28.349  1.00  0.00     0.031 C 
ATOM     44  C   UNL A   1      40.304  25.447  28.102  1.00  0.00     0.029 A 
ATOM     45  N   UNL A   1      41.740  26.991  28.853  1.00  0.00    -0.354 N 
ATOM     46  C   UNL A   1      45.958  26.149  29.138  1.00  0.00     0.074 A 
ATOM     47  C   UNL A   1      46.245  24.776  28.786  1.00  0.00     0.031 C 
ATOM     48  C   UNL A   1      39.599  26.557  28.374  1.00  0.00     0.029 A 
ATOM     49  C   UNL A   1      40.507  27.594  28.859  1.00  0.00     0.049 A 
ATOM     50  H   UNL A   1      42.561  27.438  29.160  1.00  0.00     0.167 HD
ATOM     51  C   UNL A   1      46.899  27.049  29.505  1.00  0.00     0.031 A 
ATOM     52  C   UNL A   1      40.151  28.848  29.196  1.00  0.00     0.031 A 
ATOM     53  C   UNL A   1      46.618  28.412  29.856  1.00  0.00     0.049 A 
ATOM     54  C   UNL A   1      41.202  29.824  29.635  1.00  0.00     0.074 A 
ATOM     55  C   UNL A   1      47.508  29.407  30.220  1.00  0.00     0.029 A 
ATOM     56  N   UNL A   1      45.350  28.970  29.883  1.00  0.00    -0.354 N 
ATOM     57  N   UNL A   1      42.497  29.645  29.738  1.00  0.00    -0.248 NA
ATOM     58  C   UNL A   1      40.751  31.177  29.994  1.00  0.00     0.031 C 
ATOM     59  C   UNL A   1      46.772  30.561  30.500  1.00  0.00     0.029 A 
ATOM     60  C   UNL A   1      45.431  30.295  30.270  1.00  0.00     0.049 A 
ATOM     61  H   UNL A   1      44.517  28.495  29.660  1.00  0.00     0.167 HD
ATOM     62  C   UNL A   1      43.018  30.861  30.155  1.00  0.00     0.074 A 
ATOM     63  C   UNL A   1      41.901  31.775  30.286  1.00  0.00     0.031 C 
ATOM     64  C   UNL A   1      44.310  31.189  30.398  1.00  0.00     0.031 A 
BRANCH  51  65
ATOM     65  C   UNL A   1      48.323  26.582  29.521  1.00  0.00    -0.014 A 
ATOM     66  C   UNL A   1      49.140  26.744  28.390  1.00  0.00     0.009 A 
ATOM     67  C   UNL A   1      48.864  25.999  30.676  1.00  0.00     0.009 A 
ATOM     68  C   UNL A   1      50.463  26.304  28.406  1.00  0.00     0.001 A 
ATOM     69  C   UNL A   1      50.195  25.581  30.696  1.00  0.00     0.001 A 
ATOM     70  C   UNL A   1      50.991  25.726  29.560  1.00  0.00     0.000 A 
ENDBRANCH  51  65
BRANCH  52  71
ATOM     71  C   UNL A   1      38.728  29.247  29.063  1.00  0.00    -0.014 A 
ATOM     72  C   UNL A   1      38.235  29.686  27.826  1.00  0.00     0.009 A 
ATOM     73  C   UNL A   1      37.841  29.106  30.140  1.00  0.00     0.009 A 
ATOM     74  C   UNL A   1      36.877  29.971  27.668  1.00  0.00     0.001 A 
ATOM     75  C   UNL A   1      36.481  29.379  29.975  1.00  0.00     0.001 A 
ATOM     76  C   UNL A   1      36.000  29.810  28.740  1.00  0.00     0.000 A 
ENDBRANCH  52  71
BRANCH  64  77
ATOM     77  C   UNL A   1      44.616  32.594  30.825  1.00  0.00    -0.014 A 
ATOM     78  C   UNL A   1      44.747  32.915  32.183  1.00  0.00     0.009 A 
ATOM     79  C   UNL A   1      44.927  33.561  29.856  1.00  0.00     0.009 A 
ATOM     80  C   UNL A   1      45.192  34.182  32.564  1.00  0.00     0.001 A 
ATOM     81  C   UNL A   1      45.387  34.821  30.240  1.00  0.00     0.001 A 
ATOM     82  C   UNL A   1      45.521  35.130  31.594  1.00  0.00     0.000 A 
ENDBRANCH  64  77
ENDBRANCH  38  39
ENDBRANCH  30  33
ENDBRANCH  28  29
ENDBRANCH   1  28
TORSDOF 11
ENDMDL
MODEL 2
REMARK VINA RESULT:     -12.9      4.358      9.251
REMARK SMILES Cc1cccc2c1[C@H]1c3c(C)cccc3[C@H](CC(=O)NCCCNC(=O)c3ccc(-c4c5nc(c(-c6ccccc6)c6ccc([nH]6)c(-c6ccccc6)c6nc(c(-c7ccccc7)c7ccc4[nH]7)C=C6)C=C5)cc3)C[C@H]1CC2
REMARK SMILES IDX 22 1 21 2 20 3 18 4 19 5 17 7 16 8 1 9 2 10 3 11 7 12 4 13
REMARK SMILES IDX 6 14 8 15 5 16 78 17 9 18 76 19 77 20 10 21 15 22 75 23
REMARK SMILES IDX 12 24 11 25 14 26 13 27 23 28 24 29 25 30 26 32 27 33 28 34
REMARK SMILES IDX 74 35 29 36 73 37 30 38 31 39 32 40 67 41 33 42 72 43 66 44
REMARK SMILES IDX 68 45 34 46 71 47 65 48 64 49 35 51 57 52 42 53 56 54 43 55
REMARK SMILES IDX 46 56 55 57 69 58 44 59 45 60 54 62 70 63 47 64 36 65 37 66
REMARK SMILES IDX 41 67 38 68 40 69 39 70 58 71 59 72 63 73 60 74 62 75 61 76
REMARK SMILES IDX 48 77 49 78 53 79 50 80 52 81 51 82
REMARK H PARENT 20 6 24 31 68 50 46 61
REMARK Flexibility Score: inf
ROOT
ATOM      1  C   UNL A   1      31.465  32.042  26.876  1.00  0.00     0.042 C 
ENDROOT
BRANCH   1   2
ATOM      2  C   UNL A   1      31.765  30.546  26.836  1.00  0.00     0.117 C 
BRANCH   2   3
ATOM      3  N   UNL A   1      32.658  30.211  25.743  1.00  0.00    -0.356 N 
ATOM      4  C   UNL A   1      32.517  29.323  24.724  1.00  0.00     0.220 C 
ATOM      5  O   UNL A   1      33.489  29.118  23.997  1.00  0.00    -0.275 OA
ATOM      6  H   UNL A   1      33.507  30.709  25.739  1.00  0.00     0.163 HD
BRANCH   4   7
ATOM      7  C   UNL A   1      31.187  28.655  24.461  1.00  0.00     0.108 C 
BRANCH   7   8
ATOM      8  C   UNL A   1      31.106  27.137  24.729  1.00  0.00     0.029 C 
ATOM      9  C   UNL A   1      35.999  24.078  25.863  1.00  0.00     0.044 C 
ATOM     10  C   UNL A   1      34.837  23.117  25.875  1.00  0.00    -0.047 A 
ATOM     11  C   UNL A   1      35.151  21.756  26.053  1.00  0.00     0.004 A 
ATOM     12  C   UNL A   1      33.482  23.500  25.701  1.00  0.00    -0.034 A 
ATOM     13  C   UNL A   1      34.153  20.794  26.145  1.00  0.00     0.001 A 
ATOM     14  C   UNL A   1      32.475  22.533  25.940  1.00  0.00    -0.044 A 
ATOM     15  C   UNL A   1      33.065  24.919  25.315  1.00  0.00     0.053 C 
ATOM     16  C   UNL A   1      32.821  21.184  26.125  1.00  0.00     0.004 A 
ATOM     17  C   UNL A   1      31.026  22.908  26.153  1.00  0.00     0.036 C 
ATOM     18  C   UNL A   1      32.682  25.239  23.845  1.00  0.00    -0.034 A 
ATOM     19  C   UNL A   1      31.917  25.296  26.277  1.00  0.00     0.002 C 
ATOM     20  C   UNL A   1      30.692  24.396  26.029  1.00  0.00     0.009 C 
ATOM     21  C   UNL A   1      33.232  24.582  22.706  1.00  0.00    -0.047 A 
ATOM     22  C   UNL A   1      31.777  26.327  23.604  1.00  0.00    -0.040 A 
ATOM     23  C   UNL A   1      31.637  26.785  26.122  1.00  0.00     0.013 C 
ATOM     24  C   UNL A   1      32.863  24.987  21.405  1.00  0.00     0.004 A 
ATOM     25  C   UNL A   1      34.221  23.450  22.751  1.00  0.00     0.044 C 
ATOM     26  C   UNL A   1      31.403  26.656  22.283  1.00  0.00     0.004 A 
ATOM     27  C   UNL A   1      31.952  26.006  21.193  1.00  0.00     0.001 A 
ENDBRANCH   7   8
ENDBRANCH   4   7
ENDBRANCH   2   3
ENDBRANCH   1   2
BRANCH   1  28
ATOM     28  C   UNL A   1      32.708  32.914  27.027  1.00  0.00     0.118 C 
BRANCH  28  29
ATOM     29  N   UNL A   1      32.404  34.203  27.626  1.00  0.00    -0.352 N 
ATOM     30  C   UNL A   1      33.003  34.792  28.714  1.00  0.00     0.251 C 
ATOM     31  H   UNL A   1      31.682  34.718  27.199  1.00  0.00     0.163 HD
ATOM     32  O   UNL A   1      32.528  35.793  29.232  1.00  0.00    -0.269 OA
BRANCH  30  33
ATOM     33  C   UNL A   1      34.230  34.182  29.259  1.00  0.00     0.039 A 
ATOM     34  C   UNL A   1      34.122  33.241  30.284  1.00  0.00     0.014 A 
ATOM     35  C   UNL A   1      35.478  34.532  28.733  1.00  0.00     0.014 A 
ATOM     36  C   UNL A   1      35.275  32.623  30.767  1.00  0.00     0.010 A 
ATOM     37  C   UNL A   1      36.620  33.878  29.181  1.00  0.00     0.010 A 
ATOM     38  C   UNL A   1      36.527  32.933  30.213  1.00  0.00    -0.014 A 
BRANCH  38  39
ATOM     39  C   UNL A   1      37.759  32.319  30.758  1.00  0.00     0.031 A 
ATOM     40  C   UNL A   1      38.368  32.870  32.013  1.00  0.00     0.074 A 
ATOM     41  C   UNL A   1      38.324  31.270  30.133  1.00  0.00     0.049 A 
ATOM     42  N   UNL A   1      39.408  32.440  32.679  1.00  0.00    -0.248 NA
ATOM     43  C   UNL A   1      37.732  34.066  32.591  1.00  0.00     0.031 C 
ATOM     44  C   UNL A   1      37.838  30.663  28.892  1.00  0.00     0.029 A 
ATOM     45  N   UNL A   1      39.424  30.522  30.465  1.00  0.00    -0.354 N 
ATOM     46  C   UNL A   1      39.541  33.303  33.757  1.00  0.00     0.074 A 
ATOM     47  C   UNL A   1      38.520  34.318  33.623  1.00  0.00     0.031 C 
ATOM     48  C   UNL A   1      38.615  29.610  28.589  1.00  0.00     0.029 A 
ATOM     49  C   UNL A   1      39.659  29.480  29.604  1.00  0.00     0.049 A 
ATOM     50  H   UNL A   1      39.991  30.715  31.247  1.00  0.00     0.167 HD
ATOM     51  C   UNL A   1      40.414  33.238  34.788  1.00  0.00     0.031 A 
ATOM     52  C   UNL A   1      40.597  28.514  29.638  1.00  0.00     0.031 A 
ATOM     53  C   UNL A   1      41.429  32.233  34.923  1.00  0.00     0.049 A 
ATOM     54  C   UNL A   1      41.582  28.477  30.770  1.00  0.00     0.074 A 
ATOM     55  C   UNL A   1      42.348  32.071  35.944  1.00  0.00     0.029 A 
ATOM     56  N   UNL A   1      41.655  31.217  34.008  1.00  0.00    -0.354 N 
ATOM     57  N   UNL A   1      41.673  29.278  31.804  1.00  0.00    -0.248 NA
ATOM     58  C   UNL A   1      42.584  27.402  30.750  1.00  0.00     0.031 C 
ATOM     59  C   UNL A   1      43.153  30.974  35.630  1.00  0.00     0.029 A 
ATOM     60  C   UNL A   1      42.708  30.430  34.434  1.00  0.00     0.049 A 
ATOM     61  H   UNL A   1      41.143  31.077  33.179  1.00  0.00     0.167 HD
ATOM     62  C   UNL A   1      42.728  28.797  32.567  1.00  0.00     0.074 A 
ATOM     63  C   UNL A   1      43.247  27.632  31.879  1.00  0.00     0.031 C 
ATOM     64  C   UNL A   1      43.213  29.277  33.737  1.00  0.00     0.031 A 
BRANCH  51  65
ATOM     65  C   UNL A   1      40.286  34.279  35.859  1.00  0.00    -0.014 A 
ATOM     66  C   UNL A   1      41.000  35.485  35.770  1.00  0.00     0.009 A 
ATOM     67  C   UNL A   1      39.432  34.070  36.951  1.00  0.00     0.009 A 
ATOM     68  C   UNL A   1      40.883  36.450  36.771  1.00  0.00     0.001 A 
ATOM     69  C   UNL A   1      39.299  35.047  37.938  1.00  0.00     0.001 A 
ATOM     70  C   UNL A   1      40.030  36.232  37.852  1.00  0.00     0.000 A 
ENDBRANCH  51  65
BRANCH  52  71
ATOM     71  C   UNL A   1      40.591  27.473  28.582  1.00  0.00    -0.014 A 
ATOM     72  C   UNL A   1      39.807  26.319  28.738  1.00  0.00     0.009 A 
ATOM     73  C   UNL A   1      41.289  27.666  27.381  1.00  0.00     0.009 A 
ATOM     74  C   UNL A   1      39.719  25.381  27.707  1.00  0.00     0.001 A 
ATOM     75  C   UNL A   1      41.188  26.732  26.347  1.00  0.00     0.001 A 
ATOM     76  C   UNL A   1      40.403  25.591  26.510  1.00  0.00     0.000 A 
ENDBRANCH  52  71
BRANCH  64  77
ATOM     77  C   UNL A   1      44.362  28.555  34.376  1.00  0.00    -0.014 A 
ATOM     78  C   UNL A   1      45.682  28.969  34.150  1.00  0.00     0.009 A 
ATOM     79  C   UNL A   1      44.110  27.555  35.330  1.00  0.00     0.009 A 
ATOM     80  C   UNL A   1      46.730  28.399  34.874  1.00  0.00     0.001 A 
ATOM     81  C   UNL A   1      45.158  26.999  36.063  1.00  0.00     0.001 A 
ATOM     82  C   UNL A   1      46.467  27.423  35.836  1.00  0.00     0.000 A 
ENDBRANCH  64  77
ENDBRANCH  38  39
ENDBRANCH  30  33
ENDBRANCH  28  29
ENDBRANCH   1  28
TORSDOF 11
ENDMDL
MODEL 3
REMARK VINA RESULT:     -12.7      0.321      5.813
REMARK SMILES Cc1cccc2c1[C@H]1c3c(C)cccc3[C@H](CC(=O)NCCCNC(=O)c3ccc(-c4c5nc(c(-c6ccccc6)c6ccc([nH]6)c(-c6ccccc6)c6nc(c(-c7ccccc7)c7ccc4[nH]7)C=C6)C=C5)cc3)C[C@H]1CC2
REMARK SMILES IDX 22 1 21 2 20 3 18 4 19 5 17 7 16 8 1 9 2 10 3 11 7 12 4 13
REMARK SMILES IDX 6 14 8 15 5 16 78 17 9 18 76 19 77 20 10 21 15 22 75 23
REMARK SMILES IDX 12 24 11 25 14 26 13 27 23 28 24 29 25 30 26 32 27 33 28 34
REMARK SMILES IDX 74 35 29 36 73 37 30 38 31 39 32 40 67 41 33 42 72 43 66 44
REMARK SMILES IDX 68 45 34 46 71 47 65 48 64 49 35 51 57 52 42 53 56 54 43 55
REMARK SMILES IDX 46 56 55 57 69 58 44 59 45 60 54 62 70 63 47 64 36 65 37 66
REMARK SMILES IDX 41 67 38 68 40 69 39 70 58 71 59 72 63 73 60 74 62 75 61 76
REMARK SMILES IDX 48 77 49 78 53 79 50 80 52 81 51 82
REMARK H PARENT 20 6 24 31 68 50 46 61
REMARK Flexibility Score: inf
ROOT
ATOM      1  C   UNL A   1      38.284  19.970  24.956  1.00  0.00     0.042 C 
ENDROOT
BRANCH   1   2
ATOM      2  C   UNL A   1      37.370  21.173  24.735  1.00  0.00     0.117 C 
BRANCH   2   3
ATOM      3  N   UNL A   1      36.534  21.426  25.893  1.00  0.00    -0.356 N 
ATOM      4  C   UNL A   1      35.184  21.535  26.005  1.00  0.00     0.220 C 
ATOM      5  O   UNL A   1      34.721  21.898  27.086  1.00  0.00    -0.275 OA
ATOM      6  H   UNL A   1      37.026  21.536  26.739  1.00  0.00     0.163 HD
BRANCH   4   7
ATOM      7  C   UNL A   1      34.282  21.165  24.850  1.00  0.00     0.108 C 
BRANCH   7   8
ATOM      8  C   UNL A   1      33.576  22.326  24.118  1.00  0.00     0.029 C 
ATOM      9  C   UNL A   1      34.035  27.817  26.170  1.00  0.00     0.044 C 
ATOM     10  C   UNL A   1      33.154  27.851  24.947  1.00  0.00    -0.047 A 
ATOM     11  C   UNL A   1      32.583  29.096  24.620  1.00  0.00     0.004 A 
ATOM     12  C   UNL A   1      32.862  26.720  24.142  1.00  0.00    -0.034 A 
ATOM     13  C   UNL A   1      31.808  29.253  23.477  1.00  0.00     0.001 A 
ATOM     14  C   UNL A   1      32.194  26.927  22.910  1.00  0.00    -0.044 A 
ATOM     15  C   UNL A   1      33.280  25.300  24.525  1.00  0.00     0.053 C 
ATOM     16  C   UNL A   1      31.644  28.183  22.608  1.00  0.00     0.004 A 
ATOM     17  C   UNL A   1      32.165  25.881  21.819  1.00  0.00     0.036 C 
ATOM     18  C   UNL A   1      32.240  24.330  25.150  1.00  0.00    -0.034 A 
ATOM     19  C   UNL A   1      33.907  24.689  23.252  1.00  0.00     0.002 C 
ATOM     20  C   UNL A   1      32.846  24.551  22.145  1.00  0.00     0.009 C 
ATOM     21  C   UNL A   1      31.146  24.737  25.967  1.00  0.00    -0.047 A 
ATOM     22  C   UNL A   1      32.437  22.920  24.967  1.00  0.00    -0.040 A 
ATOM     23  C   UNL A   1      34.580  23.378  23.637  1.00  0.00     0.013 C 
ATOM     24  C   UNL A   1      30.289  23.772  26.539  1.00  0.00     0.004 A 
ATOM     25  C   UNL A   1      30.798  26.161  26.306  1.00  0.00     0.044 C 
ATOM     26  C   UNL A   1      31.518  22.001  25.520  1.00  0.00     0.004 A 
ATOM     27  C   UNL A   1      30.465  22.420  26.312  1.00  0.00     0.001 A 
ENDBRANCH   7   8
ENDBRANCH   4   7
ENDBRANCH   2   3
ENDBRANCH   1   2
BRANCH   1  28
ATOM     28  C   UNL A   1      39.291  20.162  26.087  1.00  0.00     0.118 C 
BRANCH  28  29
ATOM     29  N   UNL A   1      40.437  19.277  25.957  1.00  0.00    -0.352 N 
ATOM     30  C   UNL A   1      41.769  19.600  26.055  1.00  0.00     0.251 C 
ATOM     31  H   UNL A   1      40.234  18.331  25.778  1.00  0.00     0.163 HD
ATOM     32  O   UNL A   1      42.638  18.801  25.738  1.00  0.00    -0.269 OA
BRANCH  30  33
ATOM     33  C   UNL A   1      42.134  20.945  26.539  1.00  0.00     0.039 A 
ATOM     34  C   UNL A   1      42.506  21.921  25.613  1.00  0.00     0.014 A 
ATOM     35  C   UNL A   1      42.085  21.233  27.907  1.00  0.00     0.014 A 
ATOM     36  C   UNL A   1      42.802  23.208  26.062  1.00  0.00     0.010 A 
ATOM     37  C   UNL A   1      42.330  22.529  28.346  1.00  0.00     0.010 A 
ATOM     38  C   UNL A   1      42.708  23.520  27.428  1.00  0.00    -0.014 A 
BRANCH  38  39
ATOM     39  C   UNL A   1      43.072  24.869  27.913  1.00  0.00     0.031 A 
ATOM     40  C   UNL A   1      41.999  25.899  28.111  1.00  0.00     0.074 A 
ATOM     41  C   UNL A   1      44.357  25.167  28.179  1.00  0.00     0.049 A 
ATOM     42  N   UNL A   1      42.104  27.115  28.580  1.00  0.00    -0.248 NA
ATOM     43  C   UNL A   1      40.631  25.516  27.724  1.00  0.00     0.031 C 
ATOM     44  C   UNL A   1      45.490  24.258  28.000  1.00  0.00     0.029 A 
ATOM     45  N   UNL A   1      44.921  26.317  28.668  1.00  0.00    -0.354 N 
ATOM     46  C   UNL A   1      40.818  27.634  28.555  1.00  0.00     0.074 A 
ATOM     47  C   UNL A   1      39.960  26.631  27.966  1.00  0.00     0.031 C 
ATOM     48  C   UNL A   1      46.611  24.874  28.413  1.00  0.00     0.029 A 
ATOM     49  C   UNL A   1      46.275  26.222  28.868  1.00  0.00     0.049 A 
ATOM     50  H   UNL A   1      44.404  27.134  28.858  1.00  0.00     0.167 HD
ATOM     51  C   UNL A   1      40.381  28.830  29.013  1.00  0.00     0.031 A 
ATOM     52  C   UNL A   1      47.147  27.111  29.380  1.00  0.00     0.031 A 
ATOM     53  C   UNL A   1      41.229  29.829  29.597  1.00  0.00     0.049 A 
ATOM     54  C   UNL A   1      46.652  28.447  29.851  1.00  0.00     0.074 A 
ATOM     55  C   UNL A   1      40.876  31.063  30.111  1.00  0.00     0.029 A 
ATOM     56  N   UNL A   1      42.601  29.704  29.747  1.00  0.00    -0.354 N 
ATOM     57  N   UNL A   1      45.426  28.912  29.856  1.00  0.00    -0.248 NA
ATOM     58  C   UNL A   1      47.652  29.378  30.397  1.00  0.00     0.031 C 
ATOM     59  C   UNL A   1      42.042  31.701  30.543  1.00  0.00     0.029 A 
ATOM     60  C   UNL A   1      43.113  30.846  30.334  1.00  0.00     0.049 A 
ATOM     61  H   UNL A   1      43.132  28.920  29.475  1.00  0.00     0.167 HD
ATOM     62  C   UNL A   1      45.501  30.179  30.419  1.00  0.00     0.074 A 
ATOM     63  C   UNL A   1      46.894  30.412  30.746  1.00  0.00     0.031 C 
ATOM     64  C   UNL A   1      44.501  31.062  30.650  1.00  0.00     0.031 A 
BRANCH  51  65
ATOM     65  C   UNL A   1      38.910  29.103  28.916  1.00  0.00    -0.014 A 
ATOM     66  C   UNL A   1      38.063  28.845  30.005  1.00  0.00     0.009 A 
ATOM     67  C   UNL A   1      38.368  29.645  27.741  1.00  0.00     0.009 A 
ATOM     68  C   UNL A   1      36.694  29.096  29.909  1.00  0.00     0.001 A 
ATOM     69  C   UNL A   1      37.002  29.916  27.657  1.00  0.00     0.001 A 
ATOM     70  C   UNL A   1      36.165  29.635  28.737  1.00  0.00     0.000 A 
ENDBRANCH  51  65
BRANCH  52  71
ATOM     71  C   UNL A   1      48.571  26.719  29.520  1.00  0.00    -0.014 A 
ATOM     72  C   UNL A   1      49.022  26.130  30.711  1.00  0.00     0.009 A 
ATOM     73  C   UNL A   1      49.459  26.845  28.442  1.00  0.00     0.009 A 
ATOM     74  C   UNL A   1      50.336  25.668  30.816  1.00  0.00     0.001 A 
ATOM     75  C   UNL A   1      50.769  26.370  28.546  1.00  0.00     0.001 A 
ATOM     76  C   UNL A   1      51.206  25.781  29.732  1.00  0.00     0.000 A 
ENDBRANCH  52  71
BRANCH  64  77
ATOM     77  C   UNL A   1      44.847  32.371  31.295  1.00  0.00    -0.014 A 
ATOM     78  C   UNL A   1      44.915  32.485  32.690  1.00  0.00     0.009 A 
ATOM     79  C   UNL A   1      45.257  33.451  30.497  1.00  0.00     0.009 A 
ATOM     80  C   UNL A   1      45.395  33.657  33.277  1.00  0.00     0.001 A 
ATOM     81  C   UNL A   1      45.751  34.615  31.086  1.00  0.00     0.001 A 
ATOM     82  C   UNL A   1      45.822  34.716  32.475  1.00  0.00     0.000 A 
ENDBRANCH  64  77
ENDBRANCH  38  39
ENDBRANCH  30  33
ENDBRANCH  28  29
ENDBRANCH   1  28
TORSDOF 11
ENDMDL
