MODEL 1
REMARK VINA RESULT:     -11.5      0.000      0.000
REMARK SMILES C/C=C/C=C/C=C/C(=O)O[C@H]1C=C(C=O)[C@](O)(C(=O)NCCCNC(=O)c2ccc(-c3c4nc(c(-c5ccccc5)c5ccc([nH]5)c(-c5ccccc5)c5nc(c(-c6ccccc6)c6ccc3[nH]6)C=C5)C=C4)cc2)[C@]2(C)CCCC(C)(C)[C@@H]12
REMARK SMILES IDX 18 1 19 2 20 3 16 5 11 6 12 7 83 8 13 9 75 10 80 11 77 12
REMARK SMILES IDX 76 13 79 14 81 15 82 16 78 17 10 18 8 19 9 20 7 21 6 22 5 23
REMARK SMILES IDX 4 24 3 25 1 26 2 27 14 28 15 29 17 30 21 32 22 33 23 34
REMARK SMILES IDX 24 35 25 36 26 38 27 39 28 40 74 41 29 42 73 43 30 44 31 45
REMARK SMILES IDX 32 46 67 47 33 48 72 49 66 50 68 51 34 52 71 53 65 54 64 55
REMARK SMILES IDX 35 57 57 58 42 59 56 60 43 61 46 62 55 63 69 64 44 65 45 66
REMARK SMILES IDX 54 68 70 69 47 70 36 71 37 72 41 73 38 74 40 75 39 76 58 77
REMARK SMILES IDX 59 78 63 79 60 80 62 81 61 82 48 83 49 84 53 85 50 86 52 87
REMARK SMILES IDX 51 88
REMARK H PARENT 20 4 17 31 24 37 68 56 46 67
REMARK Flexibility Score: inf
ROOT
ATOM      1  C   UNL A   1      32.660  27.907  24.257  1.00  0.00     0.257 C 
ATOM      2  O   UNL A   1      33.286  28.536  23.377  1.00  0.00    -0.271 OA
ATOM      3  N   UNL A   1      32.414  28.548  25.436  1.00  0.00    -0.353 N 
ATOM      4  H   UNL A   1      32.266  28.071  26.284  1.00  0.00     0.163 HD
ENDROOT
BRANCH   1   5
ATOM      5  C   UNL A   1      32.191  26.473  23.858  1.00  0.00     0.176 C 
ATOM      6  C   UNL A   1      34.136  24.274  24.791  1.00  0.00     0.204 C 
ATOM      7  C   UNL A   1      34.406  25.529  23.993  1.00  0.00     0.028 C 
ATOM      8  C   UNL A   1      32.649  24.254  25.330  1.00  0.00     0.049 C 
ATOM      9  C   UNL A   1      33.430  25.948  23.172  1.00  0.00     0.033 C 
ATOM     10  C   UNL A   1      31.546  25.222  24.620  1.00  0.00     0.017 C 
ATOM     11  C   UNL A   1      32.104  22.901  25.948  1.00  0.00    -0.028 C 
ATOM     12  C   UNL A   1      30.545  25.555  25.768  1.00  0.00     0.011 C 
ATOM     13  C   UNL A   1      30.647  24.506  23.539  1.00  0.00     0.016 C 
ATOM     14  C   UNL A   1      30.917  23.256  26.898  1.00  0.00     0.007 C 
ATOM     15  C   UNL A   1      31.669  21.825  24.926  1.00  0.00     0.011 C 
ATOM     16  C   UNL A   1      33.184  22.215  26.826  1.00  0.00     0.011 C 
ATOM     17  C   UNL A   1      29.901  24.265  26.345  1.00  0.00     0.001 C 
BRANCH   6  18
ATOM     18  O   UNL A   1      34.662  23.118  24.135  1.00  0.00    -0.455 OA
BRANCH  18  19
ATOM     19  C   UNL A   1      35.990  22.977  23.829  1.00  0.00     0.331 C 
ATOM     20  O   UNL A   1      36.377  22.965  22.662  1.00  0.00    -0.247 OA
BRANCH  19  21
ATOM     21  C   UNL A   1      37.025  22.892  24.902  1.00  0.00     0.093 C 
ATOM     22  C   UNL A   1      37.849  21.859  25.153  1.00  0.00     0.007 C 
BRANCH  22  23
ATOM     23  C   UNL A   1      38.783  21.802  26.264  1.00  0.00     0.000 C 
ATOM     24  C   UNL A   1      40.021  21.292  26.132  1.00  0.00    -0.000 C 
BRANCH  24  25
ATOM     25  C   UNL A   1      41.017  21.285  27.185  1.00  0.00    -0.005 C 
ATOM     26  C   UNL A   1      42.869  22.370  28.492  1.00  0.00     0.035 C 
ATOM     27  C   UNL A   1      41.896  22.286  27.357  1.00  0.00    -0.030 C 
ENDBRANCH  24  25
ENDBRANCH  22  23
ENDBRANCH  19  21
ENDBRANCH  18  19
ENDBRANCH   6  18
BRANCH   9  28
ATOM     28  C   UNL A   1      33.241  25.250  21.877  1.00  0.00     0.259 C 
ATOM     29  O   UNL A   1      33.102  25.831  20.810  1.00  0.00    -0.298 OA
ENDBRANCH   9  28
BRANCH   5  30
ATOM     30  O   UNL A   1      31.218  26.924  22.859  1.00  0.00    -0.375 OA
ATOM     31  H   UNL A   1      31.686  27.258  22.078  1.00  0.00     0.212 HD
ENDBRANCH   5  30
ENDBRANCH   1   5
BRANCH   3  32
ATOM     32  C   UNL A   1      32.389  30.004  25.330  1.00  0.00     0.117 C 
BRANCH  32  33
ATOM     33  C   UNL A   1      31.809  30.777  26.491  1.00  0.00     0.042 C 
BRANCH  33  34
ATOM     34  C   UNL A   1      32.848  31.575  27.264  1.00  0.00     0.118 C 
BRANCH  34  35
ATOM     35  N   UNL A   1      32.475  32.967  27.504  1.00  0.00    -0.352 N 
ATOM     36  C   UNL A   1      33.086  33.943  28.268  1.00  0.00     0.251 C 
ATOM     37  H   UNL A   1      31.654  33.257  27.045  1.00  0.00     0.163 HD
ATOM     38  O   UNL A   1      32.562  35.025  28.430  1.00  0.00    -0.269 OA
BRANCH  36  39
ATOM     39  C   UNL A   1      34.378  33.640  28.922  1.00  0.00     0.039 A 
ATOM     40  C   UNL A   1      34.379  32.979  30.153  1.00  0.00     0.014 A 
ATOM     41  C   UNL A   1      35.581  33.971  28.300  1.00  0.00     0.014 A 
ATOM     42  C   UNL A   1      35.589  32.556  30.705  1.00  0.00     0.010 A 
ATOM     43  C   UNL A   1      36.772  33.457  28.794  1.00  0.00     0.010 A 
ATOM     44  C   UNL A   1      36.791  32.744  30.003  1.00  0.00    -0.014 A 
BRANCH  44  45
ATOM     45  C   UNL A   1      38.080  32.206  30.508  1.00  0.00     0.031 A 
ATOM     46  C   UNL A   1      38.651  30.946  29.919  1.00  0.00     0.074 A 
ATOM     47  C   UNL A   1      38.694  32.803  31.548  1.00  0.00     0.049 A 
ATOM     48  N   UNL A   1      39.724  30.282  30.270  1.00  0.00    -0.248 NA
ATOM     49  C   UNL A   1      37.901  30.330  28.811  1.00  0.00     0.031 C 
ATOM     50  C   UNL A   1      38.217  34.002  32.243  1.00  0.00     0.029 A 
ATOM     51  N   UNL A   1      39.853  32.479  32.207  1.00  0.00    -0.354 N 
ATOM     52  C   UNL A   1      39.763  29.167  29.443  1.00  0.00     0.074 A 
ATOM     53  C   UNL A   1      38.576  29.208  28.619  1.00  0.00     0.031 C 
ATOM     54  C   UNL A   1      39.095  34.331  33.204  1.00  0.00     0.029 A 
ATOM     55  C   UNL A   1      40.170  33.344  33.226  1.00  0.00     0.049 A 
ATOM     56  H   UNL A   1      40.406  31.699  31.972  1.00  0.00     0.167 HD
ATOM     57  C   UNL A   1      40.713  28.206  29.357  1.00  0.00     0.031 A 
ATOM     58  C   UNL A   1      41.206  33.343  34.085  1.00  0.00     0.031 A 
ATOM     59  C   UNL A   1      41.899  28.172  30.169  1.00  0.00     0.049 A 
ATOM     60  C   UNL A   1      42.243  32.260  33.979  1.00  0.00     0.074 A 
ATOM     61  C   UNL A   1      42.953  27.277  30.118  1.00  0.00     0.029 A 
ATOM     62  N   UNL A   1      42.186  29.072  31.184  1.00  0.00    -0.354 N 
ATOM     63  N   UNL A   1      42.305  31.254  33.141  1.00  0.00    -0.248 NA
ATOM     64  C   UNL A   1      43.361  32.320  34.932  1.00  0.00     0.031 C 
ATOM     65  C   UNL A   1      43.849  27.600  31.142  1.00  0.00     0.029 A 
ATOM     66  C   UNL A   1      43.386  28.737  31.787  1.00  0.00     0.049 A 
ATOM     67  H   UNL A   1      41.619  29.837  31.438  1.00  0.00     0.167 HD
ATOM     68  C   UNL A   1      43.479  30.577  33.446  1.00  0.00     0.074 A 
ATOM     69  C   UNL A   1      44.106  31.298  34.535  1.00  0.00     0.031 C 
ATOM     70  C   UNL A   1      43.993  29.461  32.874  1.00  0.00     0.031 A 
BRANCH  57  71
ATOM     71  C   UNL A   1      40.494  27.108  28.352  1.00  0.00    -0.014 A 
ATOM     72  C   UNL A   1      41.076  27.158  27.074  1.00  0.00     0.009 A 
ATOM     73  C   UNL A   1      39.705  25.998  28.694  1.00  0.00     0.009 A 
ATOM     74  C   UNL A   1      40.834  26.145  26.144  1.00  0.00     0.001 A 
ATOM     75  C   UNL A   1      39.494  24.969  27.773  1.00  0.00     0.001 A 
ATOM     76  C   UNL A   1      40.047  25.050  26.496  1.00  0.00     0.000 A 
ENDBRANCH  57  71
BRANCH  58  77
ATOM     77  C   UNL A   1      41.326  34.416  35.108  1.00  0.00    -0.014 A 
ATOM     78  C   UNL A   1      42.034  35.595  34.825  1.00  0.00     0.009 A 
ATOM     79  C   UNL A   1      40.731  34.270  36.371  1.00  0.00     0.009 A 
ATOM     80  C   UNL A   1      42.163  36.593  35.794  1.00  0.00     0.001 A 
ATOM     81  C   UNL A   1      40.835  35.284  37.326  1.00  0.00     0.001 A 
ATOM     82  C   UNL A   1      41.559  36.440  37.040  1.00  0.00     0.000 A 
ENDBRANCH  58  77
BRANCH  70  83
ATOM     83  C   UNL A   1      45.315  28.968  33.392  1.00  0.00    -0.014 A 
ATOM     84  C   UNL A   1      46.529  29.441  32.869  1.00  0.00     0.009 A 
ATOM     85  C   UNL A   1      45.344  28.048  34.452  1.00  0.00     0.009 A 
ATOM     86  C   UNL A   1      47.744  28.976  33.376  1.00  0.00     0.001 A 
ATOM     87  C   UNL A   1      46.560  27.609  34.978  1.00  0.00     0.001 A 
ATOM     88  C   UNL A   1      47.759  28.066  34.433  1.00  0.00     0.000 A 
ENDBRANCH  70  83
ENDBRANCH  44  45
ENDBRANCH  36  39
ENDBRANCH  34  35
ENDBRANCH  33  34
ENDBRANCH  32  33
ENDBRANCH   3  32
TORSDOF 17
ENDMDL
MODEL 2
REMARK VINA RESULT:     -11.4      3.409      9.289
REMARK SMILES C/C=C/C=C/C=C/C(=O)O[C@H]1C=C(C=O)[C@](O)(C(=O)NCCCNC(=O)c2ccc(-c3c4nc(c(-c5ccccc5)c5ccc([nH]5)c(-c5ccccc5)c5nc(c(-c6ccccc6)c6ccc3[nH]6)C=C5)C=C4)cc2)[C@]2(C)CCCC(C)(C)[C@@H]12
REMARK SMILES IDX 18 1 19 2 20 3 16 5 11 6 12 7 83 8 13 9 75 10 80 11 77 12
REMARK SMILES IDX 76 13 79 14 81 15 82 16 78 17 10 18 8 19 9 20 7 21 6 22 5 23
REMARK SMILES IDX 4 24 3 25 1 26 2 27 14 28 15 29 17 30 21 32 22 33 23 34
REMARK SMILES IDX 24 35 25 36 26 38 27 39 28 40 74 41 29 42 73 43 30 44 31 45
REMARK SMILES IDX 32 46 67 47 33 48 72 49 66 50 68 51 34 52 71 53 65 54 64 55
REMARK SMILES IDX 35 57 57 58 42 59 56 60 43 61 46 62 55 63 69 64 44 65 45 66
REMARK SMILES IDX 54 68 70 69 47 70 36 71 37 72 41 73 38 74 40 75 39 76 58 77
REMARK SMILES IDX 59 78 63 79 60 80 62 81 61 82 48 83 49 84 53 85 50 86 52 87
REMARK SMILES IDX 51 88
REMARK H PARENT 20 4 17 31 24 37 68 56 46 67
REMARK Flexibility Score: inf
ROOT
ATOM      1  C   UNL A   1      34.271  22.133  25.599  1.00  0.00     0.257 C 
ATOM      2  O   UNL A   1      34.082  21.454  26.631  1.00  0.00    -0.271 OA
ATOM      3  N   UNL A   1      35.520  22.112  25.050  1.00  0.00    -0.353 N 
ATOM      4  H   UNL A   1      35.871  22.842  24.491  1.00  0.00     0.163 HD
ENDROOT
BRANCH   1   5
ATOM      5  C   UNL A   1      33.018  22.879  25.042  1.00  0.00     0.176 C 
ATOM      6  C   UNL A   1      33.353  25.941  25.034  1.00  0.00     0.204 C 
ATOM      7  C   UNL A   1      33.546  24.950  26.159  1.00  0.00     0.028 C 
ATOM      8  C   UNL A   1      33.114  25.198  23.659  1.00  0.00     0.049 C 
ATOM      9  C   UNL A   1      32.755  23.866  26.155  1.00  0.00     0.033 C 
ATOM     10  C   UNL A   1      32.642  23.638  23.684  1.00  0.00     0.017 C 
ATOM     11  C   UNL A   1      32.620  26.063  22.426  1.00  0.00    -0.028 C 
ATOM     12  C   UNL A   1      33.243  23.044  22.374  1.00  0.00     0.011 C 
ATOM     13  C   UNL A   1      31.089  23.420  23.512  1.00  0.00     0.016 C 
ATOM     14  C   UNL A   1      33.008  25.297  21.122  1.00  0.00     0.007 C 
ATOM     15  C   UNL A   1      31.114  26.412  22.414  1.00  0.00     0.011 C 
ATOM     16  C   UNL A   1      33.355  27.428  22.375  1.00  0.00     0.011 C 
ATOM     17  C   UNL A   1      32.711  23.791  21.121  1.00  0.00     0.001 C 
BRANCH   6  18
ATOM     18  O   UNL A   1      32.477  27.002  25.423  1.00  0.00    -0.455 OA
BRANCH  18  19
ATOM     19  C   UNL A   1      32.847  28.321  25.392  1.00  0.00     0.331 C 
ATOM     20  O   UNL A   1      33.931  28.688  25.839  1.00  0.00    -0.247 OA
BRANCH  19  21
ATOM     21  C   UNL A   1      31.973  29.355  24.762  1.00  0.00     0.093 C 
ATOM     22  C   UNL A   1      30.699  29.203  24.359  1.00  0.00     0.007 C 
BRANCH  22  23
ATOM     23  C   UNL A   1      29.923  30.225  23.677  1.00  0.00     0.000 C 
ATOM     24  C   UNL A   1      28.914  29.918  22.842  1.00  0.00    -0.000 C 
BRANCH  24  25
ATOM     25  C   UNL A   1      28.059  30.898  22.202  1.00  0.00    -0.005 C 
ATOM     26  C   UNL A   1      27.689  32.847  20.659  1.00  0.00     0.035 C 
ATOM     27  C   UNL A   1      28.540  31.881  21.423  1.00  0.00    -0.030 C 
ENDBRANCH  24  25
ENDBRANCH  22  23
ENDBRANCH  19  21
ENDBRANCH  18  19
ENDBRANCH   6  18
BRANCH   9  28
ATOM     28  C   UNL A   1      31.352  24.007  26.616  1.00  0.00     0.259 C 
ATOM     29  O   UNL A   1      30.818  23.236  27.401  1.00  0.00    -0.298 OA
ENDBRANCH   9  28
BRANCH   5  30
ATOM     30  O   UNL A   1      32.114  21.732  25.165  1.00  0.00    -0.375 OA
ATOM     31  H   UNL A   1      31.937  21.558  26.103  1.00  0.00     0.212 HD
ENDBRANCH   5  30
ENDBRANCH   1   5
BRANCH   3  32
ATOM     32  C   UNL A   1      36.289  20.911  25.363  1.00  0.00     0.117 C 
BRANCH  32  33
ATOM     33  C   UNL A   1      37.659  20.780  24.740  1.00  0.00     0.042 C 
BRANCH  33  34
ATOM     34  C   UNL A   1      38.795  20.949  25.737  1.00  0.00     0.118 C 
BRANCH  34  35
ATOM     35  N   UNL A   1      39.755  19.848  25.740  1.00  0.00    -0.352 N 
ATOM     36  C   UNL A   1      41.092  19.822  26.090  1.00  0.00     0.251 C 
ATOM     37  H   UNL A   1      39.390  18.983  25.446  1.00  0.00     0.163 HD
ATOM     38  O   UNL A   1      41.759  18.822  25.925  1.00  0.00    -0.269 OA
BRANCH  36  39
ATOM     39  C   UNL A   1      41.716  21.047  26.638  1.00  0.00     0.039 A 
ATOM     40  C   UNL A   1      42.240  21.996  25.757  1.00  0.00     0.014 A 
ATOM     41  C   UNL A   1      41.743  21.271  28.014  1.00  0.00     0.014 A 
ATOM     42  C   UNL A   1      42.694  23.219  26.255  1.00  0.00     0.010 A 
ATOM     43  C   UNL A   1      42.092  22.526  28.496  1.00  0.00     0.010 A 
ATOM     44  C   UNL A   1      42.572  23.514  27.623  1.00  0.00    -0.014 A 
BRANCH  44  45
ATOM     45  C   UNL A   1      42.940  24.846  28.167  1.00  0.00     0.031 A 
ATOM     46  C   UNL A   1      41.878  25.889  28.382  1.00  0.00     0.074 A 
ATOM     47  C   UNL A   1      44.235  25.145  28.390  1.00  0.00     0.049 A 
ATOM     48  N   UNL A   1      42.007  27.129  28.781  1.00  0.00    -0.248 NA
ATOM     49  C   UNL A   1      40.491  25.498  28.079  1.00  0.00     0.031 C 
ATOM     50  C   UNL A   1      45.367  24.241  28.173  1.00  0.00     0.029 A 
ATOM     51  N   UNL A   1      44.819  26.301  28.846  1.00  0.00    -0.354 N 
ATOM     52  C   UNL A   1      40.727  27.668  28.755  1.00  0.00     0.074 A 
ATOM     53  C   UNL A   1      39.846  26.642  28.242  1.00  0.00     0.031 C 
ATOM     54  C   UNL A   1      46.501  24.863  28.529  1.00  0.00     0.029 A 
ATOM     55  C   UNL A   1      46.186  26.222  28.956  1.00  0.00     0.049 A 
ATOM     56  H   UNL A   1      44.306  27.110  29.073  1.00  0.00     0.167 HD
ATOM     57  C   UNL A   1      40.314  28.897  29.147  1.00  0.00     0.031 A 
ATOM     58  C   UNL A   1      47.086  27.142  29.351  1.00  0.00     0.031 A 
ATOM     59  C   UNL A   1      41.188  29.911  29.667  1.00  0.00     0.049 A 
ATOM     60  C   UNL A   1      46.607  28.503  29.770  1.00  0.00     0.074 A 
ATOM     61  C   UNL A   1      40.861  31.166  30.150  1.00  0.00     0.029 A 
ATOM     62  N   UNL A   1      42.566  29.788  29.770  1.00  0.00    -0.354 N 
ATOM     63  N   UNL A   1      45.383  28.972  29.811  1.00  0.00    -0.248 NA
ATOM     64  C   UNL A   1      47.634  29.459  30.209  1.00  0.00     0.031 C 
ATOM     65  C   UNL A   1      42.048  31.826  30.489  1.00  0.00     0.029 A 
ATOM     66  C   UNL A   1      43.107  30.956  30.280  1.00  0.00     0.049 A 
ATOM     67  H   UNL A   1      43.082  28.989  29.518  1.00  0.00     0.167 HD
ATOM     68  C   UNL A   1      45.489  30.266  30.304  1.00  0.00     0.074 A 
ATOM     69  C   UNL A   1      46.894  30.501  30.564  1.00  0.00     0.031 C 
ATOM     70  C   UNL A   1      44.509  31.177  30.526  1.00  0.00     0.031 A 
BRANCH  57  71
ATOM     71  C   UNL A   1      38.848  29.206  29.011  1.00  0.00    -0.014 A 
ATOM     72  C   UNL A   1      37.962  29.040  30.089  1.00  0.00     0.009 A 
ATOM     73  C   UNL A   1      38.346  29.686  27.791  1.00  0.00     0.009 A 
ATOM     74  C   UNL A   1      36.599  29.301  29.934  1.00  0.00     0.001 A 
ATOM     75  C   UNL A   1      36.988  29.980  27.650  1.00  0.00     0.001 A 
ATOM     76  C   UNL A   1      36.115  29.775  28.716  1.00  0.00     0.000 A 
ENDBRANCH  57  71
BRANCH  58  77
ATOM     77  C   UNL A   1      48.533  26.798  29.390  1.00  0.00    -0.014 A 
ATOM     78  C   UNL A   1      49.096  26.214  30.536  1.00  0.00     0.009 A 
ATOM     79  C   UNL A   1      49.358  27.047  28.282  1.00  0.00     0.009 A 
ATOM     80  C   UNL A   1      50.459  25.910  30.579  1.00  0.00     0.001 A 
ATOM     81  C   UNL A   1      50.714  26.712  28.316  1.00  0.00     0.001 A 
ATOM     82  C   UNL A   1      51.265  26.154  29.468  1.00  0.00     0.000 A 
ENDBRANCH  58  77
BRANCH  70  83
ATOM     83  C   UNL A   1      44.919  32.501  31.108  1.00  0.00    -0.014 A 
ATOM     84  C   UNL A   1      45.001  32.697  32.495  1.00  0.00     0.009 A 
ATOM     85  C   UNL A   1      45.270  33.555  30.250  1.00  0.00     0.009 A 
ATOM     86  C   UNL A   1      45.396  33.933  33.011  1.00  0.00     0.001 A 
ATOM     87  C   UNL A   1      45.695  34.780  30.768  1.00  0.00     0.001 A 
ATOM     88  C   UNL A   1      45.748  34.971  32.148  1.00  0.00     0.000 A 
ENDBRANCH  70  83
ENDBRANCH  44  45
ENDBRANCH  36  39
ENDBRANCH  34  35
ENDBRANCH  33  34
ENDBRANCH  32  33
ENDBRANCH   3  32
TORSDOF 17
ENDMDL
MODEL 3
REMARK VINA RESULT:     -11.3      3.296      9.105
REMARK SMILES C/C=C/C=C/C=C/C(=O)O[C@H]1C=C(C=O)[C@](O)(C(=O)NCCCNC(=O)c2ccc(-c3c4nc(c(-c5ccccc5)c5ccc([nH]5)c(-c5ccccc5)c5nc(c(-c6ccccc6)c6ccc3[nH]6)C=C5)C=C4)cc2)[C@]2(C)CCCC(C)(C)[C@@H]12
REMARK SMILES IDX 18 1 19 2 20 3 16 5 11 6 12 7 83 8 13 9 75 10 80 11 77 12
REMARK SMILES IDX 76 13 79 14 81 15 82 16 78 17 10 18 8 19 9 20 7 21 6 22 5 23
REMARK SMILES IDX 4 24 3 25 1 26 2 27 14 28 15 29 17 30 21 32 22 33 23 34
REMARK SMILES IDX 24 35 25 36 26 38 27 39 28 40 74 41 29 42 73 43 30 44 31 45
REMARK SMILES IDX 32 46 67 47 33 48 72 49 66 50 68 51 34 52 71 53 65 54 64 55
REMARK SMILES IDX 35 57 57 58 42 59 56 60 43 61 46 62 55 63 69 64 44 65 45 66
REMARK SMILES IDX 54 68 70 69 47 70 36 71 37 72 41 73 38 74 40 75 39 76 58 77
REMARK SMILES IDX 59 78 63 79 60 80 62 81 61 82 48 83 49 84 53 85 50 86 52 87
REMARK SMILES IDX 51 88
REMARK H PARENT 20 4 17 31 24 37 68 56 46 67
REMARK Flexibility Score: inf
ROOT
ATOM      1  C   UNL A   1      34.316  22.144  25.690  1.00  0.00     0.257 C 
ATOM      2  O   UNL A   1      34.164  21.623  26.815  1.00  0.00    -0.271 OA
ATOM      3  N   UNL A   1      35.526  21.984  25.079  1.00  0.00    -0.353 N 
ATOM      4  H   UNL A   1      35.872  22.612  24.404  1.00  0.00     0.163 HD
ENDROOT
BRANCH   1   5
ATOM      5  C   UNL A   1      33.064  22.871  25.107  1.00  0.00     0.176 C 
ATOM      6  C   UNL A   1      33.390  25.933  25.018  1.00  0.00     0.204 C 
ATOM      7  C   UNL A   1      33.580  24.972  26.170  1.00  0.00     0.028 C 
ATOM      8  C   UNL A   1      33.160  25.152  23.662  1.00  0.00     0.049 C 
ATOM      9  C   UNL A   1      32.792  23.886  26.191  1.00  0.00     0.033 C 
ATOM     10  C   UNL A   1      32.694  23.592  23.726  1.00  0.00     0.017 C 
ATOM     11  C   UNL A   1      32.671  25.982  22.404  1.00  0.00    -0.028 C 
ATOM     12  C   UNL A   1      33.304  22.965  22.436  1.00  0.00     0.011 C 
ATOM     13  C   UNL A   1      31.142  23.365  23.552  1.00  0.00     0.016 C 
ATOM     14  C   UNL A   1      33.069  25.183  21.123  1.00  0.00     0.007 C 
ATOM     15  C   UNL A   1      31.164  26.326  22.374  1.00  0.00     0.011 C 
ATOM     16  C   UNL A   1      33.402  27.348  22.320  1.00  0.00     0.011 C 
ATOM     17  C   UNL A   1      32.776  23.677  21.161  1.00  0.00     0.001 C 
BRANCH   6  18
ATOM     18  O   UNL A   1      32.508  27.001  25.373  1.00  0.00    -0.455 OA
BRANCH  18  19
ATOM     19  C   UNL A   1      32.838  28.321  25.216  1.00  0.00     0.331 C 
ATOM     20  O   UNL A   1      33.911  28.762  25.625  1.00  0.00    -0.247 OA
BRANCH  19  21
ATOM     21  C   UNL A   1      31.935  29.263  24.490  1.00  0.00     0.093 C 
ATOM     22  C   UNL A   1      30.635  29.078  24.201  1.00  0.00     0.007 C 
BRANCH  22  23
ATOM     23  C   UNL A   1      29.826  29.997  23.419  1.00  0.00     0.000 C 
ATOM     24  C   UNL A   1      29.665  29.857  22.092  1.00  0.00    -0.000 C 
BRANCH  24  25
ATOM     25  C   UNL A   1      28.805  30.697  21.281  1.00  0.00    -0.005 C 
ATOM     26  C   UNL A   1      27.776  32.917  20.707  1.00  0.00     0.035 C 
ATOM     27  C   UNL A   1      28.569  31.987  21.572  1.00  0.00    -0.030 C 
ENDBRANCH  24  25
ENDBRANCH  22  23
ENDBRANCH  19  21
ENDBRANCH  18  19
ENDBRANCH   6  18
BRANCH   9  28
ATOM     28  C   UNL A   1      31.386  24.035  26.640  1.00  0.00     0.259 C 
ATOM     29  O   UNL A   1      30.790  23.185  27.288  1.00  0.00    -0.298 OA
ENDBRANCH   9  28
BRANCH   5  30
ATOM     30  O   UNL A   1      32.163  21.725  25.255  1.00  0.00    -0.375 OA
ATOM     31  H   UNL A   1      31.446  21.790  24.604  1.00  0.00     0.212 HD
ENDBRANCH   5  30
ENDBRANCH   1   5
BRANCH   3  32
ATOM     32  C   UNL A   1      36.261  20.799  25.513  1.00  0.00     0.117 C 
BRANCH  32  33
ATOM     33  C   UNL A   1      37.518  20.443  24.755  1.00  0.00     0.042 C 
BRANCH  33  34
ATOM     34  C   UNL A   1      38.794  20.833  25.485  1.00  0.00     0.118 C 
BRANCH  34  35
ATOM     35  N   UNL A   1      39.794  19.770  25.547  1.00  0.00    -0.352 N 
ATOM     36  C   UNL A   1      41.113  19.799  25.961  1.00  0.00     0.251 C 
ATOM     37  H   UNL A   1      39.476  18.888  25.247  1.00  0.00     0.163 HD
ATOM     38  O   UNL A   1      41.825  18.824  25.840  1.00  0.00    -0.269 OA
BRANCH  36  39
ATOM     39  C   UNL A   1      41.662  21.053  26.523  1.00  0.00     0.039 A 
ATOM     40  C   UNL A   1      42.210  22.003  25.658  1.00  0.00     0.014 A 
ATOM     41  C   UNL A   1      41.598  21.301  27.893  1.00  0.00     0.014 A 
ATOM     42  C   UNL A   1      42.594  23.248  26.159  1.00  0.00     0.010 A 
ATOM     43  C   UNL A   1      41.877  22.575  28.372  1.00  0.00     0.010 A 
ATOM     44  C   UNL A   1      42.379  23.563  27.511  1.00  0.00    -0.014 A 
BRANCH  44  45
ATOM     45  C   UNL A   1      42.670  24.916  28.051  1.00  0.00     0.031 A 
ATOM     46  C   UNL A   1      44.066  25.268  28.482  1.00  0.00     0.074 A 
ATOM     47  C   UNL A   1      41.666  25.797  28.228  1.00  0.00     0.049 A 
ATOM     48  N   UNL A   1      44.506  26.368  29.040  1.00  0.00    -0.248 NA
ATOM     49  C   UNL A   1      45.101  24.238  28.292  1.00  0.00     0.031 C 
ATOM     50  C   UNL A   1      40.258  25.561  27.898  1.00  0.00     0.029 A 
ATOM     51  N   UNL A   1      41.677  27.072  28.735  1.00  0.00    -0.354 N 
ATOM     52  C   UNL A   1      45.856  26.152  29.284  1.00  0.00     0.074 A 
ATOM     53  C   UNL A   1      46.149  24.796  28.875  1.00  0.00     0.031 C 
ATOM     54  C   UNL A   1      39.550  26.666  28.178  1.00  0.00     0.029 A 
ATOM     55  C   UNL A   1      40.440  27.671  28.748  1.00  0.00     0.049 A 
ATOM     56  H   UNL A   1      42.493  27.516  29.059  1.00  0.00     0.167 HD
ATOM     57  C   UNL A   1      46.778  27.010  29.781  1.00  0.00     0.031 A 
ATOM     58  C   UNL A   1      40.063  28.891  29.175  1.00  0.00     0.031 A 
ATOM     59  C   UNL A   1      46.488  28.361  30.178  1.00  0.00     0.049 A 
ATOM     60  C   UNL A   1      41.101  29.824  29.734  1.00  0.00     0.074 A 
ATOM     61  C   UNL A   1      47.361  29.332  30.635  1.00  0.00     0.029 A 
ATOM     62  N   UNL A   1      45.224  28.932  30.167  1.00  0.00    -0.354 N 
ATOM     63  N   UNL A   1      42.388  29.631  29.889  1.00  0.00    -0.248 NA
ATOM     64  C   UNL A   1      40.634  31.149  30.167  1.00  0.00     0.031 C 
ATOM     65  C   UNL A   1      46.617  30.471  30.959  1.00  0.00     0.029 A 
ATOM     66  C   UNL A   1      45.289  30.232  30.639  1.00  0.00     0.049 A 
ATOM     67  H   UNL A   1      44.402  28.479  29.868  1.00  0.00     0.167 HD
ATOM     68  C   UNL A   1      42.890  30.816  30.411  1.00  0.00     0.074 A 
ATOM     69  C   UNL A   1      41.770  31.728  30.530  1.00  0.00     0.031 C 
ATOM     70  C   UNL A   1      44.164  31.124  30.757  1.00  0.00     0.031 A 
BRANCH  57  71
ATOM     71  C   UNL A   1      48.185  26.500  29.932  1.00  0.00    -0.014 A 
ATOM     72  C   UNL A   1      49.133  26.653  28.906  1.00  0.00     0.009 A 
ATOM     73  C   UNL A   1      48.574  25.869  31.124  1.00  0.00     0.009 A 
ATOM     74  C   UNL A   1      50.424  26.143  29.052  1.00  0.00     0.001 A 
ATOM     75  C   UNL A   1      49.877  25.391  31.281  1.00  0.00     0.001 A 
ATOM     76  C   UNL A   1      50.796  25.517  30.241  1.00  0.00     0.000 A 
ENDBRANCH  57  71
BRANCH  58  77
ATOM     77  C   UNL A   1      38.640  29.310  29.069  1.00  0.00    -0.014 A 
ATOM     78  C   UNL A   1      37.785  29.217  30.179  1.00  0.00     0.009 A 
ATOM     79  C   UNL A   1      38.128  29.808  27.861  1.00  0.00     0.009 A 
ATOM     80  C   UNL A   1      36.444  29.592  30.073  1.00  0.00     0.001 A 
ATOM     81  C   UNL A   1      36.794  30.211  27.767  1.00  0.00     0.001 A 
ATOM     82  C   UNL A   1      35.951  30.094  28.870  1.00  0.00     0.000 A 
ENDBRANCH  58  77
BRANCH  70  83
ATOM     83  C   UNL A   1      44.423  32.514  31.268  1.00  0.00    -0.014 A 
ATOM     84  C   UNL A   1      44.380  32.810  32.639  1.00  0.00     0.009 A 
ATOM     85  C   UNL A   1      44.757  33.533  30.362  1.00  0.00     0.009 A 
ATOM     86  C   UNL A   1      44.635  34.107  33.089  1.00  0.00     0.001 A 
ATOM     87  C   UNL A   1      45.043  34.821  30.817  1.00  0.00     0.001 A 
ATOM     88  C   UNL A   1      44.972  35.110  32.179  1.00  0.00     0.000 A 
ENDBRANCH  70  83
ENDBRANCH  44  45
ENDBRANCH  36  39
ENDBRANCH  34  35
ENDBRANCH  33  34
ENDBRANCH  32  33
ENDBRANCH   3  32
TORSDOF 17
ENDMDL
