MODEL 1
REMARK VINA RESULT:     -11.6      0.000      0.000
REMARK SMILES CC(C)(C)C(=O)NCC(=O)Nc1cc(Cl)ccc1C(=O)NCCCNC(=O)c1ccc(-c2c3nc(c(-c4ccccc4)c4ccc([nH]4)c(-c4ccccc4)c4nc(c(-c5ccccc5)c5ccc2[nH]5)C=C4)C=C3)cc1
REMARK SMILES IDX 22 1 21 2 19 3 20 4 18 6 12 7 13 8 14 9 17 10 15 11 16 12
REMARK SMILES IDX 11 13 9 14 10 15 8 17 7 18 5 19 6 20 2 22 1 23 3 24 4 25
REMARK SMILES IDX 23 26 24 27 25 28 26 29 27 31 28 32 29 33 75 34 30 35 74 36
REMARK SMILES IDX 31 37 32 38 33 39 68 40 34 41 73 42 67 43 69 44 35 45 72 46
REMARK SMILES IDX 66 47 65 48 36 50 58 51 43 52 57 53 44 54 47 55 56 56 70 57
REMARK SMILES IDX 45 58 46 59 55 61 71 62 48 63 37 64 38 65 42 66 39 67 41 68
REMARK SMILES IDX 40 69 59 70 60 71 64 72 61 73 63 74 62 75 49 76 50 77 54 78
REMARK SMILES IDX 51 79 53 80 52 81
REMARK H PARENT 21 5 11 16 7 21 25 30 69 49 47 60
REMARK Flexibility Score: inf
ROOT
ATOM      1  C   UNL A   1      35.486  21.347  25.700  1.00  0.00     0.118 C 
ENDROOT
BRANCH   1   2
ATOM      2  N   UNL A   1      34.236  20.624  25.723  1.00  0.00    -0.352 N 
ATOM      3  C   UNL A   1      33.036  20.823  25.094  1.00  0.00     0.253 C 
ATOM      4  O   UNL A   1      32.186  19.950  25.300  1.00  0.00    -0.269 OA
ATOM      5  H   UNL A   1      34.250  19.832  26.307  1.00  0.00     0.163 HD
BRANCH   3   6
ATOM      6  C   UNL A   1      32.643  21.998  24.246  1.00  0.00     0.063 A 
ATOM      7  C   UNL A   1      31.533  22.861  24.362  1.00  0.00     0.055 A 
ATOM      8  C   UNL A   1      31.422  23.969  23.499  1.00  0.00     0.047 A 
ATOM      9  C   UNL A   1      32.346  24.193  22.481  1.00  0.00     0.043 A 
ATOM     10  C   UNL A   1      33.558  22.249  23.191  1.00  0.00     0.017 A 
ATOM     11  Cl  UNL A   1      32.177  25.557  21.450  1.00  0.00    -0.084 Cl
ATOM     12  C   UNL A   1      33.410  23.326  22.312  1.00  0.00     0.021 A 
BRANCH   7  13
ATOM     13  N   UNL A   1      30.616  22.813  25.418  1.00  0.00    -0.324 N 
ATOM     14  C   UNL A   1      30.656  23.451  26.639  1.00  0.00     0.243 C 
ATOM     15  O   UNL A   1      29.741  23.207  27.433  1.00  0.00    -0.273 OA
ATOM     16  H   UNL A   1      29.829  22.241  25.268  1.00  0.00     0.170 HD
BRANCH  14  17
ATOM     17  C   UNL A   1      31.614  24.637  26.912  1.00  0.00     0.216 C 
BRANCH  17  18
ATOM     18  N   UNL A   1      31.204  25.910  26.373  1.00  0.00    -0.347 N 
ATOM     19  C   UNL A   1      31.843  26.948  25.786  1.00  0.00     0.225 C 
ATOM     20  O   UNL A   1      31.094  27.885  25.480  1.00  0.00    -0.275 OA
ATOM     21  H   UNL A   1      30.234  26.059  26.450  1.00  0.00     0.164 HD
BRANCH  19  22
ATOM     22  C   UNL A   1      33.346  26.988  25.421  1.00  0.00     0.041 C 
ATOM     23  C   UNL A   1      34.048  27.861  26.492  1.00  0.00     0.021 C 
ATOM     24  C   UNL A   1      33.508  27.664  24.055  1.00  0.00     0.021 C 
ATOM     25  C   UNL A   1      34.092  25.650  25.424  1.00  0.00     0.021 C 
ENDBRANCH  19  22
ENDBRANCH  17  18
ENDBRANCH  14  17
ENDBRANCH   7  13
ENDBRANCH   3   6
ENDBRANCH   1   2
BRANCH   1  26
ATOM     26  C   UNL A   1      36.639  20.663  24.983  1.00  0.00     0.042 C 
BRANCH  26  27
ATOM     27  C   UNL A   1      38.030  21.088  25.434  1.00  0.00     0.118 C 
BRANCH  27  28
ATOM     28  N   UNL A   1      39.016  20.016  25.442  1.00  0.00    -0.352 N 
ATOM     29  C   UNL A   1      40.315  19.944  25.886  1.00  0.00     0.251 C 
ATOM     30  H   UNL A   1      38.686  19.175  25.050  1.00  0.00     0.163 HD
ATOM     31  O   UNL A   1      40.949  18.907  25.696  1.00  0.00    -0.269 OA
BRANCH  29  32
ATOM     32  C   UNL A   1      40.992  21.093  26.533  1.00  0.00     0.039 A 
ATOM     33  C   UNL A   1      41.617  22.046  25.719  1.00  0.00     0.014 A 
ATOM     34  C   UNL A   1      41.047  21.243  27.916  1.00  0.00     0.014 A 
ATOM     35  C   UNL A   1      42.181  23.195  26.284  1.00  0.00     0.010 A 
ATOM     36  C   UNL A   1      41.506  22.436  28.471  1.00  0.00     0.010 A 
ATOM     37  C   UNL A   1      42.063  23.435  27.661  1.00  0.00    -0.014 A 
BRANCH  37  38
ATOM     38  C   UNL A   1      42.473  24.726  28.276  1.00  0.00     0.031 A 
ATOM     39  C   UNL A   1      41.467  25.827  28.490  1.00  0.00     0.074 A 
ATOM     40  C   UNL A   1      43.777  24.955  28.536  1.00  0.00     0.049 A 
ATOM     41  N   UNL A   1      41.665  27.068  28.861  1.00  0.00    -0.248 NA
ATOM     42  C   UNL A   1      40.058  25.500  28.222  1.00  0.00     0.031 C 
ATOM     43  C   UNL A   1      44.865  23.994  28.337  1.00  0.00     0.029 A 
ATOM     44  N   UNL A   1      44.412  26.077  29.007  1.00  0.00    -0.354 N 
ATOM     45  C   UNL A   1      40.415  27.674  28.837  1.00  0.00     0.074 A 
ATOM     46  C   UNL A   1      39.472  26.678  28.376  1.00  0.00     0.031 C 
ATOM     47  C   UNL A   1      46.026  24.558  28.706  1.00  0.00     0.029 A 
ATOM     48  C   UNL A   1      45.776  25.935  29.114  1.00  0.00     0.049 A 
ATOM     49  H   UNL A   1      43.937  26.905  29.247  1.00  0.00     0.167 HD
ATOM     50  C   UNL A   1      40.079  28.940  29.182  1.00  0.00     0.031 A 
ATOM     51  C   UNL A   1      46.725  26.818  29.475  1.00  0.00     0.031 A 
ATOM     52  C   UNL A   1      41.009  29.923  29.667  1.00  0.00     0.049 A 
ATOM     53  C   UNL A   1      46.328  28.221  29.836  1.00  0.00     0.074 A 
ATOM     54  C   UNL A   1      40.751  31.207  30.116  1.00  0.00     0.029 A 
ATOM     55  N   UNL A   1      42.379  29.734  29.765  1.00  0.00    -0.354 N 
ATOM     56  N   UNL A   1      45.133  28.757  29.866  1.00  0.00    -0.248 NA
ATOM     57  C   UNL A   1      47.413  29.139  30.212  1.00  0.00     0.031 C 
ATOM     58  C   UNL A   1      41.970  31.813  30.437  1.00  0.00     0.029 A 
ATOM     59  C   UNL A   1      42.982  30.889  30.234  1.00  0.00     0.049 A 
ATOM     60  H   UNL A   1      42.852  28.902  29.534  1.00  0.00     0.167 HD
ATOM     61  C   UNL A   1      45.319  30.071  30.277  1.00  0.00     0.074 A 
ATOM     62  C   UNL A   1      46.740  30.242  30.507  1.00  0.00     0.031 C 
ATOM     63  C   UNL A   1      44.397  31.048  30.446  1.00  0.00     0.031 A 
BRANCH  50  64
ATOM     64  C   UNL A   1      38.635  29.336  29.043  1.00  0.00    -0.014 A 
ATOM     65  C   UNL A   1      38.113  29.772  27.816  1.00  0.00     0.009 A 
ATOM     66  C   UNL A   1      37.774  29.233  30.148  1.00  0.00     0.009 A 
ATOM     67  C   UNL A   1      36.768  30.134  27.706  1.00  0.00     0.001 A 
ATOM     68  C   UNL A   1      36.423  29.568  30.028  1.00  0.00     0.001 A 
ATOM     69  C   UNL A   1      35.925  30.028  28.810  1.00  0.00     0.000 A 
ENDBRANCH  50  64
BRANCH  51  70
ATOM     70  C   UNL A   1      48.152  26.405  29.505  1.00  0.00    -0.014 A 
ATOM     71  C   UNL A   1      48.707  25.859  30.673  1.00  0.00     0.009 A 
ATOM     72  C   UNL A   1      48.967  26.554  28.372  1.00  0.00     0.009 A 
ATOM     73  C   UNL A   1      50.054  25.493  30.711  1.00  0.00     0.001 A 
ATOM     74  C   UNL A   1      50.306  26.160  28.405  1.00  0.00     0.001 A 
ATOM     75  C   UNL A   1      50.851  25.639  29.576  1.00  0.00     0.000 A 
ENDBRANCH  51  70
BRANCH  63  76
ATOM     76  C   UNL A   1      44.895  32.387  30.910  1.00  0.00    -0.014 A 
ATOM     77  C   UNL A   1      45.251  33.384  29.988  1.00  0.00     0.009 A 
ATOM     78  C   UNL A   1      44.972  32.666  32.282  1.00  0.00     0.009 A 
ATOM     79  C   UNL A   1      45.702  34.628  30.435  1.00  0.00     0.001 A 
ATOM     80  C   UNL A   1      45.397  33.920  32.726  1.00  0.00     0.001 A 
ATOM     81  C   UNL A   1      45.768  34.896  31.802  1.00  0.00     0.000 A 
ENDBRANCH  63  76
ENDBRANCH  37  38
ENDBRANCH  29  32
ENDBRANCH  27  28
ENDBRANCH  26  27
ENDBRANCH   1  26
TORSDOF 14
ENDMDL
MODEL 2
REMARK VINA RESULT:     -11.2      2.326      6.790
REMARK SMILES CC(C)(C)C(=O)NCC(=O)Nc1cc(Cl)ccc1C(=O)NCCCNC(=O)c1ccc(-c2c3nc(c(-c4ccccc4)c4ccc([nH]4)c(-c4ccccc4)c4nc(c(-c5ccccc5)c5ccc2[nH]5)C=C4)C=C3)cc1
REMARK SMILES IDX 22 1 21 2 19 3 20 4 18 6 12 7 13 8 14 9 17 10 15 11 16 12
REMARK SMILES IDX 11 13 9 14 10 15 8 17 7 18 5 19 6 20 2 22 1 23 3 24 4 25
REMARK SMILES IDX 23 26 24 27 25 28 26 29 27 31 28 32 29 33 75 34 30 35 74 36
REMARK SMILES IDX 31 37 32 38 33 39 68 40 34 41 73 42 67 43 69 44 35 45 72 46
REMARK SMILES IDX 66 47 65 48 36 50 58 51 43 52 57 53 44 54 47 55 56 56 70 57
REMARK SMILES IDX 45 58 46 59 55 61 71 62 48 63 37 64 38 65 42 66 39 67 41 68
REMARK SMILES IDX 40 69 59 70 60 71 64 72 61 73 63 74 62 75 49 76 50 77 54 78
REMARK SMILES IDX 51 79 53 80 52 81
REMARK H PARENT 21 5 11 16 7 21 25 30 69 49 47 60
REMARK Flexibility Score: inf
ROOT
ATOM      1  C   UNL A   1      34.836  22.266  26.284  1.00  0.00     0.118 C 
ENDROOT
BRANCH   1   2
ATOM      2  N   UNL A   1      33.667  21.452  26.053  1.00  0.00    -0.352 N 
ATOM      3  C   UNL A   1      32.673  21.500  25.112  1.00  0.00     0.253 C 
ATOM      4  O   UNL A   1      31.847  20.584  25.177  1.00  0.00    -0.269 OA
ATOM      5  H   UNL A   1      33.564  20.717  26.700  1.00  0.00     0.163 HD
BRANCH   3   6
ATOM      6  C   UNL A   1      32.463  22.562  24.071  1.00  0.00     0.063 A 
ATOM      7  C   UNL A   1      31.455  23.544  23.977  1.00  0.00     0.055 A 
ATOM      8  C   UNL A   1      31.518  24.507  22.952  1.00  0.00     0.047 A 
ATOM      9  C   UNL A   1      32.513  24.469  21.979  1.00  0.00     0.043 A 
ATOM     10  C   UNL A   1      33.456  22.545  23.057  1.00  0.00     0.017 A 
ATOM     11  Cl  UNL A   1      32.557  25.664  20.745  1.00  0.00    -0.084 Cl
ATOM     12  C   UNL A   1      33.479  23.480  22.018  1.00  0.00     0.021 A 
BRANCH   7  13
ATOM     13  N   UNL A   1      30.484  23.759  24.962  1.00  0.00    -0.324 N 
ATOM     14  C   UNL A   1      30.616  24.331  26.208  1.00  0.00     0.243 C 
ATOM     15  O   UNL A   1      29.609  24.365  26.924  1.00  0.00    -0.273 OA
ATOM     16  H   UNL A   1      29.575  23.459  24.731  1.00  0.00     0.170 HD
BRANCH  14  17
ATOM     17  C   UNL A   1      31.864  25.161  26.600  1.00  0.00     0.216 C 
BRANCH  17  18
ATOM     18  N   UNL A   1      31.600  26.470  27.147  1.00  0.00    -0.347 N 
ATOM     19  C   UNL A   1      31.615  27.730  26.656  1.00  0.00     0.225 C 
ATOM     20  O   UNL A   1      31.335  28.595  27.495  1.00  0.00    -0.275 OA
ATOM     21  H   UNL A   1      31.349  26.438  28.099  1.00  0.00     0.164 HD
BRANCH  19  22
ATOM     22  C   UNL A   1      31.863  28.116  25.178  1.00  0.00     0.041 C 
ATOM     23  C   UNL A   1      32.017  29.658  25.134  1.00  0.00     0.021 C 
ATOM     24  C   UNL A   1      30.635  27.723  24.349  1.00  0.00     0.021 C 
ATOM     25  C   UNL A   1      33.128  27.554  24.521  1.00  0.00     0.021 C 
ENDBRANCH  19  22
ENDBRANCH  17  18
ENDBRANCH  14  17
ENDBRANCH   7  13
ENDBRANCH   3   6
ENDBRANCH   1   2
BRANCH   1  26
ATOM     26  C   UNL A   1      36.065  21.921  25.458  1.00  0.00     0.042 C 
BRANCH  26  27
ATOM     27  C   UNL A   1      37.197  22.938  25.516  1.00  0.00     0.118 C 
BRANCH  27  28
ATOM     28  N   UNL A   1      38.516  22.361  25.730  1.00  0.00    -0.352 N 
ATOM     29  C   UNL A   1      39.676  22.858  26.278  1.00  0.00     0.251 C 
ATOM     30  H   UNL A   1      38.594  21.430  25.419  1.00  0.00     0.163 HD
ATOM     31  O   UNL A   1      40.685  22.154  26.265  1.00  0.00    -0.269 OA
BRANCH  29  32
ATOM     32  C   UNL A   1      39.762  24.230  26.831  1.00  0.00     0.039 A 
ATOM     33  C   UNL A   1      39.258  24.467  28.116  1.00  0.00     0.014 A 
ATOM     34  C   UNL A   1      40.305  25.291  26.111  1.00  0.00     0.014 A 
ATOM     35  C   UNL A   1      39.409  25.722  28.713  1.00  0.00     0.010 A 
ATOM     36  C   UNL A   1      40.557  26.507  26.743  1.00  0.00     0.010 A 
ATOM     37  C   UNL A   1      40.127  26.733  28.058  1.00  0.00    -0.014 A 
BRANCH  37  38
ATOM     38  C   UNL A   1      40.480  28.014  28.729  1.00  0.00     0.031 A 
ATOM     39  C   UNL A   1      41.805  28.175  29.426  1.00  0.00     0.074 A 
ATOM     40  C   UNL A   1      39.559  28.996  28.812  1.00  0.00     0.049 A 
ATOM     41  N   UNL A   1      42.222  29.150  30.195  1.00  0.00    -0.248 NA
ATOM     42  C   UNL A   1      42.777  27.082  29.264  1.00  0.00     0.031 C 
ATOM     43  C   UNL A   1      38.219  28.958  28.220  1.00  0.00     0.029 A 
ATOM     44  N   UNL A   1      39.603  30.213  29.446  1.00  0.00    -0.354 N 
ATOM     45  C   UNL A   1      43.485  28.773  30.633  1.00  0.00     0.074 A 
ATOM     46  C   UNL A   1      43.750  27.463  30.080  1.00  0.00     0.031 C 
ATOM     47  C   UNL A   1      37.581  30.106  28.498  1.00  0.00     0.029 A 
ATOM     48  C   UNL A   1      38.440  30.937  29.332  1.00  0.00     0.049 A 
ATOM     49  H   UNL A   1      40.393  30.537  29.936  1.00  0.00     0.167 HD
ATOM     50  C   UNL A   1      44.354  29.460  31.413  1.00  0.00     0.031 A 
ATOM     51  C   UNL A   1      38.090  32.126  29.857  1.00  0.00     0.031 A 
ATOM     52  C   UNL A   1      44.105  30.774  31.942  1.00  0.00     0.049 A 
ATOM     53  C   UNL A   1      39.065  32.861  30.733  1.00  0.00     0.074 A 
ATOM     54  C   UNL A   1      44.954  31.583  32.677  1.00  0.00     0.029 A 
ATOM     55  N   UNL A   1      42.916  31.472  31.796  1.00  0.00    -0.354 N 
ATOM     56  N   UNL A   1      40.279  32.515  31.086  1.00  0.00    -0.248 NA
ATOM     57  C   UNL A   1      38.619  34.148  31.283  1.00  0.00     0.031 C 
ATOM     58  C   UNL A   1      44.262  32.749  33.019  1.00  0.00     0.029 A 
ATOM     59  C   UNL A   1      42.998  32.688  32.455  1.00  0.00     0.049 A 
ATOM     60  H   UNL A   1      42.130  31.151  31.297  1.00  0.00     0.167 HD
ATOM     61  C   UNL A   1      40.747  33.548  31.887  1.00  0.00     0.074 A 
ATOM     62  C   UNL A   1      39.695  34.542  31.949  1.00  0.00     0.031 C 
ATOM     63  C   UNL A   1      41.940  33.660  32.518  1.00  0.00     0.031 A 
BRANCH  50  64
ATOM     64  C   UNL A   1      45.662  28.797  31.745  1.00  0.00    -0.014 A 
ATOM     65  C   UNL A   1      45.802  27.991  32.885  1.00  0.00     0.009 A 
ATOM     66  C   UNL A   1      46.760  28.949  30.883  1.00  0.00     0.009 A 
ATOM     67  C   UNL A   1      47.025  27.382  33.176  1.00  0.00     0.001 A 
ATOM     68  C   UNL A   1      47.973  28.315  31.161  1.00  0.00     0.001 A 
ATOM     69  C   UNL A   1      48.107  27.541  32.312  1.00  0.00     0.000 A 
ENDBRANCH  50  64
BRANCH  51  70
ATOM     70  C   UNL A   1      36.747  32.697  29.577  1.00  0.00    -0.014 A 
ATOM     71  C   UNL A   1      35.721  32.596  30.529  1.00  0.00     0.009 A 
ATOM     72  C   UNL A   1      36.481  33.344  28.359  1.00  0.00     0.009 A 
ATOM     73  C   UNL A   1      34.452  33.111  30.258  1.00  0.00     0.001 A 
ATOM     74  C   UNL A   1      35.219  33.882  28.103  1.00  0.00     0.001 A 
ATOM     75  C   UNL A   1      34.203  33.757  29.049  1.00  0.00     0.000 A 
ENDBRANCH  51  70
BRANCH  63  76
ATOM     76  C   UNL A   1      42.174  34.907  33.322  1.00  0.00    -0.014 A 
ATOM     77  C   UNL A   1      41.660  35.036  34.621  1.00  0.00     0.009 A 
ATOM     78  C   UNL A   1      42.949  35.947  32.788  1.00  0.00     0.009 A 
ATOM     79  C   UNL A   1      41.896  36.197  35.361  1.00  0.00     0.001 A 
ATOM     80  C   UNL A   1      43.206  37.095  33.540  1.00  0.00     0.001 A 
ATOM     81  C   UNL A   1      42.673  37.222  34.822  1.00  0.00     0.000 A 
ENDBRANCH  63  76
ENDBRANCH  37  38
ENDBRANCH  29  32
ENDBRANCH  27  28
ENDBRANCH  26  27
ENDBRANCH   1  26
TORSDOF 14
ENDMDL
MODEL 3
REMARK VINA RESULT:     -11.1      1.631      7.222
REMARK SMILES CC(C)(C)C(=O)NCC(=O)Nc1cc(Cl)ccc1C(=O)NCCCNC(=O)c1ccc(-c2c3nc(c(-c4ccccc4)c4ccc([nH]4)c(-c4ccccc4)c4nc(c(-c5ccccc5)c5ccc2[nH]5)C=C4)C=C3)cc1
REMARK SMILES IDX 22 1 21 2 19 3 20 4 18 6 12 7 13 8 14 9 17 10 15 11 16 12
REMARK SMILES IDX 11 13 9 14 10 15 8 17 7 18 5 19 6 20 2 22 1 23 3 24 4 25
REMARK SMILES IDX 23 26 24 27 25 28 26 29 27 31 28 32 29 33 75 34 30 35 74 36
REMARK SMILES IDX 31 37 32 38 33 39 68 40 34 41 73 42 67 43 69 44 35 45 72 46
REMARK SMILES IDX 66 47 65 48 36 50 58 51 43 52 57 53 44 54 47 55 56 56 70 57
REMARK SMILES IDX 45 58 46 59 55 61 71 62 48 63 37 64 38 65 42 66 39 67 41 68
REMARK SMILES IDX 40 69 59 70 60 71 64 72 61 73 63 74 62 75 49 76 50 77 54 78
REMARK SMILES IDX 51 79 53 80 52 81
REMARK H PARENT 21 5 11 16 7 21 25 30 69 49 47 60
REMARK Flexibility Score: inf
ROOT
ATOM      1  C   UNL A   1      32.518  27.804  26.883  1.00  0.00     0.118 C 
ENDROOT
BRANCH   1   2
ATOM      2  N   UNL A   1      31.296  27.035  26.923  1.00  0.00    -0.352 N 
ATOM      3  C   UNL A   1      30.724  26.153  26.045  1.00  0.00     0.253 C 
ATOM      4  O   UNL A   1      29.684  25.620  26.444  1.00  0.00    -0.269 OA
ATOM      5  H   UNL A   1      30.772  27.172  27.745  1.00  0.00     0.163 HD
BRANCH   3   6
ATOM      6  C   UNL A   1      31.195  25.824  24.658  1.00  0.00     0.063 A 
ATOM      7  C   UNL A   1      31.245  24.580  23.996  1.00  0.00     0.055 A 
ATOM      8  C   UNL A   1      31.638  24.528  22.644  1.00  0.00     0.047 A 
ATOM      9  C   UNL A   1      32.053  25.670  21.964  1.00  0.00     0.043 A 
ATOM     10  C   UNL A   1      31.635  26.966  23.938  1.00  0.00     0.017 A 
ATOM     11  Cl  UNL A   1      32.523  25.566  20.314  1.00  0.00    -0.084 Cl
ATOM     12  C   UNL A   1      32.068  26.892  22.611  1.00  0.00     0.021 A 
BRANCH   7  13
ATOM     13  N   UNL A   1      30.734  23.392  24.531  1.00  0.00    -0.324 N 
ATOM     14  C   UNL A   1      31.282  22.554  25.477  1.00  0.00     0.243 C 
ATOM     15  O   UNL A   1      30.652  21.526  25.753  1.00  0.00    -0.273 OA
ATOM     16  H   UNL A   1      29.856  23.115  24.181  1.00  0.00     0.170 HD
BRANCH  14  17
ATOM     17  C   UNL A   1      32.463  22.995  26.376  1.00  0.00     0.216 C 
BRANCH  17  18
ATOM     18  N   UNL A   1      33.647  22.174  26.304  1.00  0.00    -0.347 N 
ATOM     19  C   UNL A   1      34.868  22.308  25.738  1.00  0.00     0.225 C 
ATOM     20  O   UNL A   1      35.604  21.327  25.904  1.00  0.00    -0.275 OA
ATOM     21  H   UNL A   1      33.542  21.317  26.777  1.00  0.00     0.164 HD
BRANCH  19  22
ATOM     22  C   UNL A   1      35.390  23.573  25.016  1.00  0.00     0.041 C 
ATOM     23  C   UNL A   1      35.129  23.370  23.502  1.00  0.00     0.021 C 
ATOM     24  C   UNL A   1      36.902  23.685  25.242  1.00  0.00     0.021 C 
ATOM     25  C   UNL A   1      34.717  24.901  25.379  1.00  0.00     0.021 C 
ENDBRANCH  19  22
ENDBRANCH  17  18
ENDBRANCH  14  17
ENDBRANCH   7  13
ENDBRANCH   3   6
ENDBRANCH   1   2
BRANCH   1  26
ATOM     26  C   UNL A   1      32.393  29.275  27.248  1.00  0.00     0.042 C 
BRANCH  26  27
ATOM     27  C   UNL A   1      33.675  30.087  27.129  1.00  0.00     0.118 C 
BRANCH  27  28
ATOM     28  N   UNL A   1      33.861  31.079  28.178  1.00  0.00    -0.352 N 
ATOM     29  C   UNL A   1      34.893  31.334  29.051  1.00  0.00     0.251 C 
ATOM     30  H   UNL A   1      33.095  31.689  28.283  1.00  0.00     0.163 HD
ATOM     31  O   UNL A   1      34.746  32.213  29.900  1.00  0.00    -0.269 OA
BRANCH  29  32
ATOM     32  C   UNL A   1      36.150  30.549  29.038  1.00  0.00     0.039 A 
ATOM     33  C   UNL A   1      36.903  30.511  27.858  1.00  0.00     0.014 A 
ATOM     34  C   UNL A   1      36.592  29.833  30.147  1.00  0.00     0.014 A 
ATOM     35  C   UNL A   1      38.143  29.864  27.834  1.00  0.00     0.010 A 
ATOM     36  C   UNL A   1      37.873  29.285  30.159  1.00  0.00     0.010 A 
ATOM     37  C   UNL A   1      38.673  29.309  29.007  1.00  0.00    -0.014 A 
BRANCH  37  38
ATOM     38  C   UNL A   1      40.064  28.785  29.076  1.00  0.00     0.031 A 
ATOM     39  C   UNL A   1      41.215  29.703  29.394  1.00  0.00     0.074 A 
ATOM     40  C   UNL A   1      40.308  27.502  28.736  1.00  0.00     0.049 A 
ATOM     41  N   UNL A   1      42.501  29.465  29.342  1.00  0.00    -0.248 NA
ATOM     42  C   UNL A   1      40.875  31.079  29.792  1.00  0.00     0.031 C 
ATOM     43  C   UNL A   1      39.294  26.512  28.365  1.00  0.00     0.029 A 
ATOM     44  N   UNL A   1      41.492  26.815  28.629  1.00  0.00    -0.354 N 
ATOM     45  C   UNL A   1      43.122  30.665  29.666  1.00  0.00     0.074 A 
ATOM     46  C   UNL A   1      42.073  31.640  29.872  1.00  0.00     0.031 C 
ATOM     47  C   UNL A   1      39.896  25.343  28.096  1.00  0.00     0.029 A 
ATOM     48  C   UNL A   1      41.338  25.511  28.221  1.00  0.00     0.049 A 
ATOM     49  H   UNL A   1      42.369  27.217  28.828  1.00  0.00     0.167 HD
ATOM     50  C   UNL A   1      44.444  30.930  29.796  1.00  0.00     0.031 A 
ATOM     51  C   UNL A   1      42.253  24.562  27.951  1.00  0.00     0.031 A 
ATOM     52  C   UNL A   1      45.488  29.956  29.619  1.00  0.00     0.049 A 
ATOM     53  C   UNL A   1      43.713  24.885  28.086  1.00  0.00     0.074 A 
ATOM     54  C   UNL A   1      46.850  30.110  29.806  1.00  0.00     0.029 A 
ATOM     55  N   UNL A   1      45.285  28.647  29.212  1.00  0.00    -0.354 N 
ATOM     56  N   UNL A   1      44.278  26.009  28.453  1.00  0.00    -0.248 NA
ATOM     57  C   UNL A   1      44.661  23.808  27.767  1.00  0.00     0.031 C 
ATOM     58  C   UNL A   1      47.478  28.908  29.462  1.00  0.00     0.029 A 
ATOM     59  C   UNL A   1      46.501  27.992  29.108  1.00  0.00     0.049 A 
ATOM     60  H   UNL A   1      44.408  28.243  29.023  1.00  0.00     0.167 HD
ATOM     61  C   UNL A   1      45.646  25.771  28.424  1.00  0.00     0.074 A 
ATOM     62  C   UNL A   1      45.824  24.389  28.025  1.00  0.00     0.031 C 
ATOM     63  C   UNL A   1      46.663  26.622  28.699  1.00  0.00     0.031 A 
BRANCH  50  64
ATOM     64  C   UNL A   1      44.838  32.338  30.146  1.00  0.00    -0.014 A 
ATOM     65  C   UNL A   1      44.992  32.743  31.481  1.00  0.00     0.009 A 
ATOM     66  C   UNL A   1      45.099  33.264  29.123  1.00  0.00     0.009 A 
ATOM     67  C   UNL A   1      45.360  34.055  31.786  1.00  0.00     0.001 A 
ATOM     68  C   UNL A   1      45.496  34.567  29.430  1.00  0.00     0.001 A 
ATOM     69  C   UNL A   1      45.616  34.963  30.761  1.00  0.00     0.000 A 
ENDBRANCH  50  64
BRANCH  51  70
ATOM     70  C   UNL A   1      41.815  23.210  27.515  1.00  0.00    -0.014 A 
ATOM     71  C   UNL A   1      41.538  22.215  28.465  1.00  0.00     0.009 A 
ATOM     72  C   UNL A   1      41.674  22.905  26.152  1.00  0.00     0.009 A 
ATOM     73  C   UNL A   1      41.149  20.937  28.057  1.00  0.00     0.001 A 
ATOM     74  C   UNL A   1      41.258  21.635  25.749  1.00  0.00     0.001 A 
ATOM     75  C   UNL A   1      41.006  20.649  26.701  1.00  0.00     0.000 A 
ENDBRANCH  51  70
BRANCH  63  76
ATOM     76  C   UNL A   1      48.059  26.079  28.587  1.00  0.00    -0.014 A 
ATOM     77  C   UNL A   1      48.706  26.000  27.345  1.00  0.00     0.009 A 
ATOM     78  C   UNL A   1      48.747  25.677  29.742  1.00  0.00     0.009 A 
ATOM     79  C   UNL A   1      50.009  25.504  27.258  1.00  0.00     0.001 A 
ATOM     80  C   UNL A   1      50.058  25.207  29.656  1.00  0.00     0.001 A 
ATOM     81  C   UNL A   1      50.685  25.114  28.414  1.00  0.00     0.000 A 
ENDBRANCH  63  76
ENDBRANCH  37  38
ENDBRANCH  29  32
ENDBRANCH  27  28
ENDBRANCH  26  27
ENDBRANCH   1  26
TORSDOF 14
ENDMDL
