MODEL 1
REMARK VINA RESULT:     -14.2      0.000      0.000
REMARK SMILES Cc1c(C(=O)NCCCNC(=O)c2ccc(-c3c4nc(c(-c5ccccc5)c5ccc([nH]5)c(-c5ccccc5)c5nc(c(-c6ccccc6)c6ccc3[nH]6)C=C5)C=C4)cc2)cccc1-n1c(C)cc(/C=C2/C(=O)NC(=S)N=C2O)c1C
REMARK SMILES IDX 7 1 6 2 4 3 5 4 3 6 1 7 2 8 64 9 61 10 63 11 62 12 65 13
REMARK SMILES IDX 66 14 80 15 67 16 68 17 69 18 81 19 70 20 71 21 72 22 78 23
REMARK SMILES IDX 73 24 74 25 77 26 75 27 76 29 79 30 8 32 9 33 10 34 11 35
REMARK SMILES IDX 12 37 13 38 14 39 60 40 15 41 59 42 16 43 17 44 18 45 53 46
REMARK SMILES IDX 19 47 58 48 52 49 54 50 20 51 57 52 51 53 50 54 21 56 43 57
REMARK SMILES IDX 28 58 42 59 29 60 32 61 41 62 55 63 30 64 31 65 40 67 56 68
REMARK SMILES IDX 33 69 22 70 23 71 27 72 24 73 26 74 25 75 44 76 45 77 49 78
REMARK SMILES IDX 46 79 48 80 47 81 34 82 35 83 39 84 36 85 38 86 37 87
REMARK H PARENT 6 5 74 28 79 31 10 36 54 55 32 66
REMARK Flexibility Score: inf
ROOT
ATOM      1  C   UNL A   1      31.443  30.096  25.947  1.00  0.00     0.118 C 
ENDROOT
BRANCH   1   2
ATOM      2  N   UNL A   1      31.717  29.827  24.540  1.00  0.00    -0.352 N 
ATOM      3  C   UNL A   1      32.296  28.807  23.830  1.00  0.00     0.251 C 
ATOM      4  O   UNL A   1      32.368  28.987  22.609  1.00  0.00    -0.269 OA
ATOM      5  H   UNL A   1      31.410  30.557  23.956  1.00  0.00     0.163 HD
BRANCH   3   6
ATOM      6  C   UNL A   1      32.789  27.492  24.363  1.00  0.00     0.044 A 
ATOM      7  C   UNL A   1      31.052  25.960  23.297  1.00  0.00     0.047 C 
ATOM      8  C   UNL A   1      32.251  26.208  24.143  1.00  0.00    -0.014 A 
ATOM      9  C   UNL A   1      32.836  25.101  24.806  1.00  0.00     0.049 A 
ATOM     10  C   UNL A   1      33.814  27.618  25.329  1.00  0.00     0.014 A 
ATOM     11  C   UNL A   1      33.850  25.245  25.751  1.00  0.00     0.027 A 
ATOM     12  C   UNL A   1      34.328  26.517  26.025  1.00  0.00     0.003 A 
BRANCH   9  13
ATOM     13  N   UNL A   1      32.306  23.802  24.610  1.00  0.00    -0.318 N 
ATOM     14  C   UNL A   1      31.302  23.233  25.376  1.00  0.00     0.020 A 
ATOM     15  C   UNL A   1      32.932  22.800  23.867  1.00  0.00     0.027 A 
ATOM     16  C   UNL A   1      30.602  23.941  26.485  1.00  0.00     0.065 C 
ATOM     17  C   UNL A   1      31.141  21.936  24.936  1.00  0.00     0.031 A 
ATOM     18  C   UNL A   1      32.151  21.660  23.975  1.00  0.00    -0.003 A 
ATOM     19  C   UNL A   1      34.258  23.048  23.214  1.00  0.00     0.065 C 
BRANCH  18  20
ATOM     20  C   UNL A   1      32.369  20.350  23.447  1.00  0.00     0.029 C 
ATOM     21  C   UNL A   1      32.662  19.172  24.028  1.00  0.00     0.102 C 
ATOM     22  C   UNL A   1      32.662  17.988  23.129  1.00  0.00     0.262 C 
ATOM     23  C   UNL A   1      32.907  18.837  25.430  1.00  0.00     0.226 C 
ATOM     24  O   UNL A   1      32.699  18.047  21.905  1.00  0.00    -0.269 OA
ATOM     25  N   UNL A   1      32.570  16.792  23.788  1.00  0.00    -0.297 N 
ATOM     26  N   UNL A   1      32.855  17.671  25.963  1.00  0.00    -0.184 NA
ATOM     27  C   UNL A   1      32.582  16.605  25.148  1.00  0.00     0.203 C 
ATOM     28  H   UNL A   1      32.489  15.984  23.231  1.00  0.00     0.172 HD
ATOM     29  S   UNL A   1      32.318  15.054  25.721  1.00  0.00    -0.038 S 
BRANCH  23  30
ATOM     30  O   UNL A   1      33.289  19.839  26.225  1.00  0.00    -0.493 OA
ATOM     31  H   UNL A   1      33.039  19.842  27.128  1.00  0.00     0.295 HD
ENDBRANCH  23  30
ENDBRANCH  18  20
ENDBRANCH   9  13
ENDBRANCH   3   6
ENDBRANCH   1   2
BRANCH   1  32
ATOM     32  C   UNL A   1      32.460  31.099  26.501  1.00  0.00     0.042 C 
BRANCH  32  33
ATOM     33  C   UNL A   1      33.467  30.582  27.498  1.00  0.00     0.118 C 
BRANCH  33  34
ATOM     34  N   UNL A   1      34.172  31.641  28.222  1.00  0.00    -0.352 N 
ATOM     35  C   UNL A   1      35.403  31.572  28.860  1.00  0.00     0.251 C 
ATOM     36  H   UNL A   1      33.716  32.513  28.260  1.00  0.00     0.163 HD
ATOM     37  O   UNL A   1      35.894  32.542  29.404  1.00  0.00    -0.269 OA
BRANCH  35  38
ATOM     38  C   UNL A   1      36.160  30.305  28.734  1.00  0.00     0.039 A 
ATOM     39  C   UNL A   1      36.352  29.564  29.903  1.00  0.00     0.014 A 
ATOM     40  C   UNL A   1      36.973  30.123  27.625  1.00  0.00     0.014 A 
ATOM     41  C   UNL A   1      37.535  28.849  30.055  1.00  0.00     0.010 A 
ATOM     42  C   UNL A   1      38.212  29.562  27.841  1.00  0.00     0.010 A 
ATOM     43  C   UNL A   1      38.513  28.961  29.073  1.00  0.00    -0.014 A 
BRANCH  43  44
ATOM     44  C   UNL A   1      39.903  28.549  29.241  1.00  0.00     0.031 A 
ATOM     45  C   UNL A   1      40.337  27.246  28.691  1.00  0.00     0.074 A 
ATOM     46  C   UNL A   1      40.822  29.384  29.775  1.00  0.00     0.049 A 
ATOM     47  N   UNL A   1      41.457  26.679  28.979  1.00  0.00    -0.248 NA
ATOM     48  C   UNL A   1      39.500  26.434  27.812  1.00  0.00     0.031 C 
ATOM     49  C   UNL A   1      42.276  29.297  29.645  1.00  0.00     0.029 A 
ATOM     50  N   UNL A   1      40.624  30.379  30.735  1.00  0.00    -0.354 N 
ATOM     51  C   UNL A   1      41.622  25.620  28.121  1.00  0.00     0.074 A 
ATOM     52  C   UNL A   1      40.341  25.453  27.479  1.00  0.00     0.031 C 
ATOM     53  C   UNL A   1      42.848  29.999  30.633  1.00  0.00     0.029 A 
ATOM     54  C   UNL A   1      41.791  30.420  31.532  1.00  0.00     0.049 A 
ATOM     55  H   UNL A   1      39.825  30.944  30.837  1.00  0.00     0.167 HD
ATOM     56  C   UNL A   1      42.862  25.081  27.974  1.00  0.00     0.031 A 
ATOM     57  C   UNL A   1      41.748  30.133  32.867  1.00  0.00     0.031 A 
ATOM     58  C   UNL A   1      43.812  25.625  28.947  1.00  0.00     0.049 A 
ATOM     59  C   UNL A   1      42.582  28.938  33.296  1.00  0.00     0.074 A 
ATOM     60  C   UNL A   1      44.890  26.493  28.890  1.00  0.00     0.029 A 
ATOM     61  N   UNL A   1      43.531  25.458  30.292  1.00  0.00    -0.354 N 
ATOM     62  N   UNL A   1      43.245  28.166  32.481  1.00  0.00    -0.248 NA
ATOM     63  C   UNL A   1      42.635  28.453  34.677  1.00  0.00     0.031 C 
ATOM     64  C   UNL A   1      45.272  26.813  30.227  1.00  0.00     0.029 A 
ATOM     65  C   UNL A   1      44.435  26.128  31.086  1.00  0.00     0.049 A 
ATOM     66  H   UNL A   1      42.778  24.927  30.638  1.00  0.00     0.167 HD
ATOM     67  C   UNL A   1      43.704  27.068  33.162  1.00  0.00     0.074 A 
ATOM     68  C   UNL A   1      43.317  27.303  34.540  1.00  0.00     0.031 C 
ATOM     69  C   UNL A   1      44.301  26.016  32.529  1.00  0.00     0.031 A 
BRANCH  56  70
ATOM     70  C   UNL A   1      43.276  24.180  26.836  1.00  0.00    -0.014 A 
ATOM     71  C   UNL A   1      44.043  24.713  25.784  1.00  0.00     0.009 A 
ATOM     72  C   UNL A   1      42.907  22.831  26.695  1.00  0.00     0.009 A 
ATOM     73  C   UNL A   1      44.360  23.968  24.640  1.00  0.00     0.001 A 
ATOM     74  C   UNL A   1      43.205  22.083  25.549  1.00  0.00     0.001 A 
ATOM     75  C   UNL A   1      43.925  22.656  24.514  1.00  0.00     0.000 A 
ENDBRANCH  56  70
BRANCH  57  76
ATOM     76  C   UNL A   1      40.457  30.523  33.499  1.00  0.00    -0.014 A 
ATOM     77  C   UNL A   1      40.245  31.881  33.809  1.00  0.00     0.009 A 
ATOM     78  C   UNL A   1      39.350  29.667  33.423  1.00  0.00     0.009 A 
ATOM     79  C   UNL A   1      38.949  32.391  33.916  1.00  0.00     0.001 A 
ATOM     80  C   UNL A   1      38.054  30.181  33.546  1.00  0.00     0.001 A 
ATOM     81  C   UNL A   1      37.855  31.545  33.752  1.00  0.00     0.000 A 
ENDBRANCH  57  76
BRANCH  69  82
ATOM     82  C   UNL A   1      44.752  24.744  33.202  1.00  0.00    -0.014 A 
ATOM     83  C   UNL A   1      43.916  23.640  33.403  1.00  0.00     0.009 A 
ATOM     84  C   UNL A   1      46.044  24.673  33.770  1.00  0.00     0.009 A 
ATOM     85  C   UNL A   1      44.371  22.503  34.087  1.00  0.00     0.001 A 
ATOM     86  C   UNL A   1      46.494  23.552  34.470  1.00  0.00     0.001 A 
ATOM     87  C   UNL A   1      45.658  22.459  34.620  1.00  0.00     0.000 A 
ENDBRANCH  69  82
ENDBRANCH  43  44
ENDBRANCH  35  38
ENDBRANCH  33  34
ENDBRANCH  32  33
ENDBRANCH   1  32
TORSDOF 13
ENDMDL
MODEL 2
REMARK VINA RESULT:     -13.4      2.008      3.146
REMARK SMILES Cc1c(C(=O)NCCCNC(=O)c2ccc(-c3c4nc(c(-c5ccccc5)c5ccc([nH]5)c(-c5ccccc5)c5nc(c(-c6ccccc6)c6ccc3[nH]6)C=C5)C=C4)cc2)cccc1-n1c(C)cc(/C=C2/C(=O)NC(=S)N=C2O)c1C
REMARK SMILES IDX 7 1 6 2 4 3 5 4 3 6 1 7 2 8 64 9 61 10 63 11 62 12 65 13
REMARK SMILES IDX 66 14 80 15 67 16 68 17 69 18 81 19 70 20 71 21 72 22 78 23
REMARK SMILES IDX 73 24 74 25 77 26 75 27 76 29 79 30 8 32 9 33 10 34 11 35
REMARK SMILES IDX 12 37 13 38 14 39 60 40 15 41 59 42 16 43 17 44 18 45 53 46
REMARK SMILES IDX 19 47 58 48 52 49 54 50 20 51 57 52 51 53 50 54 21 56 43 57
REMARK SMILES IDX 28 58 42 59 29 60 32 61 41 62 55 63 30 64 31 65 40 67 56 68
REMARK SMILES IDX 33 69 22 70 23 71 27 72 24 73 26 74 25 75 44 76 45 77 49 78
REMARK SMILES IDX 46 79 48 80 47 81 34 82 35 83 39 84 36 85 38 86 37 87
REMARK H PARENT 6 5 74 28 79 31 10 36 54 55 32 66
REMARK Flexibility Score: inf
ROOT
ATOM      1  C   UNL A   1      33.575  29.973  27.345  1.00  0.00     0.118 C 
ENDROOT
BRANCH   1   2
ATOM      2  N   UNL A   1      33.390  29.926  25.899  1.00  0.00    -0.352 N 
ATOM      3  C   UNL A   1      32.999  28.979  24.988  1.00  0.00     0.251 C 
ATOM      4  O   UNL A   1      33.006  29.345  23.808  1.00  0.00    -0.269 OA
ATOM      5  H   UNL A   1      33.596  30.789  25.471  1.00  0.00     0.163 HD
BRANCH   3   6
ATOM      6  C   UNL A   1      32.513  27.586  25.275  1.00  0.00     0.044 A 
ATOM      7  C   UNL A   1      34.028  26.305  23.674  1.00  0.00     0.047 C 
ATOM      8  C   UNL A   1      32.953  26.377  24.701  1.00  0.00    -0.014 A 
ATOM      9  C   UNL A   1      32.302  25.173  25.066  1.00  0.00     0.049 A 
ATOM     10  C   UNL A   1      31.365  27.544  26.100  1.00  0.00     0.014 A 
ATOM     11  C   UNL A   1      31.175  25.150  25.885  1.00  0.00     0.027 A 
ATOM     12  C   UNL A   1      30.695  26.348  26.390  1.00  0.00     0.003 A 
BRANCH   9  13
ATOM     13  N   UNL A   1      32.719  23.945  24.495  1.00  0.00    -0.318 N 
ATOM     14  C   UNL A   1      32.080  23.304  23.446  1.00  0.00     0.020 A 
ATOM     15  C   UNL A   1      33.598  23.050  25.105  1.00  0.00     0.027 A 
ATOM     16  C   UNL A   1      30.890  23.854  22.739  1.00  0.00     0.065 C 
ATOM     17  C   UNL A   1      32.728  22.103  23.250  1.00  0.00     0.031 A 
ATOM     18  C   UNL A   1      33.696  21.941  24.279  1.00  0.00    -0.003 A 
ATOM     19  C   UNL A   1      34.169  23.343  26.459  1.00  0.00     0.065 C 
BRANCH  18  20
ATOM     20  C   UNL A   1      34.422  20.724  24.464  1.00  0.00     0.029 C 
ATOM     21  C   UNL A   1      34.070  19.519  24.948  1.00  0.00     0.102 C 
ATOM     22  C   UNL A   1      35.097  18.450  24.833  1.00  0.00     0.262 C 
ATOM     23  C   UNL A   1      32.801  19.050  25.503  1.00  0.00     0.226 C 
ATOM     24  O   UNL A   1      36.285  18.651  24.608  1.00  0.00    -0.269 OA
ATOM     25  N   UNL A   1      34.594  17.184  24.959  1.00  0.00    -0.297 N 
ATOM     26  N   UNL A   1      32.425  17.831  25.639  1.00  0.00    -0.184 NA
ATOM     27  C   UNL A   1      33.301  16.844  25.269  1.00  0.00     0.203 C 
ATOM     28  H   UNL A   1      35.223  16.440  24.813  1.00  0.00     0.172 HD
ATOM     29  S   UNL A   1      32.892  15.220  25.230  1.00  0.00    -0.038 S 
BRANCH  23  30
ATOM     30  O   UNL A   1      31.977  19.985  25.979  1.00  0.00    -0.493 OA
ATOM     31  H   UNL A   1      32.178  20.420  26.784  1.00  0.00     0.295 HD
ENDBRANCH  23  30
ENDBRANCH  18  20
ENDBRANCH   9  13
ENDBRANCH   3   6
ENDBRANCH   1   2
BRANCH   1  32
ATOM     32  C   UNL A   1      35.014  30.377  27.681  1.00  0.00     0.042 C 
BRANCH  32  33
ATOM     33  C   UNL A   1      35.338  31.849  27.669  1.00  0.00     0.118 C 
BRANCH  33  34
ATOM     34  N   UNL A   1      34.251  32.694  28.166  1.00  0.00    -0.352 N 
ATOM     35  C   UNL A   1      34.254  33.541  29.266  1.00  0.00     0.251 C 
ATOM     36  H   UNL A   1      33.411  32.658  27.653  1.00  0.00     0.163 HD
ATOM     37  O   UNL A   1      33.285  34.215  29.554  1.00  0.00    -0.269 OA
BRANCH  35  38
ATOM     38  C   UNL A   1      35.533  33.694  29.997  1.00  0.00     0.039 A 
ATOM     39  C   UNL A   1      36.614  34.212  29.280  1.00  0.00     0.014 A 
ATOM     40  C   UNL A   1      35.724  32.964  31.162  1.00  0.00     0.014 A 
ATOM     41  C   UNL A   1      37.894  33.754  29.575  1.00  0.00     0.010 A 
ATOM     42  C   UNL A   1      36.960  32.383  31.341  1.00  0.00     0.010 A 
ATOM     43  C   UNL A   1      38.039  32.743  30.519  1.00  0.00    -0.014 A 
BRANCH  43  44
ATOM     44  C   UNL A   1      39.248  31.946  30.695  1.00  0.00     0.031 A 
ATOM     45  C   UNL A   1      39.353  30.639  30.008  1.00  0.00     0.074 A 
ATOM     46  C   UNL A   1      40.317  32.430  31.366  1.00  0.00     0.049 A 
ATOM     47  N   UNL A   1      40.252  29.756  30.272  1.00  0.00    -0.248 NA
ATOM     48  C   UNL A   1      38.395  30.190  29.001  1.00  0.00     0.031 C 
ATOM     49  C   UNL A   1      41.698  31.956  31.288  1.00  0.00     0.029 A 
ATOM     50  N   UNL A   1      40.325  33.333  32.431  1.00  0.00    -0.354 N 
ATOM     51  C   UNL A   1      40.188  28.790  29.298  1.00  0.00     0.074 A 
ATOM     52  C   UNL A   1      38.962  29.055  28.587  1.00  0.00     0.031 C 
ATOM     53  C   UNL A   1      42.364  32.363  32.378  1.00  0.00     0.029 A 
ATOM     54  C   UNL A   1      41.396  32.963  33.276  1.00  0.00     0.049 A 
ATOM     55  H   UNL A   1      39.704  34.084  32.568  1.00  0.00     0.167 HD
ATOM     56  C   UNL A   1      41.243  27.946  29.140  1.00  0.00     0.031 A 
ATOM     57  C   UNL A   1      41.178  32.560  34.564  1.00  0.00     0.031 A 
ATOM     58  C   UNL A   1      42.228  28.098  30.211  1.00  0.00     0.049 A 
ATOM     59  C   UNL A   1      41.622  31.141  34.878  1.00  0.00     0.074 A 
ATOM     60  C   UNL A   1      43.503  28.633  30.307  1.00  0.00     0.029 A 
ATOM     61  N   UNL A   1      41.813  27.874  31.512  1.00  0.00    -0.354 N 
ATOM     62  N   UNL A   1      42.109  30.306  34.003  1.00  0.00    -0.248 NA
ATOM     63  C   UNL A   1      41.437  30.517  36.189  1.00  0.00     0.031 C 
ATOM     64  C   UNL A   1      43.856  28.690  31.688  1.00  0.00     0.029 A 
ATOM     65  C   UNL A   1      42.803  28.177  32.421  1.00  0.00     0.049 A 
ATOM     66  H   UNL A   1      40.920  27.539  31.758  1.00  0.00     0.167 HD
ATOM     67  C   UNL A   1      42.201  29.057  34.563  1.00  0.00     0.074 A 
ATOM     68  C   UNL A   1      41.790  29.244  35.942  1.00  0.00     0.031 C 
ATOM     69  C   UNL A   1      42.536  27.955  33.831  1.00  0.00     0.031 A 
BRANCH  56  70
ATOM     70  C   UNL A   1      41.481  27.092  27.918  1.00  0.00    -0.014 A 
ATOM     71  C   UNL A   1      41.903  25.760  28.084  1.00  0.00     0.009 A 
ATOM     72  C   UNL A   1      41.373  27.532  26.588  1.00  0.00     0.009 A 
ATOM     73  C   UNL A   1      42.258  24.948  26.999  1.00  0.00     0.001 A 
ATOM     74  C   UNL A   1      41.740  26.734  25.496  1.00  0.00     0.001 A 
ATOM     75  C   UNL A   1      42.193  25.442  25.704  1.00  0.00     0.000 A 
ENDBRANCH  56  70
BRANCH  57  76
ATOM     76  C   UNL A   1      39.997  33.223  35.183  1.00  0.00    -0.014 A 
ATOM     77  C   UNL A   1      38.740  32.597  35.069  1.00  0.00     0.009 A 
ATOM     78  C   UNL A   1      40.176  34.202  36.169  1.00  0.00     0.009 A 
ATOM     79  C   UNL A   1      37.731  32.856  36.000  1.00  0.00     0.001 A 
ATOM     80  C   UNL A   1      39.157  34.468  37.090  1.00  0.00     0.001 A 
ATOM     81  C   UNL A   1      37.953  33.768  37.028  1.00  0.00     0.000 A 
ENDBRANCH  57  76
BRANCH  69  82
ATOM     82  C   UNL A   1      42.573  26.544  34.362  1.00  0.00    -0.014 A 
ATOM     83  C   UNL A   1      41.594  26.012  35.208  1.00  0.00     0.009 A 
ATOM     84  C   UNL A   1      43.698  25.728  34.102  1.00  0.00     0.009 A 
ATOM     85  C   UNL A   1      41.708  24.710  35.720  1.00  0.00     0.001 A 
ATOM     86  C   UNL A   1      43.827  24.440  34.626  1.00  0.00     0.001 A 
ATOM     87  C   UNL A   1      42.823  23.926  35.429  1.00  0.00     0.000 A 
ENDBRANCH  69  82
ENDBRANCH  43  44
ENDBRANCH  35  38
ENDBRANCH  33  34
ENDBRANCH  32  33
ENDBRANCH   1  32
TORSDOF 13
ENDMDL
MODEL 3
REMARK VINA RESULT:     -13.3      1.303      2.016
REMARK SMILES Cc1c(C(=O)NCCCNC(=O)c2ccc(-c3c4nc(c(-c5ccccc5)c5ccc([nH]5)c(-c5ccccc5)c5nc(c(-c6ccccc6)c6ccc3[nH]6)C=C5)C=C4)cc2)cccc1-n1c(C)cc(/C=C2/C(=O)NC(=S)N=C2O)c1C
REMARK SMILES IDX 7 1 6 2 4 3 5 4 3 6 1 7 2 8 64 9 61 10 63 11 62 12 65 13
REMARK SMILES IDX 66 14 80 15 67 16 68 17 69 18 81 19 70 20 71 21 72 22 78 23
REMARK SMILES IDX 73 24 74 25 77 26 75 27 76 29 79 30 8 32 9 33 10 34 11 35
REMARK SMILES IDX 12 37 13 38 14 39 60 40 15 41 59 42 16 43 17 44 18 45 53 46
REMARK SMILES IDX 19 47 58 48 52 49 54 50 20 51 57 52 51 53 50 54 21 56 43 57
REMARK SMILES IDX 28 58 42 59 29 60 32 61 41 62 55 63 30 64 31 65 40 67 56 68
REMARK SMILES IDX 33 69 22 70 23 71 27 72 24 73 26 74 25 75 44 76 45 77 49 78
REMARK SMILES IDX 46 79 48 80 47 81 34 82 35 83 39 84 36 85 38 86 37 87
REMARK H PARENT 6 5 74 28 79 31 10 36 54 55 32 66
REMARK Flexibility Score: inf
ROOT
ATOM      1  C   UNL A   1      31.787  30.063  26.570  1.00  0.00     0.118 C 
ENDROOT
BRANCH   1   2
ATOM      2  N   UNL A   1      31.124  30.386  25.311  1.00  0.00    -0.352 N 
ATOM      3  C   UNL A   1      30.659  29.676  24.234  1.00  0.00     0.251 C 
ATOM      4  O   UNL A   1      30.174  30.356  23.323  1.00  0.00    -0.269 OA
ATOM      5  H   UNL A   1      30.973  31.354  25.210  1.00  0.00     0.163 HD
BRANCH   3   6
ATOM      6  C   UNL A   1      30.624  28.183  24.075  1.00  0.00     0.044 A 
ATOM      7  C   UNL A   1      33.123  27.758  23.809  1.00  0.00     0.047 C 
ATOM      8  C   UNL A   1      31.708  27.303  23.881  1.00  0.00    -0.014 A 
ATOM      9  C   UNL A   1      31.442  25.927  23.681  1.00  0.00     0.049 A 
ATOM     10  C   UNL A   1      29.318  27.657  23.942  1.00  0.00     0.014 A 
ATOM     11  C   UNL A   1      30.147  25.425  23.559  1.00  0.00     0.027 A 
ATOM     12  C   UNL A   1      29.080  26.303  23.673  1.00  0.00     0.003 A 
BRANCH   9  13
ATOM     13  N   UNL A   1      32.514  25.024  23.473  1.00  0.00    -0.318 N 
ATOM     14  C   UNL A   1      33.013  24.663  22.233  1.00  0.00     0.020 A 
ATOM     15  C   UNL A   1      32.983  24.125  24.430  1.00  0.00     0.027 A 
ATOM     16  C   UNL A   1      32.520  25.223  20.944  1.00  0.00     0.065 C 
ATOM     17  C   UNL A   1      33.976  23.700  22.448  1.00  0.00     0.031 A 
ATOM     18  C   UNL A   1      33.977  23.367  23.830  1.00  0.00    -0.003 A 
ATOM     19  C   UNL A   1      32.350  24.053  25.787  1.00  0.00     0.065 C 
BRANCH  18  20
ATOM     20  C   UNL A   1      34.740  22.279  24.357  1.00  0.00     0.029 C 
ATOM     21  C   UNL A   1      34.450  20.983  24.570  1.00  0.00     0.102 C 
ATOM     22  C   UNL A   1      35.586  20.127  25.001  1.00  0.00     0.262 C 
ATOM     23  C   UNL A   1      33.205  20.241  24.370  1.00  0.00     0.226 C 
ATOM     24  O   UNL A   1      36.649  20.554  25.436  1.00  0.00    -0.269 OA
ATOM     25  N   UNL A   1      35.366  18.787  24.830  1.00  0.00    -0.297 N 
ATOM     26  N   UNL A   1      33.075  18.968  24.275  1.00  0.00    -0.184 NA
ATOM     27  C   UNL A   1      34.200  18.197  24.410  1.00  0.00     0.203 C 
ATOM     28  H   UNL A   1      36.119  18.185  25.029  1.00  0.00     0.172 HD
ATOM     29  S   UNL A   1      34.217  16.543  24.145  1.00  0.00    -0.038 S 
BRANCH  23  30
ATOM     30  O   UNL A   1      32.080  20.958  24.352  1.00  0.00    -0.493 OA
ATOM     31  H   UNL A   1      31.758  21.344  25.143  1.00  0.00     0.295 HD
ENDBRANCH  23  30
ENDBRANCH  18  20
ENDBRANCH   9  13
ENDBRANCH   3   6
ENDBRANCH   1   2
BRANCH   1  32
ATOM     32  C   UNL A   1      32.872  31.098  26.878  1.00  0.00     0.042 C 
BRANCH  32  33
ATOM     33  C   UNL A   1      34.170  30.589  27.452  1.00  0.00     0.118 C 
BRANCH  33  34
ATOM     34  N   UNL A   1      34.922  31.602  28.194  1.00  0.00    -0.352 N 
ATOM     35  C   UNL A   1      36.152  31.470  28.824  1.00  0.00     0.251 C 
ATOM     36  H   UNL A   1      34.502  32.491  28.251  1.00  0.00     0.163 HD
ATOM     37  O   UNL A   1      36.685  32.408  29.385  1.00  0.00    -0.269 OA
BRANCH  35  38
ATOM     38  C   UNL A   1      36.855  30.176  28.669  1.00  0.00     0.039 A 
ATOM     39  C   UNL A   1      36.950  29.367  29.805  1.00  0.00     0.014 A 
ATOM     40  C   UNL A   1      37.716  30.011  27.593  1.00  0.00     0.014 A 
ATOM     41  C   UNL A   1      38.089  28.588  29.978  1.00  0.00     0.010 A 
ATOM     42  C   UNL A   1      38.915  29.380  27.842  1.00  0.00     0.010 A 
ATOM     43  C   UNL A   1      39.123  28.703  29.054  1.00  0.00    -0.014 A 
BRANCH  43  44
ATOM     44  C   UNL A   1      40.481  28.215  29.270  1.00  0.00     0.031 A 
ATOM     45  C   UNL A   1      40.853  26.878  28.758  1.00  0.00     0.074 A 
ATOM     46  C   UNL A   1      41.432  29.008  29.813  1.00  0.00     0.049 A 
ATOM     47  N   UNL A   1      41.930  26.254  29.089  1.00  0.00    -0.248 NA
ATOM     48  C   UNL A   1      39.995  26.097  27.872  1.00  0.00     0.031 C 
ATOM     49  C   UNL A   1      42.881  28.834  29.726  1.00  0.00     0.029 A 
ATOM     50  N   UNL A   1      41.266  30.032  30.747  1.00  0.00    -0.354 N 
ATOM     51  C   UNL A   1      42.057  25.169  28.257  1.00  0.00     0.074 A 
ATOM     52  C   UNL A   1      40.787  25.062  27.583  1.00  0.00     0.031 C 
ATOM     53  C   UNL A   1      43.466  29.524  30.716  1.00  0.00     0.029 A 
ATOM     54  C   UNL A   1      42.410  30.023  31.576  1.00  0.00     0.049 A 
ATOM     55  H   UNL A   1      40.498  30.645  30.815  1.00  0.00     0.167 HD
ATOM     56  C   UNL A   1      43.267  24.557  28.157  1.00  0.00     0.031 A 
ATOM     57  C   UNL A   1      42.315  29.769  32.915  1.00  0.00     0.031 A 
ATOM     58  C   UNL A   1      44.220  25.066  29.145  1.00  0.00     0.049 A 
ATOM     59  C   UNL A   1      43.066  28.537  33.391  1.00  0.00     0.074 A 
ATOM     60  C   UNL A   1      45.348  25.869  29.102  1.00  0.00     0.029 A 
ATOM     61  N   UNL A   1      43.893  24.944  30.485  1.00  0.00    -0.354 N 
ATOM     62  N   UNL A   1      43.705  27.710  32.611  1.00  0.00    -0.248 NA
ATOM     63  C   UNL A   1      43.052  28.080  34.782  1.00  0.00     0.031 C 
ATOM     64  C   UNL A   1      45.711  26.195  30.443  1.00  0.00     0.029 A 
ATOM     65  C   UNL A   1      44.812  25.578  31.292  1.00  0.00     0.049 A 
ATOM     66  H   UNL A   1      43.101  24.465  30.820  1.00  0.00     0.167 HD
ATOM     67  C   UNL A   1      44.081  26.602  33.326  1.00  0.00     0.074 A 
ATOM     68  C   UNL A   1      43.670  26.889  34.688  1.00  0.00     0.031 C 
ATOM     69  C   UNL A   1      44.632  25.505  32.731  1.00  0.00     0.031 A 
BRANCH  56  70
ATOM     70  C   UNL A   1      43.659  23.609  27.050  1.00  0.00    -0.014 A 
ATOM     71  C   UNL A   1      44.552  24.048  26.055  1.00  0.00     0.009 A 
ATOM     72  C   UNL A   1      43.155  22.308  26.880  1.00  0.00     0.009 A 
ATOM     73  C   UNL A   1      44.865  23.267  24.935  1.00  0.00     0.001 A 
ATOM     74  C   UNL A   1      43.450  21.525  25.756  1.00  0.00     0.001 A 
ATOM     75  C   UNL A   1      44.300  22.010  24.776  1.00  0.00     0.000 A 
ENDBRANCH  56  70
BRANCH  57  76
ATOM     76  C   UNL A   1      41.032  30.245  33.502  1.00  0.00    -0.014 A 
ATOM     77  C   UNL A   1      40.878  31.623  33.749  1.00  0.00     0.009 A 
ATOM     78  C   UNL A   1      39.887  29.439  33.439  1.00  0.00     0.009 A 
ATOM     79  C   UNL A   1      39.606  32.197  33.806  1.00  0.00     0.001 A 
ATOM     80  C   UNL A   1      38.614  30.018  33.511  1.00  0.00     0.001 A 
ATOM     81  C   UNL A   1      38.476  31.398  33.654  1.00  0.00     0.000 A 
ENDBRANCH  57  76
BRANCH  69  82
ATOM     82  C   UNL A   1      44.990  24.224  33.442  1.00  0.00    -0.014 A 
ATOM     83  C   UNL A   1      44.078  23.189  33.671  1.00  0.00     0.009 A 
ATOM     84  C   UNL A   1      46.273  24.078  34.018  1.00  0.00     0.009 A 
ATOM     85  C   UNL A   1      44.449  22.041  34.389  1.00  0.00     0.001 A 
ATOM     86  C   UNL A   1      46.641  22.948  34.752  1.00  0.00     0.001 A 
ATOM     87  C   UNL A   1      45.728  21.922  34.929  1.00  0.00     0.000 A 
ENDBRANCH  69  82
ENDBRANCH  43  44
ENDBRANCH  35  38
ENDBRANCH  33  34
ENDBRANCH  32  33
ENDBRANCH   1  32
TORSDOF 13
ENDMDL
