MODEL 1
REMARK VINA RESULT:      -8.0      0.000      0.000
REMARK SMILES CCCCCCNC(=O)Oc1cccc(-c2ccc([C@@H](C)C(=O)NCCCNC(=O)c3ccc(-c4c5nc(c(-c6ccccc6)c6ccc([nH]6)c(-c6ccccc6)c6nc(c(-c7ccccc7)c7ccc4[nH]7)C=C6)C=C5)cc3)cc2N)c1
REMARK SMILES IDX 16 1 17 2 18 3 19 4 79 5 80 6 15 7 11 8 12 9 82 10 13 11
REMARK SMILES IDX 14 12 10 13 8 14 7 15 9 17 6 18 5 19 4 20 3 21 2 22 1 23
REMARK SMILES IDX 81 24 20 27 21 28 22 29 23 30 24 31 25 33 26 34 27 35 28 36
REMARK SMILES IDX 29 37 30 39 31 40 32 41 78 42 33 43 77 44 34 45 35 46 36 47
REMARK SMILES IDX 71 48 37 49 76 50 70 51 72 52 38 53 75 54 69 55 68 56 39 58
REMARK SMILES IDX 61 59 46 60 60 61 47 62 50 63 59 64 73 65 48 66 49 67 58 69
REMARK SMILES IDX 74 70 51 71 40 72 41 73 45 74 42 75 44 76 43 77 62 78 63 79
REMARK SMILES IDX 67 80 64 81 66 82 65 83 52 84 53 85 57 86 54 87 56 88 55 89
REMARK H PARENT 7 16 81 25 81 26 24 32 28 38 72 57 50 68
REMARK Flexibility Score: inf
ROOT
ATOM      1  C   UNL A   1      39.864  28.506  28.661  1.00  0.00     0.005 A 
ATOM      2  C   UNL A   1      40.169  28.214  27.317  1.00  0.00     0.011 A 
ATOM      3  C   UNL A   1      40.846  27.049  26.948  1.00  0.00     0.005 A 
ATOM      4  C   UNL A   1      41.340  26.177  27.915  1.00  0.00    -0.034 A 
ATOM      5  C   UNL A   1      41.008  26.439  29.254  1.00  0.00     0.030 A 
ATOM      6  C   UNL A   1      40.212  27.538  29.631  1.00  0.00     0.040 A 
ENDROOT
BRANCH   1   7
ATOM      7  C   UNL A   1      39.205  29.796  28.985  1.00  0.00    -0.013 A 
ATOM      8  C   UNL A   1      37.228  31.213  29.086  1.00  0.00     0.133 A 
ATOM      9  C   UNL A   1      37.970  32.267  29.614  1.00  0.00     0.047 A 
ATOM     10  C   UNL A   1      37.826  29.988  28.785  1.00  0.00     0.056 A 
ATOM     11  C   UNL A   1      39.328  32.088  29.850  1.00  0.00     0.004 A 
ATOM     12  C   UNL A   1      39.939  30.871  29.529  1.00  0.00     0.009 A 
BRANCH   8  13
ATOM     13  O   UNL A   1      35.899  31.496  28.731  1.00  0.00    -0.410 OA
BRANCH  13  14
ATOM     14  C   UNL A   1      35.491  32.818  28.629  1.00  0.00     0.412 C 
ATOM     15  N   UNL A   1      34.852  33.264  29.755  1.00  0.00    -0.321 N 
ATOM     16  H   UNL A   1      34.528  34.194  29.739  1.00  0.00     0.167 HD
ATOM     17  O   UNL A   1      35.646  33.547  27.658  1.00  0.00    -0.224 OA
BRANCH  15  18
ATOM     18  C   UNL A   1      34.601  32.509  30.967  1.00  0.00     0.119 C 
BRANCH  18  19
ATOM     19  C   UNL A   1      34.941  33.311  32.224  1.00  0.00     0.021 C 
BRANCH  19  20
ATOM     20  C   UNL A   1      36.313  33.002  32.836  1.00  0.00     0.002 C 
BRANCH  20  21
ATOM     21  C   UNL A   1      36.792  31.554  32.688  1.00  0.00    -0.000 C 
BRANCH  21  22
ATOM     22  C   UNL A   1      38.102  31.217  33.404  1.00  0.00    -0.003 C 
ATOM     23  C   UNL A   1      38.384  29.725  33.475  1.00  0.00     0.004 C 
ENDBRANCH  21  22
ENDBRANCH  20  21
ENDBRANCH  19  20
ENDBRANCH  18  19
ENDBRANCH  15  18
ENDBRANCH  13  14
ENDBRANCH   8  13
ENDBRANCH   1   7
BRANCH   6  24
ATOM     24  N   UNL A   1      39.897  27.681  30.984  1.00  0.00    -0.398 N 
ATOM     25  H   UNL A   1      38.959  27.802  31.260  1.00  0.00     0.156 HD
ATOM     26  H   UNL A   1      40.611  27.663  31.660  1.00  0.00     0.156 HD
ENDBRANCH   6  24
BRANCH   4  27
ATOM     27  C   UNL A   1      42.232  24.992  27.581  1.00  0.00     0.105 C 
ATOM     28  C   UNL A   1      42.828  24.260  28.782  1.00  0.00     0.023 C 
BRANCH  27  29
ATOM     29  C   UNL A   1      41.663  24.075  26.487  1.00  0.00     0.227 C 
ATOM     30  O   UNL A   1      40.548  23.559  26.636  1.00  0.00    -0.274 OA
ATOM     31  N   UNL A   1      42.301  23.785  25.321  1.00  0.00    -0.356 N 
ATOM     32  H   UNL A   1      41.770  23.236  24.701  1.00  0.00     0.163 HD
BRANCH  31  33
ATOM     33  C   UNL A   1      43.616  24.132  24.819  1.00  0.00     0.117 C 
BRANCH  33  34
ATOM     34  C   UNL A   1      44.688  23.147  25.276  1.00  0.00     0.042 C 
BRANCH  34  35
ATOM     35  C   UNL A   1      45.889  23.803  25.945  1.00  0.00     0.118 C 
BRANCH  35  36
ATOM     36  N   UNL A   1      46.537  24.778  25.077  1.00  0.00    -0.352 N 
ATOM     37  C   UNL A   1      46.483  26.149  25.071  1.00  0.00     0.251 C 
ATOM     38  H   UNL A   1      47.110  24.386  24.378  1.00  0.00     0.163 HD
ATOM     39  O   UNL A   1      46.943  26.759  24.108  1.00  0.00    -0.269 OA
BRANCH  37  40
ATOM     40  C   UNL A   1      45.876  26.906  26.190  1.00  0.00     0.039 A 
ATOM     41  C   UNL A   1      44.597  27.450  26.016  1.00  0.00     0.014 A 
ATOM     42  C   UNL A   1      46.570  27.146  27.379  1.00  0.00     0.014 A 
ATOM     43  C   UNL A   1      44.001  28.182  27.046  1.00  0.00     0.010 A 
ATOM     44  C   UNL A   1      45.943  27.806  28.435  1.00  0.00     0.010 A 
ATOM     45  C   UNL A   1      44.658  28.343  28.276  1.00  0.00    -0.014 A 
BRANCH  45  46
ATOM     46  C   UNL A   1      44.027  29.083  29.399  1.00  0.00     0.031 A 
ATOM     47  C   UNL A   1      43.745  30.557  29.273  1.00  0.00     0.074 A 
ATOM     48  C   UNL A   1      43.762  28.444  30.556  1.00  0.00     0.049 A 
ATOM     49  N   UNL A   1      43.264  31.386  30.165  1.00  0.00    -0.248 NA
ATOM     50  C   UNL A   1      44.070  31.186  27.983  1.00  0.00     0.031 C 
ATOM     51  C   UNL A   1      44.022  27.029  30.822  1.00  0.00     0.029 A 
ATOM     52  N   UNL A   1      43.224  28.910  31.729  1.00  0.00    -0.354 N 
ATOM     53  C   UNL A   1      43.255  32.633  29.555  1.00  0.00     0.074 A 
ATOM     54  C   UNL A   1      43.814  32.462  28.232  1.00  0.00     0.031 C 
ATOM     55  C   UNL A   1      43.624  26.736  32.071  1.00  0.00     0.029 A 
ATOM     56  C   UNL A   1      43.118  27.948  32.705  1.00  0.00     0.049 A 
ATOM     57  H   UNL A   1      42.940  29.844  31.859  1.00  0.00     0.167 HD
ATOM     58  C   UNL A   1      42.805  33.814  30.043  1.00  0.00     0.031 A 
ATOM     59  C   UNL A   1      42.673  28.035  33.972  1.00  0.00     0.031 A 
ATOM     60  C   UNL A   1      42.231  33.984  31.351  1.00  0.00     0.049 A 
ATOM     61  C   UNL A   1      42.179  29.356  34.491  1.00  0.00     0.074 A 
ATOM     62  C   UNL A   1      41.690  35.126  31.914  1.00  0.00     0.029 A 
ATOM     63  N   UNL A   1      42.127  32.980  32.302  1.00  0.00    -0.354 N 
ATOM     64  N   UNL A   1      42.114  30.513  33.877  1.00  0.00    -0.248 NA
ATOM     65  C   UNL A   1      41.689  29.381  35.876  1.00  0.00     0.031 C 
ATOM     66  C   UNL A   1      41.298  34.825  33.223  1.00  0.00     0.029 A 
ATOM     67  C   UNL A   1      41.548  33.483  33.455  1.00  0.00     0.049 A 
ATOM     68  H   UNL A   1      42.420  32.049  32.175  1.00  0.00     0.167 HD
ATOM     69  C   UNL A   1      41.551  31.395  34.789  1.00  0.00     0.074 A 
ATOM     70  C   UNL A   1      41.279  30.637  35.994  1.00  0.00     0.031 C 
ATOM     71  C   UNL A   1      41.283  32.715  34.644  1.00  0.00     0.031 A 
BRANCH  58  72
ATOM     72  C   UNL A   1      42.923  35.022  29.155  1.00  0.00    -0.014 A 
ATOM     73  C   UNL A   1      44.107  35.776  29.105  1.00  0.00     0.009 A 
ATOM     74  C   UNL A   1      41.849  35.390  28.330  1.00  0.00     0.009 A 
ATOM     75  C   UNL A   1      44.198  36.895  28.276  1.00  0.00     0.001 A 
ATOM     76  C   UNL A   1      41.954  36.493  27.480  1.00  0.00     0.001 A 
ATOM     77  C   UNL A   1      43.124  37.249  27.461  1.00  0.00     0.000 A 
ENDBRANCH  58  72
BRANCH  59  78
ATOM     78  C   UNL A   1      42.658  26.828  34.838  1.00  0.00    -0.014 A 
ATOM     79  C   UNL A   1      41.490  26.062  34.971  1.00  0.00     0.009 A 
ATOM     80  C   UNL A   1      43.809  26.436  35.538  1.00  0.00     0.009 A 
ATOM     81  C   UNL A   1      41.466  24.945  35.808  1.00  0.00     0.001 A 
ATOM     82  C   UNL A   1      43.791  25.302  36.353  1.00  0.00     0.001 A 
ATOM     83  C   UNL A   1      42.618  24.563  36.493  1.00  0.00     0.000 A 
ENDBRANCH  59  78
BRANCH  71  84
ATOM     84  C   UNL A   1      40.633  33.415  35.803  1.00  0.00    -0.014 A 
ATOM     85  C   UNL A   1      41.396  34.074  36.778  1.00  0.00     0.009 A 
ATOM     86  C   UNL A   1      39.232  33.449  35.895  1.00  0.00     0.009 A 
ATOM     87  C   UNL A   1      40.769  34.726  37.842  1.00  0.00     0.001 A 
ATOM     88  C   UNL A   1      38.608  34.125  36.944  1.00  0.00     0.001 A 
ATOM     89  C   UNL A   1      39.377  34.755  37.920  1.00  0.00     0.000 A 
ENDBRANCH  71  84
ENDBRANCH  45  46
ENDBRANCH  37  40
ENDBRANCH  35  36
ENDBRANCH  34  35
ENDBRANCH  33  34
ENDBRANCH  31  33
ENDBRANCH  27  29
ENDBRANCH   4  27
TORSDOF 20
ENDMDL
MODEL 2
REMARK VINA RESULT:      -7.9      5.479      8.314
REMARK SMILES CCCCCCNC(=O)Oc1cccc(-c2ccc([C@@H](C)C(=O)NCCCNC(=O)c3ccc(-c4c5nc(c(-c6ccccc6)c6ccc([nH]6)c(-c6ccccc6)c6nc(c(-c7ccccc7)c7ccc4[nH]7)C=C6)C=C5)cc3)cc2N)c1
REMARK SMILES IDX 16 1 17 2 18 3 19 4 79 5 80 6 15 7 11 8 12 9 82 10 13 11
REMARK SMILES IDX 14 12 10 13 8 14 7 15 9 17 6 18 5 19 4 20 3 21 2 22 1 23
REMARK SMILES IDX 81 24 20 27 21 28 22 29 23 30 24 31 25 33 26 34 27 35 28 36
REMARK SMILES IDX 29 37 30 39 31 40 32 41 78 42 33 43 77 44 34 45 35 46 36 47
REMARK SMILES IDX 71 48 37 49 76 50 70 51 72 52 38 53 75 54 69 55 68 56 39 58
REMARK SMILES IDX 61 59 46 60 60 61 47 62 50 63 59 64 73 65 48 66 49 67 58 69
REMARK SMILES IDX 74 70 51 71 40 72 41 73 45 74 42 75 44 76 43 77 62 78 63 79
REMARK SMILES IDX 67 80 64 81 66 82 65 83 52 84 53 85 57 86 54 87 56 88 55 89
REMARK H PARENT 7 16 81 25 81 26 24 32 28 38 72 57 50 68
REMARK Flexibility Score: inf
ROOT
ATOM      1  C   UNL A   1      31.307  23.304  24.464  1.00  0.00     0.005 A 
ATOM      2  C   UNL A   1      31.929  22.519  23.473  1.00  0.00     0.011 A 
ATOM      3  C   UNL A   1      32.481  21.267  23.759  1.00  0.00     0.005 A 
ATOM      4  C   UNL A   1      32.527  20.793  25.067  1.00  0.00    -0.034 A 
ATOM      5  C   UNL A   1      31.876  21.550  26.054  1.00  0.00     0.030 A 
ATOM      6  C   UNL A   1      31.200  22.749  25.759  1.00  0.00     0.040 A 
ENDROOT
BRANCH   1   7
ATOM      7  C   UNL A   1      30.807  24.654  24.101  1.00  0.00    -0.013 A 
ATOM      8  C   UNL A   1      31.036  26.762  22.906  1.00  0.00     0.133 A 
ATOM      9  C   UNL A   1      29.828  27.224  23.422  1.00  0.00     0.047 A 
ATOM     10  C   UNL A   1      31.521  25.493  23.226  1.00  0.00     0.056 A 
ATOM     11  C   UNL A   1      29.090  26.398  24.262  1.00  0.00     0.004 A 
ATOM     12  C   UNL A   1      29.581  25.134  24.606  1.00  0.00     0.009 A 
BRANCH   8  13
ATOM     13  O   UNL A   1      31.807  27.689  22.185  1.00  0.00    -0.410 OA
BRANCH  13  14
ATOM     14  C   UNL A   1      31.772  29.028  22.547  1.00  0.00     0.412 C 
ATOM     15  N   UNL A   1      32.764  29.366  23.427  1.00  0.00    -0.321 N 
ATOM     16  H   UNL A   1      32.784  30.302  23.731  1.00  0.00     0.167 HD
ATOM     17  O   UNL A   1      30.957  29.856  22.163  1.00  0.00    -0.224 OA
BRANCH  15  18
ATOM     18  C   UNL A   1      33.787  28.488  23.961  1.00  0.00     0.119 C 
BRANCH  18  19
ATOM     19  C   UNL A   1      33.287  27.686  25.163  1.00  0.00     0.021 C 
BRANCH  19  20
ATOM     20  C   UNL A   1      33.915  28.076  26.507  1.00  0.00     0.002 C 
BRANCH  20  21
ATOM     21  C   UNL A   1      34.282  29.556  26.662  1.00  0.00    -0.000 C 
BRANCH  21  22
ATOM     22  C   UNL A   1      33.357  30.371  27.569  1.00  0.00    -0.003 C 
ATOM     23  C   UNL A   1      32.338  31.199  26.802  1.00  0.00     0.004 C 
ENDBRANCH  21  22
ENDBRANCH  20  21
ENDBRANCH  19  20
ENDBRANCH  18  19
ENDBRANCH  15  18
ENDBRANCH  13  14
ENDBRANCH   8  13
ENDBRANCH   1   7
BRANCH   6  24
ATOM     24  N   UNL A   1      30.540  23.401  26.804  1.00  0.00    -0.398 N 
ATOM     25  H   UNL A   1      30.128  24.282  26.651  1.00  0.00     0.156 HD
ATOM     26  H   UNL A   1      30.489  22.981  27.692  1.00  0.00     0.156 HD
ENDBRANCH   6  24
BRANCH   4  27
ATOM     27  C   UNL A   1      33.268  19.525  25.461  1.00  0.00     0.105 C 
ATOM     28  C   UNL A   1      32.525  18.218  25.185  1.00  0.00     0.023 C 
BRANCH  27  29
ATOM     29  C   UNL A   1      34.750  19.520  25.056  1.00  0.00     0.227 C 
ATOM     30  O   UNL A   1      35.204  18.574  24.400  1.00  0.00    -0.274 OA
ATOM     31  N   UNL A   1      35.631  20.512  25.358  1.00  0.00    -0.356 N 
ATOM     32  H   UNL A   1      36.525  20.384  24.967  1.00  0.00     0.163 HD
BRANCH  31  33
ATOM     33  C   UNL A   1      35.502  21.721  26.148  1.00  0.00     0.117 C 
BRANCH  33  34
ATOM     34  C   UNL A   1      35.538  22.980  25.287  1.00  0.00     0.042 C 
BRANCH  34  35
ATOM     35  C   UNL A   1      36.942  23.485  24.984  1.00  0.00     0.118 C 
BRANCH  35  36
ATOM     36  N   UNL A   1      37.968  22.530  25.384  1.00  0.00    -0.352 N 
ATOM     37  C   UNL A   1      39.164  22.718  26.032  1.00  0.00     0.251 C 
ATOM     38  H   UNL A   1      37.770  21.594  25.149  1.00  0.00     0.163 HD
ATOM     39  O   UNL A   1      39.970  21.791  26.073  1.00  0.00    -0.269 OA
BRANCH  37  40
ATOM     40  C   UNL A   1      39.504  24.010  26.670  1.00  0.00     0.039 A 
ATOM     41  C   UNL A   1      39.059  24.250  27.976  1.00  0.00     0.014 A 
ATOM     42  C   UNL A   1      40.195  25.012  25.983  1.00  0.00     0.014 A 
ATOM     43  C   UNL A   1      39.349  25.465  28.604  1.00  0.00     0.010 A 
ATOM     44  C   UNL A   1      40.554  26.189  26.637  1.00  0.00     0.010 A 
ATOM     45  C   UNL A   1      40.124  26.434  27.949  1.00  0.00    -0.014 A 
BRANCH  45  46
ATOM     46  C   UNL A   1      40.480  27.716  28.611  1.00  0.00     0.031 A 
ATOM     47  C   UNL A   1      41.843  27.900  29.225  1.00  0.00     0.074 A 
ATOM     48  C   UNL A   1      39.558  28.693  28.716  1.00  0.00     0.049 A 
ATOM     49  N   UNL A   1      42.313  28.917  29.903  1.00  0.00    -0.248 NA
ATOM     50  C   UNL A   1      42.793  26.786  29.078  1.00  0.00     0.031 C 
ATOM     51  C   UNL A   1      38.189  28.627  28.201  1.00  0.00     0.029 A 
ATOM     52  N   UNL A   1      39.632  29.931  29.304  1.00  0.00    -0.354 N 
ATOM     53  C   UNL A   1      43.598  28.553  30.284  1.00  0.00     0.074 A 
ATOM     54  C   UNL A   1      43.821  27.210  29.798  1.00  0.00     0.031 C 
ATOM     55  C   UNL A   1      37.560  29.781  28.475  1.00  0.00     0.029 A 
ATOM     56  C   UNL A   1      38.465  30.651  29.219  1.00  0.00     0.049 A 
ATOM     57  H   UNL A   1      40.444  30.271  29.744  1.00  0.00     0.167 HD
ATOM     58  C   UNL A   1      44.519  29.278  30.964  1.00  0.00     0.031 A 
ATOM     59  C   UNL A   1      38.154  31.870  29.694  1.00  0.00     0.031 A 
ATOM     60  C   UNL A   1      44.308  30.621  31.433  1.00  0.00     0.049 A 
ATOM     61  C   UNL A   1      39.193  32.655  30.445  1.00  0.00     0.074 A 
ATOM     62  C   UNL A   1      45.200  31.461  32.075  1.00  0.00     0.029 A 
ATOM     63  N   UNL A   1      43.117  31.320  31.310  1.00  0.00    -0.354 N 
ATOM     64  N   UNL A   1      40.427  32.323  30.738  1.00  0.00    -0.248 NA
ATOM     65  C   UNL A   1      38.798  33.988  30.922  1.00  0.00     0.031 C 
ATOM     66  C   UNL A   1      44.535  32.653  32.382  1.00  0.00     0.029 A 
ATOM     67  C   UNL A   1      43.246  32.574  31.883  1.00  0.00     0.049 A 
ATOM     68  H   UNL A   1      42.302  30.976  30.879  1.00  0.00     0.167 HD
ATOM     69  C   UNL A   1      40.963  33.414  31.409  1.00  0.00     0.074 A 
ATOM     70  C   UNL A   1      39.926  34.424  31.466  1.00  0.00     0.031 C 
ATOM     71  C   UNL A   1      42.204  33.567  31.931  1.00  0.00     0.031 A 
BRANCH  58  72
ATOM     72  C   UNL A   1      45.844  28.625  31.247  1.00  0.00    -0.014 A 
ATOM     73  C   UNL A   1      46.917  28.736  30.347  1.00  0.00     0.009 A 
ATOM     74  C   UNL A   1      46.034  27.920  32.445  1.00  0.00     0.009 A 
ATOM     75  C   UNL A   1      48.140  28.122  30.625  1.00  0.00     0.001 A 
ATOM     76  C   UNL A   1      47.266  27.331  32.734  1.00  0.00     0.001 A 
ATOM     77  C   UNL A   1      48.315  27.425  31.820  1.00  0.00     0.000 A 
ENDBRANCH  58  72
BRANCH  59  78
ATOM     78  C   UNL A   1      36.799  32.436  29.462  1.00  0.00    -0.014 A 
ATOM     79  C   UNL A   1      36.513  33.130  28.277  1.00  0.00     0.009 A 
ATOM     80  C   UNL A   1      35.788  32.286  30.423  1.00  0.00     0.009 A 
ATOM     81  C   UNL A   1      35.249  33.687  28.071  1.00  0.00     0.001 A 
ATOM     82  C   UNL A   1      34.517  32.820  30.202  1.00  0.00     0.001 A 
ATOM     83  C   UNL A   1      34.251  33.527  29.030  1.00  0.00     0.000 A 
ENDBRANCH  59  78
BRANCH  71  84
ATOM     84  C   UNL A   1      42.519  34.885  32.578  1.00  0.00    -0.014 A 
ATOM     85  C   UNL A   1      42.123  35.164  33.896  1.00  0.00     0.009 A 
ATOM     86  C   UNL A   1      43.259  35.846  31.871  1.00  0.00     0.009 A 
ATOM     87  C   UNL A   1      42.434  36.393  34.480  1.00  0.00     0.001 A 
ATOM     88  C   UNL A   1      43.592  37.062  32.468  1.00  0.00     0.001 A 
ATOM     89  C   UNL A   1      43.172  37.338  33.767  1.00  0.00     0.000 A 
ENDBRANCH  71  84
ENDBRANCH  45  46
ENDBRANCH  37  40
ENDBRANCH  35  36
ENDBRANCH  34  35
ENDBRANCH  33  34
ENDBRANCH  31  33
ENDBRANCH  27  29
ENDBRANCH   4  27
TORSDOF 20
ENDMDL
MODEL 3
REMARK VINA RESULT:      -7.8      4.221      9.328
REMARK SMILES CCCCCCNC(=O)Oc1cccc(-c2ccc([C@@H](C)C(=O)NCCCNC(=O)c3ccc(-c4c5nc(c(-c6ccccc6)c6ccc([nH]6)c(-c6ccccc6)c6nc(c(-c7ccccc7)c7ccc4[nH]7)C=C6)C=C5)cc3)cc2N)c1
REMARK SMILES IDX 16 1 17 2 18 3 19 4 79 5 80 6 15 7 11 8 12 9 82 10 13 11
REMARK SMILES IDX 14 12 10 13 8 14 7 15 9 17 6 18 5 19 4 20 3 21 2 22 1 23
REMARK SMILES IDX 81 24 20 27 21 28 22 29 23 30 24 31 25 33 26 34 27 35 28 36
REMARK SMILES IDX 29 37 30 39 31 40 32 41 78 42 33 43 77 44 34 45 35 46 36 47
REMARK SMILES IDX 71 48 37 49 76 50 70 51 72 52 38 53 75 54 69 55 68 56 39 58
REMARK SMILES IDX 61 59 46 60 60 61 47 62 50 63 59 64 73 65 48 66 49 67 58 69
REMARK SMILES IDX 74 70 51 71 40 72 41 73 45 74 42 75 44 76 43 77 62 78 63 79
REMARK SMILES IDX 67 80 64 81 66 82 65 83 52 84 53 85 57 86 54 87 56 88 55 89
REMARK H PARENT 7 16 81 25 81 26 24 32 28 38 72 57 50 68
REMARK Flexibility Score: inf
ROOT
ATOM      1  C   UNL A   1      36.276  32.993  28.970  1.00  0.00     0.005 A 
ATOM      2  C   UNL A   1      37.518  33.260  29.578  1.00  0.00     0.011 A 
ATOM      3  C   UNL A   1      38.561  32.329  29.572  1.00  0.00     0.005 A 
ATOM      4  C   UNL A   1      38.371  31.053  29.049  1.00  0.00    -0.034 A 
ATOM      5  C   UNL A   1      37.150  30.791  28.407  1.00  0.00     0.030 A 
ATOM      6  C   UNL A   1      36.138  31.763  28.287  1.00  0.00     0.040 A 
ENDROOT
BRANCH   1   7
ATOM      7  C   UNL A   1      35.192  34.002  29.078  1.00  0.00    -0.013 A 
ATOM      8  C   UNL A   1      33.454  35.134  30.351  1.00  0.00     0.133 A 
ATOM      9  C   UNL A   1      33.130  35.936  29.259  1.00  0.00     0.047 A 
ATOM     10  C   UNL A   1      34.476  34.187  30.275  1.00  0.00     0.056 A 
ATOM     11  C   UNL A   1      33.847  35.792  28.076  1.00  0.00     0.004 A 
ATOM     12  C   UNL A   1      34.858  34.828  27.985  1.00  0.00     0.009 A 
BRANCH   8  13
ATOM     13  O   UNL A   1      32.604  35.219  31.466  1.00  0.00    -0.410 OA
BRANCH  13  14
ATOM     14  C   UNL A   1      32.892  36.130  32.471  1.00  0.00     0.412 C 
ATOM     15  N   UNL A   1      33.648  35.589  33.477  1.00  0.00    -0.321 N 
ATOM     16  H   UNL A   1      33.876  36.186  34.226  1.00  0.00     0.167 HD
ATOM     17  O   UNL A   1      32.525  37.297  32.512  1.00  0.00    -0.224 OA
BRANCH  15  18
ATOM     18  C   UNL A   1      34.144  34.229  33.555  1.00  0.00     0.119 C 
BRANCH  18  19
ATOM     19  C   UNL A   1      35.555  34.165  34.141  1.00  0.00     0.021 C 
BRANCH  19  20
ATOM     20  C   UNL A   1      36.298  32.846  33.893  1.00  0.00     0.002 C 
BRANCH  20  21
ATOM     21  C   UNL A   1      35.751  31.983  32.751  1.00  0.00    -0.000 C 
BRANCH  21  22
ATOM     22  C   UNL A   1      36.640  30.812  32.327  1.00  0.00    -0.003 C 
ATOM     23  C   UNL A   1      38.053  30.896  32.882  1.00  0.00     0.004 C 
ENDBRANCH  21  22
ENDBRANCH  20  21
ENDBRANCH  19  20
ENDBRANCH  18  19
ENDBRANCH  15  18
ENDBRANCH  13  14
ENDBRANCH   8  13
ENDBRANCH   1   7
BRANCH   6  24
ATOM     24  N   UNL A   1      34.981  31.418  27.585  1.00  0.00    -0.398 N 
ATOM     25  H   UNL A   1      35.000  30.670  26.945  1.00  0.00     0.156 HD
ATOM     26  H   UNL A   1      34.149  31.922  27.731  1.00  0.00     0.156 HD
ENDBRANCH   6  24
BRANCH   4  27
ATOM     27  C   UNL A   1      39.407  29.946  29.172  1.00  0.00     0.105 C 
ATOM     28  C   UNL A   1      40.624  30.280  30.033  1.00  0.00     0.023 C 
BRANCH  27  29
ATOM     29  C   UNL A   1      38.803  28.556  29.424  1.00  0.00     0.227 C 
ATOM     30  O   UNL A   1      38.007  28.391  30.357  1.00  0.00    -0.274 OA
ATOM     31  N   UNL A   1      39.072  27.456  28.670  1.00  0.00    -0.356 N 
ATOM     32  H   UNL A   1      38.551  26.660  28.925  1.00  0.00     0.163 HD
BRANCH  31  33
ATOM     33  C   UNL A   1      39.979  27.233  27.562  1.00  0.00     0.117 C 
BRANCH  33  34
ATOM     34  C   UNL A   1      39.932  25.793  27.057  1.00  0.00     0.042 C 
BRANCH  34  35
ATOM     35  C   UNL A   1      40.393  24.762  28.079  1.00  0.00     0.118 C 
BRANCH  35  36
ATOM     36  N   UNL A   1      41.028  23.611  27.452  1.00  0.00    -0.352 N 
ATOM     37  C   UNL A   1      42.185  23.513  26.720  1.00  0.00     0.251 C 
ATOM     38  H   UNL A   1      40.545  22.761  27.572  1.00  0.00     0.163 HD
ATOM     39  O   UNL A   1      42.414  22.475  26.104  1.00  0.00    -0.269 OA
BRANCH  37  40
ATOM     40  C   UNL A   1      43.154  24.631  26.649  1.00  0.00     0.039 A 
ATOM     41  C   UNL A   1      43.282  25.333  25.444  1.00  0.00     0.014 A 
ATOM     42  C   UNL A   1      43.985  24.955  27.726  1.00  0.00     0.014 A 
ATOM     43  C   UNL A   1      44.197  26.383  25.338  1.00  0.00     0.010 A 
ATOM     44  C   UNL A   1      44.838  26.054  27.645  1.00  0.00     0.010 A 
ATOM     45  C   UNL A   1      44.964  26.771  26.448  1.00  0.00    -0.014 A 
BRANCH  45  46
ATOM     46  C   UNL A   1      45.914  27.911  26.370  1.00  0.00     0.031 A 
ATOM     47  C   UNL A   1      47.389  27.658  26.205  1.00  0.00     0.074 A 
ATOM     48  C   UNL A   1      45.459  29.172  26.509  1.00  0.00     0.049 A 
ATOM     49  N   UNL A   1      48.378  28.518  26.185  1.00  0.00    -0.248 NA
ATOM     50  C   UNL A   1      47.812  26.255  26.068  1.00  0.00     0.031 C 
ATOM     51  C   UNL A   1      44.060  29.551  26.714  1.00  0.00     0.029 A 
ATOM     52  N   UNL A   1      46.132  30.368  26.510  1.00  0.00    -0.354 N 
ATOM     53  C   UNL A   1      49.534  27.759  26.062  1.00  0.00     0.074 A 
ATOM     54  C   UNL A   1      49.132  26.370  26.052  1.00  0.00     0.031 C 
ATOM     55  C   UNL A   1      43.976  30.888  26.799  1.00  0.00     0.029 A 
ATOM     56  C   UNL A   1      45.314  31.458  26.695  1.00  0.00     0.049 A 
ATOM     57  H   UNL A   1      47.106  30.439  26.389  1.00  0.00     0.167 HD
ATOM     58  C   UNL A   1      50.818  28.179  25.950  1.00  0.00     0.031 A 
ATOM     59  C   UNL A   1      45.611  32.767  26.780  1.00  0.00     0.031 A 
ATOM     60  C   UNL A   1      51.220  29.560  25.942  1.00  0.00     0.049 A 
ATOM     61  C   UNL A   1      47.042  33.208  26.653  1.00  0.00     0.074 A 
ATOM     62  C   UNL A   1      52.488  30.088  25.771  1.00  0.00     0.029 A 
ATOM     63  N   UNL A   1      50.359  30.632  26.114  1.00  0.00    -0.354 N 
ATOM     64  N   UNL A   1      48.117  32.482  26.469  1.00  0.00    -0.248 NA
ATOM     65  C   UNL A   1      47.298  34.653  26.737  1.00  0.00     0.031 C 
ATOM     66  C   UNL A   1      52.400  31.479  25.884  1.00  0.00     0.029 A 
ATOM     67  C   UNL A   1      51.071  31.819  26.073  1.00  0.00     0.049 A 
ATOM     68  H   UNL A   1      49.386  30.561  26.245  1.00  0.00     0.167 HD
ATOM     69  C   UNL A   1      49.173  33.380  26.387  1.00  0.00     0.074 A 
ATOM     70  C   UNL A   1      48.607  34.707  26.527  1.00  0.00     0.031 C 
ATOM     71  C   UNL A   1      50.493  33.130  26.213  1.00  0.00     0.031 A 
BRANCH  58  72
ATOM     72  C   UNL A   1      51.884  27.125  25.834  1.00  0.00    -0.014 A 
ATOM     73  C   UNL A   1      52.544  26.629  26.971  1.00  0.00     0.009 A 
ATOM     74  C   UNL A   1      52.209  26.595  24.576  1.00  0.00     0.009 A 
ATOM     75  C   UNL A   1      53.533  25.652  26.844  1.00  0.00     0.001 A 
ATOM     76  C   UNL A   1      53.178  25.597  24.456  1.00  0.00     0.001 A 
ATOM     77  C   UNL A   1      53.845  25.134  25.588  1.00  0.00     0.000 A 
ENDBRANCH  58  72
BRANCH  59  78
ATOM     78  C   UNL A   1      44.527  33.763  26.983  1.00  0.00    -0.014 A 
ATOM     79  C   UNL A   1      44.113  34.109  28.278  1.00  0.00     0.009 A 
ATOM     80  C   UNL A   1      43.900  34.371  25.885  1.00  0.00     0.009 A 
ATOM     81  C   UNL A   1      43.074  35.023  28.469  1.00  0.00     0.001 A 
ATOM     82  C   UNL A   1      42.880  35.305  26.079  1.00  0.00     0.001 A 
ATOM     83  C   UNL A   1      42.463  35.624  27.370  1.00  0.00     0.000 A 
ENDBRANCH  59  78
BRANCH  71  84
ATOM     84  C   UNL A   1      51.410  34.316  26.127  1.00  0.00    -0.014 A 
ATOM     85  C   UNL A   1      52.038  34.837  27.270  1.00  0.00     0.009 A 
ATOM     86  C   UNL A   1      51.682  34.894  24.877  1.00  0.00     0.009 A 
ATOM     87  C   UNL A   1      52.894  35.934  27.165  1.00  0.00     0.001 A 
ATOM     88  C   UNL A   1      52.560  35.974  24.772  1.00  0.00     0.001 A 
ATOM     89  C   UNL A   1      53.158  36.498  25.916  1.00  0.00     0.000 A 
ENDBRANCH  71  84
ENDBRANCH  45  46
ENDBRANCH  37  40
ENDBRANCH  35  36
ENDBRANCH  34  35
ENDBRANCH  33  34
ENDBRANCH  31  33
ENDBRANCH  27  29
ENDBRANCH   4  27
TORSDOF 20
ENDMDL
