MODEL 1
REMARK VINA RESULT:     -11.1      0.000      0.000
REMARK SMILES O=C(C[C@H](Cc1ccc(Cl)cc1)C(=O)Nc1cc(Cl)ccc1Cl)NCCCNC(=O)c1ccc(-c2c3nc(c(-c4ccccc4)c4ccc([nH]4)c(-c4ccccc4)c4nc(c(-c5ccccc5)c5ccc2[nH]5)C=C4)C=C3)cc1
REMARK SMILES IDX 25 1 24 2 1 3 2 4 3 6 4 7 13 8 14 9 15 10 16 12 17 13 22 14
REMARK SMILES IDX 18 15 21 16 23 17 19 18 20 19 5 20 6 21 7 22 12 23 8 24
REMARK SMILES IDX 11 25 9 26 10 27 26 28 27 29 28 30 29 31 30 33 31 34 32 35
REMARK SMILES IDX 78 36 33 37 77 38 34 39 35 40 36 41 71 42 37 43 76 44 70 45
REMARK SMILES IDX 72 46 38 47 75 48 69 49 68 50 39 52 61 53 46 54 60 55 47 56
REMARK SMILES IDX 50 57 59 58 73 59 48 60 49 61 58 63 74 64 51 65 40 66 41 67
REMARK SMILES IDX 45 68 42 69 44 70 43 71 62 72 63 73 67 74 64 75 66 76 65 77
REMARK SMILES IDX 52 78 53 79 57 80 54 81 56 82 55 83
REMARK H PARENT 24 5 15 11 28 32 72 51 50 62
REMARK Flexibility Score: inf
ROOT
ATOM      1  C   UNL A   1      36.946  19.531  24.632  1.00  0.00     0.117 C 
ENDROOT
BRANCH   1   2
ATOM      2  N   UNL A   1      36.122  20.286  25.549  1.00  0.00    -0.356 N 
ATOM      3  O   UNL A   1      35.514  21.953  24.082  1.00  0.00    -0.275 OA
ATOM      4  C   UNL A   1      35.552  21.492  25.216  1.00  0.00     0.220 C 
ATOM      5  H   UNL A   1      35.962  19.922  26.450  1.00  0.00     0.163 HD
BRANCH   4   6
ATOM      6  C   UNL A   1      35.073  22.271  26.414  1.00  0.00     0.113 C 
BRANCH   6   7
ATOM      7  C   UNL A   1      33.939  23.269  26.130  1.00  0.00     0.092 C 
BRANCH   7   8
ATOM      8  C   UNL A   1      32.660  22.768  26.878  1.00  0.00     0.228 C 
ATOM      9  O   UNL A   1      32.493  23.065  28.065  1.00  0.00    -0.274 OA
ATOM     10  N   UNL A   1      31.609  22.181  26.190  1.00  0.00    -0.324 N 
ATOM     11  H   UNL A   1      30.717  22.226  26.603  1.00  0.00     0.169 HD
BRANCH  10  12
ATOM     12  C   UNL A   1      31.711  21.527  24.949  1.00  0.00     0.061 A 
ATOM     13  C   UNL A   1      32.075  20.180  25.006  1.00  0.00     0.048 A 
ATOM     14  C   UNL A   1      31.559  22.142  23.729  1.00  0.00     0.064 A 
ATOM     15  C   UNL A   1      32.810  19.374  23.983  1.00  0.00     0.043 A 
ATOM     16  C   UNL A   1      31.954  21.437  22.605  1.00  0.00     0.024 A 
ATOM     17  Cl  UNL A   1      31.004  23.761  23.589  1.00  0.00    -0.082 Cl
ATOM     18  Cl  UNL A   1      34.217  17.384  24.401  1.00  0.00    -0.084 Cl
ATOM     19  C   UNL A   1      32.578  20.155  22.714  1.00  0.00     0.022 A 
ENDBRANCH  10  12
ENDBRANCH   7   8
BRANCH   7  20
ATOM     20  C   UNL A   1      34.310  24.792  26.095  1.00  0.00     0.049 C 
BRANCH  20  21
ATOM     21  C   UNL A   1      33.407  25.776  25.363  1.00  0.00    -0.047 A 
ATOM     22  C   UNL A   1      31.835  26.296  26.123  1.00  0.00     0.005 A 
ATOM     23  C   UNL A   1      33.728  26.155  23.581  1.00  0.00     0.005 A 
ATOM     24  C   UNL A   1      30.602  27.215  25.153  1.00  0.00     0.021 A 
ATOM     25  C   UNL A   1      32.430  26.947  22.579  1.00  0.00     0.021 A 
ATOM     26  C   UNL A   1      30.897  27.517  23.368  1.00  0.00     0.041 A 
ATOM     27  Cl  UNL A   1      29.744  28.405  22.448  1.00  0.00    -0.084 Cl
ENDBRANCH  20  21
ENDBRANCH   7  20
ENDBRANCH   6   7
ENDBRANCH   4   6
ENDBRANCH   1   2
BRANCH   1  28
ATOM     28  C   UNL A   1      38.389  20.031  24.658  1.00  0.00     0.042 C 
BRANCH  28  29
ATOM     29  C   UNL A   1      39.108  19.819  25.990  1.00  0.00     0.118 C 
BRANCH  29  30
ATOM     30  N   UNL A   1      40.364  19.103  25.849  1.00  0.00    -0.352 N 
ATOM     31  C   UNL A   1      41.656  19.541  25.986  1.00  0.00     0.251 C 
ATOM     32  H   UNL A   1      40.273  18.151  25.618  1.00  0.00     0.163 HD
ATOM     33  O   UNL A   1      42.579  18.799  25.659  1.00  0.00    -0.269 OA
BRANCH  31  34
ATOM     34  C   UNL A   1      41.956  20.894  26.507  1.00  0.00     0.039 A 
ATOM     35  C   UNL A   1      41.896  21.099  27.889  1.00  0.00     0.014 A 
ATOM     36  C   UNL A   1      42.235  21.969  25.659  1.00  0.00     0.014 A 
ATOM     37  C   UNL A   1      42.145  22.366  28.418  1.00  0.00     0.010 A 
ATOM     38  C   UNL A   1      42.568  23.213  26.194  1.00  0.00     0.010 A 
ATOM     39  C   UNL A   1      42.503  23.432  27.577  1.00  0.00    -0.014 A 
BRANCH  39  40
ATOM     40  C   UNL A   1      42.774  24.780  28.142  1.00  0.00     0.031 A 
ATOM     41  C   UNL A   1      44.176  25.185  28.517  1.00  0.00     0.074 A 
ATOM     42  C   UNL A   1      41.756  25.643  28.327  1.00  0.00     0.049 A 
ATOM     43  N   UNL A   1      44.608  26.329  28.986  1.00  0.00    -0.248 NA
ATOM     44  C   UNL A   1      45.228  24.166  28.368  1.00  0.00     0.031 C 
ATOM     45  C   UNL A   1      40.346  25.366  28.044  1.00  0.00     0.029 A 
ATOM     46  N   UNL A   1      41.753  26.937  28.787  1.00  0.00    -0.354 N 
ATOM     47  C   UNL A   1      45.972  26.164  29.193  1.00  0.00     0.074 A 
ATOM     48  C   UNL A   1      46.286  24.792  28.861  1.00  0.00     0.031 C 
ATOM     49  C   UNL A   1      39.623  26.468  28.292  1.00  0.00     0.029 A 
ATOM     50  C   UNL A   1      40.507  27.517  28.788  1.00  0.00     0.049 A 
ATOM     51  H   UNL A   1      42.566  27.404  29.087  1.00  0.00     0.167 HD
ATOM     52  C   UNL A   1      46.890  27.074  29.598  1.00  0.00     0.031 A 
ATOM     53  C   UNL A   1      40.120  28.757  29.144  1.00  0.00     0.031 A 
ATOM     54  C   UNL A   1      46.582  28.441  29.930  1.00  0.00     0.049 A 
ATOM     55  C   UNL A   1      41.157  29.746  29.603  1.00  0.00     0.074 A 
ATOM     56  C   UNL A   1      47.447  29.453  30.309  1.00  0.00     0.029 A 
ATOM     57  N   UNL A   1      45.307  28.986  29.925  1.00  0.00    -0.354 N 
ATOM     58  N   UNL A   1      42.453  29.593  29.725  1.00  0.00    -0.248 NA
ATOM     59  C   UNL A   1      40.674  31.090  29.949  1.00  0.00     0.031 C 
ATOM     60  C   UNL A   1      46.689  30.594  30.592  1.00  0.00     0.029 A 
ATOM     61  C   UNL A   1      45.360  30.314  30.315  1.00  0.00     0.049 A 
ATOM     62  H   UNL A   1      44.486  28.500  29.680  1.00  0.00     0.167 HD
ATOM     63  C   UNL A   1      42.944  30.830  30.125  1.00  0.00     0.074 A 
ATOM     64  C   UNL A   1      41.808  31.724  30.204  1.00  0.00     0.031 C 
ATOM     65  C   UNL A   1      44.222  31.195  30.395  1.00  0.00     0.031 A 
BRANCH  52  66
ATOM     66  C   UNL A   1      48.319  26.613  29.716  1.00  0.00    -0.014 A 
ATOM     67  C   UNL A   1      48.804  26.031  30.899  1.00  0.00     0.009 A 
ATOM     68  C   UNL A   1      49.186  26.735  28.619  1.00  0.00     0.009 A 
ATOM     69  C   UNL A   1      50.136  25.622  30.994  1.00  0.00     0.001 A 
ATOM     70  C   UNL A   1      50.507  26.293  28.705  1.00  0.00     0.001 A 
ATOM     71  C   UNL A   1      50.985  25.748  29.896  1.00  0.00     0.000 A 
ENDBRANCH  52  66
BRANCH  53  72
ATOM     72  C   UNL A   1      38.688  29.148  29.053  1.00  0.00    -0.014 A 
ATOM     73  C   UNL A   1      38.161  29.665  27.859  1.00  0.00     0.009 A 
ATOM     74  C   UNL A   1      37.845  29.025  30.169  1.00  0.00     0.009 A 
ATOM     75  C   UNL A   1      36.829  30.084  27.795  1.00  0.00     0.001 A 
ATOM     76  C   UNL A   1      36.505  29.413  30.092  1.00  0.00     0.001 A 
ATOM     77  C   UNL A   1      36.003  29.954  28.910  1.00  0.00     0.000 A 
ENDBRANCH  53  72
BRANCH  65  78
ATOM     78  C   UNL A   1      44.463  32.638  30.747  1.00  0.00    -0.014 A 
ATOM     79  C   UNL A   1      44.721  33.607  29.765  1.00  0.00     0.009 A 
ATOM     80  C   UNL A   1      44.424  33.033  32.094  1.00  0.00     0.009 A 
ATOM     81  C   UNL A   1      44.991  34.929  30.130  1.00  0.00     0.001 A 
ATOM     82  C   UNL A   1      44.654  34.361  32.453  1.00  0.00     0.001 A 
ATOM     83  C   UNL A   1      44.955  35.304  31.472  1.00  0.00     0.000 A 
ENDBRANCH  65  78
ENDBRANCH  39  40
ENDBRANCH  31  34
ENDBRANCH  29  30
ENDBRANCH  28  29
ENDBRANCH   1  28
TORSDOF 15
ENDMDL
MODEL 2
REMARK VINA RESULT:     -11.0      4.399      9.479
REMARK SMILES O=C(C[C@H](Cc1ccc(Cl)cc1)C(=O)Nc1cc(Cl)ccc1Cl)NCCCNC(=O)c1ccc(-c2c3nc(c(-c4ccccc4)c4ccc([nH]4)c(-c4ccccc4)c4nc(c(-c5ccccc5)c5ccc2[nH]5)C=C4)C=C3)cc1
REMARK SMILES IDX 25 1 24 2 1 3 2 4 3 6 4 7 13 8 14 9 15 10 16 12 17 13 22 14
REMARK SMILES IDX 18 15 21 16 23 17 19 18 20 19 5 20 6 21 7 22 12 23 8 24
REMARK SMILES IDX 11 25 9 26 10 27 26 28 27 29 28 30 29 31 30 33 31 34 32 35
REMARK SMILES IDX 78 36 33 37 77 38 34 39 35 40 36 41 71 42 37 43 76 44 70 45
REMARK SMILES IDX 72 46 38 47 75 48 69 49 68 50 39 52 61 53 46 54 60 55 47 56
REMARK SMILES IDX 50 57 59 58 73 59 48 60 49 61 58 63 74 64 51 65 40 66 41 67
REMARK SMILES IDX 45 68 42 69 44 70 43 71 62 72 63 73 67 74 64 75 66 76 65 77
REMARK SMILES IDX 52 78 53 79 57 80 54 81 56 82 55 83
REMARK H PARENT 24 5 15 11 28 32 72 51 50 62
REMARK Flexibility Score: inf
ROOT
ATOM      1  C   UNL A   1      31.038  31.162  26.367  1.00  0.00     0.117 C 
ENDROOT
BRANCH   1   2
ATOM      2  N   UNL A   1      31.925  30.525  25.417  1.00  0.00    -0.356 N 
ATOM      3  O   UNL A   1      31.425  28.349  25.976  1.00  0.00    -0.275 OA
ATOM      4  C   UNL A   1      32.111  29.164  25.372  1.00  0.00     0.220 C 
ATOM      5  H   UNL A   1      32.415  31.090  24.777  1.00  0.00     0.163 HD
BRANCH   4   6
ATOM      6  C   UNL A   1      33.336  28.760  24.594  1.00  0.00     0.113 C 
BRANCH   6   7
ATOM      7  C   UNL A   1      33.382  27.283  24.173  1.00  0.00     0.092 C 
BRANCH   7   8
ATOM      8  C   UNL A   1      33.328  27.227  22.611  1.00  0.00     0.228 C 
ATOM      9  O   UNL A   1      34.372  27.340  21.961  1.00  0.00    -0.274 OA
ATOM     10  N   UNL A   1      32.174  26.842  21.946  1.00  0.00    -0.324 N 
ATOM     11  H   UNL A   1      32.278  26.466  21.042  1.00  0.00     0.169 HD
BRANCH  10  12
ATOM     12  C   UNL A   1      30.867  26.942  22.455  1.00  0.00     0.061 A 
ATOM     13  C   UNL A   1      30.253  28.186  22.297  1.00  0.00     0.048 A 
ATOM     14  C   UNL A   1      30.222  25.944  23.146  1.00  0.00     0.064 A 
ATOM     15  C   UNL A   1      29.204  28.818  23.156  1.00  0.00     0.043 A 
ATOM     16  C   UNL A   1      29.057  26.281  23.815  1.00  0.00     0.024 A 
ATOM     17  Cl  UNL A   1      30.872  24.360  23.277  1.00  0.00    -0.082 Cl
ATOM     18  Cl  UNL A   1      28.796  31.239  23.450  1.00  0.00    -0.084 Cl
ATOM     19  C   UNL A   1      28.592  27.634  23.860  1.00  0.00     0.022 A 
ENDBRANCH  10  12
ENDBRANCH   7   8
BRANCH   7  20
ATOM     20  C   UNL A   1      34.328  26.331  24.984  1.00  0.00     0.049 C 
BRANCH  20  21
ATOM     21  C   UNL A   1      34.057  24.832  25.006  1.00  0.00    -0.047 A 
ATOM     22  C   UNL A   1      34.544  23.806  23.581  1.00  0.00     0.005 A 
ATOM     23  C   UNL A   1      32.934  24.127  26.296  1.00  0.00     0.005 A 
ATOM     24  C   UNL A   1      33.964  22.088  23.442  1.00  0.00     0.021 A 
ATOM     25  C   UNL A   1      32.241  22.457  26.075  1.00  0.00     0.021 A 
ATOM     26  C   UNL A   1      32.789  21.426  24.685  1.00  0.00     0.041 A 
ATOM     27  Cl  UNL A   1      32.253  19.794  24.571  1.00  0.00    -0.084 Cl
ENDBRANCH  20  21
ENDBRANCH   7  20
ENDBRANCH   6   7
ENDBRANCH   4   6
ENDBRANCH   1   2
BRANCH   1  28
ATOM     28  C   UNL A   1      31.333  32.658  26.467  1.00  0.00     0.042 C 
BRANCH  28  29
ATOM     29  C   UNL A   1      32.613  33.001  27.229  1.00  0.00     0.118 C 
BRANCH  29  30
ATOM     30  N   UNL A   1      32.540  34.282  27.911  1.00  0.00    -0.352 N 
ATOM     31  C   UNL A   1      33.303  34.789  28.932  1.00  0.00     0.251 C 
ATOM     32  H   UNL A   1      31.830  34.882  27.590  1.00  0.00     0.163 HD
ATOM     33  O   UNL A   1      32.961  35.837  29.472  1.00  0.00    -0.269 OA
BRANCH  31  34
ATOM     34  C   UNL A   1      34.520  34.087  29.400  1.00  0.00     0.039 A 
ATOM     35  C   UNL A   1      34.376  33.088  30.367  1.00  0.00     0.014 A 
ATOM     36  C   UNL A   1      35.796  34.435  28.948  1.00  0.00     0.014 A 
ATOM     37  C   UNL A   1      35.501  32.422  30.855  1.00  0.00     0.010 A 
ATOM     38  C   UNL A   1      36.909  33.710  29.371  1.00  0.00     0.010 A 
ATOM     39  C   UNL A   1      36.778  32.712  30.347  1.00  0.00    -0.014 A 
BRANCH  39  40
ATOM     40  C   UNL A   1      37.975  31.998  30.862  1.00  0.00     0.031 A 
ATOM     41  C   UNL A   1      38.531  32.320  32.225  1.00  0.00     0.074 A 
ATOM     42  C   UNL A   1      38.572  31.060  30.101  1.00  0.00     0.049 A 
ATOM     43  N   UNL A   1      39.541  31.775  32.855  1.00  0.00    -0.248 NA
ATOM     44  C   UNL A   1      37.883  33.412  32.970  1.00  0.00     0.031 C 
ATOM     45  C   UNL A   1      38.161  30.678  28.748  1.00  0.00     0.029 A 
ATOM     46  N   UNL A   1      39.647  30.246  30.362  1.00  0.00    -0.354 N 
ATOM     47  C   UNL A   1      39.652  32.460  34.060  1.00  0.00     0.074 A 
ATOM     48  C   UNL A   1      38.650  33.501  34.045  1.00  0.00     0.031 C 
ATOM     49  C   UNL A   1      38.943  29.676  28.318  1.00  0.00     0.029 A 
ATOM     50  C   UNL A   1      39.934  29.370  29.343  1.00  0.00     0.049 A 
ATOM     51  H   UNL A   1      40.162  30.288  31.200  1.00  0.00     0.167 HD
ATOM     52  C   UNL A   1      40.494  32.231  35.097  1.00  0.00     0.031 A 
ATOM     53  C   UNL A   1      40.885  28.422  29.248  1.00  0.00     0.031 A 
ATOM     54  C   UNL A   1      41.493  31.195  35.114  1.00  0.00     0.049 A 
ATOM     55  C   UNL A   1      41.815  28.195  30.409  1.00  0.00     0.074 A 
ATOM     56  C   UNL A   1      42.365  30.854  36.134  1.00  0.00     0.029 A 
ATOM     57  N   UNL A   1      41.756  30.333  34.060  1.00  0.00    -0.354 N 
ATOM     58  N   UNL A   1      41.860  28.807  31.567  1.00  0.00    -0.248 NA
ATOM     59  C   UNL A   1      42.812  27.127  30.252  1.00  0.00     0.031 C 
ATOM     60  C   UNL A   1      43.196  29.826  35.675  1.00  0.00     0.029 A 
ATOM     61  C   UNL A   1      42.791  29.477  34.396  1.00  0.00     0.049 A 
ATOM     62  H   UNL A   1      41.278  30.333  33.198  1.00  0.00     0.167 HD
ATOM     63  C   UNL A   1      42.861  28.171  32.291  1.00  0.00     0.074 A 
ATOM     64  C   UNL A   1      43.383  27.117  31.447  1.00  0.00     0.031 C 
ATOM     65  C   UNL A   1      43.305  28.433  33.546  1.00  0.00     0.031 A 
BRANCH  52  66
ATOM     66  C   UNL A   1      40.373  33.131  36.298  1.00  0.00    -0.014 A 
ATOM     67  C   UNL A   1      41.045  34.364  36.358  1.00  0.00     0.009 A 
ATOM     68  C   UNL A   1      39.555  32.755  37.374  1.00  0.00     0.009 A 
ATOM     69  C   UNL A   1      40.933  35.179  37.487  1.00  0.00     0.001 A 
ATOM     70  C   UNL A   1      39.416  33.588  38.486  1.00  0.00     0.001 A 
ATOM     71  C   UNL A   1      40.114  34.793  38.547  1.00  0.00     0.000 A 
ENDBRANCH  52  66
BRANCH  53  72
ATOM     72  C   UNL A   1      40.991  27.590  28.019  1.00  0.00    -0.014 A 
ATOM     73  C   UNL A   1      41.720  28.044  26.908  1.00  0.00     0.009 A 
ATOM     74  C   UNL A   1      40.347  26.345  27.944  1.00  0.00     0.009 A 
ATOM     75  C   UNL A   1      41.770  27.286  25.735  1.00  0.00     0.001 A 
ATOM     76  C   UNL A   1      40.428  25.574  26.783  1.00  0.00     0.001 A 
ATOM     77  C   UNL A   1      41.128  26.051  25.676  1.00  0.00     0.000 A 
ENDBRANCH  53  72
BRANCH  65  78
ATOM     78  C   UNL A   1      44.372  27.526  34.099  1.00  0.00    -0.014 A 
ATOM     79  C   UNL A   1      44.056  26.341  34.782  1.00  0.00     0.009 A 
ATOM     80  C   UNL A   1      45.723  27.867  33.924  1.00  0.00     0.009 A 
ATOM     81  C   UNL A   1      45.070  25.549  35.327  1.00  0.00     0.001 A 
ATOM     82  C   UNL A   1      46.734  27.053  34.435  1.00  0.00     0.001 A 
ATOM     83  C   UNL A   1      46.406  25.904  35.150  1.00  0.00     0.000 A 
ENDBRANCH  65  78
ENDBRANCH  39  40
ENDBRANCH  31  34
ENDBRANCH  29  30
ENDBRANCH  28  29
ENDBRANCH   1  28
TORSDOF 15
ENDMDL
MODEL 3
REMARK VINA RESULT:     -10.9      3.701      9.026
REMARK SMILES O=C(C[C@H](Cc1ccc(Cl)cc1)C(=O)Nc1cc(Cl)ccc1Cl)NCCCNC(=O)c1ccc(-c2c3nc(c(-c4ccccc4)c4ccc([nH]4)c(-c4ccccc4)c4nc(c(-c5ccccc5)c5ccc2[nH]5)C=C4)C=C3)cc1
REMARK SMILES IDX 25 1 24 2 1 3 2 4 3 6 4 7 13 8 14 9 15 10 16 12 17 13 22 14
REMARK SMILES IDX 18 15 21 16 23 17 19 18 20 19 5 20 6 21 7 22 12 23 8 24
REMARK SMILES IDX 11 25 9 26 10 27 26 28 27 29 28 30 29 31 30 33 31 34 32 35
REMARK SMILES IDX 78 36 33 37 77 38 34 39 35 40 36 41 71 42 37 43 76 44 70 45
REMARK SMILES IDX 72 46 38 47 75 48 69 49 68 50 39 52 61 53 46 54 60 55 47 56
REMARK SMILES IDX 50 57 59 58 73 59 48 60 49 61 58 63 74 64 51 65 40 66 41 67
REMARK SMILES IDX 45 68 42 69 44 70 43 71 62 72 63 73 67 74 64 75 66 76 65 77
REMARK SMILES IDX 52 78 53 79 57 80 54 81 56 82 55 83
REMARK H PARENT 24 5 15 11 28 32 72 51 50 62
REMARK Flexibility Score: inf
ROOT
ATOM      1  C   UNL A   1      31.224  30.320  25.056  1.00  0.00     0.117 C 
ENDROOT
BRANCH   1   2
ATOM      2  N   UNL A   1      32.383  29.488  25.295  1.00  0.00    -0.356 N 
ATOM      3  O   UNL A   1      33.088  29.344  23.109  1.00  0.00    -0.275 OA
ATOM      4  C   UNL A   1      33.164  28.991  24.279  1.00  0.00     0.220 C 
ATOM      5  H   UNL A   1      32.622  29.267  26.225  1.00  0.00     0.163 HD
BRANCH   4   6
ATOM      6  C   UNL A   1      34.059  27.861  24.719  1.00  0.00     0.113 C 
BRANCH   6   7
ATOM      7  C   UNL A   1      33.456  26.456  24.564  1.00  0.00     0.092 C 
BRANCH   7   8
ATOM      8  C   UNL A   1      33.467  26.095  23.042  1.00  0.00     0.228 C 
ATOM      9  O   UNL A   1      34.544  25.904  22.469  1.00  0.00    -0.274 OA
ATOM     10  N   UNL A   1      32.296  25.774  22.372  1.00  0.00    -0.324 N 
ATOM     11  H   UNL A   1      32.375  25.212  21.568  1.00  0.00     0.169 HD
BRANCH  10  12
ATOM     12  C   UNL A   1      31.004  26.185  22.746  1.00  0.00     0.061 A 
ATOM     13  C   UNL A   1      30.538  27.348  22.128  1.00  0.00     0.048 A 
ATOM     14  C   UNL A   1      30.239  25.571  23.709  1.00  0.00     0.064 A 
ATOM     15  C   UNL A   1      29.561  28.349  22.654  1.00  0.00     0.043 A 
ATOM     16  C   UNL A   1      29.115  26.243  24.156  1.00  0.00     0.024 A 
ATOM     17  Cl  UNL A   1      30.701  24.079  24.424  1.00  0.00    -0.082 Cl
ATOM     18  Cl  UNL A   1      29.432  30.745  22.055  1.00  0.00    -0.084 Cl
ATOM     19  C   UNL A   1      28.808  27.564  23.697  1.00  0.00     0.022 A 
ENDBRANCH  10  12
ENDBRANCH   7   8
BRANCH   7  20
ATOM     20  C   UNL A   1      33.825  25.388  25.651  1.00  0.00     0.049 C 
BRANCH  20  21
ATOM     21  C   UNL A   1      34.670  24.180  25.269  1.00  0.00    -0.047 A 
ATOM     22  C   UNL A   1      33.854  22.634  24.755  1.00  0.00     0.005 A 
ATOM     23  C   UNL A   1      36.477  24.168  25.666  1.00  0.00     0.005 A 
ATOM     24  C   UNL A   1      34.810  21.096  24.594  1.00  0.00     0.021 A 
ATOM     25  C   UNL A   1      37.396  22.596  25.644  1.00  0.00     0.021 A 
ATOM     26  C   UNL A   1      36.583  21.080  25.066  1.00  0.00     0.041 A 
ATOM     27  Cl  UNL A   1      37.500  19.632  24.896  1.00  0.00    -0.084 Cl
ENDBRANCH  20  21
ENDBRANCH   7  20
ENDBRANCH   6   7
ENDBRANCH   4   6
ENDBRANCH   1   2
BRANCH   1  28
ATOM     28  C   UNL A   1      31.055  31.350  26.173  1.00  0.00     0.042 C 
BRANCH  28  29
ATOM     29  C   UNL A   1      32.367  31.895  26.735  1.00  0.00     0.118 C 
BRANCH  29  30
ATOM     30  N   UNL A   1      32.248  33.255  27.234  1.00  0.00    -0.352 N 
ATOM     31  C   UNL A   1      33.048  33.956  28.099  1.00  0.00     0.251 C 
ATOM     32  H   UNL A   1      31.469  33.752  26.896  1.00  0.00     0.163 HD
ATOM     33  O   UNL A   1      32.669  35.047  28.515  1.00  0.00    -0.269 OA
BRANCH  31  34
ATOM     34  C   UNL A   1      34.350  33.414  28.549  1.00  0.00     0.039 A 
ATOM     35  C   UNL A   1      34.368  32.589  29.678  1.00  0.00     0.014 A 
ATOM     36  C   UNL A   1      35.550  33.747  27.917  1.00  0.00     0.014 A 
ATOM     37  C   UNL A   1      35.578  32.080  30.152  1.00  0.00     0.010 A 
ATOM     38  C   UNL A   1      36.747  33.168  28.337  1.00  0.00     0.010 A 
ATOM     39  C   UNL A   1      36.778  32.348  29.474  1.00  0.00    -0.014 A 
BRANCH  39  40
ATOM     40  C   UNL A   1      38.066  31.800  29.975  1.00  0.00     0.031 A 
ATOM     41  C   UNL A   1      38.822  32.504  31.071  1.00  0.00     0.074 A 
ATOM     42  C   UNL A   1      38.563  30.669  29.437  1.00  0.00     0.049 A 
ATOM     43  N   UNL A   1      39.939  32.154  31.660  1.00  0.00    -0.248 NA
ATOM     44  C   UNL A   1      38.266  33.778  31.555  1.00  0.00     0.031 C 
ATOM     45  C   UNL A   1      37.954  29.909  28.344  1.00  0.00     0.029 A 
ATOM     46  N   UNL A   1      39.693  29.953  29.749  1.00  0.00    -0.354 N 
ATOM     47  C   UNL A   1      40.219  33.164  32.573  1.00  0.00     0.074 A 
ATOM     48  C   UNL A   1      39.193  34.171  32.415  1.00  0.00     0.031 C 
ATOM     49  C   UNL A   1      38.689  28.812  28.108  1.00  0.00     0.029 A 
ATOM     50  C   UNL A   1      39.842  28.809  29.002  1.00  0.00     0.049 A 
ATOM     51  H   UNL A   1      40.334  30.233  30.441  1.00  0.00     0.167 HD
ATOM     52  C   UNL A   1      41.223  33.241  33.479  1.00  0.00     0.031 A 
ATOM     53  C   UNL A   1      40.796  27.859  29.037  1.00  0.00     0.031 A 
ATOM     54  C   UNL A   1      42.246  32.241  33.638  1.00  0.00     0.049 A 
ATOM     55  C   UNL A   1      41.908  27.973  30.045  1.00  0.00     0.074 A 
ATOM     56  C   UNL A   1      43.282  32.204  34.557  1.00  0.00     0.029 A 
ATOM     57  N   UNL A   1      42.365  31.101  32.858  1.00  0.00    -0.354 N 
ATOM     58  N   UNL A   1      42.118  28.901  30.947  1.00  0.00    -0.248 NA
ATOM     59  C   UNL A   1      42.901  26.891  30.050  1.00  0.00     0.031 C 
ATOM     60  C   UNL A   1      44.062  31.074  34.292  1.00  0.00     0.029 A 
ATOM     61  C   UNL A   1      43.469  30.366  33.259  1.00  0.00     0.049 A 
ATOM     62  H   UNL A   1      41.755  30.852  32.126  1.00  0.00     0.167 HD
ATOM     63  C   UNL A   1      43.243  28.493  31.652  1.00  0.00     0.074 A 
ATOM     64  C   UNL A   1      43.657  27.228  31.084  1.00  0.00     0.031 C 
ATOM     65  C   UNL A   1      43.874  29.109  32.684  1.00  0.00     0.031 A 
BRANCH  52  66
ATOM     66  C   UNL A   1      41.268  34.459  34.363  1.00  0.00    -0.014 A 
ATOM     67  C   UNL A   1      40.562  34.507  35.577  1.00  0.00     0.009 A 
ATOM     68  C   UNL A   1      42.049  35.564  33.993  1.00  0.00     0.009 A 
ATOM     69  C   UNL A   1      40.604  35.651  36.378  1.00  0.00     0.001 A 
ATOM     70  C   UNL A   1      42.118  36.692  34.812  1.00  0.00     0.001 A 
ATOM     71  C   UNL A   1      41.386  36.740  35.997  1.00  0.00     0.000 A 
ENDBRANCH  52  66
BRANCH  53  72
ATOM     72  C   UNL A   1      40.731  26.699  28.109  1.00  0.00    -0.014 A 
ATOM     73  C   UNL A   1      41.318  26.766  26.836  1.00  0.00     0.009 A 
ATOM     74  C   UNL A   1      40.064  25.523  28.486  1.00  0.00     0.009 A 
ATOM     75  C   UNL A   1      41.205  25.695  25.945  1.00  0.00     0.001 A 
ATOM     76  C   UNL A   1      39.984  24.440  27.607  1.00  0.00     0.001 A 
ATOM     77  C   UNL A   1      40.542  24.533  26.334  1.00  0.00     0.000 A 
ENDBRANCH  53  72
BRANCH  65  78
ATOM     78  C   UNL A   1      45.046  28.390  33.298  1.00  0.00    -0.014 A 
ATOM     79  C   UNL A   1      44.882  27.456  34.333  1.00  0.00     0.009 A 
ATOM     80  C   UNL A   1      46.341  28.654  32.822  1.00  0.00     0.009 A 
ATOM     81  C   UNL A   1      45.996  26.845  34.915  1.00  0.00     0.001 A 
ATOM     82  C   UNL A   1      47.447  28.013  33.379  1.00  0.00     0.001 A 
ATOM     83  C   UNL A   1      47.275  27.122  34.436  1.00  0.00     0.000 A 
ENDBRANCH  65  78
ENDBRANCH  39  40
ENDBRANCH  31  34
ENDBRANCH  29  30
ENDBRANCH  28  29
ENDBRANCH   1  28
TORSDOF 15
ENDMDL
