MODEL 1
REMARK VINA RESULT:     -10.7      0.000      0.000
REMARK SMILES CCCc1cc(OCC(=O)NCCCNC(=O)c2ccc(-c3c4nc(c(-c5ccccc5)c5ccc([nH]5)c(-c5ccccc5)c5nc(c(-c6ccccc6)c6ccc3[nH]6)C=C5)C=C4)cc2)nc(Nc2ccc(C#N)cc2)n1
REMARK SMILES IDX 9 1 10 2 11 3 8 5 7 6 6 7 4 8 5 9 77 10 67 11 66 12 3 13
REMARK SMILES IDX 2 14 1 15 68 16 69 18 70 19 76 20 71 21 75 22 72 23 73 24
REMARK SMILES IDX 74 25 12 26 13 27 14 28 15 29 16 30 17 32 18 33 19 34 65 35
REMARK SMILES IDX 20 36 64 37 21 38 22 39 23 40 58 41 24 42 63 43 57 44 59 45
REMARK SMILES IDX 25 46 62 47 56 48 55 49 26 51 48 52 33 53 47 54 34 55 37 56
REMARK SMILES IDX 46 57 60 58 35 59 36 60 45 62 61 63 38 64 27 65 28 66 32 67
REMARK SMILES IDX 29 68 31 69 30 70 49 71 50 72 54 73 51 74 53 75 52 76 39 77
REMARK SMILES IDX 40 78 44 79 41 80 43 81 42 82
REMARK H PARENT 11 4 68 17 15 31 59 50 37 61
REMARK Flexibility Score: inf
ROOT
ATOM      1  C   UNL A   1      33.284  22.025  24.804  1.00  0.00     0.258 C 
ATOM      2  O   UNL A   1      32.730  21.668  23.763  1.00  0.00    -0.271 OA
ATOM      3  N   UNL A   1      34.606  21.737  24.977  1.00  0.00    -0.353 N 
ATOM      4  H   UNL A   1      35.034  21.229  24.250  1.00  0.00     0.163 HD
ENDROOT
BRANCH   1   5
ATOM      5  C   UNL A   1      32.524  22.788  25.896  1.00  0.00     0.331 C 
BRANCH   5   6
ATOM      6  O   UNL A   1      31.239  23.277  25.551  1.00  0.00    -0.467 OA
BRANCH   6   7
ATOM      7  C   UNL A   1      31.054  24.632  25.533  1.00  0.00     0.218 A 
ATOM      8  C   UNL A   1      31.330  26.841  26.249  1.00  0.00     0.050 A 
ATOM      9  C   UNL A   1      31.535  25.502  26.484  1.00  0.00     0.092 A 
ATOM     10  N   UNL A   1      30.686  27.264  25.154  1.00  0.00    -0.218 NA
ATOM     11  C   UNL A   1      30.151  26.358  24.327  1.00  0.00     0.230 A 
ATOM     12  N   UNL A   1      30.328  25.040  24.474  1.00  0.00    -0.177 NA
BRANCH   8  13
ATOM     13  C   UNL A   1      31.805  27.866  27.247  1.00  0.00     0.056 C 
BRANCH  13  14
ATOM     14  C   UNL A   1      32.764  28.936  26.706  1.00  0.00     0.003 C 
ATOM     15  C   UNL A   1      32.233  30.360  26.828  1.00  0.00     0.004 C 
ENDBRANCH  13  14
ENDBRANCH   8  13
BRANCH  11  16
ATOM     16  N   UNL A   1      29.270  26.794  23.337  1.00  0.00    -0.324 N 
ATOM     17  H   UNL A   1      28.785  26.091  22.847  1.00  0.00     0.170 HD
BRANCH  16  18
ATOM     18  C   UNL A   1      28.996  28.114  22.960  1.00  0.00     0.041 A 
ATOM     19  C   UNL A   1      27.727  28.662  23.183  1.00  0.00     0.027 A 
ATOM     20  C   UNL A   1      30.007  28.959  22.479  1.00  0.00     0.027 A 
ATOM     21  C   UNL A   1      27.478  30.018  22.932  1.00  0.00     0.021 A 
ATOM     22  C   UNL A   1      29.761  30.306  22.206  1.00  0.00     0.021 A 
ATOM     23  C   UNL A   1      28.494  30.843  22.439  1.00  0.00     0.052 A 
BRANCH  23  24
ATOM     24  C   UNL A   1      28.247  32.231  22.187  1.00  0.00     0.099 C 
ATOM     25  N   UNL A   1      28.044  33.357  21.985  1.00  0.00    -0.192 NA
ENDBRANCH  23  24
ENDBRANCH  16  18
ENDBRANCH  11  16
ENDBRANCH   6   7
ENDBRANCH   5   6
ENDBRANCH   1   5
BRANCH   3  26
ATOM     26  C   UNL A   1      35.460  22.084  26.096  1.00  0.00     0.117 C 
BRANCH  26  27
ATOM     27  C   UNL A   1      36.042  23.487  25.973  1.00  0.00     0.042 C 
BRANCH  27  28
ATOM     28  C   UNL A   1      37.247  23.592  25.041  1.00  0.00     0.118 C 
BRANCH  28  29
ATOM     29  N   UNL A   1      38.349  22.726  25.436  1.00  0.00    -0.352 N 
ATOM     30  C   UNL A   1      39.490  22.993  26.150  1.00  0.00     0.251 C 
ATOM     31  H   UNL A   1      38.262  21.791  25.140  1.00  0.00     0.163 HD
ATOM     32  O   UNL A   1      40.376  22.144  26.204  1.00  0.00    -0.269 OA
BRANCH  30  33
ATOM     33  C   UNL A   1      39.677  24.290  26.837  1.00  0.00     0.039 A 
ATOM     34  C   UNL A   1      39.132  24.453  28.113  1.00  0.00     0.014 A 
ATOM     35  C   UNL A   1      40.344  25.356  26.228  1.00  0.00     0.014 A 
ATOM     36  C   UNL A   1      39.315  25.654  28.801  1.00  0.00     0.010 A 
ATOM     37  C   UNL A   1      40.602  26.522  26.948  1.00  0.00     0.010 A 
ATOM     38  C   UNL A   1      40.091  26.685  28.243  1.00  0.00    -0.014 A 
BRANCH  38  39
ATOM     39  C   UNL A   1      40.388  27.915  29.022  1.00  0.00     0.031 A 
ATOM     40  C   UNL A   1      39.396  29.046  29.090  1.00  0.00     0.074 A 
ATOM     41  C   UNL A   1      41.574  28.024  29.655  1.00  0.00     0.049 A 
ATOM     42  N   UNL A   1      39.492  30.189  29.724  1.00  0.00    -0.248 NA
ATOM     43  C   UNL A   1      38.142  28.885  28.337  1.00  0.00     0.031 C 
ATOM     44  C   UNL A   1      42.637  27.017  29.640  1.00  0.00     0.029 A 
ATOM     45  N   UNL A   1      42.084  29.028  30.441  1.00  0.00    -0.354 N 
ATOM     46  C   UNL A   1      38.316  30.876  29.450  1.00  0.00     0.074 A 
ATOM     47  C   UNL A   1      37.548  30.052  28.544  1.00  0.00     0.031 C 
ATOM     48  C   UNL A   1      43.650  27.432  30.417  1.00  0.00     0.029 A 
ATOM     49  C   UNL A   1      43.336  28.757  30.939  1.00  0.00     0.049 A 
ATOM     50  H   UNL A   1      41.597  29.863  30.630  1.00  0.00     0.167 HD
ATOM     51  C   UNL A   1      37.902  32.075  29.927  1.00  0.00     0.031 A 
ATOM     52  C   UNL A   1      44.147  29.495  31.721  1.00  0.00     0.031 A 
ATOM     53  C   UNL A   1      38.669  32.901  30.821  1.00  0.00     0.049 A 
ATOM     54  C   UNL A   1      43.679  30.848  32.186  1.00  0.00     0.074 A 
ATOM     55  C   UNL A   1      38.317  34.117  31.385  1.00  0.00     0.029 A 
ATOM     56  N   UNL A   1      39.943  32.604  31.279  1.00  0.00    -0.354 N 
ATOM     57  N   UNL A   1      42.533  31.448  31.975  1.00  0.00    -0.248 NA
ATOM     58  C   UNL A   1      44.618  31.619  33.013  1.00  0.00     0.031 C 
ATOM     59  C   UNL A   1      39.405  34.587  32.127  1.00  0.00     0.029 A 
ATOM     60  C   UNL A   1      40.403  33.627  32.092  1.00  0.00     0.049 A 
ATOM     61  H   UNL A   1      40.446  31.787  31.059  1.00  0.00     0.167 HD
ATOM     62  C   UNL A   1      42.602  32.648  32.670  1.00  0.00     0.074 A 
ATOM     63  C   UNL A   1      43.888  32.676  33.334  1.00  0.00     0.031 C 
ATOM     64  C   UNL A   1      41.684  33.642  32.750  1.00  0.00     0.031 A 
BRANCH  51  65
ATOM     65  C   UNL A   1      36.549  32.572  29.493  1.00  0.00    -0.014 A 
ATOM     66  C   UNL A   1      35.432  32.466  30.338  1.00  0.00     0.009 A 
ATOM     67  C   UNL A   1      36.404  33.221  28.257  1.00  0.00     0.009 A 
ATOM     68  C   UNL A   1      34.193  32.976  29.942  1.00  0.00     0.001 A 
ATOM     69  C   UNL A   1      35.172  33.759  27.878  1.00  0.00     0.001 A 
ATOM     70  C   UNL A   1      34.067  33.631  28.718  1.00  0.00     0.000 A 
ENDBRANCH  51  65
BRANCH  52  71
ATOM     71  C   UNL A   1      45.493  28.990  32.110  1.00  0.00    -0.014 A 
ATOM     72  C   UNL A   1      46.613  29.230  31.299  1.00  0.00     0.009 A 
ATOM     73  C   UNL A   1      45.653  28.211  33.267  1.00  0.00     0.009 A 
ATOM     74  C   UNL A   1      47.849  28.659  31.608  1.00  0.00     0.001 A 
ATOM     75  C   UNL A   1      46.900  27.676  33.597  1.00  0.00     0.001 A 
ATOM     76  C   UNL A   1      47.992  27.884  32.757  1.00  0.00     0.000 A 
ENDBRANCH  52  71
BRANCH  64  77
ATOM     77  C   UNL A   1      42.021  34.820  33.625  1.00  0.00    -0.014 A 
ATOM     78  C   UNL A   1      42.743  35.919  33.135  1.00  0.00     0.009 A 
ATOM     79  C   UNL A   1      41.593  34.833  34.963  1.00  0.00     0.009 A 
ATOM     80  C   UNL A   1      43.075  36.982  33.979  1.00  0.00     0.001 A 
ATOM     81  C   UNL A   1      41.889  35.915  35.793  1.00  0.00     0.001 A 
ATOM     82  C   UNL A   1      42.643  36.980  35.305  1.00  0.00     0.000 A 
ENDBRANCH  64  77
ENDBRANCH  38  39
ENDBRANCH  30  33
ENDBRANCH  28  29
ENDBRANCH  27  28
ENDBRANCH  26  27
ENDBRANCH   3  26
TORSDOF 17
ENDMDL
MODEL 2
REMARK VINA RESULT:     -10.7      2.194      6.661
REMARK SMILES CCCc1cc(OCC(=O)NCCCNC(=O)c2ccc(-c3c4nc(c(-c5ccccc5)c5ccc([nH]5)c(-c5ccccc5)c5nc(c(-c6ccccc6)c6ccc3[nH]6)C=C5)C=C4)cc2)nc(Nc2ccc(C#N)cc2)n1
REMARK SMILES IDX 9 1 10 2 11 3 8 5 7 6 6 7 4 8 5 9 77 10 67 11 66 12 3 13
REMARK SMILES IDX 2 14 1 15 68 16 69 18 70 19 76 20 71 21 75 22 72 23 73 24
REMARK SMILES IDX 74 25 12 26 13 27 14 28 15 29 16 30 17 32 18 33 19 34 65 35
REMARK SMILES IDX 20 36 64 37 21 38 22 39 23 40 58 41 24 42 63 43 57 44 59 45
REMARK SMILES IDX 25 46 62 47 56 48 55 49 26 51 48 52 33 53 47 54 34 55 37 56
REMARK SMILES IDX 46 57 60 58 35 59 36 60 45 62 61 63 38 64 27 65 28 66 32 67
REMARK SMILES IDX 29 68 31 69 30 70 49 71 50 72 54 73 51 74 53 75 52 76 39 77
REMARK SMILES IDX 40 78 44 79 41 80 43 81 42 82
REMARK H PARENT 11 4 68 17 15 31 59 50 37 61
REMARK Flexibility Score: inf
ROOT
ATOM      1  C   UNL A   1      34.614  22.608  26.292  1.00  0.00     0.258 C 
ATOM      2  O   UNL A   1      34.395  22.856  27.478  1.00  0.00    -0.271 OA
ATOM      3  N   UNL A   1      35.521  21.640  25.978  1.00  0.00    -0.353 N 
ATOM      4  H   UNL A   1      35.969  21.207  26.741  1.00  0.00     0.163 HD
ENDROOT
BRANCH   1   5
ATOM      5  C   UNL A   1      33.885  23.358  25.169  1.00  0.00     0.331 C 
BRANCH   5   6
ATOM      6  O   UNL A   1      32.484  23.513  25.315  1.00  0.00    -0.467 OA
BRANCH   6   7
ATOM      7  C   UNL A   1      31.990  24.784  25.425  1.00  0.00     0.218 A 
ATOM      8  C   UNL A   1      31.783  26.930  26.329  1.00  0.00     0.050 A 
ATOM      9  C   UNL A   1      32.305  25.664  26.435  1.00  0.00     0.092 A 
ATOM     10  N   UNL A   1      31.004  27.278  25.297  1.00  0.00    -0.218 NA
ATOM     11  C   UNL A   1      30.651  26.341  24.409  1.00  0.00     0.230 A 
ATOM     12  N   UNL A   1      31.136  25.094  24.431  1.00  0.00    -0.177 NA
BRANCH   8  13
ATOM     13  C   UNL A   1      32.060  27.955  27.401  1.00  0.00     0.056 C 
BRANCH  13  14
ATOM     14  C   UNL A   1      33.261  28.878  27.153  1.00  0.00     0.003 C 
ATOM     15  C   UNL A   1      33.973  28.625  25.830  1.00  0.00     0.004 C 
ENDBRANCH  13  14
ENDBRANCH   8  13
BRANCH  11  16
ATOM     16  N   UNL A   1      29.643  26.636  23.491  1.00  0.00    -0.324 N 
ATOM     17  H   UNL A   1      29.134  25.868  23.142  1.00  0.00     0.170 HD
BRANCH  16  18
ATOM     18  C   UNL A   1      29.271  27.896  23.008  1.00  0.00     0.041 A 
ATOM     19  C   UNL A   1      27.989  28.398  23.259  1.00  0.00     0.027 A 
ATOM     20  C   UNL A   1      30.202  28.740  22.383  1.00  0.00     0.027 A 
ATOM     21  C   UNL A   1      27.647  29.707  22.895  1.00  0.00     0.021 A 
ATOM     22  C   UNL A   1      29.863  30.039  21.998  1.00  0.00     0.021 A 
ATOM     23  C   UNL A   1      28.583  30.530  22.261  1.00  0.00     0.052 A 
BRANCH  23  24
ATOM     24  C   UNL A   1      28.242  31.872  21.894  1.00  0.00     0.099 C 
ATOM     25  N   UNL A   1      27.968  32.962  21.597  1.00  0.00    -0.192 NA
ENDBRANCH  23  24
ENDBRANCH  16  18
ENDBRANCH  11  16
ENDBRANCH   6   7
ENDBRANCH   5   6
ENDBRANCH   1   5
BRANCH   3  26
ATOM     26  C   UNL A   1      35.909  21.166  24.663  1.00  0.00     0.117 C 
BRANCH  26  27
ATOM     27  C   UNL A   1      37.087  20.202  24.714  1.00  0.00     0.042 C 
BRANCH  27  28
ATOM     28  C   UNL A   1      38.256  20.676  25.576  1.00  0.00     0.118 C 
BRANCH  28  29
ATOM     29  N   UNL A   1      39.353  19.719  25.622  1.00  0.00    -0.352 N 
ATOM     30  C   UNL A   1      40.669  19.879  25.971  1.00  0.00     0.251 C 
ATOM     31  H   UNL A   1      39.109  18.803  25.358  1.00  0.00     0.163 HD
ATOM     32  O   UNL A   1      41.462  18.966  25.755  1.00  0.00    -0.269 OA
BRANCH  30  33
ATOM     33  C   UNL A   1      41.153  21.137  26.582  1.00  0.00     0.039 A 
ATOM     34  C   UNL A   1      41.689  22.121  25.747  1.00  0.00     0.014 A 
ATOM     35  C   UNL A   1      41.122  21.344  27.964  1.00  0.00     0.014 A 
ATOM     36  C   UNL A   1      42.128  23.331  26.288  1.00  0.00     0.010 A 
ATOM     37  C   UNL A   1      41.479  22.584  28.493  1.00  0.00     0.010 A 
ATOM     38  C   UNL A   1      41.985  23.592  27.661  1.00  0.00    -0.014 A 
BRANCH  38  39
ATOM     39  C   UNL A   1      42.339  24.923  28.220  1.00  0.00     0.031 A 
ATOM     40  C   UNL A   1      43.753  25.238  28.632  1.00  0.00     0.074 A 
ATOM     41  C   UNL A   1      41.372  25.849  28.380  1.00  0.00     0.049 A 
ATOM     42  N   UNL A   1      44.237  26.348  29.134  1.00  0.00    -0.248 NA
ATOM     43  C   UNL A   1      44.751  24.168  28.477  1.00  0.00     0.031 C 
ATOM     44  C   UNL A   1      39.956  25.660  28.054  1.00  0.00     0.029 A 
ATOM     45  N   UNL A   1      41.431  27.138  28.849  1.00  0.00    -0.354 N 
ATOM     46  C   UNL A   1      45.588  26.110  29.351  1.00  0.00     0.074 A 
ATOM     47  C   UNL A   1      45.838  24.734  28.984  1.00  0.00     0.031 C 
ATOM     48  C   UNL A   1      39.292  26.803  28.289  1.00  0.00     0.029 A 
ATOM     49  C   UNL A   1      40.219  27.787  28.834  1.00  0.00     0.049 A 
ATOM     50  H   UNL A   1      42.264  27.558  29.164  1.00  0.00     0.167 HD
ATOM     51  C   UNL A   1      46.541  26.965  29.793  1.00  0.00     0.031 A 
ATOM     52  C   UNL A   1      39.887  29.032  29.226  1.00  0.00     0.031 A 
ATOM     53  C   UNL A   1      46.293  28.333  30.168  1.00  0.00     0.049 A 
ATOM     54  C   UNL A   1      40.960  29.938  29.767  1.00  0.00     0.074 A 
ATOM     55  C   UNL A   1      47.202  29.286  30.596  1.00  0.00     0.029 A 
ATOM     56  N   UNL A   1      45.049  28.942  30.166  1.00  0.00    -0.354 N 
ATOM     57  N   UNL A   1      42.246  29.718  29.895  1.00  0.00    -0.248 NA
ATOM     58  C   UNL A   1      40.533  31.275  30.204  1.00  0.00     0.031 C 
ATOM     59  C   UNL A   1      46.498  30.450  30.919  1.00  0.00     0.029 A 
ATOM     60  C   UNL A   1      45.161  30.248  30.614  1.00  0.00     0.049 A 
ATOM     61  H   UNL A   1      44.209  28.511  29.886  1.00  0.00     0.167 HD
ATOM     62  C   UNL A   1      42.783  30.897  30.394  1.00  0.00     0.074 A 
ATOM     63  C   UNL A   1      41.690  31.838  30.515  1.00  0.00     0.031 C 
ATOM     64  C   UNL A   1      44.067  31.177  30.727  1.00  0.00     0.031 A 
BRANCH  51  65
ATOM     65  C   UNL A   1      47.952  26.450  29.897  1.00  0.00    -0.014 A 
ATOM     66  C   UNL A   1      48.428  25.872  31.085  1.00  0.00     0.009 A 
ATOM     67  C   UNL A   1      48.792  26.475  28.773  1.00  0.00     0.009 A 
ATOM     68  C   UNL A   1      49.723  25.354  31.152  1.00  0.00     0.001 A 
ATOM     69  C   UNL A   1      50.075  25.926  28.833  1.00  0.00     0.001 A 
ATOM     70  C   UNL A   1      50.541  25.372  30.024  1.00  0.00     0.000 A 
ENDBRANCH  51  65
BRANCH  52  71
ATOM     71  C   UNL A   1      38.478  29.505  29.139  1.00  0.00    -0.014 A 
ATOM     72  C   UNL A   1      37.977  30.058  27.949  1.00  0.00     0.009 A 
ATOM     73  C   UNL A   1      37.642  29.460  30.265  1.00  0.00     0.009 A 
ATOM     74  C   UNL A   1      36.692  30.604  27.906  1.00  0.00     0.001 A 
ATOM     75  C   UNL A   1      36.341  29.968  30.207  1.00  0.00     0.001 A 
ATOM     76  C   UNL A   1      35.875  30.556  29.033  1.00  0.00     0.000 A 
ENDBRANCH  52  71
BRANCH  64  77
ATOM     77  C   UNL A   1      44.364  32.573  31.207  1.00  0.00    -0.014 A 
ATOM     78  C   UNL A   1      44.465  32.876  32.574  1.00  0.00     0.009 A 
ATOM     79  C   UNL A   1      44.561  33.599  30.269  1.00  0.00     0.009 A 
ATOM     80  C   UNL A   1      44.704  34.187  32.992  1.00  0.00     0.001 A 
ATOM     81  C   UNL A   1      44.841  34.901  30.688  1.00  0.00     0.001 A 
ATOM     82  C   UNL A   1      44.897  35.196  32.049  1.00  0.00     0.000 A 
ENDBRANCH  64  77
ENDBRANCH  38  39
ENDBRANCH  30  33
ENDBRANCH  28  29
ENDBRANCH  27  28
ENDBRANCH  26  27
ENDBRANCH   3  26
TORSDOF 17
ENDMDL
MODEL 3
REMARK VINA RESULT:     -10.7      2.259      3.558
REMARK SMILES CCCc1cc(OCC(=O)NCCCNC(=O)c2ccc(-c3c4nc(c(-c5ccccc5)c5ccc([nH]5)c(-c5ccccc5)c5nc(c(-c6ccccc6)c6ccc3[nH]6)C=C5)C=C4)cc2)nc(Nc2ccc(C#N)cc2)n1
REMARK SMILES IDX 9 1 10 2 11 3 8 5 7 6 6 7 4 8 5 9 77 10 67 11 66 12 3 13
REMARK SMILES IDX 2 14 1 15 68 16 69 18 70 19 76 20 71 21 75 22 72 23 73 24
REMARK SMILES IDX 74 25 12 26 13 27 14 28 15 29 16 30 17 32 18 33 19 34 65 35
REMARK SMILES IDX 20 36 64 37 21 38 22 39 23 40 58 41 24 42 63 43 57 44 59 45
REMARK SMILES IDX 25 46 62 47 56 48 55 49 26 51 48 52 33 53 47 54 34 55 37 56
REMARK SMILES IDX 46 57 60 58 35 59 36 60 45 62 61 63 38 64 27 65 28 66 32 67
REMARK SMILES IDX 29 68 31 69 30 70 49 71 50 72 54 73 51 74 53 75 52 76 39 77
REMARK SMILES IDX 40 78 44 79 41 80 43 81 42 82
REMARK H PARENT 11 4 68 17 15 31 59 50 37 61
REMARK Flexibility Score: inf
ROOT
ATOM      1  C   UNL A   1      34.491  22.710  26.210  1.00  0.00     0.258 C 
ATOM      2  O   UNL A   1      34.237  22.939  27.393  1.00  0.00    -0.271 OA
ATOM      3  N   UNL A   1      35.538  21.890  25.910  1.00  0.00    -0.353 N 
ATOM      4  H   UNL A   1      36.049  21.545  26.678  1.00  0.00     0.163 HD
ENDROOT
BRANCH   1   5
ATOM      5  C   UNL A   1      33.655  23.318  25.077  1.00  0.00     0.331 C 
BRANCH   5   6
ATOM      6  O   UNL A   1      32.279  23.528  25.347  1.00  0.00    -0.467 OA
BRANCH   6   7
ATOM      7  C   UNL A   1      31.835  24.819  25.440  1.00  0.00     0.218 A 
ATOM      8  C   UNL A   1      31.631  26.950  26.379  1.00  0.00     0.050 A 
ATOM      9  C   UNL A   1      32.078  25.657  26.504  1.00  0.00     0.092 A 
ATOM     10  N   UNL A   1      30.986  27.360  25.280  1.00  0.00    -0.218 NA
ATOM     11  C   UNL A   1      30.690  26.464  24.332  1.00  0.00     0.230 A 
ATOM     12  N   UNL A   1      31.111  25.195  24.369  1.00  0.00    -0.177 NA
BRANCH   8  13
ATOM     13  C   UNL A   1      31.835  27.933  27.505  1.00  0.00     0.056 C 
BRANCH  13  14
ATOM     14  C   UNL A   1      32.969  28.949  27.311  1.00  0.00     0.003 C 
ATOM     15  C   UNL A   1      33.961  28.568  26.219  1.00  0.00     0.004 C 
ENDBRANCH  13  14
ENDBRANCH   8  13
BRANCH  11  16
ATOM     16  N   UNL A   1      29.804  26.831  23.318  1.00  0.00    -0.324 N 
ATOM     17  H   UNL A   1      29.414  26.095  22.794  1.00  0.00     0.170 HD
BRANCH  16  18
ATOM     18  C   UNL A   1      29.405  28.124  22.961  1.00  0.00     0.041 A 
ATOM     19  C   UNL A   1      30.302  28.988  22.321  1.00  0.00     0.027 A 
ATOM     20  C   UNL A   1      28.074  28.542  23.107  1.00  0.00     0.027 A 
ATOM     21  C   UNL A   1      29.878  30.234  21.840  1.00  0.00     0.021 A 
ATOM     22  C   UNL A   1      27.649  29.791  22.651  1.00  0.00     0.021 A 
ATOM     23  C   UNL A   1      28.550  30.640  22.008  1.00  0.00     0.052 A 
BRANCH  23  24
ATOM     24  C   UNL A   1      28.110  31.910  21.512  1.00  0.00     0.099 C 
ATOM     25  N   UNL A   1      27.750  32.939  21.109  1.00  0.00    -0.192 NA
ENDBRANCH  23  24
ENDBRANCH  16  18
ENDBRANCH  11  16
ENDBRANCH   6   7
ENDBRANCH   5   6
ENDBRANCH   1   5
BRANCH   3  26
ATOM     26  C   UNL A   1      35.995  21.461  24.602  1.00  0.00     0.117 C 
BRANCH  26  27
ATOM     27  C   UNL A   1      37.122  20.439  24.683  1.00  0.00     0.042 C 
BRANCH  27  28
ATOM     28  C   UNL A   1      38.306  20.869  25.546  1.00  0.00     0.118 C 
BRANCH  28  29
ATOM     29  N   UNL A   1      39.348  19.855  25.626  1.00  0.00    -0.352 N 
ATOM     30  C   UNL A   1      40.664  19.948  26.002  1.00  0.00     0.251 C 
ATOM     31  H   UNL A   1      39.061  18.950  25.367  1.00  0.00     0.163 HD
ATOM     32  O   UNL A   1      41.411  18.991  25.813  1.00  0.00    -0.269 OA
BRANCH  30  33
ATOM     33  C   UNL A   1      41.202  21.186  26.609  1.00  0.00     0.039 A 
ATOM     34  C   UNL A   1      41.777  22.144  25.770  1.00  0.00     0.014 A 
ATOM     35  C   UNL A   1      41.184  21.396  27.991  1.00  0.00     0.014 A 
ATOM     36  C   UNL A   1      42.269  23.335  26.308  1.00  0.00     0.010 A 
ATOM     37  C   UNL A   1      41.594  22.620  28.517  1.00  0.00     0.010 A 
ATOM     38  C   UNL A   1      42.140  23.605  27.681  1.00  0.00    -0.014 A 
BRANCH  38  39
ATOM     39  C   UNL A   1      42.552  24.921  28.236  1.00  0.00     0.031 A 
ATOM     40  C   UNL A   1      41.548  26.027  28.430  1.00  0.00     0.074 A 
ATOM     41  C   UNL A   1      43.848  25.129  28.547  1.00  0.00     0.049 A 
ATOM     42  N   UNL A   1      41.735  27.234  28.903  1.00  0.00    -0.248 NA
ATOM     43  C   UNL A   1      40.160  25.751  28.025  1.00  0.00     0.031 C 
ATOM     44  C   UNL A   1      44.927  24.154  28.375  1.00  0.00     0.029 A 
ATOM     45  N   UNL A   1      44.478  26.226  29.079  1.00  0.00    -0.354 N 
ATOM     46  C   UNL A   1      40.493  27.857  28.857  1.00  0.00     0.074 A 
ATOM     47  C   UNL A   1      39.574  26.919  28.253  1.00  0.00     0.031 C 
ATOM     48  C   UNL A   1      46.074  24.678  28.835  1.00  0.00     0.029 A 
ATOM     49  C   UNL A   1      45.826  26.043  29.282  1.00  0.00     0.049 A 
ATOM     50  H   UNL A   1      44.009  27.064  29.297  1.00  0.00     0.167 HD
ATOM     51  C   UNL A   1      40.145  29.090  29.297  1.00  0.00     0.031 A 
ATOM     52  C   UNL A   1      46.761  26.884  29.764  1.00  0.00     0.031 A 
ATOM     53  C   UNL A   1      41.060  30.029  29.890  1.00  0.00     0.049 A 
ATOM     54  C   UNL A   1      46.350  28.267  30.191  1.00  0.00     0.074 A 
ATOM     55  C   UNL A   1      40.791  31.290  30.396  1.00  0.00     0.029 A 
ATOM     56  N   UNL A   1      42.420  29.816  30.050  1.00  0.00    -0.354 N 
ATOM     57  N   UNL A   1      45.157  28.810  30.207  1.00  0.00    -0.248 NA
ATOM     58  C   UNL A   1      47.419  29.149  30.682  1.00  0.00     0.031 C 
ATOM     59  C   UNL A   1      41.999  31.866  30.800  1.00  0.00     0.029 A 
ATOM     60  C   UNL A   1      43.009  30.934  30.620  1.00  0.00     0.049 A 
ATOM     61  H   UNL A   1      42.897  28.994  29.798  1.00  0.00     0.167 HD
ATOM     62  C   UNL A   1      45.329  30.082  30.740  1.00  0.00     0.074 A 
ATOM     63  C   UNL A   1      46.733  30.215  31.063  1.00  0.00     0.031 C 
ATOM     64  C   UNL A   1      44.407  31.055  30.940  1.00  0.00     0.031 A 
BRANCH  51  65
ATOM     65  C   UNL A   1      38.703  29.502  29.159  1.00  0.00    -0.014 A 
ATOM     66  C   UNL A   1      38.179  29.905  27.920  1.00  0.00     0.009 A 
ATOM     67  C   UNL A   1      37.840  29.414  30.262  1.00  0.00     0.009 A 
ATOM     68  C   UNL A   1      36.828  30.237  27.795  1.00  0.00     0.001 A 
ATOM     69  C   UNL A   1      36.483  29.715  30.128  1.00  0.00     0.001 A 
ATOM     70  C   UNL A   1      35.980  30.132  28.897  1.00  0.00     0.000 A 
ENDBRANCH  51  65
BRANCH  52  71
ATOM     71  C   UNL A   1      48.185  26.459  29.863  1.00  0.00    -0.014 A 
ATOM     72  C   UNL A   1      49.068  26.650  28.788  1.00  0.00     0.009 A 
ATOM     73  C   UNL A   1      48.655  25.804  31.012  1.00  0.00     0.009 A 
ATOM     74  C   UNL A   1      50.370  26.148  28.841  1.00  0.00     0.001 A 
ATOM     75  C   UNL A   1      49.971  25.341  31.080  1.00  0.00     0.001 A 
ATOM     76  C   UNL A   1      50.821  25.496  29.987  1.00  0.00     0.000 A 
ENDBRANCH  52  71
BRANCH  64  77
ATOM     77  C   UNL A   1      44.883  32.330  31.584  1.00  0.00    -0.014 A 
ATOM     78  C   UNL A   1      44.896  32.491  32.978  1.00  0.00     0.009 A 
ATOM     79  C   UNL A   1      45.339  33.384  30.776  1.00  0.00     0.009 A 
ATOM     80  C   UNL A   1      45.306  33.699  33.548  1.00  0.00     0.001 A 
ATOM     81  C   UNL A   1      45.788  34.575  31.349  1.00  0.00     0.001 A 
ATOM     82  C   UNL A   1      45.756  34.737  32.732  1.00  0.00     0.000 A 
ENDBRANCH  64  77
ENDBRANCH  38  39
ENDBRANCH  30  33
ENDBRANCH  28  29
ENDBRANCH  27  28
ENDBRANCH  26  27
ENDBRANCH   3  26
TORSDOF 17
ENDMDL
