MODEL 1
REMARK VINA RESULT:     -12.2      0.000      0.000
REMARK SMILES O=C(NCCCNC(=O)[C@@H]1CC[C@@]2(CCN(C(=O)OCc3ccccc3)C2)C1)c1ccc(-c2c3nc(c(-c4ccccc4)c4ccc([nH]4)c(-c4ccccc4)c4nc(c(-c5ccccc5)c5ccc2[nH]5)C=C4)C=C3)cc1
REMARK SMILES IDX 6 1 5 2 4 3 3 4 1 5 2 6 29 8 30 9 76 10 31 11 75 12 32 13
REMARK SMILES IDX 33 14 34 15 69 16 35 17 74 18 68 19 70 20 36 21 73 22 67 23
REMARK SMILES IDX 66 24 37 26 59 27 44 28 58 29 45 30 48 31 57 32 71 33 46 34
REMARK SMILES IDX 47 35 56 37 72 38 49 39 38 40 39 41 43 42 40 43 42 44 41 45
REMARK SMILES IDX 60 46 61 47 65 48 62 49 64 50 63 51 50 52 51 53 55 54 52 55
REMARK SMILES IDX 54 56 53 57 7 58 8 59 9 61 10 62 11 63 28 64 12 65 13 66
REMARK SMILES IDX 14 67 27 68 15 69 16 70 17 71 18 72 19 73 20 74 21 75 22 76
REMARK SMILES IDX 26 77 23 78 25 79 24 80
REMARK H PARENT 3 7 70 25 48 36 7 60
REMARK Flexibility Score: inf
ROOT
ATOM      1  C   UNL A   1      36.737  20.446  25.051  1.00  0.00     0.117 C 
ENDROOT
BRANCH   1   2
ATOM      2  C   UNL A   1      38.000  19.596  24.955  1.00  0.00     0.042 C 
BRANCH   2   3
ATOM      3  C   UNL A   1      39.156  20.152  25.769  1.00  0.00     0.118 C 
BRANCH   3   4
ATOM      4  N   UNL A   1      40.148  19.115  25.994  1.00  0.00    -0.352 N 
ATOM      5  O   UNL A   1      42.220  18.257  25.873  1.00  0.00    -0.269 OA
ATOM      6  C   UNL A   1      41.512  19.237  26.087  1.00  0.00     0.251 C 
ATOM      7  H   UNL A   1      39.794  18.201  26.093  1.00  0.00     0.163 HD
BRANCH   6   8
ATOM      8  C   UNL A   1      42.135  20.531  26.458  1.00  0.00     0.039 A 
ATOM      9  C   UNL A   1      42.582  21.422  25.479  1.00  0.00     0.014 A 
ATOM     10  C   UNL A   1      42.172  20.909  27.806  1.00  0.00     0.014 A 
ATOM     11  C   UNL A   1      43.141  22.642  25.845  1.00  0.00     0.010 A 
ATOM     12  C   UNL A   1      42.649  22.172  28.167  1.00  0.00     0.010 A 
ATOM     13  C   UNL A   1      43.136  23.051  27.188  1.00  0.00    -0.014 A 
BRANCH  13  14
ATOM     14  C   UNL A   1      43.524  24.445  27.523  1.00  0.00     0.031 A 
ATOM     15  C   UNL A   1      44.949  24.907  27.439  1.00  0.00     0.074 A 
ATOM     16  C   UNL A   1      42.556  25.304  27.903  1.00  0.00     0.049 A 
ATOM     17  N   UNL A   1      45.442  26.096  27.685  1.00  0.00    -0.248 NA
ATOM     18  C   UNL A   1      45.952  23.912  27.036  1.00  0.00     0.031 C 
ATOM     19  C   UNL A   1      41.135  24.968  28.038  1.00  0.00     0.029 A 
ATOM     20  N   UNL A   1      42.611  26.635  28.227  1.00  0.00    -0.354 N 
ATOM     21  C   UNL A   1      46.811  25.989  27.484  1.00  0.00     0.074 A 
ATOM     22  C   UNL A   1      47.076  24.612  27.119  1.00  0.00     0.031 C 
ATOM     23  C   UNL A   1      40.449  26.073  28.363  1.00  0.00     0.029 A 
ATOM     24  C   UNL A   1      41.385  27.178  28.527  1.00  0.00     0.049 A 
ATOM     25  H   UNL A   1      43.449  27.152  28.244  1.00  0.00     0.167 HD
ATOM     26  C   UNL A   1      47.759  26.951  27.593  1.00  0.00     0.031 A 
ATOM     27  C   UNL A   1      41.046  28.422  28.910  1.00  0.00     0.031 A 
ATOM     28  C   UNL A   1      47.492  28.317  27.963  1.00  0.00     0.049 A 
ATOM     29  C   UNL A   1      42.122  29.456  29.053  1.00  0.00     0.074 A 
ATOM     30  C   UNL A   1      48.384  29.371  28.069  1.00  0.00     0.029 A 
ATOM     31  N   UNL A   1      46.242  28.817  28.293  1.00  0.00    -0.354 N 
ATOM     32  N   UNL A   1      43.406  29.346  28.822  1.00  0.00    -0.248 NA
ATOM     33  C   UNL A   1      41.699  30.787  29.510  1.00  0.00     0.031 C 
ATOM     34  C   UNL A   1      47.682  30.496  28.514  1.00  0.00     0.029 A 
ATOM     35  C   UNL A   1      46.343  30.158  28.630  1.00  0.00     0.049 A 
ATOM     36  H   UNL A   1      45.406  28.297  28.290  1.00  0.00     0.167 HD
ATOM     37  C   UNL A   1      43.946  30.595  29.090  1.00  0.00     0.074 A 
ATOM     38  C   UNL A   1      42.845  31.453  29.479  1.00  0.00     0.031 C 
ATOM     39  C   UNL A   1      45.239  30.994  29.022  1.00  0.00     0.031 A 
BRANCH  26  40
ATOM     40  C   UNL A   1      49.186  26.552  27.334  1.00  0.00    -0.014 A 
ATOM     41  C   UNL A   1      50.029  26.135  28.377  1.00  0.00     0.009 A 
ATOM     42  C   UNL A   1      49.679  26.547  26.020  1.00  0.00     0.009 A 
ATOM     43  C   UNL A   1      51.346  25.750  28.111  1.00  0.00     0.001 A 
ATOM     44  C   UNL A   1      50.988  26.138  25.754  1.00  0.00     0.001 A 
ATOM     45  C   UNL A   1      51.823  25.748  26.800  1.00  0.00     0.000 A 
ENDBRANCH  26  40
BRANCH  27  46
ATOM     46  C   UNL A   1      39.625  28.747  29.197  1.00  0.00    -0.014 A 
ATOM     47  C   UNL A   1      38.808  29.315  28.210  1.00  0.00     0.009 A 
ATOM     48  C   UNL A   1      39.074  28.473  30.459  1.00  0.00     0.009 A 
ATOM     49  C   UNL A   1      37.474  29.622  28.487  1.00  0.00     0.001 A 
ATOM     50  C   UNL A   1      37.733  28.751  30.725  1.00  0.00     0.001 A 
ATOM     51  C   UNL A   1      36.936  29.334  29.741  1.00  0.00     0.000 A 
ENDBRANCH  27  46
BRANCH  39  52
ATOM     52  C   UNL A   1      45.523  32.432  29.350  1.00  0.00    -0.014 A 
ATOM     53  C   UNL A   1      45.825  32.835  30.661  1.00  0.00     0.009 A 
ATOM     54  C   UNL A   1      45.510  33.394  28.327  1.00  0.00     0.009 A 
ATOM     55  C   UNL A   1      46.074  34.178  30.946  1.00  0.00     0.001 A 
ATOM     56  C   UNL A   1      45.789  34.731  28.610  1.00  0.00     0.001 A 
ATOM     57  C   UNL A   1      46.061  35.124  29.920  1.00  0.00     0.000 A 
ENDBRANCH  39  52
ENDBRANCH  13  14
ENDBRANCH   6   8
ENDBRANCH   3   4
ENDBRANCH   2   3
ENDBRANCH   1   2
BRANCH   1  58
ATOM     58  N   UNL A   1      35.481  19.697  24.993  1.00  0.00    -0.356 N 
ATOM     59  C   UNL A   1      34.189  20.170  24.942  1.00  0.00     0.223 C 
ATOM     60  H   UNL A   1      35.573  18.716  24.991  1.00  0.00     0.163 HD
ATOM     61  O   UNL A   1      33.267  19.404  24.681  1.00  0.00    -0.275 OA
BRANCH  59  62
ATOM     62  C   UNL A   1      33.988  21.629  25.270  1.00  0.00     0.079 C 
ATOM     63  C   UNL A   1      32.565  21.904  25.734  1.00  0.00     0.014 C 
ATOM     64  C   UNL A   1      34.112  22.700  24.188  1.00  0.00     0.022 C 
ATOM     65  C   UNL A   1      32.704  23.363  26.105  1.00  0.00     0.010 C 
ATOM     66  C   UNL A   1      33.414  23.938  24.861  1.00  0.00    -0.009 C 
ATOM     67  C   UNL A   1      34.431  25.053  25.201  1.00  0.00     0.030 C 
ATOM     68  C   UNL A   1      32.369  24.597  23.951  1.00  0.00     0.130 C 
ATOM     69  C   UNL A   1      33.879  26.321  24.566  1.00  0.00     0.124 C 
ATOM     70  N   UNL A   1      32.969  25.836  23.555  1.00  0.00    -0.308 N 
BRANCH  70  71
ATOM     71  C   UNL A   1      32.761  26.346  22.305  1.00  0.00     0.410 C 
ATOM     72  O   UNL A   1      33.602  26.324  21.417  1.00  0.00    -0.224 OA
BRANCH  71  73
ATOM     73  O   UNL A   1      31.551  26.949  22.202  1.00  0.00    -0.445 OA
BRANCH  73  74
ATOM     74  C   UNL A   1      31.575  28.338  22.532  1.00  0.00     0.270 C 
BRANCH  74  75
ATOM     75  C   UNL A   1      30.146  28.822  22.565  1.00  0.00    -0.011 A 
ATOM     76  C   UNL A   1      29.141  28.044  23.158  1.00  0.00     0.007 A 
ATOM     77  C   UNL A   1      29.788  30.008  21.909  1.00  0.00     0.007 A 
ATOM     78  C   UNL A   1      27.808  28.456  23.115  1.00  0.00     0.000 A 
ATOM     79  C   UNL A   1      28.456  30.420  21.868  1.00  0.00     0.000 A 
ATOM     80  C   UNL A   1      27.467  29.647  22.474  1.00  0.00     0.000 A 
ENDBRANCH  74  75
ENDBRANCH  73  74
ENDBRANCH  71  73
ENDBRANCH  70  71
ENDBRANCH  59  62
ENDBRANCH   1  58
TORSDOF 14
ENDMDL
MODEL 2
REMARK VINA RESULT:     -12.2      5.398     11.151
REMARK SMILES O=C(NCCCNC(=O)[C@@H]1CC[C@@]2(CCN(C(=O)OCc3ccccc3)C2)C1)c1ccc(-c2c3nc(c(-c4ccccc4)c4ccc([nH]4)c(-c4ccccc4)c4nc(c(-c5ccccc5)c5ccc2[nH]5)C=C4)C=C3)cc1
REMARK SMILES IDX 6 1 5 2 4 3 3 4 1 5 2 6 29 8 30 9 76 10 31 11 75 12 32 13
REMARK SMILES IDX 33 14 34 15 69 16 35 17 74 18 68 19 70 20 36 21 73 22 67 23
REMARK SMILES IDX 66 24 37 26 59 27 44 28 58 29 45 30 48 31 57 32 71 33 46 34
REMARK SMILES IDX 47 35 56 37 72 38 49 39 38 40 39 41 43 42 40 43 42 44 41 45
REMARK SMILES IDX 60 46 61 47 65 48 62 49 64 50 63 51 50 52 51 53 55 54 52 55
REMARK SMILES IDX 54 56 53 57 7 58 8 59 9 61 10 62 11 63 28 64 12 65 13 66
REMARK SMILES IDX 14 67 27 68 15 69 16 70 17 71 18 72 19 73 20 74 21 75 22 76
REMARK SMILES IDX 26 77 23 78 25 79 24 80
REMARK H PARENT 3 7 70 25 48 36 7 60
REMARK Flexibility Score: inf
ROOT
ATOM      1  C   UNL A   1      33.267  34.829  28.514  1.00  0.00     0.117 C 
ENDROOT
BRANCH   1   2
ATOM      2  C   UNL A   1      34.722  34.730  28.070  1.00  0.00     0.042 C 
BRANCH   2   3
ATOM      3  C   UNL A   1      35.326  33.355  28.306  1.00  0.00     0.118 C 
BRANCH   3   4
ATOM      4  N   UNL A   1      34.322  32.329  28.088  1.00  0.00    -0.352 N 
ATOM      5  O   UNL A   1      33.604  30.363  27.271  1.00  0.00    -0.269 OA
ATOM      6  C   UNL A   1      34.503  30.994  27.820  1.00  0.00     0.251 C 
ATOM      7  H   UNL A   1      33.385  32.631  28.138  1.00  0.00     0.163 HD
BRANCH   6   8
ATOM      8  C   UNL A   1      35.760  30.307  28.201  1.00  0.00     0.039 A 
ATOM      9  C   UNL A   1      36.868  30.307  27.349  1.00  0.00     0.014 A 
ATOM     10  C   UNL A   1      35.872  29.748  29.480  1.00  0.00     0.014 A 
ATOM     11  C   UNL A   1      38.048  29.678  27.734  1.00  0.00     0.010 A 
ATOM     12  C   UNL A   1      37.086  29.198  29.902  1.00  0.00     0.010 A 
ATOM     13  C   UNL A   1      38.186  29.160  29.032  1.00  0.00    -0.014 A 
BRANCH  13  14
ATOM     14  C   UNL A   1      39.523  28.706  29.492  1.00  0.00     0.031 A 
ATOM     15  C   UNL A   1      40.321  29.496  30.487  1.00  0.00     0.074 A 
ATOM     16  C   UNL A   1      40.011  27.551  28.997  1.00  0.00     0.049 A 
ATOM     17  N   UNL A   1      41.497  29.223  30.997  1.00  0.00    -0.248 NA
ATOM     18  C   UNL A   1      39.734  30.754  30.970  1.00  0.00     0.031 C 
ATOM     19  C   UNL A   1      39.335  26.703  28.010  1.00  0.00     0.029 A 
ATOM     20  N   UNL A   1      41.177  26.879  29.264  1.00  0.00    -0.354 N 
ATOM     21  C   UNL A   1      41.799  30.280  31.844  1.00  0.00     0.074 A 
ATOM     22  C   UNL A   1      40.693  31.212  31.764  1.00  0.00     0.031 C 
ATOM     23  C   UNL A   1      40.069  25.602  27.797  1.00  0.00     0.029 A 
ATOM     24  C   UNL A   1      41.298  25.696  28.576  1.00  0.00     0.049 A 
ATOM     25  H   UNL A   1      41.861  27.213  29.888  1.00  0.00     0.167 HD
ATOM     26  C   UNL A   1      42.897  30.455  32.620  1.00  0.00     0.031 A 
ATOM     27  C   UNL A   1      42.292  24.791  28.555  1.00  0.00     0.031 A 
ATOM     28  C   UNL A   1      43.997  29.528  32.692  1.00  0.00     0.049 A 
ATOM     29  C   UNL A   1      43.508  25.029  29.399  1.00  0.00     0.074 A 
ATOM     30  C   UNL A   1      45.138  29.605  33.473  1.00  0.00     0.029 A 
ATOM     31  N   UNL A   1      44.097  28.360  31.953  1.00  0.00    -0.354 N 
ATOM     32  N   UNL A   1      43.759  26.016  30.223  1.00  0.00    -0.248 NA
ATOM     33  C   UNL A   1      44.578  24.027  29.309  1.00  0.00     0.031 C 
ATOM     34  C   UNL A   1      45.953  28.509  33.167  1.00  0.00     0.029 A 
ATOM     35  C   UNL A   1      45.293  27.720  32.239  1.00  0.00     0.049 A 
ATOM     36  H   UNL A   1      43.419  28.033  31.318  1.00  0.00     0.167 HD
ATOM     37  C   UNL A   1      45.008  25.748  30.763  1.00  0.00     0.074 A 
ATOM     38  C   UNL A   1      45.453  24.494  30.189  1.00  0.00     0.031 C 
ATOM     39  C   UNL A   1      45.723  26.478  31.653  1.00  0.00     0.031 A 
BRANCH  26  40
ATOM     40  C   UNL A   1      42.976  31.716  33.436  1.00  0.00    -0.014 A 
ATOM     41  C   UNL A   1      42.413  31.791  34.720  1.00  0.00     0.009 A 
ATOM     42  C   UNL A   1      43.666  32.829  32.932  1.00  0.00     0.009 A 
ATOM     43  C   UNL A   1      42.514  32.967  35.469  1.00  0.00     0.001 A 
ATOM     44  C   UNL A   1      43.788  33.994  33.693  1.00  0.00     0.001 A 
ATOM     45  C   UNL A   1      43.204  34.065  34.957  1.00  0.00     0.000 A 
ENDBRANCH  26  40
BRANCH  27  46
ATOM     46  C   UNL A   1      42.179  23.586  27.694  1.00  0.00    -0.014 A 
ATOM     47  C   UNL A   1      42.653  23.603  26.374  1.00  0.00     0.009 A 
ATOM     48  C   UNL A   1      41.610  22.405  28.196  1.00  0.00     0.009 A 
ATOM     49  C   UNL A   1      42.539  22.467  25.568  1.00  0.00     0.001 A 
ATOM     50  C   UNL A   1      41.526  21.262  27.400  1.00  0.00     0.001 A 
ATOM     51  C   UNL A   1      41.983  21.297  26.083  1.00  0.00     0.000 A 
ENDBRANCH  27  46
BRANCH  39  52
ATOM     52  C   UNL A   1      47.050  25.917  32.078  1.00  0.00    -0.014 A 
ATOM     53  C   UNL A   1      48.210  26.131  31.316  1.00  0.00     0.009 A 
ATOM     54  C   UNL A   1      47.144  25.185  33.272  1.00  0.00     0.009 A 
ATOM     55  C   UNL A   1      49.431  25.592  31.724  1.00  0.00     0.001 A 
ATOM     56  C   UNL A   1      48.372  24.671  33.692  1.00  0.00     0.001 A 
ATOM     57  C   UNL A   1      49.512  24.867  32.913  1.00  0.00     0.000 A 
ENDBRANCH  39  52
ENDBRANCH  13  14
ENDBRANCH   6   8
ENDBRANCH   3   4
ENDBRANCH   2   3
ENDBRANCH   1   2
BRANCH   1  58
ATOM     58  N   UNL A   1      32.965  35.958  29.396  1.00  0.00    -0.356 N 
ATOM     59  C   UNL A   1      33.290  36.133  30.723  1.00  0.00     0.223 C 
ATOM     60  H   UNL A   1      32.460  36.694  28.983  1.00  0.00     0.163 HD
ATOM     61  O   UNL A   1      33.144  37.233  31.247  1.00  0.00    -0.275 OA
BRANCH  59  62
ATOM     62  C   UNL A   1      33.767  34.913  31.471  1.00  0.00     0.079 C 
ATOM     63  C   UNL A   1      33.097  34.799  32.833  1.00  0.00     0.014 C 
ATOM     64  C   UNL A   1      35.227  34.775  31.897  1.00  0.00     0.022 C 
ATOM     65  C   UNL A   1      33.650  33.461  33.269  1.00  0.00     0.010 C 
ATOM     66  C   UNL A   1      35.155  33.632  32.974  1.00  0.00    -0.009 C 
ATOM     67  C   UNL A   1      35.830  32.332  32.475  1.00  0.00     0.030 C 
ATOM     68  C   UNL A   1      35.879  33.999  34.276  1.00  0.00     0.130 C 
ATOM     69  C   UNL A   1      36.834  31.949  33.553  1.00  0.00     0.124 C 
ATOM     70  N   UNL A   1      37.056  33.180  34.274  1.00  0.00    -0.308 N 
BRANCH  70  71
ATOM     71  C   UNL A   1      38.233  33.647  34.787  1.00  0.00     0.410 C 
ATOM     72  O   UNL A   1      38.315  34.257  35.844  1.00  0.00    -0.224 OA
BRANCH  71  73
ATOM     73  O   UNL A   1      39.272  33.426  33.945  1.00  0.00    -0.445 OA
BRANCH  73  74
ATOM     74  C   UNL A   1      39.870  34.625  33.448  1.00  0.00     0.270 C 
BRANCH  74  75
ATOM     75  C   UNL A   1      39.863  34.546  31.942  1.00  0.00    -0.011 A 
ATOM     76  C   UNL A   1      41.062  34.605  31.217  1.00  0.00     0.007 A 
ATOM     77  C   UNL A   1      38.648  34.520  31.243  1.00  0.00     0.007 A 
ATOM     78  C   UNL A   1      41.047  34.614  29.821  1.00  0.00     0.000 A 
ATOM     79  C   UNL A   1      38.634  34.527  29.848  1.00  0.00     0.000 A 
ATOM     80  C   UNL A   1      39.832  34.570  29.138  1.00  0.00     0.000 A 
ENDBRANCH  74  75
ENDBRANCH  73  74
ENDBRANCH  71  73
ENDBRANCH  70  71
ENDBRANCH  59  62
ENDBRANCH   1  58
TORSDOF 14
ENDMDL
MODEL 3
REMARK VINA RESULT:     -12.1      5.451     10.909
REMARK SMILES O=C(NCCCNC(=O)[C@@H]1CC[C@@]2(CCN(C(=O)OCc3ccccc3)C2)C1)c1ccc(-c2c3nc(c(-c4ccccc4)c4ccc([nH]4)c(-c4ccccc4)c4nc(c(-c5ccccc5)c5ccc2[nH]5)C=C4)C=C3)cc1
REMARK SMILES IDX 6 1 5 2 4 3 3 4 1 5 2 6 29 8 30 9 76 10 31 11 75 12 32 13
REMARK SMILES IDX 33 14 34 15 69 16 35 17 74 18 68 19 70 20 36 21 73 22 67 23
REMARK SMILES IDX 66 24 37 26 59 27 44 28 58 29 45 30 48 31 57 32 71 33 46 34
REMARK SMILES IDX 47 35 56 37 72 38 49 39 38 40 39 41 43 42 40 43 42 44 41 45
REMARK SMILES IDX 60 46 61 47 65 48 62 49 64 50 63 51 50 52 51 53 55 54 52 55
REMARK SMILES IDX 54 56 53 57 7 58 8 59 9 61 10 62 11 63 28 64 12 65 13 66
REMARK SMILES IDX 14 67 27 68 15 69 16 70 17 71 18 72 19 73 20 74 21 75 22 76
REMARK SMILES IDX 26 77 23 78 25 79 24 80
REMARK H PARENT 3 7 70 25 48 36 7 60
REMARK Flexibility Score: inf
ROOT
ATOM      1  C   UNL A   1      33.266  34.920  28.493  1.00  0.00     0.117 C 
ENDROOT
BRANCH   1   2
ATOM      2  C   UNL A   1      34.760  34.785  28.211  1.00  0.00     0.042 C 
BRANCH   2   3
ATOM      3  C   UNL A   1      35.297  33.393  28.496  1.00  0.00     0.118 C 
BRANCH   3   4
ATOM      4  N   UNL A   1      34.305  32.395  28.139  1.00  0.00    -0.352 N 
ATOM      5  O   UNL A   1      33.630  30.504  27.130  1.00  0.00    -0.269 OA
ATOM      6  C   UNL A   1      34.496  31.083  27.780  1.00  0.00     0.251 C 
ATOM      7  H   UNL A   1      33.368  32.700  28.155  1.00  0.00     0.163 HD
BRANCH   6   8
ATOM      8  C   UNL A   1      35.725  30.358  28.182  1.00  0.00     0.039 A 
ATOM      9  C   UNL A   1      36.842  30.312  27.343  1.00  0.00     0.014 A 
ATOM     10  C   UNL A   1      35.804  29.808  29.467  1.00  0.00     0.014 A 
ATOM     11  C   UNL A   1      37.996  29.647  27.748  1.00  0.00     0.010 A 
ATOM     12  C   UNL A   1      36.994  29.222  29.908  1.00  0.00     0.010 A 
ATOM     13  C   UNL A   1      38.102  29.138  29.052  1.00  0.00    -0.014 A 
BRANCH  13  14
ATOM     14  C   UNL A   1      39.417  28.644  29.531  1.00  0.00     0.031 A 
ATOM     15  C   UNL A   1      40.018  27.372  29.009  1.00  0.00     0.074 A 
ATOM     16  C   UNL A   1      40.075  29.373  30.455  1.00  0.00     0.049 A 
ATOM     17  N   UNL A   1      41.163  26.818  29.320  1.00  0.00    -0.248 NA
ATOM     18  C   UNL A   1      39.235  26.620  28.018  1.00  0.00     0.031 C 
ATOM     19  C   UNL A   1      39.586  30.620  31.052  1.00  0.00     0.029 A 
ATOM     20  N   UNL A   1      41.301  29.187  31.042  1.00  0.00    -0.354 N 
ATOM     21  C   UNL A   1      41.233  25.646  28.579  1.00  0.00     0.074 A 
ATOM     22  C   UNL A   1      40.002  25.556  27.819  1.00  0.00     0.031 C 
ATOM     23  C   UNL A   1      40.521  31.112  31.876  1.00  0.00     0.029 A 
ATOM     24  C   UNL A   1      41.646  30.186  31.920  1.00  0.00     0.049 A 
ATOM     25  H   UNL A   1      41.878  28.412  30.853  1.00  0.00     0.167 HD
ATOM     26  C   UNL A   1      42.232  24.732  28.535  1.00  0.00     0.031 A 
ATOM     27  C   UNL A   1      42.736  30.337  32.693  1.00  0.00     0.031 A 
ATOM     28  C   UNL A   1      43.451  24.822  29.296  1.00  0.00     0.049 A 
ATOM     29  C   UNL A   1      43.810  29.292  32.646  1.00  0.00     0.074 A 
ATOM     30  C   UNL A   1      44.534  23.959  29.294  1.00  0.00     0.029 A 
ATOM     31  N   UNL A   1      43.745  25.831  30.200  1.00  0.00    -0.354 N 
ATOM     32  N   UNL A   1      43.874  28.210  31.910  1.00  0.00    -0.248 NA
ATOM     33  C   UNL A   1      44.960  29.489  33.538  1.00  0.00     0.031 C 
ATOM     34  C   UNL A   1      45.462  24.419  30.235  1.00  0.00     0.029 A 
ATOM     35  C   UNL A   1      44.982  25.598  30.782  1.00  0.00     0.049 A 
ATOM     36  H   UNL A   1      43.163  26.599  30.400  1.00  0.00     0.167 HD
ATOM     37  C   UNL A   1      45.079  27.603  32.237  1.00  0.00     0.074 A 
ATOM     38  C   UNL A   1      45.722  28.451  33.221  1.00  0.00     0.031 C 
ATOM     39  C   UNL A   1      45.603  26.447  31.765  1.00  0.00     0.031 A 
BRANCH  26  40
ATOM     40  C   UNL A   1      42.036  23.532  27.648  1.00  0.00    -0.014 A 
ATOM     41  C   UNL A   1      42.535  23.504  26.336  1.00  0.00     0.009 A 
ATOM     42  C   UNL A   1      41.384  22.395  28.151  1.00  0.00     0.009 A 
ATOM     43  C   UNL A   1      42.357  22.372  25.536  1.00  0.00     0.001 A 
ATOM     44  C   UNL A   1      41.231  21.256  27.358  1.00  0.00     0.001 A 
ATOM     45  C   UNL A   1      41.710  21.248  26.048  1.00  0.00     0.000 A 
ENDBRANCH  26  40
BRANCH  27  46
ATOM     46  C   UNL A   1      42.855  31.520  33.583  1.00  0.00    -0.014 A 
ATOM     47  C   UNL A   1      43.584  32.649  33.181  1.00  0.00     0.009 A 
ATOM     48  C   UNL A   1      42.222  31.532  34.837  1.00  0.00     0.009 A 
ATOM     49  C   UNL A   1      43.694  33.756  34.025  1.00  0.00     0.001 A 
ATOM     50  C   UNL A   1      42.308  32.652  35.665  1.00  0.00     0.001 A 
ATOM     51  C   UNL A   1      43.052  33.759  35.262  1.00  0.00     0.000 A 
ENDBRANCH  27  46
BRANCH  39  52
ATOM     52  C   UNL A   1      46.953  26.050  32.291  1.00  0.00    -0.014 A 
ATOM     53  C   UNL A   1      48.132  26.442  31.639  1.00  0.00     0.009 A 
ATOM     54  C   UNL A   1      47.044  25.292  33.469  1.00  0.00     0.009 A 
ATOM     55  C   UNL A   1      49.376  26.053  32.139  1.00  0.00     0.001 A 
ATOM     56  C   UNL A   1      48.289  24.928  33.982  1.00  0.00     0.001 A 
ATOM     57  C   UNL A   1      49.454  25.301  33.312  1.00  0.00     0.000 A 
ENDBRANCH  39  52
ENDBRANCH  13  14
ENDBRANCH   6   8
ENDBRANCH   3   4
ENDBRANCH   2   3
ENDBRANCH   1   2
BRANCH   1  58
ATOM     58  N   UNL A   1      32.898  36.054  29.341  1.00  0.00    -0.356 N 
ATOM     59  C   UNL A   1      33.162  36.261  30.677  1.00  0.00     0.223 C 
ATOM     60  H   UNL A   1      32.389  36.769  28.895  1.00  0.00     0.163 HD
ATOM     61  O   UNL A   1      32.964  37.364  31.175  1.00  0.00    -0.275 OA
BRANCH  59  62
ATOM     62  C   UNL A   1      33.641  35.067  31.466  1.00  0.00     0.079 C 
ATOM     63  C   UNL A   1      32.919  34.957  32.801  1.00  0.00     0.014 C 
ATOM     64  C   UNL A   1      35.087  34.978  31.953  1.00  0.00     0.022 C 
ATOM     65  C   UNL A   1      33.492  33.644  33.284  1.00  0.00     0.010 C 
ATOM     66  C   UNL A   1      35.002  33.852  33.046  1.00  0.00    -0.009 C 
ATOM     67  C   UNL A   1      35.732  32.564  32.599  1.00  0.00     0.030 C 
ATOM     68  C   UNL A   1      35.662  34.261  34.370  1.00  0.00     0.130 C 
ATOM     69  C   UNL A   1      36.701  32.228  33.723  1.00  0.00     0.124 C 
ATOM     70  N   UNL A   1      36.860  33.476  34.430  1.00  0.00    -0.308 N 
BRANCH  70  71
ATOM     71  C   UNL A   1      38.002  33.985  34.982  1.00  0.00     0.410 C 
ATOM     72  O   UNL A   1      38.437  33.640  36.073  1.00  0.00    -0.224 OA
BRANCH  71  73
ATOM     73  O   UNL A   1      38.536  34.968  34.217  1.00  0.00    -0.445 OA
BRANCH  73  74
ATOM     74  C   UNL A   1      39.861  34.684  33.766  1.00  0.00     0.270 C 
BRANCH  74  75
ATOM     75  C   UNL A   1      39.826  34.629  32.258  1.00  0.00    -0.011 A 
ATOM     76  C   UNL A   1      38.603  34.637  31.571  1.00  0.00     0.007 A 
ATOM     77  C   UNL A   1      41.012  34.462  31.531  1.00  0.00     0.007 A 
ATOM     78  C   UNL A   1      38.571  34.504  30.182  1.00  0.00     0.000 A 
ATOM     79  C   UNL A   1      40.979  34.332  30.143  1.00  0.00     0.000 A 
ATOM     80  C   UNL A   1      39.760  34.356  29.469  1.00  0.00     0.000 A 
ENDBRANCH  74  75
ENDBRANCH  73  74
ENDBRANCH  71  73
ENDBRANCH  70  71
ENDBRANCH  59  62
ENDBRANCH   1  58
TORSDOF 14
ENDMDL
