MODEL 1
REMARK VINA RESULT:     -13.2      0.000      0.000
REMARK SMILES C[C@H](C(=O)Nc1ccc(C(F)(F)F)cc1)n1nc(C(=O)NCCCNC(=O)c2ccc(-c3c4nc(c(-c5ccccc5)c5ccc([nH]5)c(-c5ccccc5)c5nc(c(-c6ccccc6)c6ccc3[nH]6)C=C5)C=C4)cc2)c2ccccc2c1=O
REMARK SMILES IDX 22 1 21 2 19 3 20 4 18 6 16 7 17 8 82 9 81 10 83 11 76 12
REMARK SMILES IDX 80 13 77 14 79 15 78 16 2 17 1 18 3 19 4 20 5 21 6 23 7 24
REMARK SMILES IDX 15 25 8 26 14 27 9 28 10 29 11 30 12 31 13 32 23 33 24 34
REMARK SMILES IDX 25 35 26 36 27 38 28 39 29 40 75 41 30 42 74 43 31 44 32 45
REMARK SMILES IDX 33 46 68 47 34 48 73 49 67 50 69 51 35 52 72 53 66 54 65 55
REMARK SMILES IDX 36 57 58 58 43 59 57 60 44 61 47 62 56 63 70 64 45 65 46 66
REMARK SMILES IDX 55 68 71 69 48 70 37 71 38 72 42 73 39 74 41 75 40 76 59 77
REMARK SMILES IDX 60 78 64 79 61 80 63 81 62 82 49 83 50 84 54 85 51 86 53 87
REMARK SMILES IDX 52 88
REMARK H PARENT 21 5 5 22 25 37 69 56 47 67
REMARK Flexibility Score: inf
ROOT
ATOM      1  C   UNL A   1      33.155  29.551  25.043  1.00  0.00     0.118 C 
ENDROOT
BRANCH   1   2
ATOM      2  N   UNL A   1      33.716  29.459  23.705  1.00  0.00    -0.351 N 
ATOM      3  C   UNL A   1      33.365  28.551  22.717  1.00  0.00     0.272 C 
ATOM      4  O   UNL A   1      34.053  28.392  21.734  1.00  0.00    -0.267 OA
ATOM      5  H   UNL A   1      34.419  30.109  23.477  1.00  0.00     0.163 HD
BRANCH   3   6
ATOM      6  C   UNL A   1      32.038  27.798  22.894  1.00  0.00     0.156 A 
ATOM      7  N   UNL A   1      30.983  25.983  23.879  1.00  0.00    -0.216 N 
ATOM      8  N   UNL A   1      32.111  26.610  23.410  1.00  0.00    -0.163 NA
ATOM      9  C   UNL A   1      29.705  26.498  23.709  1.00  0.00     0.275 A 
ATOM     10  C   UNL A   1      29.614  27.838  23.082  1.00  0.00     0.051 A 
ATOM     11  O   UNL A   1      28.682  25.948  24.101  1.00  0.00    -0.267 OA
ATOM     12  C   UNL A   1      30.763  28.471  22.614  1.00  0.00     0.020 A 
ATOM     13  C   UNL A   1      28.374  28.483  22.978  1.00  0.00     0.014 A 
ATOM     14  C   UNL A   1      30.663  29.697  21.946  1.00  0.00     0.011 A 
ATOM     15  C   UNL A   1      28.283  29.727  22.351  1.00  0.00     0.001 A 
ATOM     16  C   UNL A   1      29.421  30.320  21.811  1.00  0.00     0.001 A 
BRANCH   7  17
ATOM     17  C   UNL A   1      31.238  24.676  24.512  1.00  0.00     0.197 C 
ATOM     18  C   UNL A   1      30.597  23.533  23.728  1.00  0.00     0.044 C 
BRANCH  17  19
ATOM     19  C   UNL A   1      31.023  24.508  26.039  1.00  0.00     0.249 C 
ATOM     20  O   UNL A   1      29.943  24.774  26.578  1.00  0.00    -0.272 OA
ATOM     21  N   UNL A   1      31.968  23.858  26.799  1.00  0.00    -0.324 N 
ATOM     22  H   UNL A   1      31.668  23.539  27.681  1.00  0.00     0.170 HD
BRANCH  21  23
ATOM     23  C   UNL A   1      33.297  23.596  26.476  1.00  0.00     0.041 A 
ATOM     24  C   UNL A   1      33.864  22.365  26.802  1.00  0.00     0.027 A 
ATOM     25  C   UNL A   1      34.087  24.610  25.938  1.00  0.00     0.027 A 
ATOM     26  C   UNL A   1      35.202  22.111  26.478  1.00  0.00     0.015 A 
ATOM     27  C   UNL A   1      35.424  24.365  25.629  1.00  0.00     0.015 A 
ATOM     28  C   UNL A   1      35.988  23.102  25.865  1.00  0.00     0.056 A 
BRANCH  28  29
ATOM     29  C   UNL A   1      37.399  22.821  25.409  1.00  0.00     0.416 C 
ATOM     30  F   UNL A   1      38.022  21.873  26.159  1.00  0.00    -0.166 F 
ATOM     31  F   UNL A   1      37.482  22.402  24.117  1.00  0.00    -0.166 F 
ATOM     32  F   UNL A   1      38.180  23.936  25.485  1.00  0.00    -0.166 F 
ENDBRANCH  28  29
ENDBRANCH  21  23
ENDBRANCH  17  19
ENDBRANCH   7  17
ENDBRANCH   3   6
ENDBRANCH   1   2
BRANCH   1  33
ATOM     33  C   UNL A   1      33.846  28.561  25.982  1.00  0.00     0.042 C 
BRANCH  33  34
ATOM     34  C   UNL A   1      33.485  28.824  27.429  1.00  0.00     0.118 C 
BRANCH  34  35
ATOM     35  N   UNL A   1      33.570  30.241  27.753  1.00  0.00    -0.352 N 
ATOM     36  C   UNL A   1      34.629  30.918  28.310  1.00  0.00     0.251 C 
ATOM     37  H   UNL A   1      32.772  30.780  27.547  1.00  0.00     0.163 HD
ATOM     38  O   UNL A   1      34.491  32.070  28.706  1.00  0.00    -0.269 OA
BRANCH  36  39
ATOM     39  C   UNL A   1      35.923  30.219  28.462  1.00  0.00     0.039 A 
ATOM     40  C   UNL A   1      36.843  30.243  27.410  1.00  0.00     0.014 A 
ATOM     41  C   UNL A   1      36.250  29.594  29.667  1.00  0.00     0.014 A 
ATOM     42  C   UNL A   1      38.117  29.705  27.597  1.00  0.00     0.010 A 
ATOM     43  C   UNL A   1      37.544  29.144  29.881  1.00  0.00     0.010 A 
ATOM     44  C   UNL A   1      38.493  29.191  28.848  1.00  0.00    -0.014 A 
BRANCH  44  45
ATOM     45  C   UNL A   1      39.865  28.689  29.115  1.00  0.00     0.031 A 
ATOM     46  C   UNL A   1      40.894  29.610  29.713  1.00  0.00     0.074 A 
ATOM     47  C   UNL A   1      40.215  27.447  28.727  1.00  0.00     0.049 A 
ATOM     48  N   UNL A   1      42.174  29.414  29.891  1.00  0.00    -0.248 NA
ATOM     49  C   UNL A   1      40.426  30.943  30.129  1.00  0.00     0.031 C 
ATOM     50  C   UNL A   1      39.327  26.471  28.091  1.00  0.00     0.029 A 
ATOM     51  N   UNL A   1      41.422  26.799  28.798  1.00  0.00    -0.354 N 
ATOM     52  C   UNL A   1      42.670  30.607  30.401  1.00  0.00     0.074 A 
ATOM     53  C   UNL A   1      41.563  31.536  30.460  1.00  0.00     0.031 C 
ATOM     54  C   UNL A   1      40.013  25.340  27.856  1.00  0.00     0.029 A 
ATOM     55  C   UNL A   1      41.397  25.527  28.280  1.00  0.00     0.049 A 
ATOM     56  H   UNL A   1      42.230  27.206  29.185  1.00  0.00     0.167 HD
ATOM     57  C   UNL A   1      43.929  30.901  30.802  1.00  0.00     0.031 A 
ATOM     58  C   UNL A   1      42.379  24.615  28.151  1.00  0.00     0.031 A 
ATOM     59  C   UNL A   1      45.021  29.967  30.780  1.00  0.00     0.049 A 
ATOM     60  C   UNL A   1      43.765  24.957  28.623  1.00  0.00     0.074 A 
ATOM     61  C   UNL A   1      46.316  30.144  31.234  1.00  0.00     0.029 A 
ATOM     62  N   UNL A   1      44.942  28.677  30.280  1.00  0.00    -0.354 N 
ATOM     63  N   UNL A   1      44.203  26.070  29.159  1.00  0.00    -0.248 NA
ATOM     64  C   UNL A   1      44.789  23.914  28.476  1.00  0.00     0.031 C 
ATOM     65  C   UNL A   1      47.032  28.970  30.974  1.00  0.00     0.029 A 
ATOM     66  C   UNL A   1      46.170  28.049  30.401  1.00  0.00     0.049 A 
ATOM     67  H   UNL A   1      44.133  28.267  29.897  1.00  0.00     0.167 HD
ATOM     68  C   UNL A   1      45.545  25.852  29.439  1.00  0.00     0.074 A 
ATOM     69  C   UNL A   1      45.846  24.497  29.024  1.00  0.00     0.031 C 
ATOM     70  C   UNL A   1      46.448  26.698  29.991  1.00  0.00     0.031 A 
BRANCH  57  71
ATOM     71  C   UNL A   1      44.188  32.295  31.301  1.00  0.00    -0.014 A 
ATOM     72  C   UNL A   1      44.039  32.623  32.658  1.00  0.00     0.009 A 
ATOM     73  C   UNL A   1      44.607  33.290  30.403  1.00  0.00     0.009 A 
ATOM     74  C   UNL A   1      44.265  33.928  33.099  1.00  0.00     0.001 A 
ATOM     75  C   UNL A   1      44.861  34.587  30.853  1.00  0.00     0.001 A 
ATOM     76  C   UNL A   1      44.679  34.908  32.197  1.00  0.00     0.000 A 
ENDBRANCH  57  71
BRANCH  58  77
ATOM     77  C   UNL A   1      42.086  23.281  27.566  1.00  0.00    -0.014 A 
ATOM     78  C   UNL A   1      42.350  23.029  26.211  1.00  0.00     0.009 A 
ATOM     79  C   UNL A   1      41.538  22.257  28.353  1.00  0.00     0.009 A 
ATOM     80  C   UNL A   1      42.049  21.786  25.650  1.00  0.00     0.001 A 
ATOM     81  C   UNL A   1      41.263  21.006  27.795  1.00  0.00     0.001 A 
ATOM     82  C   UNL A   1      41.510  20.774  26.443  1.00  0.00     0.000 A 
ENDBRANCH  58  77
BRANCH  70  83
ATOM     83  C   UNL A   1      47.837  26.174  30.216  1.00  0.00    -0.014 A 
ATOM     84  C   UNL A   1      48.784  26.157  29.182  1.00  0.00     0.009 A 
ATOM     85  C   UNL A   1      48.215  25.743  31.497  1.00  0.00     0.009 A 
ATOM     86  C   UNL A   1      50.080  25.697  29.422  1.00  0.00     0.001 A 
ATOM     87  C   UNL A   1      49.518  25.309  31.740  1.00  0.00     0.001 A 
ATOM     88  C   UNL A   1      50.447  25.279  30.702  1.00  0.00     0.000 A 
ENDBRANCH  70  83
ENDBRANCH  44  45
ENDBRANCH  36  39
ENDBRANCH  34  35
ENDBRANCH  33  34
ENDBRANCH   1  33
TORSDOF 14
ENDMDL
MODEL 2
REMARK VINA RESULT:     -12.7      3.081      7.857
REMARK SMILES C[C@H](C(=O)Nc1ccc(C(F)(F)F)cc1)n1nc(C(=O)NCCCNC(=O)c2ccc(-c3c4nc(c(-c5ccccc5)c5ccc([nH]5)c(-c5ccccc5)c5nc(c(-c6ccccc6)c6ccc3[nH]6)C=C5)C=C4)cc2)c2ccccc2c1=O
REMARK SMILES IDX 22 1 21 2 19 3 20 4 18 6 16 7 17 8 82 9 81 10 83 11 76 12
REMARK SMILES IDX 80 13 77 14 79 15 78 16 2 17 1 18 3 19 4 20 5 21 6 23 7 24
REMARK SMILES IDX 15 25 8 26 14 27 9 28 10 29 11 30 12 31 13 32 23 33 24 34
REMARK SMILES IDX 25 35 26 36 27 38 28 39 29 40 75 41 30 42 74 43 31 44 32 45
REMARK SMILES IDX 33 46 68 47 34 48 73 49 67 50 69 51 35 52 72 53 66 54 65 55
REMARK SMILES IDX 36 57 58 58 43 59 57 60 44 61 47 62 56 63 70 64 45 65 46 66
REMARK SMILES IDX 55 68 71 69 48 70 37 71 38 72 42 73 39 74 41 75 40 76 59 77
REMARK SMILES IDX 60 78 64 79 61 80 63 81 62 82 49 83 50 84 54 85 51 86 53 87
REMARK SMILES IDX 52 88
REMARK H PARENT 21 5 5 22 25 37 69 56 47 67
REMARK Flexibility Score: inf
ROOT
ATOM      1  C   UNL A   1      36.399  21.687  25.221  1.00  0.00     0.118 C 
ENDROOT
BRANCH   1   2
ATOM      2  N   UNL A   1      35.743  21.420  26.491  1.00  0.00    -0.351 N 
ATOM      3  C   UNL A   1      34.379  21.420  26.738  1.00  0.00     0.272 C 
ATOM      4  O   UNL A   1      33.942  21.433  27.866  1.00  0.00    -0.267 OA
ATOM      5  H   UNL A   1      36.329  21.218  27.256  1.00  0.00     0.163 HD
BRANCH   3   6
ATOM      6  C   UNL A   1      33.445  21.345  25.521  1.00  0.00     0.156 A 
ATOM      7  N   UNL A   1      32.398  22.543  23.834  1.00  0.00    -0.216 N 
ATOM      8  N   UNL A   1      32.987  22.473  25.072  1.00  0.00    -0.163 NA
ATOM      9  C   UNL A   1      32.129  21.423  23.059  1.00  0.00     0.275 A 
ATOM     10  C   UNL A   1      32.614  20.126  23.588  1.00  0.00     0.051 A 
ATOM     11  O   UNL A   1      31.587  21.458  21.960  1.00  0.00    -0.267 OA
ATOM     12  C   UNL A   1      33.216  20.063  24.842  1.00  0.00     0.020 A 
ATOM     13  C   UNL A   1      32.488  18.962  22.818  1.00  0.00     0.014 A 
ATOM     14  C   UNL A   1      33.594  18.825  25.375  1.00  0.00     0.011 A 
ATOM     15  C   UNL A   1      32.909  17.734  23.332  1.00  0.00     0.001 A 
ATOM     16  C   UNL A   1      33.434  17.662  24.620  1.00  0.00     0.001 A 
BRANCH   7  17
ATOM     17  C   UNL A   1      32.005  23.905  23.429  1.00  0.00     0.197 C 
ATOM     18  C   UNL A   1      30.514  23.993  23.109  1.00  0.00     0.044 C 
BRANCH  17  19
ATOM     19  C   UNL A   1      32.856  24.670  22.381  1.00  0.00     0.249 C 
ATOM     20  O   UNL A   1      33.273  24.122  21.355  1.00  0.00    -0.272 OA
ATOM     21  N   UNL A   1      32.990  26.037  22.469  1.00  0.00    -0.324 N 
ATOM     22  H   UNL A   1      33.294  26.494  21.653  1.00  0.00     0.170 HD
BRANCH  21  23
ATOM     23  C   UNL A   1      32.748  26.854  23.572  1.00  0.00     0.041 A 
ATOM     24  C   UNL A   1      31.584  27.617  23.631  1.00  0.00     0.027 A 
ATOM     25  C   UNL A   1      33.730  26.996  24.550  1.00  0.00     0.027 A 
ATOM     26  C   UNL A   1      31.351  28.439  24.740  1.00  0.00     0.015 A 
ATOM     27  C   UNL A   1      33.507  27.825  25.648  1.00  0.00     0.015 A 
ATOM     28  C   UNL A   1      32.301  28.532  25.772  1.00  0.00     0.056 A 
BRANCH  28  29
ATOM     29  C   UNL A   1      32.030  29.326  27.027  1.00  0.00     0.416 C 
ATOM     30  F   UNL A   1      33.165  29.722  27.662  1.00  0.00    -0.166 F 
ATOM     31  F   UNL A   1      31.298  30.452  26.812  1.00  0.00    -0.166 F 
ATOM     32  F   UNL A   1      31.324  28.596  27.936  1.00  0.00    -0.166 F 
ENDBRANCH  28  29
ENDBRANCH  21  23
ENDBRANCH  17  19
ENDBRANCH   7  17
ENDBRANCH   3   6
ENDBRANCH   1   2
BRANCH   1  33
ATOM     33  C   UNL A   1      37.481  20.641  24.949  1.00  0.00     0.042 C 
BRANCH  33  34
ATOM     34  C   UNL A   1      38.747  20.936  25.725  1.00  0.00     0.118 C 
BRANCH  34  35
ATOM     35  N   UNL A   1      39.648  19.792  25.734  1.00  0.00    -0.352 N 
ATOM     36  C   UNL A   1      40.990  19.776  26.034  1.00  0.00     0.251 C 
ATOM     37  H   UNL A   1      39.247  18.924  25.497  1.00  0.00     0.163 HD
ATOM     38  O   UNL A   1      41.664  18.776  25.812  1.00  0.00    -0.269 OA
BRANCH  36  39
ATOM     39  C   UNL A   1      41.612  20.998  26.587  1.00  0.00     0.039 A 
ATOM     40  C   UNL A   1      42.127  21.960  25.714  1.00  0.00     0.014 A 
ATOM     41  C   UNL A   1      41.629  21.218  27.966  1.00  0.00     0.014 A 
ATOM     42  C   UNL A   1      42.590  23.175  26.223  1.00  0.00     0.010 A 
ATOM     43  C   UNL A   1      42.002  22.460  28.461  1.00  0.00     0.010 A 
ATOM     44  C   UNL A   1      42.489  23.452  27.596  1.00  0.00    -0.014 A 
BRANCH  44  45
ATOM     45  C   UNL A   1      42.889  24.763  28.166  1.00  0.00     0.031 A 
ATOM     46  C   UNL A   1      41.843  25.815  28.425  1.00  0.00     0.074 A 
ATOM     47  C   UNL A   1      44.192  25.047  28.355  1.00  0.00     0.049 A 
ATOM     48  N   UNL A   1      41.998  27.063  28.782  1.00  0.00    -0.248 NA
ATOM     49  C   UNL A   1      40.441  25.418  28.214  1.00  0.00     0.031 C 
ATOM     50  C   UNL A   1      45.309  24.135  28.098  1.00  0.00     0.029 A 
ATOM     51  N   UNL A   1      44.799  26.197  28.794  1.00  0.00    -0.354 N 
ATOM     52  C   UNL A   1      40.720  27.609  28.800  1.00  0.00     0.074 A 
ATOM     53  C   UNL A   1      39.808  26.571  28.373  1.00  0.00     0.031 C 
ATOM     54  C   UNL A   1      46.461  24.751  28.410  1.00  0.00     0.029 A 
ATOM     55  C   UNL A   1      46.169  26.114  28.842  1.00  0.00     0.049 A 
ATOM     56  H   UNL A   1      44.300  27.006  29.051  1.00  0.00     0.167 HD
ATOM     57  C   UNL A   1      40.336  28.857  29.157  1.00  0.00     0.031 A 
ATOM     58  C   UNL A   1      47.090  27.034  29.187  1.00  0.00     0.031 A 
ATOM     59  C   UNL A   1      41.237  29.878  29.617  1.00  0.00     0.049 A 
ATOM     60  C   UNL A   1      46.637  28.407  29.599  1.00  0.00     0.074 A 
ATOM     61  C   UNL A   1      40.938  31.150  30.073  1.00  0.00     0.029 A 
ATOM     62  N   UNL A   1      42.614  29.739  29.686  1.00  0.00    -0.354 N 
ATOM     63  N   UNL A   1      45.420  28.888  29.669  1.00  0.00    -0.248 NA
ATOM     64  C   UNL A   1      47.686  29.361  29.985  1.00  0.00     0.031 C 
ATOM     65  C   UNL A   1      42.140  31.795  30.383  1.00  0.00     0.029 A 
ATOM     66  C   UNL A   1      43.182  30.908  30.162  1.00  0.00     0.049 A 
ATOM     67  H   UNL A   1      43.114  28.929  29.433  1.00  0.00     0.167 HD
ATOM     68  C   UNL A   1      45.554  30.190  30.133  1.00  0.00     0.074 A 
ATOM     69  C   UNL A   1      46.970  30.419  30.339  1.00  0.00     0.031 C 
ATOM     70  C   UNL A   1      44.591  31.113  30.369  1.00  0.00     0.031 A 
BRANCH  57  71
ATOM     71  C   UNL A   1      38.872  29.183  29.062  1.00  0.00    -0.014 A 
ATOM     72  C   UNL A   1      38.020  29.039  30.168  1.00  0.00     0.009 A 
ATOM     73  C   UNL A   1      38.341  29.661  27.853  1.00  0.00     0.009 A 
ATOM     74  C   UNL A   1      36.658  29.327  30.055  1.00  0.00     0.001 A 
ATOM     75  C   UNL A   1      36.985  29.977  27.752  1.00  0.00     0.001 A 
ATOM     76  C   UNL A   1      36.143  29.800  28.848  1.00  0.00     0.000 A 
ENDBRANCH  57  71
BRANCH  58  77
ATOM     77  C   UNL A   1      48.534  26.684  29.176  1.00  0.00    -0.014 A 
ATOM     78  C   UNL A   1      49.132  26.113  30.309  1.00  0.00     0.009 A 
ATOM     79  C   UNL A   1      49.321  26.921  28.038  1.00  0.00     0.009 A 
ATOM     80  C   UNL A   1      50.496  25.809  30.312  1.00  0.00     0.001 A 
ATOM     81  C   UNL A   1      50.679  26.590  28.036  1.00  0.00     0.001 A 
ATOM     82  C   UNL A   1      51.266  26.044  29.175  1.00  0.00     0.000 A 
ENDBRANCH  58  77
BRANCH  70  83
ATOM     83  C   UNL A   1      45.029  32.443  30.912  1.00  0.00    -0.014 A 
ATOM     84  C   UNL A   1      45.323  33.516  30.059  1.00  0.00     0.009 A 
ATOM     85  C   UNL A   1      45.092  32.636  32.301  1.00  0.00     0.009 A 
ATOM     86  C   UNL A   1      45.695  34.754  30.587  1.00  0.00     0.001 A 
ATOM     87  C   UNL A   1      45.439  33.881  32.827  1.00  0.00     0.001 A 
ATOM     88  C   UNL A   1      45.747  34.936  31.970  1.00  0.00     0.000 A 
ENDBRANCH  70  83
ENDBRANCH  44  45
ENDBRANCH  36  39
ENDBRANCH  34  35
ENDBRANCH  33  34
ENDBRANCH   1  33
TORSDOF 14
ENDMDL
MODEL 3
REMARK VINA RESULT:     -12.7      3.085      7.928
REMARK SMILES C[C@H](C(=O)Nc1ccc(C(F)(F)F)cc1)n1nc(C(=O)NCCCNC(=O)c2ccc(-c3c4nc(c(-c5ccccc5)c5ccc([nH]5)c(-c5ccccc5)c5nc(c(-c6ccccc6)c6ccc3[nH]6)C=C5)C=C4)cc2)c2ccccc2c1=O
REMARK SMILES IDX 22 1 21 2 19 3 20 4 18 6 16 7 17 8 82 9 81 10 83 11 76 12
REMARK SMILES IDX 80 13 77 14 79 15 78 16 2 17 1 18 3 19 4 20 5 21 6 23 7 24
REMARK SMILES IDX 15 25 8 26 14 27 9 28 10 29 11 30 12 31 13 32 23 33 24 34
REMARK SMILES IDX 25 35 26 36 27 38 28 39 29 40 75 41 30 42 74 43 31 44 32 45
REMARK SMILES IDX 33 46 68 47 34 48 73 49 67 50 69 51 35 52 72 53 66 54 65 55
REMARK SMILES IDX 36 57 58 58 43 59 57 60 44 61 47 62 56 63 70 64 45 65 46 66
REMARK SMILES IDX 55 68 71 69 48 70 37 71 38 72 42 73 39 74 41 75 40 76 59 77
REMARK SMILES IDX 60 78 64 79 61 80 63 81 62 82 49 83 50 84 54 85 51 86 53 87
REMARK SMILES IDX 52 88
REMARK H PARENT 21 5 5 22 25 37 69 56 47 67
REMARK Flexibility Score: inf
ROOT
ATOM      1  C   UNL A   1      35.862  21.955  26.244  1.00  0.00     0.118 C 
ENDROOT
BRANCH   1   2
ATOM      2  N   UNL A   1      34.944  21.875  27.369  1.00  0.00    -0.351 N 
ATOM      3  C   UNL A   1      33.563  21.990  27.324  1.00  0.00     0.272 C 
ATOM      4  O   UNL A   1      32.911  22.157  28.329  1.00  0.00    -0.267 OA
ATOM      5  H   UNL A   1      35.345  21.723  28.255  1.00  0.00     0.163 HD
BRANCH   3   6
ATOM      6  C   UNL A   1      32.890  21.838  25.951  1.00  0.00     0.156 A 
ATOM      7  N   UNL A   1      32.270  22.913  23.993  1.00  0.00    -0.216 N 
ATOM      8  N   UNL A   1      32.594  22.936  25.327  1.00  0.00    -0.163 NA
ATOM      9  C   UNL A   1      32.101  21.737  23.275  1.00  0.00     0.275 A 
ATOM     10  C   UNL A   1      32.398  20.478  23.997  1.00  0.00     0.051 A 
ATOM     11  O   UNL A   1      31.794  21.691  22.089  1.00  0.00    -0.267 OA
ATOM     12  C   UNL A   1      32.732  20.508  25.348  1.00  0.00     0.020 A 
ATOM     13  C   UNL A   1      32.366  19.253  23.316  1.00  0.00     0.014 A 
ATOM     14  C   UNL A   1      32.928  19.311  26.048  1.00  0.00     0.011 A 
ATOM     15  C   UNL A   1      32.607  18.063  24.005  1.00  0.00     0.001 A 
ATOM     16  C   UNL A   1      32.858  18.090  25.374  1.00  0.00     0.001 A 
BRANCH   7  17
ATOM     17  C   UNL A   1      32.042  24.246  23.405  1.00  0.00     0.197 C 
ATOM     18  C   UNL A   1      30.582  24.444  23.002  1.00  0.00     0.044 C 
BRANCH  17  19
ATOM     19  C   UNL A   1      33.009  24.781  22.316  1.00  0.00     0.249 C 
ATOM     20  O   UNL A   1      33.218  24.159  21.269  1.00  0.00    -0.272 OA
ATOM     21  N   UNL A   1      33.496  26.065  22.400  1.00  0.00    -0.324 N 
ATOM     22  H   UNL A   1      33.867  26.440  21.569  1.00  0.00     0.170 HD
BRANCH  21  23
ATOM     23  C   UNL A   1      33.529  26.900  23.514  1.00  0.00     0.041 A 
ATOM     24  C   UNL A   1      33.222  28.253  23.381  1.00  0.00     0.027 A 
ATOM     25  C   UNL A   1      33.987  26.402  24.732  1.00  0.00     0.027 A 
ATOM     26  C   UNL A   1      33.262  29.085  24.505  1.00  0.00     0.015 A 
ATOM     27  C   UNL A   1      34.043  27.233  25.850  1.00  0.00     0.015 A 
ATOM     28  C   UNL A   1      33.650  28.577  25.757  1.00  0.00     0.056 A 
BRANCH  28  29
ATOM     29  C   UNL A   1      33.600  29.426  27.005  1.00  0.00     0.416 C 
ATOM     30  F   UNL A   1      34.367  28.934  28.013  1.00  0.00    -0.166 F 
ATOM     31  F   UNL A   1      34.003  30.710  26.807  1.00  0.00    -0.166 F 
ATOM     32  F   UNL A   1      32.333  29.509  27.501  1.00  0.00    -0.166 F 
ENDBRANCH  28  29
ENDBRANCH  21  23
ENDBRANCH  17  19
ENDBRANCH   7  17
ENDBRANCH   3   6
ENDBRANCH   1   2
BRANCH   1  33
ATOM     33  C   UNL A   1      36.125  23.415  25.872  1.00  0.00     0.042 C 
BRANCH  33  34
ATOM     34  C   UNL A   1      37.342  23.551  24.981  1.00  0.00     0.118 C 
BRANCH  34  35
ATOM     35  N   UNL A   1      38.386  22.606  25.354  1.00  0.00    -0.352 N 
ATOM     36  C   UNL A   1      39.530  22.854  26.075  1.00  0.00     0.251 C 
ATOM     37  H   UNL A   1      38.257  21.678  25.053  1.00  0.00     0.163 HD
ATOM     38  O   UNL A   1      40.415  22.008  26.148  1.00  0.00    -0.269 OA
BRANCH  36  39
ATOM     39  C   UNL A   1      39.693  24.173  26.724  1.00  0.00     0.039 A 
ATOM     40  C   UNL A   1      39.213  24.362  28.022  1.00  0.00     0.014 A 
ATOM     41  C   UNL A   1      40.378  25.200  26.071  1.00  0.00     0.014 A 
ATOM     42  C   UNL A   1      39.485  25.557  28.691  1.00  0.00     0.010 A 
ATOM     43  C   UNL A   1      40.726  26.348  26.768  1.00  0.00     0.010 A 
ATOM     44  C   UNL A   1      40.282  26.542  28.086  1.00  0.00    -0.014 A 
BRANCH  44  45
ATOM     45  C   UNL A   1      40.668  27.789  28.794  1.00  0.00     0.031 A 
ATOM     46  C   UNL A   1      39.660  28.894  28.961  1.00  0.00     0.074 A 
ATOM     47  C   UNL A   1      41.941  27.970  29.193  1.00  0.00     0.049 A 
ATOM     48  N   UNL A   1      39.833  30.107  29.418  1.00  0.00    -0.248 NA
ATOM     49  C   UNL A   1      38.285  28.609  28.517  1.00  0.00     0.031 C 
ATOM     50  C   UNL A   1      43.027  26.997  29.047  1.00  0.00     0.029 A 
ATOM     51  N   UNL A   1      42.542  29.049  29.792  1.00  0.00    -0.354 N 
ATOM     52  C   UNL A   1      38.604  30.739  29.280  1.00  0.00     0.074 A 
ATOM     53  C   UNL A   1      37.707  29.792  28.655  1.00  0.00     0.031 C 
ATOM     54  C   UNL A   1      44.153  27.514  29.567  1.00  0.00     0.029 A 
ATOM     55  C   UNL A   1      43.881  28.868  30.039  1.00  0.00     0.049 A 
ATOM     56  H   UNL A   1      42.059  29.875  30.023  1.00  0.00     0.167 HD
ATOM     57  C   UNL A   1      38.245  31.989  29.657  1.00  0.00     0.031 A 
ATOM     58  C   UNL A   1      44.792  29.702  30.577  1.00  0.00     0.031 A 
ATOM     59  C   UNL A   1      39.125  32.917  30.312  1.00  0.00     0.049 A 
ATOM     60  C   UNL A   1      44.365  31.078  31.006  1.00  0.00     0.074 A 
ATOM     61  C   UNL A   1      38.837  34.180  30.800  1.00  0.00     0.029 A 
ATOM     62  N   UNL A   1      40.464  32.679  30.576  1.00  0.00    -0.354 N 
ATOM     63  N   UNL A   1      43.183  31.638  30.924  1.00  0.00    -0.248 NA
ATOM     64  C   UNL A   1      45.398  31.933  31.605  1.00  0.00     0.031 C 
ATOM     65  C   UNL A   1      40.014  34.721  31.328  1.00  0.00     0.029 A 
ATOM     66  C   UNL A   1      41.022  33.778  31.208  1.00  0.00     0.049 A 
ATOM     67  H   UNL A   1      40.947  31.852  30.349  1.00  0.00     0.167 HD
ATOM     68  C   UNL A   1      43.323  32.899  31.487  1.00  0.00     0.074 A 
ATOM     69  C   UNL A   1      44.701  33.017  31.917  1.00  0.00     0.031 C 
ATOM     70  C   UNL A   1      42.392  33.873  31.636  1.00  0.00     0.031 A 
BRANCH  57  71
ATOM     71  C   UNL A   1      36.835  32.420  29.365  1.00  0.00    -0.014 A 
ATOM     72  C   UNL A   1      35.786  32.133  30.253  1.00  0.00     0.009 A 
ATOM     73  C   UNL A   1      36.555  33.144  28.194  1.00  0.00     0.009 A 
ATOM     74  C   UNL A   1      34.480  32.525  29.955  1.00  0.00     0.001 A 
ATOM     75  C   UNL A   1      35.253  33.560  27.915  1.00  0.00     0.001 A 
ATOM     76  C   UNL A   1      34.214  33.241  28.789  1.00  0.00     0.000 A 
ENDBRANCH  57  71
BRANCH  58  77
ATOM     77  C   UNL A   1      46.197  29.253  30.759  1.00  0.00    -0.014 A 
ATOM     78  C   UNL A   1      46.591  28.629  31.952  1.00  0.00     0.009 A 
ATOM     79  C   UNL A   1      47.149  29.447  29.747  1.00  0.00     0.009 A 
ATOM     80  C   UNL A   1      47.918  28.232  32.139  1.00  0.00     0.001 A 
ATOM     81  C   UNL A   1      48.469  29.024  29.926  1.00  0.00     0.001 A 
ATOM     82  C   UNL A   1      48.854  28.426  31.124  1.00  0.00     0.000 A 
ENDBRANCH  58  77
BRANCH  70  83
ATOM     83  C   UNL A   1      42.821  35.136  32.324  1.00  0.00    -0.014 A 
ATOM     84  C   UNL A   1      43.518  36.139  31.635  1.00  0.00     0.009 A 
ATOM     85  C   UNL A   1      42.471  35.346  33.667  1.00  0.00     0.009 A 
ATOM     86  C   UNL A   1      43.877  37.321  32.286  1.00  0.00     0.001 A 
ATOM     87  C   UNL A   1      42.807  36.539  34.307  1.00  0.00     0.001 A 
ATOM     88  C   UNL A   1      43.516  37.522  33.619  1.00  0.00     0.000 A 
ENDBRANCH  70  83
ENDBRANCH  44  45
ENDBRANCH  36  39
ENDBRANCH  34  35
ENDBRANCH  33  34
ENDBRANCH   1  33
TORSDOF 14
ENDMDL
