MODEL 1
REMARK VINA RESULT:     -10.5      0.000      0.000
REMARK SMILES CC[NH2+][C@H](CC[N@H+](C)C1CCC(C)(C)CC1)C(=O)NCCCNC(=O)c1ccc(-c2c3nc(c(-c4ccccc4)c4ccc([nH]4)c(-c4ccccc4)c4nc(c(-c5ccccc5)c5ccc2[nH]5)C=C4)C=C3)cc1
REMARK SMILES IDX 20 1 19 2 17 3 18 4 4 6 3 7 2 10 1 11 5 12 6 13 7 14 8 15
REMARK SMILES IDX 9 17 10 18 16 19 11 20 15 21 12 22 13 23 14 24 21 25 22 26
REMARK SMILES IDX 23 27 24 28 25 30 26 31 27 32 73 33 28 34 72 35 29 36 30 37
REMARK SMILES IDX 31 38 66 39 32 40 71 41 65 42 67 43 33 44 70 45 64 46 63 47
REMARK SMILES IDX 34 49 56 50 41 51 55 52 42 53 45 54 54 55 68 56 43 57 44 58
REMARK SMILES IDX 53 60 69 61 46 62 35 63 36 64 40 65 37 66 39 67 38 68 57 69
REMARK SMILES IDX 58 70 62 71 59 72 61 73 60 74 47 75 48 76 52 77 49 78 51 79
REMARK SMILES IDX 50 80
REMARK H PARENT 19 5 3 8 3 9 7 16 23 29 67 48 45 59
REMARK Flexibility Score: inf
ROOT
ATOM      1  C   UNL A   1      36.937  22.441  24.025  1.00  0.00     0.118 C 
ENDROOT
BRANCH   1   2
ATOM      2  N   UNL A   1      36.407  23.587  24.733  1.00  0.00    -0.351 N 
ATOM      3  C   UNL A   1      35.213  24.237  24.607  1.00  0.00     0.278 C 
ATOM      4  O   UNL A   1      34.752  24.745  25.635  1.00  0.00    -0.268 OA
ATOM      5  H   UNL A   1      37.007  23.959  25.418  1.00  0.00     0.163 HD
BRANCH   3   6
ATOM      6  C   UNL A   1      34.416  24.330  23.290  1.00  0.00     0.278 C 
BRANCH   6   7
ATOM      7  N   UNL A   1      33.449  25.461  23.344  1.00  0.00    -0.336 N 
ATOM      8  H   UNL A   1      32.573  25.113  23.734  1.00  0.00     0.346 HD
ATOM      9  H   UNL A   1      33.880  26.186  23.918  1.00  0.00     0.346 HD
BRANCH   7  10
ATOM     10  C   UNL A   1      33.161  26.073  22.042  1.00  0.00     0.257 C 
ATOM     11  C   UNL A   1      31.670  26.361  21.897  1.00  0.00     0.071 C 
ENDBRANCH   7  10
ENDBRANCH   6   7
BRANCH   6  12
ATOM     12  C   UNL A   1      33.709  23.005  22.929  1.00  0.00     0.137 C 
BRANCH  12  13
ATOM     13  C   UNL A   1      32.303  22.739  23.536  1.00  0.00     0.269 C 
BRANCH  13  14
ATOM     14  N   UNL A   1      31.973  21.799  24.626  1.00  0.00    -0.335 N 
ATOM     15  C   UNL A   1      32.243  22.380  25.942  1.00  0.00     0.332 C 
ATOM     16  H   UNL A   1      30.967  21.700  24.492  1.00  0.00     0.348 HD
BRANCH  14  17
ATOM     17  C   UNL A   1      32.296  20.373  24.510  1.00  0.00     0.183 C 
ATOM     18  C   UNL A   1      32.188  19.829  23.092  1.00  0.00     0.065 C 
ATOM     19  C   UNL A   1      33.686  20.029  25.114  1.00  0.00     0.065 C 
ATOM     20  C   UNL A   1      32.437  18.323  22.994  1.00  0.00     0.012 C 
ATOM     21  C   UNL A   1      34.359  18.764  24.536  1.00  0.00     0.012 C 
ATOM     22  C   UNL A   1      33.380  17.693  24.034  1.00  0.00    -0.035 C 
ATOM     23  C   UNL A   1      34.132  16.536  23.342  1.00  0.00     0.011 C 
ATOM     24  C   UNL A   1      32.612  17.068  25.213  1.00  0.00     0.011 C 
ENDBRANCH  14  17
ENDBRANCH  13  14
ENDBRANCH  12  13
ENDBRANCH   6  12
ENDBRANCH   3   6
ENDBRANCH   1   2
BRANCH   1  25
ATOM     25  C   UNL A   1      37.262  21.197  24.846  1.00  0.00     0.042 C 
BRANCH  25  26
ATOM     26  C   UNL A   1      38.535  21.164  25.688  1.00  0.00     0.118 C 
BRANCH  26  27
ATOM     27  N   UNL A   1      39.383  19.994  25.551  1.00  0.00    -0.352 N 
ATOM     28  C   UNL A   1      40.692  19.880  25.966  1.00  0.00     0.251 C 
ATOM     29  H   UNL A   1      38.984  19.206  25.119  1.00  0.00     0.163 HD
ATOM     30  O   UNL A   1      41.317  18.835  25.829  1.00  0.00    -0.269 OA
BRANCH  28  31
ATOM     31  C   UNL A   1      41.344  21.063  26.558  1.00  0.00     0.039 A 
ATOM     32  C   UNL A   1      41.907  22.026  25.721  1.00  0.00     0.014 A 
ATOM     33  C   UNL A   1      41.328  21.248  27.939  1.00  0.00     0.014 A 
ATOM     34  C   UNL A   1      42.389  23.216  26.273  1.00  0.00     0.010 A 
ATOM     35  C   UNL A   1      41.753  22.455  28.484  1.00  0.00     0.010 A 
ATOM     36  C   UNL A   1      42.276  23.457  27.653  1.00  0.00    -0.014 A 
BRANCH  36  37
ATOM     37  C   UNL A   1      42.648  24.764  28.245  1.00  0.00     0.031 A 
ATOM     38  C   UNL A   1      41.616  25.835  28.443  1.00  0.00     0.074 A 
ATOM     39  C   UNL A   1      43.944  25.021  28.507  1.00  0.00     0.049 A 
ATOM     40  N   UNL A   1      41.773  27.064  28.865  1.00  0.00    -0.248 NA
ATOM     41  C   UNL A   1      40.230  25.488  28.097  1.00  0.00     0.031 C 
ATOM     42  C   UNL A   1      45.051  24.085  28.302  1.00  0.00     0.029 A 
ATOM     43  N   UNL A   1      44.551  26.157  28.979  1.00  0.00    -0.354 N 
ATOM     44  C   UNL A   1      40.513  27.643  28.817  1.00  0.00     0.074 A 
ATOM     45  C   UNL A   1      39.609  26.643  28.289  1.00  0.00     0.031 C 
ATOM     46  C   UNL A   1      46.201  24.682  28.654  1.00  0.00     0.029 A 
ATOM     47  C   UNL A   1      45.917  26.049  29.077  1.00  0.00     0.049 A 
ATOM     48  H   UNL A   1      44.056  26.972  29.226  1.00  0.00     0.167 HD
ATOM     49  C   UNL A   1      40.138  28.891  29.187  1.00  0.00     0.031 A 
ATOM     50  C   UNL A   1      46.842  26.953  29.453  1.00  0.00     0.031 A 
ATOM     51  C   UNL A   1      41.035  29.886  29.712  1.00  0.00     0.049 A 
ATOM     52  C   UNL A   1      46.406  28.325  29.873  1.00  0.00     0.074 A 
ATOM     53  C   UNL A   1      40.740  31.156  30.174  1.00  0.00     0.029 A 
ATOM     54  N   UNL A   1      42.406  29.721  29.837  1.00  0.00    -0.354 N 
ATOM     55  N   UNL A   1      45.197  28.832  29.898  1.00  0.00    -0.248 NA
ATOM     56  C   UNL A   1      47.457  29.246  30.330  1.00  0.00     0.031 C 
ATOM     57  C   UNL A   1      41.940  31.777  30.541  1.00  0.00     0.029 A 
ATOM     58  C   UNL A   1      42.975  30.874  30.350  1.00  0.00     0.049 A 
ATOM     59  H   UNL A   1      42.901  28.905  29.596  1.00  0.00     0.167 HD
ATOM     60  C   UNL A   1      45.337  30.120  30.396  1.00  0.00     0.074 A 
ATOM     61  C   UNL A   1      46.747  30.316  30.665  1.00  0.00     0.031 C 
ATOM     62  C   UNL A   1      44.379  31.053  30.615  1.00  0.00     0.031 A 
BRANCH  49  63
ATOM     63  C   UNL A   1      38.687  29.248  29.017  1.00  0.00    -0.014 A 
ATOM     64  C   UNL A   1      38.188  29.696  27.783  1.00  0.00     0.009 A 
ATOM     65  C   UNL A   1      37.806  29.129  30.103  1.00  0.00     0.009 A 
ATOM     66  C   UNL A   1      36.847  30.064  27.654  1.00  0.00     0.001 A 
ATOM     67  C   UNL A   1      36.460  29.472  29.964  1.00  0.00     0.001 A 
ATOM     68  C   UNL A   1      35.985  29.951  28.743  1.00  0.00     0.000 A 
ENDBRANCH  49  63
BRANCH  50  69
ATOM     69  C   UNL A   1      48.275  26.565  29.463  1.00  0.00    -0.014 A 
ATOM     70  C   UNL A   1      49.098  26.857  28.365  1.00  0.00     0.009 A 
ATOM     71  C   UNL A   1      48.837  25.942  30.588  1.00  0.00     0.009 A 
ATOM     72  C   UNL A   1      50.453  26.521  28.389  1.00  0.00     0.001 A 
ATOM     73  C   UNL A   1      50.197  25.628  30.618  1.00  0.00     0.001 A 
ATOM     74  C   UNL A   1      51.003  25.914  29.516  1.00  0.00     0.000 A 
ENDBRANCH  50  69
BRANCH  62  75
ATOM     75  C   UNL A   1      44.813  32.362  31.206  1.00  0.00    -0.014 A 
ATOM     76  C   UNL A   1      45.156  33.451  30.391  1.00  0.00     0.009 A 
ATOM     77  C   UNL A   1      44.815  32.526  32.600  1.00  0.00     0.009 A 
ATOM     78  C   UNL A   1      45.507  34.676  30.962  1.00  0.00     0.001 A 
ATOM     79  C   UNL A   1      45.146  33.757  33.167  1.00  0.00     0.001 A 
ATOM     80  C   UNL A   1      45.496  34.829  32.348  1.00  0.00     0.000 A 
ENDBRANCH  62  75
ENDBRANCH  36  37
ENDBRANCH  28  31
ENDBRANCH  26  27
ENDBRANCH  25  26
ENDBRANCH   1  25
TORSDOF 16
ENDMDL
MODEL 2
REMARK VINA RESULT:     -10.4      3.712      9.136
REMARK SMILES CC[NH2+][C@H](CC[N@H+](C)C1CCC(C)(C)CC1)C(=O)NCCCNC(=O)c1ccc(-c2c3nc(c(-c4ccccc4)c4ccc([nH]4)c(-c4ccccc4)c4nc(c(-c5ccccc5)c5ccc2[nH]5)C=C4)C=C3)cc1
REMARK SMILES IDX 20 1 19 2 17 3 18 4 4 6 3 7 2 10 1 11 5 12 6 13 7 14 8 15
REMARK SMILES IDX 9 17 10 18 16 19 11 20 15 21 12 22 13 23 14 24 21 25 22 26
REMARK SMILES IDX 23 27 24 28 25 30 26 31 27 32 73 33 28 34 72 35 29 36 30 37
REMARK SMILES IDX 31 38 66 39 32 40 71 41 65 42 67 43 33 44 70 45 64 46 63 47
REMARK SMILES IDX 34 49 56 50 41 51 55 52 42 53 45 54 54 55 68 56 43 57 44 58
REMARK SMILES IDX 53 60 69 61 46 62 35 63 36 64 40 65 37 66 39 67 38 68 57 69
REMARK SMILES IDX 58 70 62 71 59 72 61 73 60 74 47 75 48 76 52 77 49 78 51 79
REMARK SMILES IDX 50 80
REMARK H PARENT 19 5 3 8 3 9 7 16 23 29 67 48 45 59
REMARK Flexibility Score: inf
ROOT
ATOM      1  C   UNL A   1      32.086  28.989  27.285  1.00  0.00     0.118 C 
ENDROOT
BRANCH   1   2
ATOM      2  N   UNL A   1      33.119  28.098  26.803  1.00  0.00    -0.351 N 
ATOM      3  C   UNL A   1      33.030  26.890  26.173  1.00  0.00     0.278 C 
ATOM      4  O   UNL A   1      33.927  26.623  25.365  1.00  0.00    -0.268 OA
ATOM      5  H   UNL A   1      34.038  28.415  26.955  1.00  0.00     0.163 HD
BRANCH   3   6
ATOM      6  C   UNL A   1      31.876  25.889  26.384  1.00  0.00     0.278 C 
BRANCH   6   7
ATOM      7  N   UNL A   1      32.315  24.507  26.050  1.00  0.00    -0.336 N 
ATOM      8  H   UNL A   1      32.100  24.332  25.068  1.00  0.00     0.346 HD
ATOM      9  H   UNL A   1      33.314  24.462  26.252  1.00  0.00     0.346 HD
BRANCH   7  10
ATOM     10  C   UNL A   1      31.678  23.458  26.853  1.00  0.00     0.257 C 
ATOM     11  C   UNL A   1      30.791  22.574  25.984  1.00  0.00     0.071 C 
ENDBRANCH   7  10
ENDBRANCH   6   7
BRANCH   6  12
ATOM     12  C   UNL A   1      30.602  26.277  25.601  1.00  0.00     0.137 C 
BRANCH  12  13
ATOM     13  C   UNL A   1      30.478  25.798  24.128  1.00  0.00     0.269 C 
BRANCH  13  14
ATOM     14  N   UNL A   1      30.653  26.619  22.912  1.00  0.00    -0.335 N 
ATOM     15  C   UNL A   1      32.057  26.682  22.500  1.00  0.00     0.332 C 
ATOM     16  H   UNL A   1      30.120  26.072  22.236  1.00  0.00     0.348 HD
BRANCH  14  17
ATOM     17  C   UNL A   1      29.908  27.870  22.737  1.00  0.00     0.183 C 
ATOM     18  C   UNL A   1      28.476  27.812  23.251  1.00  0.00     0.065 C 
ATOM     19  C   UNL A   1      30.649  29.091  23.348  1.00  0.00     0.065 C 
ATOM     20  C   UNL A   1      27.678  29.089  22.983  1.00  0.00     0.012 C 
ATOM     21  C   UNL A   1      29.744  30.276  23.750  1.00  0.00     0.012 C 
ATOM     22  C   UNL A   1      28.462  30.412  22.915  1.00  0.00    -0.035 C 
ATOM     23  C   UNL A   1      27.550  31.523  23.477  1.00  0.00     0.011 C 
ATOM     24  C   UNL A   1      28.799  30.816  21.469  1.00  0.00     0.011 C 
ENDBRANCH  14  17
ENDBRANCH  13  14
ENDBRANCH  12  13
ENDBRANCH   6  12
ENDBRANCH   3   6
ENDBRANCH   1   2
BRANCH   1  25
ATOM     25  C   UNL A   1      32.036  30.393  26.692  1.00  0.00     0.042 C 
BRANCH  25  26
ATOM     26  C   UNL A   1      33.014  31.455  27.189  1.00  0.00     0.118 C 
BRANCH  26  27
ATOM     27  N   UNL A   1      32.465  32.763  27.495  1.00  0.00    -0.352 N 
ATOM     28  C   UNL A   1      33.085  33.764  28.211  1.00  0.00     0.251 C 
ATOM     29  H   UNL A   1      31.559  32.953  27.159  1.00  0.00     0.163 HD
ATOM     30  O   UNL A   1      32.545  34.849  28.392  1.00  0.00    -0.269 OA
BRANCH  28  31
ATOM     31  C   UNL A   1      34.416  33.490  28.786  1.00  0.00     0.039 A 
ATOM     32  C   UNL A   1      34.510  32.850  30.021  1.00  0.00     0.014 A 
ATOM     33  C   UNL A   1      35.565  33.805  28.062  1.00  0.00     0.014 A 
ATOM     34  C   UNL A   1      35.765  32.457  30.495  1.00  0.00     0.010 A 
ATOM     35  C   UNL A   1      36.807  33.362  28.504  1.00  0.00     0.010 A 
ATOM     36  C   UNL A   1      36.917  32.671  29.719  1.00  0.00    -0.014 A 
BRANCH  36  37
ATOM     37  C   UNL A   1      38.239  32.140  30.130  1.00  0.00     0.031 A 
ATOM     38  C   UNL A   1      38.732  30.825  29.602  1.00  0.00     0.074 A 
ATOM     39  C   UNL A   1      38.949  32.798  31.067  1.00  0.00     0.049 A 
ATOM     40  N   UNL A   1      39.819  30.166  29.914  1.00  0.00    -0.248 NA
ATOM     41  C   UNL A   1      37.880  30.151  28.611  1.00  0.00     0.031 C 
ATOM     42  C   UNL A   1      38.549  34.056  31.703  1.00  0.00     0.029 A 
ATOM     43  N   UNL A   1      40.144  32.486  31.664  1.00  0.00    -0.354 N 
ATOM     44  C   UNL A   1      39.772  28.992  29.176  1.00  0.00     0.074 A 
ATOM     45  C   UNL A   1      38.532  29.011  28.429  1.00  0.00     0.031 C 
ATOM     46  C   UNL A   1      39.487  34.411  32.595  1.00  0.00     0.029 A 
ATOM     47  C   UNL A   1      40.533  33.395  32.618  1.00  0.00     0.049 A 
ATOM     48  H   UNL A   1      40.672  31.689  31.431  1.00  0.00     0.167 HD
ATOM     49  C   UNL A   1      40.683  27.990  29.116  1.00  0.00     0.031 A 
ATOM     50  C   UNL A   1      41.607  33.404  33.431  1.00  0.00     0.031 A 
ATOM     51  C   UNL A   1      41.915  27.969  29.858  1.00  0.00     0.049 A 
ATOM     52  C   UNL A   1      42.612  32.294  33.340  1.00  0.00     0.074 A 
ATOM     53  C   UNL A   1      42.931  27.032  29.818  1.00  0.00     0.029 A 
ATOM     54  N   UNL A   1      42.294  28.932  30.781  1.00  0.00    -0.354 N 
ATOM     55  N   UNL A   1      42.593  31.228  32.577  1.00  0.00    -0.248 NA
ATOM     56  C   UNL A   1      43.792  32.393  34.210  1.00  0.00     0.031 C 
ATOM     57  C   UNL A   1      43.908  27.405  30.748  1.00  0.00     0.029 A 
ATOM     58  C   UNL A   1      43.520  28.600  31.332  1.00  0.00     0.049 A 
ATOM     59  H   UNL A   1      41.769  29.733  31.010  1.00  0.00     0.167 HD
ATOM     60  C   UNL A   1      43.767  30.542  32.855  1.00  0.00     0.074 A 
ATOM     61  C   UNL A   1      44.478  31.314  33.853  1.00  0.00     0.031 C 
ATOM     62  C   UNL A   1      44.216  29.379  32.323  1.00  0.00     0.031 A 
BRANCH  49  63
ATOM     63  C   UNL A   1      40.360  26.825  28.223  1.00  0.00    -0.014 A 
ATOM     64  C   UNL A   1      39.583  25.749  28.682  1.00  0.00     0.009 A 
ATOM     65  C   UNL A   1      40.835  26.805  26.902  1.00  0.00     0.009 A 
ATOM     66  C   UNL A   1      39.329  24.655  27.852  1.00  0.00     0.001 A 
ATOM     67  C   UNL A   1      40.557  25.722  26.066  1.00  0.00     0.001 A 
ATOM     68  C   UNL A   1      39.815  24.643  26.546  1.00  0.00     0.000 A 
ENDBRANCH  49  63
BRANCH  50  69
ATOM     69  C   UNL A   1      41.785  34.525  34.388  1.00  0.00    -0.014 A 
ATOM     70  C   UNL A   1      42.383  35.724  33.974  1.00  0.00     0.009 A 
ATOM     71  C   UNL A   1      41.319  34.416  35.707  1.00  0.00     0.009 A 
ATOM     72  C   UNL A   1      42.520  36.790  34.867  1.00  0.00     0.001 A 
ATOM     73  C   UNL A   1      41.438  35.491  36.591  1.00  0.00     0.001 A 
ATOM     74  C   UNL A   1      42.043  36.675  36.171  1.00  0.00     0.000 A 
ENDBRANCH  50  69
BRANCH  62  75
ATOM     75  C   UNL A   1      45.555  28.882  32.784  1.00  0.00    -0.014 A 
ATOM     76  C   UNL A   1      45.671  27.998  33.866  1.00  0.00     0.009 A 
ATOM     77  C   UNL A   1      46.711  29.255  32.079  1.00  0.00     0.009 A 
ATOM     78  C   UNL A   1      46.922  27.507  34.244  1.00  0.00     0.001 A 
ATOM     79  C   UNL A   1      47.957  28.746  32.447  1.00  0.00     0.001 A 
ATOM     80  C   UNL A   1      48.062  27.877  33.531  1.00  0.00     0.000 A 
ENDBRANCH  62  75
ENDBRANCH  36  37
ENDBRANCH  28  31
ENDBRANCH  26  27
ENDBRANCH  25  26
ENDBRANCH   1  25
TORSDOF 16
ENDMDL
MODEL 3
REMARK VINA RESULT:     -10.3      2.585      7.245
REMARK SMILES CC[NH2+][C@H](CC[N@H+](C)C1CCC(C)(C)CC1)C(=O)NCCCNC(=O)c1ccc(-c2c3nc(c(-c4ccccc4)c4ccc([nH]4)c(-c4ccccc4)c4nc(c(-c5ccccc5)c5ccc2[nH]5)C=C4)C=C3)cc1
REMARK SMILES IDX 20 1 19 2 17 3 18 4 4 6 3 7 2 10 1 11 5 12 6 13 7 14 8 15
REMARK SMILES IDX 9 17 10 18 16 19 11 20 15 21 12 22 13 23 14 24 21 25 22 26
REMARK SMILES IDX 23 27 24 28 25 30 26 31 27 32 73 33 28 34 72 35 29 36 30 37
REMARK SMILES IDX 31 38 66 39 32 40 71 41 65 42 67 43 33 44 70 45 64 46 63 47
REMARK SMILES IDX 34 49 56 50 41 51 55 52 42 53 45 54 54 55 68 56 43 57 44 58
REMARK SMILES IDX 53 60 69 61 46 62 35 63 36 64 40 65 37 66 39 67 38 68 57 69
REMARK SMILES IDX 58 70 62 71 59 72 61 73 60 74 47 75 48 76 52 77 49 78 51 79
REMARK SMILES IDX 50 80
REMARK H PARENT 19 5 3 8 3 9 7 16 23 29 67 48 45 59
REMARK Flexibility Score: inf
ROOT
ATOM      1  C   UNL A   1      32.289  27.181  26.396  1.00  0.00     0.118 C 
ENDROOT
BRANCH   1   2
ATOM      2  N   UNL A   1      31.095  26.432  26.728  1.00  0.00    -0.351 N 
ATOM      3  C   UNL A   1      30.300  25.635  25.956  1.00  0.00     0.278 C 
ATOM      4  O   UNL A   1      29.753  24.685  26.526  1.00  0.00    -0.268 OA
ATOM      5  H   UNL A   1      30.811  26.510  27.667  1.00  0.00     0.163 HD
BRANCH   3   6
ATOM      6  C   UNL A   1      30.090  25.835  24.441  1.00  0.00     0.278 C 
BRANCH   6   7
ATOM      7  N   UNL A   1      28.639  25.941  24.125  1.00  0.00    -0.336 N 
ATOM      8  H   UNL A   1      28.413  25.235  23.424  1.00  0.00     0.346 HD
ATOM      9  H   UNL A   1      28.139  25.803  25.003  1.00  0.00     0.346 HD
BRANCH   7  10
ATOM     10  C   UNL A   1      28.226  27.250  23.608  1.00  0.00     0.257 C 
ATOM     11  C   UNL A   1      29.441  28.101  23.254  1.00  0.00     0.071 C 
ENDBRANCH   7  10
ENDBRANCH   6   7
BRANCH   6  12
ATOM     12  C   UNL A   1      30.769  24.734  23.597  1.00  0.00     0.137 C 
BRANCH  12  13
ATOM     13  C   UNL A   1      32.305  24.821  23.384  1.00  0.00     0.269 C 
BRANCH  13  14
ATOM     14  N   UNL A   1      33.202  23.730  22.952  1.00  0.00    -0.335 N 
ATOM     15  C   UNL A   1      32.466  22.662  22.272  1.00  0.00     0.332 C 
ATOM     16  H   UNL A   1      33.791  24.223  22.280  1.00  0.00     0.348 HD
BRANCH  14  17
ATOM     17  C   UNL A   1      34.292  23.266  23.817  1.00  0.00     0.183 C 
ATOM     18  C   UNL A   1      35.594  22.994  23.075  1.00  0.00     0.065 C 
ATOM     19  C   UNL A   1      34.545  24.222  25.015  1.00  0.00     0.065 C 
ATOM     20  C   UNL A   1      36.698  22.424  23.968  1.00  0.00     0.012 C 
ATOM     21  C   UNL A   1      35.972  24.174  25.604  1.00  0.00     0.012 C 
ATOM     22  C   UNL A   1      36.679  22.819  25.455  1.00  0.00    -0.035 C 
ATOM     23  C   UNL A   1      38.144  22.903  25.934  1.00  0.00     0.011 C 
ATOM     24  C   UNL A   1      35.996  21.754  26.332  1.00  0.00     0.011 C 
ENDBRANCH  14  17
ENDBRANCH  13  14
ENDBRANCH  12  13
ENDBRANCH   6  12
ENDBRANCH   3   6
ENDBRANCH   1   2
BRANCH   1  25
ATOM     25  C   UNL A   1      32.365  28.628  26.870  1.00  0.00     0.042 C 
BRANCH  25  26
ATOM     26  C   UNL A   1      33.715  29.219  27.269  1.00  0.00     0.118 C 
BRANCH  26  27
ATOM     27  N   UNL A   1      33.698  30.518  27.916  1.00  0.00    -0.352 N 
ATOM     28  C   UNL A   1      34.754  31.125  28.560  1.00  0.00     0.251 C 
ATOM     29  H   UNL A   1      32.848  31.014  27.893  1.00  0.00     0.163 HD
ATOM     30  O   UNL A   1      34.646  32.242  29.052  1.00  0.00    -0.269 OA
BRANCH  28  31
ATOM     31  C   UNL A   1      36.024  30.383  28.672  1.00  0.00     0.039 A 
ATOM     32  C   UNL A   1      36.911  30.375  27.597  1.00  0.00     0.014 A 
ATOM     33  C   UNL A   1      36.362  29.762  29.873  1.00  0.00     0.014 A 
ATOM     34  C   UNL A   1      38.176  29.802  27.756  1.00  0.00     0.010 A 
ATOM     35  C   UNL A   1      37.641  29.243  30.052  1.00  0.00     0.010 A 
ATOM     36  C   UNL A   1      38.565  29.271  28.998  1.00  0.00    -0.014 A 
BRANCH  36  37
ATOM     37  C   UNL A   1      39.945  28.786  29.235  1.00  0.00     0.031 A 
ATOM     38  C   UNL A   1      40.992  29.704  29.795  1.00  0.00     0.074 A 
ATOM     39  C   UNL A   1      40.281  27.541  28.844  1.00  0.00     0.049 A 
ATOM     40  N   UNL A   1      42.267  29.480  29.989  1.00  0.00    -0.248 NA
ATOM     41  C   UNL A   1      40.554  31.059  30.161  1.00  0.00     0.031 C 
ATOM     42  C   UNL A   1      39.369  26.572  28.231  1.00  0.00     0.029 A 
ATOM     43  N   UNL A   1      41.486  26.888  28.882  1.00  0.00    -0.354 N 
ATOM     44  C   UNL A   1      42.787  30.669  30.480  1.00  0.00     0.074 A 
ATOM     45  C   UNL A   1      41.699  31.623  30.518  1.00  0.00     0.031 C 
ATOM     46  C   UNL A   1      40.047  25.446  27.959  1.00  0.00     0.029 A 
ATOM     47  C   UNL A   1      41.443  25.624  28.345  1.00  0.00     0.049 A 
ATOM     48  H   UNL A   1      42.305  27.286  29.259  1.00  0.00     0.167 HD
ATOM     49  C   UNL A   1      44.056  30.942  30.873  1.00  0.00     0.031 A 
ATOM     50  C   UNL A   1      42.418  24.713  28.172  1.00  0.00     0.031 A 
ATOM     51  C   UNL A   1      45.138  29.996  30.834  1.00  0.00     0.049 A 
ATOM     52  C   UNL A   1      43.813  25.028  28.626  1.00  0.00     0.074 A 
ATOM     53  C   UNL A   1      46.441  30.157  31.269  1.00  0.00     0.029 A 
ATOM     54  N   UNL A   1      45.041  28.710  30.325  1.00  0.00    -0.354 N 
ATOM     55  N   UNL A   1      44.273  26.132  29.163  1.00  0.00    -0.248 NA
ATOM     56  C   UNL A   1      44.820  23.970  28.464  1.00  0.00     0.031 C 
ATOM     57  C   UNL A   1      47.146  28.981  30.985  1.00  0.00     0.029 A 
ATOM     58  C   UNL A   1      46.267  28.073  30.415  1.00  0.00     0.049 A 
ATOM     59  H   UNL A   1      44.222  28.309  29.954  1.00  0.00     0.167 HD
ATOM     60  C   UNL A   1      45.615  25.894  29.427  1.00  0.00     0.074 A 
ATOM     61  C   UNL A   1      45.894  24.540  28.995  1.00  0.00     0.031 C 
ATOM     62  C   UNL A   1      46.529  26.725  29.984  1.00  0.00     0.031 A 
BRANCH  49  63
ATOM     63  C   UNL A   1      44.334  32.336  31.363  1.00  0.00    -0.014 A 
ATOM     64  C   UNL A   1      44.199  32.670  32.720  1.00  0.00     0.009 A 
ATOM     65  C   UNL A   1      44.743  33.326  30.456  1.00  0.00     0.009 A 
ATOM     66  C   UNL A   1      44.420  33.980  33.151  1.00  0.00     0.001 A 
ATOM     67  C   UNL A   1      44.990  34.628  30.894  1.00  0.00     0.001 A 
ATOM     68  C   UNL A   1      44.816  34.957  32.238  1.00  0.00     0.000 A 
ENDBRANCH  49  63
BRANCH  50  69
ATOM     69  C   UNL A   1      42.090  23.405  27.551  1.00  0.00    -0.014 A 
ATOM     70  C   UNL A   1      42.386  23.165  26.201  1.00  0.00     0.009 A 
ATOM     71  C   UNL A   1      41.518  22.377  28.316  1.00  0.00     0.009 A 
ATOM     72  C   UNL A   1      42.107  21.923  25.627  1.00  0.00     0.001 A 
ATOM     73  C   UNL A   1      41.260  21.129  27.744  1.00  0.00     0.001 A 
ATOM     74  C   UNL A   1      41.551  20.905  26.399  1.00  0.00     0.000 A 
ENDBRANCH  50  69
BRANCH  62  75
ATOM     75  C   UNL A   1      47.914  26.185  30.191  1.00  0.00    -0.014 A 
ATOM     76  C   UNL A   1      48.869  26.214  29.164  1.00  0.00     0.009 A 
ATOM     77  C   UNL A   1      48.287  25.702  31.456  1.00  0.00     0.009 A 
ATOM     78  C   UNL A   1      50.167  25.754  29.395  1.00  0.00     0.001 A 
ATOM     79  C   UNL A   1      49.591  25.263  31.689  1.00  0.00     0.001 A 
ATOM     80  C   UNL A   1      50.528  25.286  30.657  1.00  0.00     0.000 A 
ENDBRANCH  62  75
ENDBRANCH  36  37
ENDBRANCH  28  31
ENDBRANCH  26  27
ENDBRANCH  25  26
ENDBRANCH   1  25
TORSDOF 16
ENDMDL
