MODEL 1
REMARK VINA RESULT:     -11.1      0.000      0.000
REMARK SMILES CC(C)c1ccc(C(=O)N2CCC[C@@H](C(=O)NCCCNC(=O)c3ccc(-c4c5nc(c(-c6ccccc6)c6ccc([nH]6)c(-c6ccccc6)c6nc(c(-c7ccccc7)c7ccc4[nH]7)C=C6)C=C5)cc3)C2)cc1
REMARK SMILES IDX 18 1 17 2 15 3 16 4 14 6 10 7 11 8 72 9 12 10 13 11 8 12
REMARK SMILES IDX 9 13 7 14 4 15 5 16 74 17 6 18 73 19 2 20 1 21 3 22 19 23
REMARK SMILES IDX 20 24 21 25 22 26 23 28 24 29 25 30 71 31 26 32 70 33 27 34
REMARK SMILES IDX 28 35 29 36 64 37 30 38 69 39 63 40 65 41 31 42 68 43 62 44
REMARK SMILES IDX 61 45 32 47 54 48 39 49 53 50 40 51 43 52 52 53 66 54 41 55
REMARK SMILES IDX 42 56 51 58 67 59 44 60 33 61 34 62 38 63 35 64 37 65 36 66
REMARK SMILES IDX 55 67 56 68 60 69 57 70 59 71 58 72 45 73 46 74 50 75 47 76
REMARK SMILES IDX 49 77 48 78
REMARK H PARENT 17 5 21 27 65 46 43 57
REMARK Flexibility Score: inf
ROOT
ATOM      1  C   UNL A   1      36.199  20.447  24.987  1.00  0.00     0.117 C 
ENDROOT
BRANCH   1   2
ATOM      2  N   UNL A   1      34.989  19.651  24.898  1.00  0.00    -0.356 N 
ATOM      3  C   UNL A   1      33.665  19.932  24.879  1.00  0.00     0.224 C 
ATOM      4  O   UNL A   1      32.927  18.936  24.859  1.00  0.00    -0.275 OA
ATOM      5  H   UNL A   1      35.173  18.686  24.838  1.00  0.00     0.163 HD
BRANCH   3   6
ATOM      6  C   UNL A   1      33.035  21.330  24.848  1.00  0.00     0.098 C 
ATOM      7  N   UNL A   1      32.398  23.058  23.129  1.00  0.00    -0.338 N 
ATOM      8  C   UNL A   1      31.059  23.185  23.661  1.00  0.00     0.120 C 
ATOM      9  C   UNL A   1      33.116  21.809  23.378  1.00  0.00     0.133 C 
ATOM     10  C   UNL A   1      31.053  22.905  25.147  1.00  0.00     0.022 C 
ATOM     11  C   UNL A   1      31.628  21.519  25.420  1.00  0.00     0.017 C 
BRANCH   7  12
ATOM     12  C   UNL A   1      33.050  24.213  22.734  1.00  0.00     0.253 C 
ATOM     13  O   UNL A   1      33.732  24.262  21.713  1.00  0.00    -0.269 OA
BRANCH  12  14
ATOM     14  C   UNL A   1      33.096  25.324  23.734  1.00  0.00     0.040 A 
ATOM     15  C   UNL A   1      33.056  27.246  25.824  1.00  0.00    -0.045 A 
ATOM     16  C   UNL A   1      33.897  26.120  25.883  1.00  0.00     0.005 A 
ATOM     17  C   UNL A   1      32.231  27.379  24.699  1.00  0.00     0.005 A 
ATOM     18  C   UNL A   1      33.930  25.181  24.847  1.00  0.00     0.014 A 
ATOM     19  C   UNL A   1      32.243  26.429  23.671  1.00  0.00     0.014 A 
BRANCH  15  20
ATOM     20  C   UNL A   1      33.022  28.233  26.987  1.00  0.00     0.013 C 
ATOM     21  C   UNL A   1      33.674  29.573  26.617  1.00  0.00     0.012 C 
ATOM     22  C   UNL A   1      31.623  28.515  27.555  1.00  0.00     0.012 C 
ENDBRANCH  15  20
ENDBRANCH  12  14
ENDBRANCH   7  12
ENDBRANCH   3   6
ENDBRANCH   1   2
BRANCH   1  23
ATOM     23  C   UNL A   1      37.456  19.580  24.958  1.00  0.00     0.042 C 
BRANCH  23  24
ATOM     24  C   UNL A   1      38.695  20.306  25.475  1.00  0.00     0.118 C 
BRANCH  24  25
ATOM     25  N   UNL A   1      39.798  19.385  25.734  1.00  0.00    -0.352 N 
ATOM     26  C   UNL A   1      41.095  19.627  26.098  1.00  0.00     0.251 C 
ATOM     27  H   UNL A   1      39.570  18.433  25.629  1.00  0.00     0.163 HD
ATOM     28  O   UNL A   1      41.924  18.721  26.015  1.00  0.00    -0.269 OA
BRANCH  26  29
ATOM     29  C   UNL A   1      41.513  20.955  26.591  1.00  0.00     0.039 A 
ATOM     30  C   UNL A   1      41.550  21.184  27.970  1.00  0.00     0.014 A 
ATOM     31  C   UNL A   1      41.807  21.993  25.702  1.00  0.00     0.014 A 
ATOM     32  C   UNL A   1      41.932  22.436  28.457  1.00  0.00     0.010 A 
ATOM     33  C   UNL A   1      42.262  23.214  26.187  1.00  0.00     0.010 A 
ATOM     34  C   UNL A   1      42.319  23.452  27.568  1.00  0.00    -0.014 A 
BRANCH  34  35
ATOM     35  C   UNL A   1      42.777  24.774  28.059  1.00  0.00     0.031 A 
ATOM     36  C   UNL A   1      41.778  25.857  28.357  1.00  0.00     0.074 A 
ATOM     37  C   UNL A   1      44.095  25.020  28.171  1.00  0.00     0.049 A 
ATOM     38  N   UNL A   1      41.988  27.095  28.730  1.00  0.00    -0.248 NA
ATOM     39  C   UNL A   1      40.358  25.513  28.187  1.00  0.00     0.031 C 
ATOM     40  C   UNL A   1      45.164  24.061  27.887  1.00  0.00     0.029 A 
ATOM     41  N   UNL A   1      44.759  26.157  28.554  1.00  0.00    -0.354 N 
ATOM     42  C   UNL A   1      40.730  27.679  28.819  1.00  0.00     0.074 A 
ATOM     43  C   UNL A   1      39.770  26.678  28.409  1.00  0.00     0.031 C 
ATOM     44  C   UNL A   1      46.350  24.638  28.141  1.00  0.00     0.029 A 
ATOM     45  C   UNL A   1      46.126  26.017  28.562  1.00  0.00     0.049 A 
ATOM     46  H   UNL A   1      44.302  26.993  28.799  1.00  0.00     0.167 HD
ATOM     47  C   UNL A   1      40.400  28.929  29.223  1.00  0.00     0.031 A 
ATOM     48  C   UNL A   1      47.090  26.901  28.874  1.00  0.00     0.031 A 
ATOM     49  C   UNL A   1      41.357  29.923  29.632  1.00  0.00     0.049 A 
ATOM     50  C   UNL A   1      46.705  28.292  29.289  1.00  0.00     0.074 A 
ATOM     51  C   UNL A   1      41.125  31.201  30.107  1.00  0.00     0.029 A 
ATOM     52  N   UNL A   1      42.733  29.747  29.611  1.00  0.00    -0.354 N 
ATOM     53  N   UNL A   1      45.509  28.814  29.420  1.00  0.00    -0.248 NA
ATOM     54  C   UNL A   1      47.806  29.215  29.602  1.00  0.00     0.031 C 
ATOM     55  C   UNL A   1      42.364  31.817  30.324  1.00  0.00     0.029 A 
ATOM     56  C   UNL A   1      43.365  30.902  30.038  1.00  0.00     0.049 A 
ATOM     57  H   UNL A   1      43.192  28.922  29.332  1.00  0.00     0.167 HD
ATOM     58  C   UNL A   1      45.711  30.116  29.860  1.00  0.00     0.074 A 
ATOM     59  C   UNL A   1      47.143  30.299  29.982  1.00  0.00     0.031 C 
ATOM     60  C   UNL A   1      44.792  31.070  30.143  1.00  0.00     0.031 A 
BRANCH  47  61
ATOM     61  C   UNL A   1      38.939  29.285  29.222  1.00  0.00    -0.014 A 
ATOM     62  C   UNL A   1      38.135  29.077  30.356  1.00  0.00     0.009 A 
ATOM     63  C   UNL A   1      38.352  29.831  28.068  1.00  0.00     0.009 A 
ATOM     64  C   UNL A   1      36.767  29.355  30.317  1.00  0.00     0.001 A 
ATOM     65  C   UNL A   1      36.991  30.138  28.043  1.00  0.00     0.001 A 
ATOM     66  C   UNL A   1      36.196  29.888  29.161  1.00  0.00     0.000 A 
ENDBRANCH  47  61
BRANCH  48  67
ATOM     67  C   UNL A   1      48.515  26.481  28.842  1.00  0.00    -0.014 A 
ATOM     68  C   UNL A   1      49.121  25.965  29.999  1.00  0.00     0.009 A 
ATOM     69  C   UNL A   1      49.267  26.570  27.662  1.00  0.00     0.009 A 
ATOM     70  C   UNL A   1      50.457  25.561  29.976  1.00  0.00     0.001 A 
ATOM     71  C   UNL A   1      50.596  26.140  27.636  1.00  0.00     0.001 A 
ATOM     72  C   UNL A   1      51.191  25.642  28.794  1.00  0.00     0.000 A 
ENDBRANCH  48  67
BRANCH  60  73
ATOM     73  C   UNL A   1      45.309  32.391  30.642  1.00  0.00    -0.014 A 
ATOM     74  C   UNL A   1      45.592  33.443  29.759  1.00  0.00     0.009 A 
ATOM     75  C   UNL A   1      45.481  32.591  32.021  1.00  0.00     0.009 A 
ATOM     76  C   UNL A   1      46.069  34.662  30.246  1.00  0.00     0.001 A 
ATOM     77  C   UNL A   1      45.930  33.820  32.506  1.00  0.00     0.001 A 
ATOM     78  C   UNL A   1      46.232  34.851  31.618  1.00  0.00     0.000 A 
ENDBRANCH  60  73
ENDBRANCH  34  35
ENDBRANCH  26  29
ENDBRANCH  24  25
ENDBRANCH  23  24
ENDBRANCH   1  23
TORSDOF 13
ENDMDL
MODEL 2
REMARK VINA RESULT:     -11.1      2.855      7.484
REMARK SMILES CC(C)c1ccc(C(=O)N2CCC[C@@H](C(=O)NCCCNC(=O)c3ccc(-c4c5nc(c(-c6ccccc6)c6ccc([nH]6)c(-c6ccccc6)c6nc(c(-c7ccccc7)c7ccc4[nH]7)C=C6)C=C5)cc3)C2)cc1
REMARK SMILES IDX 18 1 17 2 15 3 16 4 14 6 10 7 11 8 72 9 12 10 13 11 8 12
REMARK SMILES IDX 9 13 7 14 4 15 5 16 74 17 6 18 73 19 2 20 1 21 3 22 19 23
REMARK SMILES IDX 20 24 21 25 22 26 23 28 24 29 25 30 71 31 26 32 70 33 27 34
REMARK SMILES IDX 28 35 29 36 64 37 30 38 69 39 63 40 65 41 31 42 68 43 62 44
REMARK SMILES IDX 61 45 32 47 54 48 39 49 53 50 40 51 43 52 52 53 66 54 41 55
REMARK SMILES IDX 42 56 51 58 67 59 44 60 33 61 34 62 38 63 35 64 37 65 36 66
REMARK SMILES IDX 55 67 56 68 60 69 57 70 59 71 58 72 45 73 46 74 50 75 47 76
REMARK SMILES IDX 49 77 48 78
REMARK H PARENT 17 5 21 27 65 46 43 57
REMARK Flexibility Score: inf
ROOT
ATOM      1  C   UNL A   1      31.769  29.390  25.136  1.00  0.00     0.117 C 
ENDROOT
BRANCH   1   2
ATOM      2  N   UNL A   1      30.931  29.048  24.003  1.00  0.00    -0.356 N 
ATOM      3  C   UNL A   1      30.750  27.936  23.253  1.00  0.00     0.224 C 
ATOM      4  O   UNL A   1      29.965  28.075  22.304  1.00  0.00    -0.275 OA
ATOM      5  H   UNL A   1      30.362  29.798  23.712  1.00  0.00     0.163 HD
BRANCH   3   6
ATOM      6  C   UNL A   1      31.391  26.564  23.498  1.00  0.00     0.098 C 
ATOM      7  N   UNL A   1      31.028  24.568  24.992  1.00  0.00    -0.338 N 
ATOM      8  C   UNL A   1      31.054  23.648  23.875  1.00  0.00     0.120 C 
ATOM      9  C   UNL A   1      30.664  25.958  24.722  1.00  0.00     0.133 C 
ATOM     10  C   UNL A   1      31.941  24.183  22.773  1.00  0.00     0.022 C 
ATOM     11  C   UNL A   1      31.463  25.565  22.341  1.00  0.00     0.017 C 
BRANCH   7  12
ATOM     12  C   UNL A   1      31.672  24.190  26.157  1.00  0.00     0.253 C 
ATOM     13  O   UNL A   1      31.157  24.331  27.263  1.00  0.00    -0.269 OA
BRANCH  12  14
ATOM     14  C   UNL A   1      33.120  23.840  26.029  1.00  0.00     0.040 A 
ATOM     15  C   UNL A   1      35.844  23.233  25.500  1.00  0.00    -0.045 A 
ATOM     16  C   UNL A   1      35.359  24.551  25.416  1.00  0.00     0.005 A 
ATOM     17  C   UNL A   1      34.930  22.228  25.846  1.00  0.00     0.005 A 
ATOM     18  C   UNL A   1      34.022  24.854  25.693  1.00  0.00     0.014 A 
ATOM     19  C   UNL A   1      33.586  22.524  26.100  1.00  0.00     0.014 A 
BRANCH  15  20
ATOM     20  C   UNL A   1      37.301  22.935  25.161  1.00  0.00     0.013 C 
ATOM     21  C   UNL A   1      38.263  23.546  26.189  1.00  0.00     0.012 C 
ATOM     22  C   UNL A   1      37.637  21.444  25.009  1.00  0.00     0.012 C 
ENDBRANCH  15  20
ENDBRANCH  12  14
ENDBRANCH   7  12
ENDBRANCH   3   6
ENDBRANCH   1   2
BRANCH   1  23
ATOM     23  C   UNL A   1      33.209  28.917  24.944  1.00  0.00     0.042 C 
BRANCH  23  24
ATOM     24  C   UNL A   1      34.062  29.075  26.201  1.00  0.00     0.118 C 
BRANCH  24  25
ATOM     25  N   UNL A   1      33.870  30.377  26.830  1.00  0.00    -0.352 N 
ATOM     26  C   UNL A   1      34.553  30.983  27.851  1.00  0.00     0.251 C 
ATOM     27  H   UNL A   1      33.127  30.906  26.461  1.00  0.00     0.163 HD
ATOM     28  O   UNL A   1      34.066  31.973  28.398  1.00  0.00    -0.269 OA
BRANCH  26  29
ATOM     29  C   UNL A   1      35.863  30.471  28.301  1.00  0.00     0.039 A 
ATOM     30  C   UNL A   1      35.935  29.762  29.505  1.00  0.00     0.014 A 
ATOM     31  C   UNL A   1      37.027  30.736  27.576  1.00  0.00     0.014 A 
ATOM     32  C   UNL A   1      37.165  29.278  29.953  1.00  0.00     0.010 A 
ATOM     33  C   UNL A   1      38.238  30.187  27.982  1.00  0.00     0.010 A 
ATOM     34  C   UNL A   1      38.322  29.462  29.180  1.00  0.00    -0.014 A 
BRANCH  34  35
ATOM     35  C   UNL A   1      39.632  28.914  29.607  1.00  0.00     0.031 A 
ATOM     36  C   UNL A   1      40.509  29.697  30.544  1.00  0.00     0.074 A 
ATOM     37  C   UNL A   1      40.061  27.744  29.099  1.00  0.00     0.049 A 
ATOM     38  N   UNL A   1      41.713  29.416  30.978  1.00  0.00    -0.248 NA
ATOM     39  C   UNL A   1      39.976  30.977  31.036  1.00  0.00     0.031 C 
ATOM     40  C   UNL A   1      39.314  26.904  28.161  1.00  0.00     0.029 A 
ATOM     41  N   UNL A   1      41.233  27.062  29.300  1.00  0.00    -0.354 N 
ATOM     42  C   UNL A   1      42.085  30.491  31.775  1.00  0.00     0.074 A 
ATOM     43  C   UNL A   1      41.005  31.452  31.720  1.00  0.00     0.031 C 
ATOM     44  C   UNL A   1      40.031  25.799  27.897  1.00  0.00     0.029 A 
ATOM     45  C   UNL A   1      41.301  25.876  28.610  1.00  0.00     0.049 A 
ATOM     46  H   UNL A   1      41.956  27.389  29.881  1.00  0.00     0.167 HD
ATOM     47  C   UNL A   1      43.215  30.659  32.504  1.00  0.00     0.031 A 
ATOM     48  C   UNL A   1      42.279  24.953  28.558  1.00  0.00     0.031 A 
ATOM     49  C   UNL A   1      44.288  29.701  32.558  1.00  0.00     0.049 A 
ATOM     50  C   UNL A   1      43.538  25.172  29.347  1.00  0.00     0.074 A 
ATOM     51  C   UNL A   1      45.452  29.750  33.303  1.00  0.00     0.029 A 
ATOM     52  N   UNL A   1      44.326  28.520  31.832  1.00  0.00    -0.354 N 
ATOM     53  N   UNL A   1      43.853  26.169  30.140  1.00  0.00    -0.248 NA
ATOM     54  C   UNL A   1      44.573  24.135  29.237  1.00  0.00     0.031 C 
ATOM     55  C   UNL A   1      46.219  28.622  32.988  1.00  0.00     0.029 A 
ATOM     56  C   UNL A   1      45.506  27.844  32.090  1.00  0.00     0.049 A 
ATOM     57  H   UNL A   1      43.618  28.208  31.223  1.00  0.00     0.167 HD
ATOM     58  C   UNL A   1      45.110  25.865  30.646  1.00  0.00     0.074 A 
ATOM     59  C   UNL A   1      45.493  24.589  30.079  1.00  0.00     0.031 C 
ATOM     60  C   UNL A   1      45.875  26.578  31.508  1.00  0.00     0.031 A 
BRANCH  47  61
ATOM     61  C   UNL A   1      43.343  31.938  33.284  1.00  0.00    -0.014 A 
ATOM     62  C   UNL A   1      43.948  33.077  32.724  1.00  0.00     0.009 A 
ATOM     63  C   UNL A   1      42.858  32.008  34.600  1.00  0.00     0.009 A 
ATOM     64  C   UNL A   1      44.114  34.237  33.483  1.00  0.00     0.001 A 
ATOM     65  C   UNL A   1      42.998  33.181  35.345  1.00  0.00     0.001 A 
ATOM     66  C   UNL A   1      43.637  34.289  34.792  1.00  0.00     0.000 A 
ENDBRANCH  47  61
BRANCH  48  67
ATOM     67  C   UNL A   1      42.086  23.717  27.757  1.00  0.00    -0.014 A 
ATOM     68  C   UNL A   1      41.464  22.598  28.331  1.00  0.00     0.009 A 
ATOM     69  C   UNL A   1      42.497  23.655  26.417  1.00  0.00     0.009 A 
ATOM     70  C   UNL A   1      41.272  21.435  27.583  1.00  0.00     0.001 A 
ATOM     71  C   UNL A   1      42.280  22.499  25.664  1.00  0.00     0.001 A 
ATOM     72  C   UNL A   1      41.674  21.388  26.249  1.00  0.00     0.000 A 
ENDBRANCH  48  67
BRANCH  60  73
ATOM     73  C   UNL A   1      47.192  25.975  31.913  1.00  0.00    -0.014 A 
ATOM     74  C   UNL A   1      48.337  26.123  31.116  1.00  0.00     0.009 A 
ATOM     75  C   UNL A   1      47.291  25.280  33.128  1.00  0.00     0.009 A 
ATOM     76  C   UNL A   1      49.549  25.557  31.514  1.00  0.00     0.001 A 
ATOM     77  C   UNL A   1      48.511  24.741  33.537  1.00  0.00     0.001 A 
ATOM     78  C   UNL A   1      49.636  24.872  32.725  1.00  0.00     0.000 A 
ENDBRANCH  60  73
ENDBRANCH  34  35
ENDBRANCH  26  29
ENDBRANCH  24  25
ENDBRANCH  23  24
ENDBRANCH   1  23
TORSDOF 13
ENDMDL
MODEL 3
REMARK VINA RESULT:     -11.1      1.237      6.080
REMARK SMILES CC(C)c1ccc(C(=O)N2CCC[C@@H](C(=O)NCCCNC(=O)c3ccc(-c4c5nc(c(-c6ccccc6)c6ccc([nH]6)c(-c6ccccc6)c6nc(c(-c7ccccc7)c7ccc4[nH]7)C=C6)C=C5)cc3)C2)cc1
REMARK SMILES IDX 18 1 17 2 15 3 16 4 14 6 10 7 11 8 72 9 12 10 13 11 8 12
REMARK SMILES IDX 9 13 7 14 4 15 5 16 74 17 6 18 73 19 2 20 1 21 3 22 19 23
REMARK SMILES IDX 20 24 21 25 22 26 23 28 24 29 25 30 71 31 26 32 70 33 27 34
REMARK SMILES IDX 28 35 29 36 64 37 30 38 69 39 63 40 65 41 31 42 68 43 62 44
REMARK SMILES IDX 61 45 32 47 54 48 39 49 53 50 40 51 43 52 52 53 66 54 41 55
REMARK SMILES IDX 42 56 51 58 67 59 44 60 33 61 34 62 38 63 35 64 37 65 36 66
REMARK SMILES IDX 55 67 56 68 60 69 57 70 59 71 58 72 45 73 46 74 50 75 47 76
REMARK SMILES IDX 49 77 48 78
REMARK H PARENT 17 5 21 27 65 46 43 57
REMARK Flexibility Score: inf
ROOT
ATOM      1  C   UNL A   1      36.170  20.238  24.994  1.00  0.00     0.117 C 
ENDROOT
BRANCH   1   2
ATOM      2  N   UNL A   1      36.389  21.525  25.627  1.00  0.00    -0.356 N 
ATOM      3  C   UNL A   1      35.763  22.725  25.584  1.00  0.00     0.224 C 
ATOM      4  O   UNL A   1      36.318  23.619  26.239  1.00  0.00    -0.275 OA
ATOM      5  H   UNL A   1      37.171  21.526  26.224  1.00  0.00     0.163 HD
BRANCH   3   6
ATOM      6  C   UNL A   1      34.458  23.042  24.842  1.00  0.00     0.098 C 
ATOM      7  N   UNL A   1      33.752  23.964  22.607  1.00  0.00    -0.338 N 
ATOM      8  C   UNL A   1      32.852  22.858  22.365  1.00  0.00     0.120 C 
ATOM      9  C   UNL A   1      34.867  23.747  23.527  1.00  0.00     0.133 C 
ATOM     10  C   UNL A   1      32.312  22.321  23.671  1.00  0.00     0.022 C 
ATOM     11  C   UNL A   1      33.463  21.908  24.583  1.00  0.00     0.017 C 
BRANCH   7  12
ATOM     12  C   UNL A   1      33.328  25.234  22.254  1.00  0.00     0.253 C 
ATOM     13  O   UNL A   1      33.403  25.649  21.100  1.00  0.00    -0.269 OA
BRANCH  12  14
ATOM     14  C   UNL A   1      33.013  26.164  23.380  1.00  0.00     0.040 A 
ATOM     15  C   UNL A   1      32.666  27.845  25.643  1.00  0.00    -0.045 A 
ATOM     16  C   UNL A   1      33.670  28.098  24.692  1.00  0.00     0.005 A 
ATOM     17  C   UNL A   1      31.847  26.726  25.437  1.00  0.00     0.005 A 
ATOM     18  C   UNL A   1      33.832  27.281  23.568  1.00  0.00     0.014 A 
ATOM     19  C   UNL A   1      32.021  25.892  24.327  1.00  0.00     0.014 A 
BRANCH  15  20
ATOM     20  C   UNL A   1      32.539  28.739  26.873  1.00  0.00     0.013 C 
ATOM     21  C   UNL A   1      32.264  30.200  26.491  1.00  0.00     0.012 C 
ATOM     22  C   UNL A   1      31.475  28.295  27.888  1.00  0.00     0.012 C 
ENDBRANCH  15  20
ENDBRANCH  12  14
ENDBRANCH   7  12
ENDBRANCH   3   6
ENDBRANCH   1   2
BRANCH   1  23
ATOM     23  C   UNL A   1      37.450  19.408  24.932  1.00  0.00     0.042 C 
BRANCH  23  24
ATOM     24  C   UNL A   1      38.688  20.183  25.377  1.00  0.00     0.118 C 
BRANCH  24  25
ATOM     25  N   UNL A   1      39.815  19.298  25.654  1.00  0.00    -0.352 N 
ATOM     26  C   UNL A   1      41.091  19.580  26.062  1.00  0.00     0.251 C 
ATOM     27  H   UNL A   1      39.626  18.341  25.526  1.00  0.00     0.163 HD
ATOM     28  O   UNL A   1      41.955  18.705  25.989  1.00  0.00    -0.269 OA
BRANCH  26  29
ATOM     29  C   UNL A   1      41.445  20.913  26.590  1.00  0.00     0.039 A 
ATOM     30  C   UNL A   1      41.985  21.865  25.719  1.00  0.00     0.014 A 
ATOM     31  C   UNL A   1      41.304  21.209  27.948  1.00  0.00     0.014 A 
ATOM     32  C   UNL A   1      42.335  23.127  26.200  1.00  0.00     0.010 A 
ATOM     33  C   UNL A   1      41.578  22.492  28.411  1.00  0.00     0.010 A 
ATOM     34  C   UNL A   1      42.107  23.460  27.544  1.00  0.00    -0.014 A 
BRANCH  34  35
ATOM     35  C   UNL A   1      42.422  24.810  28.070  1.00  0.00     0.031 A 
ATOM     36  C   UNL A   1      43.827  25.150  28.487  1.00  0.00     0.074 A 
ATOM     37  C   UNL A   1      41.433  25.707  28.236  1.00  0.00     0.049 A 
ATOM     38  N   UNL A   1      44.284  26.251  29.029  1.00  0.00    -0.248 NA
ATOM     39  C   UNL A   1      44.846  24.107  28.293  1.00  0.00     0.031 C 
ATOM     40  C   UNL A   1      40.026  25.487  27.895  1.00  0.00     0.029 A 
ATOM     41  N   UNL A   1      41.461  26.983  28.736  1.00  0.00    -0.354 N 
ATOM     42  C   UNL A   1      45.635  26.023  29.259  1.00  0.00     0.074 A 
ATOM     43  C   UNL A   1      45.910  24.664  28.848  1.00  0.00     0.031 C 
ATOM     44  C   UNL A   1      39.331  26.606  28.162  1.00  0.00     0.029 A 
ATOM     45  C   UNL A   1      40.234  27.601  28.730  1.00  0.00     0.049 A 
ATOM     46  H   UNL A   1      42.280  27.415  29.068  1.00  0.00     0.167 HD
ATOM     47  C   UNL A   1      46.569  26.873  29.749  1.00  0.00     0.031 A 
ATOM     48  C   UNL A   1      39.877  28.832  29.139  1.00  0.00     0.031 A 
ATOM     49  C   UNL A   1      46.294  28.226  30.156  1.00  0.00     0.049 A 
ATOM     50  C   UNL A   1      40.921  29.748  29.710  1.00  0.00     0.074 A 
ATOM     51  C   UNL A   1      47.176  29.186  30.619  1.00  0.00     0.029 A 
ATOM     52  N   UNL A   1      45.035  28.809  30.150  1.00  0.00    -0.354 N 
ATOM     53  N   UNL A   1      42.206  29.538  29.871  1.00  0.00    -0.248 NA
ATOM     54  C   UNL A   1      40.464  31.073  30.152  1.00  0.00     0.031 C 
ATOM     55  C   UNL A   1      46.442  30.333  30.941  1.00  0.00     0.029 A 
ATOM     56  C   UNL A   1      45.112  30.106  30.627  1.00  0.00     0.049 A 
ATOM     57  H   UNL A   1      44.209  28.365  29.852  1.00  0.00     0.167 HD
ATOM     58  C   UNL A   1      42.717  30.714  30.405  1.00  0.00     0.074 A 
ATOM     59  C   UNL A   1      41.605  31.634  30.530  1.00  0.00     0.031 C 
ATOM     60  C   UNL A   1      43.993  31.006  30.754  1.00  0.00     0.031 A 
BRANCH  47  61
ATOM     61  C   UNL A   1      47.971  26.345  29.884  1.00  0.00    -0.014 A 
ATOM     62  C   UNL A   1      48.421  25.769  31.085  1.00  0.00     0.009 A 
ATOM     63  C   UNL A   1      48.859  26.429  28.800  1.00  0.00     0.009 A 
ATOM     64  C   UNL A   1      49.744  25.341  31.213  1.00  0.00     0.001 A 
ATOM     65  C   UNL A   1      50.172  25.970  28.921  1.00  0.00     0.001 A 
ATOM     66  C   UNL A   1      50.618  25.439  30.131  1.00  0.00     0.000 A 
ENDBRANCH  47  61
BRANCH  48  67
ATOM     67  C   UNL A   1      38.469  29.281  28.985  1.00  0.00    -0.014 A 
ATOM     68  C   UNL A   1      37.591  29.227  30.078  1.00  0.00     0.009 A 
ATOM     69  C   UNL A   1      38.003  29.784  27.761  1.00  0.00     0.009 A 
ATOM     70  C   UNL A   1      36.268  29.654  29.943  1.00  0.00     0.001 A 
ATOM     71  C   UNL A   1      36.687  30.234  27.637  1.00  0.00     0.001 A 
ATOM     72  C   UNL A   1      35.819  30.163  28.726  1.00  0.00     0.000 A 
ENDBRANCH  48  67
BRANCH  60  73
ATOM     73  C   UNL A   1      44.259  32.390  31.276  1.00  0.00    -0.014 A 
ATOM     74  C   UNL A   1      44.612  33.439  30.415  1.00  0.00     0.009 A 
ATOM     75  C   UNL A   1      44.119  32.651  32.648  1.00  0.00     0.009 A 
ATOM     76  C   UNL A   1      44.852  34.717  30.923  1.00  0.00     0.001 A 
ATOM     77  C   UNL A   1      44.330  33.936  33.149  1.00  0.00     0.001 A 
ATOM     78  C   UNL A   1      44.706  34.965  32.287  1.00  0.00     0.000 A 
ENDBRANCH  60  73
ENDBRANCH  34  35
ENDBRANCH  26  29
ENDBRANCH  24  25
ENDBRANCH  23  24
ENDBRANCH   1  23
TORSDOF 13
ENDMDL
