MODEL 1
REMARK VINA RESULT:     -11.4      0.000      0.000
REMARK SMILES Cc1cc(N2CCOC[C@H]2C(=O)NCCCNC(=O)c2ccc(-c3c4nc(c(-c5ccccc5)c5ccc([nH]5)c(-c5ccccc5)c5nc(c(-c6ccccc6)c6ccc3[nH]6)C=C5)C=C4)cc2)ncc1[N+](=O)[O-]
REMARK SMILES IDX 15 1 14 2 13 3 11 4 12 5 10 7 5 8 6 9 7 10 9 11 8 12 4 13
REMARK SMILES IDX 1 14 2 15 3 16 70 17 69 18 68 19 71 20 72 21 73 22 16 23
REMARK SMILES IDX 17 24 18 25 19 27 20 28 21 29 67 30 22 31 66 32 23 33 24 34
REMARK SMILES IDX 25 35 60 36 26 37 65 38 59 39 61 40 27 41 64 42 58 43 57 44
REMARK SMILES IDX 28 46 50 47 35 48 49 49 36 50 39 51 48 52 62 53 37 54 38 55
REMARK SMILES IDX 47 57 63 58 40 59 29 60 30 61 34 62 31 63 33 64 32 65 51 66
REMARK SMILES IDX 52 67 56 68 53 69 55 70 54 71 41 72 42 73 46 74 43 75 45 76
REMARK SMILES IDX 44 77
REMARK H PARENT 13 6 17 26 61 45 39 56
REMARK Flexibility Score: inf
ROOT
ATOM      1  C   UNL A   1      37.947  20.117  24.910  1.00  0.00     0.042 C 
ENDROOT
BRANCH   1   2
ATOM      2  C   UNL A   1      37.405  21.435  24.380  1.00  0.00     0.117 C 
BRANCH   2   3
ATOM      3  N   UNL A   1      36.602  22.132  25.361  1.00  0.00    -0.354 N 
ATOM      4  C   UNL A   1      35.259  22.308  25.462  1.00  0.00     0.245 C 
ATOM      5  O   UNL A   1      34.885  22.970  26.442  1.00  0.00    -0.273 OA
ATOM      6  H   UNL A   1      37.122  22.553  26.083  1.00  0.00     0.163 HD
BRANCH   4   7
ATOM      7  C   UNL A   1      34.211  21.775  24.459  1.00  0.00     0.199 C 
ATOM      8  N   UNL A   1      33.105  21.032  25.105  1.00  0.00    -0.340 N 
ATOM      9  C   UNL A   1      31.814  21.703  25.266  1.00  0.00     0.147 C 
ATOM     10  C   UNL A   1      31.462  22.590  24.071  1.00  0.00     0.181 C 
ATOM     11  C   UNL A   1      33.723  22.778  23.397  1.00  0.00     0.195 C 
ATOM     12  O   UNL A   1      32.524  23.487  23.728  1.00  0.00    -0.377 OA
BRANCH   8  13
ATOM     13  C   UNL A   1      33.135  19.649  25.114  1.00  0.00     0.130 A 
ATOM     14  C   UNL A   1      34.268  16.863  22.812  1.00  0.00     0.052 C 
ATOM     15  C   UNL A   1      33.665  17.507  24.029  1.00  0.00     0.032 A 
ATOM     16  C   UNL A   1      33.626  18.920  24.028  1.00  0.00     0.057 A 
ATOM     17  C   UNL A   1      33.143  16.862  25.155  1.00  0.00     0.290 A 
ATOM     18  C   UNL A   1      32.682  17.647  26.206  1.00  0.00     0.199 A 
ATOM     19  N   UNL A   1      32.683  19.004  26.206  1.00  0.00    -0.232 NA
BRANCH  17  20
ATOM     20  N   UNL A   1      33.031  15.414  25.313  1.00  0.00     0.064 N 
ATOM     21  O   UNL A   1      34.081  14.754  25.276  1.00  0.00    -0.258 OA
ATOM     22  O   UNL A   1      31.914  14.921  25.509  1.00  0.00    -0.258 OA
ENDBRANCH  17  20
ENDBRANCH   8  13
ENDBRANCH   4   7
ENDBRANCH   2   3
ENDBRANCH   1   2
BRANCH   1  23
ATOM     23  C   UNL A   1      38.945  20.292  26.041  1.00  0.00     0.118 C 
BRANCH  23  24
ATOM     24  N   UNL A   1      40.033  19.322  25.974  1.00  0.00    -0.352 N 
ATOM     25  C   UNL A   1      41.391  19.498  26.083  1.00  0.00     0.251 C 
ATOM     26  H   UNL A   1      39.748  18.391  25.826  1.00  0.00     0.163 HD
ATOM     27  O   UNL A   1      42.150  18.581  25.789  1.00  0.00    -0.269 OA
BRANCH  25  28
ATOM     28  C   UNL A   1      41.939  20.794  26.538  1.00  0.00     0.039 A 
ATOM     29  C   UNL A   1      42.332  21.739  25.585  1.00  0.00     0.014 A 
ATOM     30  C   UNL A   1      42.079  21.072  27.898  1.00  0.00     0.014 A 
ATOM     31  C   UNL A   1      42.795  22.989  26.001  1.00  0.00     0.010 A 
ATOM     32  C   UNL A   1      42.436  22.350  28.308  1.00  0.00     0.010 A 
ATOM     33  C   UNL A   1      42.812  23.318  27.365  1.00  0.00    -0.014 A 
BRANCH  33  34
ATOM     34  C   UNL A   1      43.244  24.653  27.847  1.00  0.00     0.031 A 
ATOM     35  C   UNL A   1      42.213  25.707  28.143  1.00  0.00     0.074 A 
ATOM     36  C   UNL A   1      44.557  24.941  27.939  1.00  0.00     0.049 A 
ATOM     37  N   UNL A   1      42.383  26.967  28.457  1.00  0.00    -0.248 NA
ATOM     38  C   UNL A   1      40.800  25.300  28.044  1.00  0.00     0.031 C 
ATOM     39  C   UNL A   1      45.655  24.015  27.653  1.00  0.00     0.029 A 
ATOM     40  N   UNL A   1      45.192  26.106  28.290  1.00  0.00    -0.354 N 
ATOM     41  C   UNL A   1      41.105  27.501  28.567  1.00  0.00     0.074 A 
ATOM     42  C   UNL A   1      40.172  26.451  28.229  1.00  0.00     0.031 C 
ATOM     43  C   UNL A   1      46.825  24.637  27.869  1.00  0.00     0.029 A 
ATOM     44  C   UNL A   1      46.562  26.019  28.254  1.00  0.00     0.049 A 
ATOM     45  H   UNL A   1      44.710  26.927  28.543  1.00  0.00     0.167 HD
ATOM     46  C   UNL A   1      40.740  28.750  28.941  1.00  0.00     0.031 A 
ATOM     47  C   UNL A   1      47.502  26.954  28.493  1.00  0.00     0.031 A 
ATOM     48  C   UNL A   1      41.670  29.789  29.289  1.00  0.00     0.049 A 
ATOM     49  C   UNL A   1      47.070  28.346  28.868  1.00  0.00     0.074 A 
ATOM     50  C   UNL A   1      41.403  31.074  29.723  1.00  0.00     0.029 A 
ATOM     51  N   UNL A   1      43.049  29.657  29.242  1.00  0.00    -0.354 N 
ATOM     52  N   UNL A   1      45.858  28.821  29.021  1.00  0.00    -0.248 NA
ATOM     53  C   UNL A   1      48.137  29.328  29.111  1.00  0.00     0.031 C 
ATOM     54  C   UNL A   1      42.621  31.739  29.887  1.00  0.00     0.029 A 
ATOM     55  C   UNL A   1      43.648  30.847  29.619  1.00  0.00     0.049 A 
ATOM     56  H   UNL A   1      43.531  28.840  28.980  1.00  0.00     0.167 HD
ATOM     57  C   UNL A   1      46.017  30.144  29.416  1.00  0.00     0.074 A 
ATOM     58  C   UNL A   1      47.442  30.392  29.485  1.00  0.00     0.031 C 
ATOM     59  C   UNL A   1      45.067  31.069  29.697  1.00  0.00     0.031 A 
BRANCH  46  60
ATOM     60  C   UNL A   1      39.268  29.057  28.988  1.00  0.00    -0.014 A 
ATOM     61  C   UNL A   1      38.592  29.556  27.862  1.00  0.00     0.009 A 
ATOM     62  C   UNL A   1      38.540  28.814  30.163  1.00  0.00     0.009 A 
ATOM     63  C   UNL A   1      37.227  29.843  27.924  1.00  0.00     0.001 A 
ATOM     64  C   UNL A   1      37.168  29.071  30.212  1.00  0.00     0.001 A 
ATOM     65  C   UNL A   1      36.515  29.595  29.097  1.00  0.00     0.000 A 
ENDBRANCH  46  60
BRANCH  47  66
ATOM     66  C   UNL A   1      48.945  26.609  28.395  1.00  0.00    -0.014 A 
ATOM     67  C   UNL A   1      49.654  26.189  29.532  1.00  0.00     0.009 A 
ATOM     68  C   UNL A   1      49.627  26.709  27.172  1.00  0.00     0.009 A 
ATOM     69  C   UNL A   1      51.021  25.910  29.453  1.00  0.00     0.001 A 
ATOM     70  C   UNL A   1      50.986  26.397  27.089  1.00  0.00     0.001 A 
ATOM     71  C   UNL A   1      51.685  26.010  28.232  1.00  0.00     0.000 A 
ENDBRANCH  47  66
BRANCH  59  72
ATOM     72  C   UNL A   1      45.532  32.420  30.164  1.00  0.00    -0.014 A 
ATOM     73  C   UNL A   1      45.792  32.678  31.518  1.00  0.00     0.009 A 
ATOM     74  C   UNL A   1      45.779  33.427  29.218  1.00  0.00     0.009 A 
ATOM     75  C   UNL A   1      46.269  33.928  31.916  1.00  0.00     0.001 A 
ATOM     76  C   UNL A   1      46.286  34.664  29.615  1.00  0.00     0.001 A 
ATOM     77  C   UNL A   1      46.524  34.916  30.966  1.00  0.00     0.000 A 
ENDBRANCH  59  72
ENDBRANCH  33  34
ENDBRANCH  25  28
ENDBRANCH  23  24
ENDBRANCH   1  23
TORSDOF 12
ENDMDL
MODEL 2
REMARK VINA RESULT:     -11.4      0.850      6.063
REMARK SMILES Cc1cc(N2CCOC[C@H]2C(=O)NCCCNC(=O)c2ccc(-c3c4nc(c(-c5ccccc5)c5ccc([nH]5)c(-c5ccccc5)c5nc(c(-c6ccccc6)c6ccc3[nH]6)C=C5)C=C4)cc2)ncc1[N+](=O)[O-]
REMARK SMILES IDX 15 1 14 2 13 3 11 4 12 5 10 7 5 8 6 9 7 10 9 11 8 12 4 13
REMARK SMILES IDX 1 14 2 15 3 16 70 17 69 18 68 19 71 20 72 21 73 22 16 23
REMARK SMILES IDX 17 24 18 25 19 27 20 28 21 29 67 30 22 31 66 32 23 33 24 34
REMARK SMILES IDX 25 35 60 36 26 37 65 38 59 39 61 40 27 41 64 42 58 43 57 44
REMARK SMILES IDX 28 46 50 47 35 48 49 49 36 50 39 51 48 52 62 53 37 54 38 55
REMARK SMILES IDX 47 57 63 58 40 59 29 60 30 61 34 62 31 63 33 64 32 65 51 66
REMARK SMILES IDX 52 67 56 68 53 69 55 70 54 71 41 72 42 73 46 74 43 75 45 76
REMARK SMILES IDX 44 77
REMARK H PARENT 13 6 17 26 61 45 39 56
REMARK Flexibility Score: inf
ROOT
ATOM      1  C   UNL A   1      38.088  19.648  25.016  1.00  0.00     0.042 C 
ENDROOT
BRANCH   1   2
ATOM      2  C   UNL A   1      37.419  20.831  24.334  1.00  0.00     0.117 C 
BRANCH   2   3
ATOM      3  N   UNL A   1      36.758  21.706  25.276  1.00  0.00    -0.354 N 
ATOM      4  C   UNL A   1      35.456  22.067  25.406  1.00  0.00     0.245 C 
ATOM      5  O   UNL A   1      35.213  22.850  26.337  1.00  0.00    -0.273 OA
ATOM      6  H   UNL A   1      37.359  22.110  25.942  1.00  0.00     0.163 HD
BRANCH   4   7
ATOM      7  C   UNL A   1      34.304  21.600  24.486  1.00  0.00     0.199 C 
ATOM      8  N   UNL A   1      33.225  20.891  25.212  1.00  0.00    -0.340 N 
ATOM      9  C   UNL A   1      31.983  21.612  25.494  1.00  0.00     0.147 C 
ATOM     10  C   UNL A   1      31.571  22.538  24.349  1.00  0.00     0.181 C 
ATOM     11  C   UNL A   1      33.773  22.645  23.488  1.00  0.00     0.195 C 
ATOM     12  O   UNL A   1      32.637  23.397  23.932  1.00  0.00    -0.377 OA
BRANCH   8  13
ATOM     13  C   UNL A   1      33.195  19.508  25.194  1.00  0.00     0.130 A 
ATOM     14  C   UNL A   1      34.305  16.718  22.885  1.00  0.00     0.052 C 
ATOM     15  C   UNL A   1      33.678  17.366  24.089  1.00  0.00     0.032 A 
ATOM     16  C   UNL A   1      33.701  18.779  24.115  1.00  0.00     0.057 A 
ATOM     17  C   UNL A   1      33.082  16.723  25.179  1.00  0.00     0.290 A 
ATOM     18  C   UNL A   1      32.611  17.508  26.225  1.00  0.00     0.199 A 
ATOM     19  N   UNL A   1      32.670  18.863  26.253  1.00  0.00    -0.232 NA
BRANCH  17  20
ATOM     20  N   UNL A   1      32.902  15.278  25.302  1.00  0.00     0.064 N 
ATOM     21  O   UNL A   1      33.924  14.578  25.350  1.00  0.00    -0.258 OA
ATOM     22  O   UNL A   1      31.754  14.827  25.389  1.00  0.00    -0.258 OA
ENDBRANCH  17  20
ENDBRANCH   8  13
ENDBRANCH   4   7
ENDBRANCH   2   3
ENDBRANCH   1   2
BRANCH   1  23
ATOM     23  C   UNL A   1      39.131  20.060  26.041  1.00  0.00     0.118 C 
BRANCH  23  24
ATOM     24  N   UNL A   1      40.327  19.225  25.979  1.00  0.00    -0.352 N 
ATOM     25  C   UNL A   1      41.653  19.558  26.114  1.00  0.00     0.251 C 
ATOM     26  H   UNL A   1      40.155  18.270  25.815  1.00  0.00     0.163 HD
ATOM     27  O   UNL A   1      42.518  18.741  25.822  1.00  0.00    -0.269 OA
BRANCH  25  28
ATOM     28  C   UNL A   1      42.038  20.902  26.595  1.00  0.00     0.039 A 
ATOM     29  C   UNL A   1      42.416  21.875  25.665  1.00  0.00     0.014 A 
ATOM     30  C   UNL A   1      42.039  21.200  27.958  1.00  0.00     0.014 A 
ATOM     31  C   UNL A   1      42.724  23.166  26.101  1.00  0.00     0.010 A 
ATOM     32  C   UNL A   1      42.239  22.508  28.379  1.00  0.00     0.010 A 
ATOM     33  C   UNL A   1      42.598  23.503  27.457  1.00  0.00    -0.014 A 
BRANCH  33  34
ATOM     34  C   UNL A   1      42.862  24.874  27.955  1.00  0.00     0.031 A 
ATOM     35  C   UNL A   1      44.258  25.263  28.360  1.00  0.00     0.074 A 
ATOM     36  C   UNL A   1      41.841  25.738  28.120  1.00  0.00     0.049 A 
ATOM     37  N   UNL A   1      44.678  26.365  28.929  1.00  0.00    -0.248 NA
ATOM     38  C   UNL A   1      45.320  24.270  28.121  1.00  0.00     0.031 C 
ATOM     39  C   UNL A   1      40.439  25.471  27.792  1.00  0.00     0.029 A 
ATOM     40  N   UNL A   1      41.826  27.016  28.618  1.00  0.00    -0.354 N 
ATOM     41  C   UNL A   1      46.040  26.184  29.136  1.00  0.00     0.074 A 
ATOM     42  C   UNL A   1      46.367  24.849  28.689  1.00  0.00     0.031 C 
ATOM     43  C   UNL A   1      39.706  26.562  28.069  1.00  0.00     0.029 A 
ATOM     44  C   UNL A   1      40.575  27.583  28.644  1.00  0.00     0.049 A 
ATOM     45  H   UNL A   1      42.636  27.483  28.928  1.00  0.00     0.167 HD
ATOM     46  C   UNL A   1      46.945  27.061  29.631  1.00  0.00     0.031 A 
ATOM     47  C   UNL A   1      40.171  28.786  29.093  1.00  0.00     0.031 A 
ATOM     48  C   UNL A   1      46.620  28.393  30.062  1.00  0.00     0.049 A 
ATOM     49  C   UNL A   1      41.190  29.728  29.676  1.00  0.00     0.074 A 
ATOM     50  C   UNL A   1      47.469  29.375  30.538  1.00  0.00     0.029 A 
ATOM     51  N   UNL A   1      45.341  28.927  30.068  1.00  0.00    -0.354 N 
ATOM     52  N   UNL A   1      42.483  29.564  29.814  1.00  0.00    -0.248 NA
ATOM     53  C   UNL A   1      40.694  31.026  30.158  1.00  0.00     0.031 C 
ATOM     54  C   UNL A   1      46.695  30.487  30.883  1.00  0.00     0.029 A 
ATOM     55  C   UNL A   1      45.374  30.220  30.561  1.00  0.00     0.049 A 
ATOM     56  H   UNL A   1      44.530  28.457  29.767  1.00  0.00     0.167 HD
ATOM     57  C   UNL A   1      42.960  30.748  30.361  1.00  0.00     0.074 A 
ATOM     58  C   UNL A   1      41.819  31.625  30.522  1.00  0.00     0.031 C 
ATOM     59  C   UNL A   1      44.230  31.081  30.697  1.00  0.00     0.031 A 
BRANCH  46  60
ATOM     60  C   UNL A   1      48.374  26.600  29.733  1.00  0.00    -0.014 A 
ATOM     61  C   UNL A   1      49.303  26.880  28.718  1.00  0.00     0.009 A 
ATOM     62  C   UNL A   1      48.805  25.906  30.874  1.00  0.00     0.009 A 
ATOM     63  C   UNL A   1      50.625  26.439  28.825  1.00  0.00     0.001 A 
ATOM     64  C   UNL A   1      50.135  25.495  30.994  1.00  0.00     0.001 A 
ATOM     65  C   UNL A   1      51.039  25.753  29.964  1.00  0.00     0.000 A 
ENDBRANCH  46  60
BRANCH  47  66
ATOM     66  C   UNL A   1      38.740  29.179  29.004  1.00  0.00    -0.014 A 
ATOM     67  C   UNL A   1      38.235  29.763  27.832  1.00  0.00     0.009 A 
ATOM     68  C   UNL A   1      37.872  28.987  30.092  1.00  0.00     0.009 A 
ATOM     69  C   UNL A   1      36.901  30.176  27.763  1.00  0.00     0.001 A 
ATOM     70  C   UNL A   1      36.532  29.371  30.008  1.00  0.00     0.001 A 
ATOM     71  C   UNL A   1      36.051  29.976  28.848  1.00  0.00     0.000 A 
ENDBRANCH  47  66
BRANCH  59  72
ATOM     72  C   UNL A   1      44.468  32.471  31.218  1.00  0.00    -0.014 A 
ATOM     73  C   UNL A   1      44.717  33.546  30.353  1.00  0.00     0.009 A 
ATOM     74  C   UNL A   1      44.369  32.714  32.598  1.00  0.00     0.009 A 
ATOM     75  C   UNL A   1      44.887  34.834  30.862  1.00  0.00     0.001 A 
ATOM     76  C   UNL A   1      44.507  34.008  33.101  1.00  0.00     0.001 A 
ATOM     77  C   UNL A   1      44.773  35.066  32.233  1.00  0.00     0.000 A 
ENDBRANCH  59  72
ENDBRANCH  33  34
ENDBRANCH  25  28
ENDBRANCH  23  24
ENDBRANCH   1  23
TORSDOF 12
ENDMDL
MODEL 3
REMARK VINA RESULT:     -11.3      2.772      7.194
REMARK SMILES Cc1cc(N2CCOC[C@H]2C(=O)NCCCNC(=O)c2ccc(-c3c4nc(c(-c5ccccc5)c5ccc([nH]5)c(-c5ccccc5)c5nc(c(-c6ccccc6)c6ccc3[nH]6)C=C5)C=C4)cc2)ncc1[N+](=O)[O-]
REMARK SMILES IDX 15 1 14 2 13 3 11 4 12 5 10 7 5 8 6 9 7 10 9 11 8 12 4 13
REMARK SMILES IDX 1 14 2 15 3 16 70 17 69 18 68 19 71 20 72 21 73 22 16 23
REMARK SMILES IDX 17 24 18 25 19 27 20 28 21 29 67 30 22 31 66 32 23 33 24 34
REMARK SMILES IDX 25 35 60 36 26 37 65 38 59 39 61 40 27 41 64 42 58 43 57 44
REMARK SMILES IDX 28 46 50 47 35 48 49 49 36 50 39 51 48 52 62 53 37 54 38 55
REMARK SMILES IDX 47 57 63 58 40 59 29 60 30 61 34 62 31 63 33 64 32 65 51 66
REMARK SMILES IDX 52 67 56 68 53 69 55 70 54 71 41 72 42 73 46 74 43 75 45 76
REMARK SMILES IDX 44 77
REMARK H PARENT 13 6 17 26 61 45 39 56
REMARK Flexibility Score: inf
ROOT
ATOM      1  C   UNL A   1      35.949  23.606  26.084  1.00  0.00     0.042 C 
ENDROOT
BRANCH   1   2
ATOM      2  C   UNL A   1      34.688  24.263  25.547  1.00  0.00     0.117 C 
BRANCH   2   3
ATOM      3  N   UNL A   1      34.612  24.208  24.104  1.00  0.00    -0.354 N 
ATOM      4  C   UNL A   1      33.729  23.595  23.274  1.00  0.00     0.245 C 
ATOM      5  O   UNL A   1      33.950  23.746  22.062  1.00  0.00    -0.273 OA
ATOM      6  H   UNL A   1      35.325  24.704  23.643  1.00  0.00     0.163 HD
BRANCH   4   7
ATOM      7  C   UNL A   1      32.528  22.734  23.726  1.00  0.00     0.199 C 
ATOM      8  N   UNL A   1      32.832  21.861  24.883  1.00  0.00    -0.340 N 
ATOM      9  C   UNL A   1      32.350  22.262  26.205  1.00  0.00     0.147 C 
ATOM     10  C   UNL A   1      30.961  22.901  26.153  1.00  0.00     0.181 C 
ATOM     11  C   UNL A   1      31.185  23.474  23.867  1.00  0.00     0.195 C 
ATOM     12  O   UNL A   1      30.882  23.951  25.184  1.00  0.00    -0.377 OA
BRANCH   8  13
ATOM     13  C   UNL A   1      33.126  20.528  24.663  1.00  0.00     0.130 A 
ATOM     14  C   UNL A   1      36.160  18.267  24.837  1.00  0.00     0.052 C 
ATOM     15  C   UNL A   1      34.731  18.667  24.591  1.00  0.00     0.032 A 
ATOM     16  C   UNL A   1      34.423  20.029  24.809  1.00  0.00     0.057 A 
ATOM     17  C   UNL A   1      33.683  17.841  24.173  1.00  0.00     0.290 A 
ATOM     18  C   UNL A   1      32.414  18.397  24.060  1.00  0.00     0.199 A 
ATOM     19  N   UNL A   1      32.125  19.700  24.307  1.00  0.00    -0.232 NA
BRANCH  17  20
ATOM     20  N   UNL A   1      33.818  16.426  23.831  1.00  0.00     0.064 N 
ATOM     21  O   UNL A   1      33.494  15.598  24.695  1.00  0.00    -0.258 OA
ATOM     22  O   UNL A   1      34.210  16.123  22.698  1.00  0.00    -0.258 OA
ENDBRANCH  17  20
ENDBRANCH   8  13
ENDBRANCH   4   7
ENDBRANCH   2   3
ENDBRANCH   1   2
BRANCH   1  23
ATOM     23  C   UNL A   1      37.090  23.591  25.080  1.00  0.00     0.118 C 
BRANCH  23  24
ATOM     24  N   UNL A   1      38.164  22.687  25.477  1.00  0.00    -0.352 N 
ATOM     25  C   UNL A   1      39.336  22.937  26.148  1.00  0.00     0.251 C 
ATOM     26  H   UNL A   1      38.027  21.746  25.222  1.00  0.00     0.163 HD
ATOM     27  O   UNL A   1      40.204  22.073  26.201  1.00  0.00    -0.269 OA
BRANCH  25  28
ATOM     28  C   UNL A   1      39.559  24.249  26.793  1.00  0.00     0.039 A 
ATOM     29  C   UNL A   1      39.095  24.455  28.095  1.00  0.00     0.014 A 
ATOM     30  C   UNL A   1      40.212  25.277  26.113  1.00  0.00     0.014 A 
ATOM     31  C   UNL A   1      39.352  25.669  28.738  1.00  0.00     0.010 A 
ATOM     32  C   UNL A   1      40.561  26.440  26.787  1.00  0.00     0.010 A 
ATOM     33  C   UNL A   1      40.123  26.655  28.103  1.00  0.00    -0.014 A 
BRANCH  33  34
ATOM     34  C   UNL A   1      40.465  27.935  28.768  1.00  0.00     0.031 A 
ATOM     35  C   UNL A   1      41.812  28.097  29.420  1.00  0.00     0.074 A 
ATOM     36  C   UNL A   1      39.544  28.914  28.858  1.00  0.00     0.049 A 
ATOM     37  N   UNL A   1      42.262  29.084  30.154  1.00  0.00    -0.248 NA
ATOM     38  C   UNL A   1      42.769  26.990  29.252  1.00  0.00     0.031 C 
ATOM     39  C   UNL A   1      38.194  28.867  28.292  1.00  0.00     0.029 A 
ATOM     40  N   UNL A   1      39.602  30.139  29.472  1.00  0.00    -0.354 N 
ATOM     41  C   UNL A   1      43.539  28.703  30.549  1.00  0.00     0.074 A 
ATOM     42  C   UNL A   1      43.769  27.375  30.029  1.00  0.00     0.031 C 
ATOM     43  C   UNL A   1      37.564  30.022  28.559  1.00  0.00     0.029 A 
ATOM     44  C   UNL A   1      38.442  30.867  29.360  1.00  0.00     0.049 A 
ATOM     45  H   UNL A   1      40.400  30.466  29.948  1.00  0.00     0.167 HD
ATOM     46  C   UNL A   1      44.448  29.408  31.262  1.00  0.00     0.031 A 
ATOM     47  C   UNL A   1      38.119  32.076  29.858  1.00  0.00     0.031 A 
ATOM     48  C   UNL A   1      44.221  30.734  31.768  1.00  0.00     0.049 A 
ATOM     49  C   UNL A   1      39.134  32.822  30.681  1.00  0.00     0.074 A 
ATOM     50  C   UNL A   1      45.092  31.552  32.464  1.00  0.00     0.029 A 
ATOM     51  N   UNL A   1      43.033  31.435  31.629  1.00  0.00    -0.354 N 
ATOM     52  N   UNL A   1      40.357  32.473  31.001  1.00  0.00    -0.248 NA
ATOM     53  C   UNL A   1      38.726  34.133  31.206  1.00  0.00     0.031 C 
ATOM     54  C   UNL A   1      44.413  32.728  32.794  1.00  0.00     0.029 A 
ATOM     55  C   UNL A   1      43.142  32.669  32.246  1.00  0.00     0.049 A 
ATOM     56  H   UNL A   1      42.232  31.105  31.161  1.00  0.00     0.167 HD
ATOM     57  C   UNL A   1      40.877  33.535  31.729  1.00  0.00     0.074 A 
ATOM     58  C   UNL A   1      39.840  34.544  31.797  1.00  0.00     0.031 C 
ATOM     59  C   UNL A   1      42.104  33.665  32.289  1.00  0.00     0.031 A 
BRANCH  46  60
ATOM     60  C   UNL A   1      45.774  28.751  31.538  1.00  0.00    -0.014 A 
ATOM     61  C   UNL A   1      46.841  28.854  30.631  1.00  0.00     0.009 A 
ATOM     62  C   UNL A   1      45.969  28.046  32.736  1.00  0.00     0.009 A 
ATOM     63  C   UNL A   1      48.062  28.232  30.898  1.00  0.00     0.001 A 
ATOM     64  C   UNL A   1      47.202  27.453  33.017  1.00  0.00     0.001 A 
ATOM     65  C   UNL A   1      48.243  27.537  32.093  1.00  0.00     0.000 A 
ENDBRANCH  46  60
BRANCH  47  66
ATOM     66  C   UNL A   1      36.781  32.665  29.588  1.00  0.00    -0.014 A 
ATOM     67  C   UNL A   1      36.534  33.347  28.386  1.00  0.00     0.009 A 
ATOM     68  C   UNL A   1      35.747  32.565  30.533  1.00  0.00     0.009 A 
ATOM     69  C   UNL A   1      35.292  33.942  28.151  1.00  0.00     0.001 A 
ATOM     70  C   UNL A   1      34.496  33.133  30.281  1.00  0.00     0.001 A 
ATOM     71  C   UNL A   1      34.274  33.832  29.095  1.00  0.00     0.000 A 
ENDBRANCH  47  66
BRANCH  59  72
ATOM     72  C   UNL A   1      42.419  34.964  32.975  1.00  0.00    -0.014 A 
ATOM     73  C   UNL A   1      42.035  35.205  34.302  1.00  0.00     0.009 A 
ATOM     74  C   UNL A   1      43.177  35.933  32.298  1.00  0.00     0.009 A 
ATOM     75  C   UNL A   1      42.384  36.402  34.930  1.00  0.00     0.001 A 
ATOM     76  C   UNL A   1      43.551  37.115  32.938  1.00  0.00     0.001 A 
ATOM     77  C   UNL A   1      43.148  37.351  34.251  1.00  0.00     0.000 A 
ENDBRANCH  59  72
ENDBRANCH  33  34
ENDBRANCH  25  28
ENDBRANCH  23  24
ENDBRANCH   1  23
TORSDOF 12
ENDMDL
