MODEL 1
REMARK VINA RESULT:     -11.0      0.000      0.000
REMARK SMILES O=C(NCCCNC(=O)c1ccc(C(F)(F)F)nc1NC[C@@H]1CCOC1)c1ccc(-c2c3nc(c(-c4ccccc4)c4ccc([nH]4)c(-c4ccccc4)c4nc(c(-c5ccccc5)c5ccc2[nH]5)C=C4)C=C3)cc1
REMARK SMILES IDX 5 1 4 2 3 3 1 4 2 5 27 7 28 8 74 9 29 10 73 11 30 12 31 13
REMARK SMILES IDX 32 14 67 15 33 16 72 17 66 18 68 19 34 20 71 21 65 22 64 23
REMARK SMILES IDX 35 25 57 26 42 27 56 28 43 29 46 30 55 31 69 32 44 33 45 34
REMARK SMILES IDX 54 36 70 37 47 38 36 39 37 40 41 41 38 42 40 43 39 44 58 45
REMARK SMILES IDX 59 46 63 47 60 48 62 49 61 50 48 51 49 52 53 53 50 54 52 55
REMARK SMILES IDX 51 56 6 57 7 58 8 59 9 61 10 62 11 63 19 64 12 65 18 66
REMARK SMILES IDX 13 67 20 68 21 70 22 71 23 72 26 73 24 74 25 75 14 76 15 77
REMARK SMILES IDX 16 78 17 79
REMARK H PARENT 3 6 68 24 46 35 7 60 20 69
REMARK Flexibility Score: inf
ROOT
ATOM      1  C   UNL A   1      38.126  19.635  24.909  1.00  0.00     0.042 C 
ENDROOT
BRANCH   1   2
ATOM      2  C   UNL A   1      39.133  19.998  25.991  1.00  0.00     0.118 C 
BRANCH   2   3
ATOM      3  N   UNL A   1      40.349  19.196  25.927  1.00  0.00    -0.352 N 
ATOM      4  O   UNL A   1      42.549  18.750  25.786  1.00  0.00    -0.269 OA
ATOM      5  C   UNL A   1      41.665  19.557  26.066  1.00  0.00     0.251 C 
ATOM      6  H   UNL A   1      40.201  18.238  25.753  1.00  0.00     0.163 HD
BRANCH   5   7
ATOM      7  C   UNL A   1      42.031  20.912  26.530  1.00  0.00     0.039 A 
ATOM      8  C   UNL A   1      42.129  21.200  27.892  1.00  0.00     0.014 A 
ATOM      9  C   UNL A   1      42.317  21.904  25.588  1.00  0.00     0.014 A 
ATOM     10  C   UNL A   1      42.342  22.507  28.310  1.00  0.00     0.010 A 
ATOM     11  C   UNL A   1      42.641  23.197  26.010  1.00  0.00     0.010 A 
ATOM     12  C   UNL A   1      42.625  23.516  27.376  1.00  0.00    -0.014 A 
BRANCH  12  13
ATOM     13  C   UNL A   1      42.973  24.874  27.866  1.00  0.00     0.031 A 
ATOM     14  C   UNL A   1      44.403  25.301  28.041  1.00  0.00     0.074 A 
ATOM     15  C   UNL A   1      41.973  25.739  28.128  1.00  0.00     0.049 A 
ATOM     16  N   UNL A   1      44.872  26.460  28.430  1.00  0.00    -0.248 NA
ATOM     17  C   UNL A   1      45.443  24.302  27.750  1.00  0.00     0.031 C 
ATOM     18  C   UNL A   1      40.544  25.437  28.003  1.00  0.00     0.029 A 
ATOM     19  N   UNL A   1      42.001  27.049  28.528  1.00  0.00    -0.354 N 
ATOM     20  C   UNL A   1      46.254  26.326  28.452  1.00  0.00     0.074 A 
ATOM     21  C   UNL A   1      46.550  24.965  28.060  1.00  0.00     0.031 C 
ATOM     22  C   UNL A   1      39.836  26.543  28.269  1.00  0.00     0.029 A 
ATOM     23  C   UNL A   1      40.752  27.609  28.651  1.00  0.00     0.049 A 
ATOM     24  H   UNL A   1      42.834  27.540  28.711  1.00  0.00     0.167 HD
ATOM     25  C   UNL A   1      47.190  27.255  28.768  1.00  0.00     0.031 A 
ATOM     26  C   UNL A   1      40.380  28.839  29.047  1.00  0.00     0.031 A 
ATOM     27  C   UNL A   1      46.890  28.608  29.158  1.00  0.00     0.049 A 
ATOM     28  C   UNL A   1      41.436  29.835  29.421  1.00  0.00     0.074 A 
ATOM     29  C   UNL A   1      47.772  29.633  29.461  1.00  0.00     0.029 A 
ATOM     30  N   UNL A   1      45.611  29.125  29.309  1.00  0.00    -0.354 N 
ATOM     31  N   UNL A   1      42.740  29.702  29.397  1.00  0.00    -0.248 NA
ATOM     32  C   UNL A   1      40.969  31.151  29.875  1.00  0.00     0.031 C 
ATOM     33  C   UNL A   1      47.027  30.750  29.852  1.00  0.00     0.029 A 
ATOM     34  C   UNL A   1      45.681  30.443  29.731  1.00  0.00     0.049 A 
ATOM     35  H   UNL A   1      44.778  28.628  29.141  1.00  0.00     0.167 HD
ATOM     36  C   UNL A   1      43.250  30.921  29.817  1.00  0.00     0.074 A 
ATOM     37  C   UNL A   1      42.115  31.788  30.066  1.00  0.00     0.031 C 
ATOM     38  C   UNL A   1      44.543  31.289  29.984  1.00  0.00     0.031 A 
BRANCH  25  39
ATOM     39  C   UNL A   1      48.633  26.831  28.737  1.00  0.00    -0.014 A 
ATOM     40  C   UNL A   1      49.273  26.321  29.877  1.00  0.00     0.009 A 
ATOM     41  C   UNL A   1      49.347  26.891  27.529  1.00  0.00     0.009 A 
ATOM     42  C   UNL A   1      50.608  25.910  29.815  1.00  0.00     0.001 A 
ATOM     43  C   UNL A   1      50.671  26.453  27.463  1.00  0.00     0.001 A 
ATOM     44  C   UNL A   1      51.304  25.971  28.608  1.00  0.00     0.000 A 
ENDBRANCH  25  39
BRANCH  26  45
ATOM     45  C   UNL A   1      38.936  29.181  29.126  1.00  0.00    -0.014 A 
ATOM     46  C   UNL A   1      38.221  29.006  30.321  1.00  0.00     0.009 A 
ATOM     47  C   UNL A   1      38.270  29.705  28.006  1.00  0.00     0.009 A 
ATOM     48  C   UNL A   1      36.865  29.330  30.384  1.00  0.00     0.001 A 
ATOM     49  C   UNL A   1      36.922  30.058  28.082  1.00  0.00     0.001 A 
ATOM     50  C   UNL A   1      36.218  29.862  29.269  1.00  0.00     0.000 A 
ENDBRANCH  26  45
BRANCH  38  51
ATOM     51  C   UNL A   1      44.798  32.701  30.434  1.00  0.00    -0.014 A 
ATOM     52  C   UNL A   1      44.920  33.022  31.795  1.00  0.00     0.009 A 
ATOM     53  C   UNL A   1      44.943  33.718  29.478  1.00  0.00     0.009 A 
ATOM     54  C   UNL A   1      45.145  34.342  32.190  1.00  0.00     0.001 A 
ATOM     55  C   UNL A   1      45.198  35.031  29.874  1.00  0.00     0.001 A 
ATOM     56  C   UNL A   1      45.288  35.344  31.230  1.00  0.00     0.000 A 
ENDBRANCH  38  51
ENDBRANCH  12  13
ENDBRANCH   5   7
ENDBRANCH   2   3
ENDBRANCH   1   2
BRANCH   1  57
ATOM     57  C   UNL A   1      37.043  20.684  24.696  1.00  0.00     0.118 C 
BRANCH  57  58
ATOM     58  N   UNL A   1      36.062  20.692  25.771  1.00  0.00    -0.352 N 
ATOM     59  C   UNL A   1      34.963  21.493  25.955  1.00  0.00     0.255 C 
ATOM     60  H   UNL A   1      36.211  20.021  26.476  1.00  0.00     0.163 HD
ATOM     61  O   UNL A   1      34.404  21.508  27.050  1.00  0.00    -0.269 OA
BRANCH  59  62
ATOM     62  C   UNL A   1      34.454  22.341  24.859  1.00  0.00     0.082 A 
ATOM     63  C   UNL A   1      35.161  23.488  24.488  1.00  0.00     0.020 A 
ATOM     64  C   UNL A   1      33.307  21.970  24.144  1.00  0.00     0.139 A 
ATOM     65  C   UNL A   1      34.648  24.312  23.498  1.00  0.00     0.034 A 
ATOM     66  N   UNL A   1      32.811  22.779  23.179  1.00  0.00    -0.226 NA
ATOM     67  C   UNL A   1      33.457  23.947  22.875  1.00  0.00     0.146 A 
BRANCH  64  68
ATOM     68  N   UNL A   1      32.618  20.816  24.471  1.00  0.00    -0.369 N 
ATOM     69  H   UNL A   1      31.927  20.877  25.170  1.00  0.00     0.162 HD
BRANCH  68  70
ATOM     70  C   UNL A   1      32.844  19.524  23.854  1.00  0.00     0.120 C 
BRANCH  70  71
ATOM     71  C   UNL A   1      33.452  18.520  24.850  1.00  0.00     0.036 C 
ATOM     72  C   UNL A   1      34.655  17.810  24.251  1.00  0.00     0.036 C 
ATOM     73  C   UNL A   1      32.551  17.324  25.131  1.00  0.00     0.165 C 
ATOM     74  C   UNL A   1      34.027  16.684  23.451  1.00  0.00     0.160 C 
ATOM     75  O   UNL A   1      32.776  16.375  24.077  1.00  0.00    -0.381 OA
ENDBRANCH  70  71
ENDBRANCH  68  70
ENDBRANCH  64  68
BRANCH  67  76
ATOM     76  C   UNL A   1      32.851  24.875  21.829  1.00  0.00     0.433 C 
ATOM     77  F   UNL A   1      32.903  24.365  20.566  1.00  0.00    -0.165 F 
ATOM     78  F   UNL A   1      31.542  25.175  22.067  1.00  0.00    -0.165 F 
ATOM     79  F   UNL A   1      33.487  26.085  21.758  1.00  0.00    -0.165 F 
ENDBRANCH  67  76
ENDBRANCH  59  62
ENDBRANCH  57  58
ENDBRANCH   1  57
TORSDOF 14
ENDMDL
MODEL 2
REMARK VINA RESULT:     -11.0      2.920      7.701
REMARK SMILES O=C(NCCCNC(=O)c1ccc(C(F)(F)F)nc1NC[C@@H]1CCOC1)c1ccc(-c2c3nc(c(-c4ccccc4)c4ccc([nH]4)c(-c4ccccc4)c4nc(c(-c5ccccc5)c5ccc2[nH]5)C=C4)C=C3)cc1
REMARK SMILES IDX 5 1 4 2 3 3 1 4 2 5 27 7 28 8 74 9 29 10 73 11 30 12 31 13
REMARK SMILES IDX 32 14 67 15 33 16 72 17 66 18 68 19 34 20 71 21 65 22 64 23
REMARK SMILES IDX 35 25 57 26 42 27 56 28 43 29 46 30 55 31 69 32 44 33 45 34
REMARK SMILES IDX 54 36 70 37 47 38 36 39 37 40 41 41 38 42 40 43 39 44 58 45
REMARK SMILES IDX 59 46 63 47 60 48 62 49 61 50 48 51 49 52 53 53 50 54 52 55
REMARK SMILES IDX 51 56 6 57 7 58 8 59 9 61 10 62 11 63 19 64 12 65 18 66
REMARK SMILES IDX 13 67 20 68 21 70 22 71 23 72 26 73 24 74 25 75 14 76 15 77
REMARK SMILES IDX 16 78 17 79
REMARK H PARENT 3 6 68 24 46 35 7 60 20 69
REMARK Flexibility Score: inf
ROOT
ATOM      1  C   UNL A   1      32.322  27.551  27.161  1.00  0.00     0.042 C 
ENDROOT
BRANCH   1   2
ATOM      2  C   UNL A   1      33.635  28.311  27.036  1.00  0.00     0.118 C 
BRANCH   2   3
ATOM      3  N   UNL A   1      33.504  29.727  27.357  1.00  0.00    -0.352 N 
ATOM      4  O   UNL A   1      33.975  31.697  28.335  1.00  0.00    -0.269 OA
ATOM      5  C   UNL A   1      34.365  30.581  27.999  1.00  0.00     0.251 C 
ATOM      6  H   UNL A   1      32.657  30.137  27.067  1.00  0.00     0.163 HD
BRANCH   5   7
ATOM      7  C   UNL A   1      35.749  30.163  28.309  1.00  0.00     0.039 A 
ATOM      8  C   UNL A   1      36.764  30.290  27.359  1.00  0.00     0.014 A 
ATOM      9  C   UNL A   1      36.047  29.672  29.583  1.00  0.00     0.014 A 
ATOM     10  C   UNL A   1      38.026  29.773  27.620  1.00  0.00     0.010 A 
ATOM     11  C   UNL A   1      37.346  29.250  29.883  1.00  0.00     0.010 A 
ATOM     12  C   UNL A   1      38.340  29.269  28.892  1.00  0.00    -0.014 A 
BRANCH  12  13
ATOM     13  C   UNL A   1      39.733  28.841  29.174  1.00  0.00     0.031 A 
ATOM     14  C   UNL A   1      40.687  29.724  29.929  1.00  0.00     0.074 A 
ATOM     15  C   UNL A   1      40.126  27.619  28.762  1.00  0.00     0.049 A 
ATOM     16  N   UNL A   1      41.925  29.483  30.280  1.00  0.00    -0.248 NA
ATOM     17  C   UNL A   1      40.195  31.049  30.336  1.00  0.00     0.031 C 
ATOM     18  C   UNL A   1      39.292  26.674  28.013  1.00  0.00     0.029 A 
ATOM     19  N   UNL A   1      41.311  26.953  28.931  1.00  0.00    -0.354 N 
ATOM     20  C   UNL A   1      42.368  30.628  30.929  1.00  0.00     0.074 A 
ATOM     21  C   UNL A   1      41.274  31.576  30.902  1.00  0.00     0.031 C 
ATOM     22  C   UNL A   1      39.971  25.533  27.835  1.00  0.00     0.029 A 
ATOM     23  C   UNL A   1      41.309  25.690  28.390  1.00  0.00     0.049 A 
ATOM     24  H   UNL A   1      42.088  27.342  29.394  1.00  0.00     0.167 HD
ATOM     25  C   UNL A   1      43.575  30.866  31.496  1.00  0.00     0.031 A 
ATOM     26  C   UNL A   1      42.282  24.763  28.328  1.00  0.00     0.031 A 
ATOM     27  C   UNL A   1      44.661  29.920  31.519  1.00  0.00     0.049 A 
ATOM     28  C   UNL A   1      43.617  25.067  28.936  1.00  0.00     0.074 A 
ATOM     29  C   UNL A   1      45.910  30.056  32.104  1.00  0.00     0.029 A 
ATOM     30  N   UNL A   1      44.633  28.667  30.926  1.00  0.00    -0.354 N 
ATOM     31  N   UNL A   1      44.005  26.140  29.580  1.00  0.00    -0.248 NA
ATOM     32  C   UNL A   1      44.650  24.030  28.809  1.00  0.00     0.031 C 
ATOM     33  C   UNL A   1      46.657  28.910  31.813  1.00  0.00     0.029 A 
ATOM     34  C   UNL A   1      45.853  28.032  31.103  1.00  0.00     0.049 A 
ATOM     35  H   UNL A   1      43.861  28.285  30.450  1.00  0.00     0.167 HD
ATOM     36  C   UNL A   1      45.321  25.903  29.951  1.00  0.00     0.074 A 
ATOM     37  C   UNL A   1      45.656  24.574  29.479  1.00  0.00     0.031 C 
ATOM     38  C   UNL A   1      46.175  26.715  30.619  1.00  0.00     0.031 A 
BRANCH  25  39
ATOM     39  C   UNL A   1      43.802  32.219  32.115  1.00  0.00    -0.014 A 
ATOM     40  C   UNL A   1      43.538  32.460  33.472  1.00  0.00     0.009 A 
ATOM     41  C   UNL A   1      44.344  33.255  31.336  1.00  0.00     0.009 A 
ATOM     42  C   UNL A   1      43.781  33.719  34.028  1.00  0.00     0.001 A 
ATOM     43  C   UNL A   1      44.613  34.503  31.901  1.00  0.00     0.001 A 
ATOM     44  C   UNL A   1      44.324  34.737  33.244  1.00  0.00     0.000 A 
ENDBRANCH  25  39
BRANCH  26  45
ATOM     45  C   UNL A   1      42.023  23.470  27.642  1.00  0.00    -0.014 A 
ATOM     46  C   UNL A   1      42.401  23.279  26.305  1.00  0.00     0.009 A 
ATOM     47  C   UNL A   1      41.413  22.412  28.334  1.00  0.00     0.009 A 
ATOM     48  C   UNL A   1      42.153  22.060  25.670  1.00  0.00     0.001 A 
ATOM     49  C   UNL A   1      41.196  21.185  27.707  1.00  0.00     0.001 A 
ATOM     50  C   UNL A   1      41.558  21.013  26.372  1.00  0.00     0.000 A 
ENDBRANCH  26  45
BRANCH  38  51
ATOM     51  C   UNL A   1      47.548  26.173  30.903  1.00  0.00    -0.014 A 
ATOM     52  C   UNL A   1      47.887  25.671  32.169  1.00  0.00     0.009 A 
ATOM     53  C   UNL A   1      48.507  26.143  29.879  1.00  0.00     0.009 A 
ATOM     54  C   UNL A   1      49.172  25.183  32.413  1.00  0.00     0.001 A 
ATOM     55  C   UNL A   1      49.781  25.627  30.118  1.00  0.00     0.001 A 
ATOM     56  C   UNL A   1      50.116  25.157  31.387  1.00  0.00     0.000 A 
ENDBRANCH  38  51
ENDBRANCH  12  13
ENDBRANCH   5   7
ENDBRANCH   2   3
ENDBRANCH   1   2
BRANCH   1  57
ATOM     57  C   UNL A   1      32.268  26.271  26.338  1.00  0.00     0.118 C 
BRANCH  57  58
ATOM     58  N   UNL A   1      31.361  25.286  26.908  1.00  0.00    -0.352 N 
ATOM     59  C   UNL A   1      31.420  23.915  26.883  1.00  0.00     0.255 C 
ATOM     60  H   UNL A   1      30.584  25.661  27.384  1.00  0.00     0.163 HD
ATOM     61  O   UNL A   1      30.430  23.262  27.207  1.00  0.00    -0.269 OA
BRANCH  59  62
ATOM     62  C   UNL A   1      32.652  23.220  26.463  1.00  0.00     0.082 A 
ATOM     63  C   UNL A   1      33.664  22.981  27.398  1.00  0.00     0.020 A 
ATOM     64  C   UNL A   1      32.788  22.739  25.153  1.00  0.00     0.139 A 
ATOM     65  C   UNL A   1      34.843  22.381  26.984  1.00  0.00     0.034 A 
ATOM     66  N   UNL A   1      33.942  22.154  24.756  1.00  0.00    -0.226 NA
ATOM     67  C   UNL A   1      34.967  21.999  25.651  1.00  0.00     0.146 A 
BRANCH  64  68
ATOM     68  N   UNL A   1      31.780  22.931  24.226  1.00  0.00    -0.369 N 
ATOM     69  H   UNL A   1      30.880  22.601  24.452  1.00  0.00     0.162 HD
BRANCH  68  70
ATOM     70  C   UNL A   1      31.959  23.585  22.945  1.00  0.00     0.120 C 
BRANCH  70  71
ATOM     71  C   UNL A   1      32.206  25.095  23.111  1.00  0.00     0.036 C 
ATOM     72  C   UNL A   1      31.405  25.898  22.098  1.00  0.00     0.036 C 
ATOM     73  C   UNL A   1      33.618  25.524  22.730  1.00  0.00     0.165 C 
ATOM     74  C   UNL A   1      32.279  25.859  20.859  1.00  0.00     0.160 C 
ATOM     75  O   UNL A   1      33.632  25.704  21.306  1.00  0.00    -0.381 OA
ENDBRANCH  70  71
ENDBRANCH  68  70
ENDBRANCH  64  68
BRANCH  67  76
ATOM     76  C   UNL A   1      36.281  21.394  25.170  1.00  0.00     0.433 C 
ATOM     77  F   UNL A   1      36.283  20.031  25.190  1.00  0.00    -0.165 F 
ATOM     78  F   UNL A   1      36.609  21.759  23.897  1.00  0.00    -0.165 F 
ATOM     79  F   UNL A   1      37.351  21.769  25.935  1.00  0.00    -0.165 F 
ENDBRANCH  67  76
ENDBRANCH  59  62
ENDBRANCH  57  58
ENDBRANCH   1  57
TORSDOF 14
ENDMDL
MODEL 3
REMARK VINA RESULT:     -11.0      4.928      9.780
REMARK SMILES O=C(NCCCNC(=O)c1ccc(C(F)(F)F)nc1NC[C@@H]1CCOC1)c1ccc(-c2c3nc(c(-c4ccccc4)c4ccc([nH]4)c(-c4ccccc4)c4nc(c(-c5ccccc5)c5ccc2[nH]5)C=C4)C=C3)cc1
REMARK SMILES IDX 5 1 4 2 3 3 1 4 2 5 27 7 28 8 74 9 29 10 73 11 30 12 31 13
REMARK SMILES IDX 32 14 67 15 33 16 72 17 66 18 68 19 34 20 71 21 65 22 64 23
REMARK SMILES IDX 35 25 57 26 42 27 56 28 43 29 46 30 55 31 69 32 44 33 45 34
REMARK SMILES IDX 54 36 70 37 47 38 36 39 37 40 41 41 38 42 40 43 39 44 58 45
REMARK SMILES IDX 59 46 63 47 60 48 62 49 61 50 48 51 49 52 53 53 50 54 52 55
REMARK SMILES IDX 51 56 6 57 7 58 8 59 9 61 10 62 11 63 19 64 12 65 18 66
REMARK SMILES IDX 13 67 20 68 21 70 22 71 23 72 26 73 24 74 25 75 14 76 15 77
REMARK SMILES IDX 16 78 17 79
REMARK H PARENT 3 6 68 24 46 35 7 60 20 69
REMARK Flexibility Score: inf
ROOT
ATOM      1  C   UNL A   1      31.403  31.878  26.827  1.00  0.00     0.042 C 
ENDROOT
BRANCH   1   2
ATOM      2  C   UNL A   1      32.686  32.692  26.922  1.00  0.00     0.118 C 
BRANCH   2   3
ATOM      3  N   UNL A   1      32.502  33.962  27.615  1.00  0.00    -0.352 N 
ATOM      4  O   UNL A   1      32.766  35.526  29.210  1.00  0.00    -0.269 OA
ATOM      5  C   UNL A   1      33.208  34.527  28.646  1.00  0.00     0.251 C 
ATOM      6  H   UNL A   1      31.745  34.501  27.290  1.00  0.00     0.163 HD
BRANCH   5   7
ATOM      7  C   UNL A   1      34.485  33.935  29.099  1.00  0.00     0.039 A 
ATOM      8  C   UNL A   1      35.689  34.268  28.476  1.00  0.00     0.014 A 
ATOM      9  C   UNL A   1      34.486  33.061  30.190  1.00  0.00     0.014 A 
ATOM     10  C   UNL A   1      36.857  33.604  28.827  1.00  0.00     0.010 A 
ATOM     11  C   UNL A   1      35.682  32.474  30.614  1.00  0.00     0.010 A 
ATOM     12  C   UNL A   1      36.873  32.718  29.915  1.00  0.00    -0.014 A 
BRANCH  12  13
ATOM     13  C   UNL A   1      38.165  32.123  30.341  1.00  0.00     0.031 A 
ATOM     14  C   UNL A   1      39.014  32.769  31.399  1.00  0.00     0.074 A 
ATOM     15  C   UNL A   1      38.556  30.964  29.776  1.00  0.00     0.049 A 
ATOM     16  N   UNL A   1      40.152  32.359  31.902  1.00  0.00    -0.248 NA
ATOM     17  C   UNL A   1      38.533  34.040  31.963  1.00  0.00     0.031 C 
ATOM     18  C   UNL A   1      37.820  30.245  28.731  1.00  0.00     0.029 A 
ATOM     19  N   UNL A   1      39.651  30.174  30.012  1.00  0.00    -0.354 N 
ATOM     20  C   UNL A   1      40.534  33.327  32.822  1.00  0.00     0.074 A 
ATOM     21  C   UNL A   1      39.519  34.358  32.792  1.00  0.00     0.031 C 
ATOM     22  C   UNL A   1      38.454  29.097  28.456  1.00  0.00     0.029 A 
ATOM     23  C   UNL A   1      39.675  29.032  29.249  1.00  0.00     0.049 A 
ATOM     24  H   UNL A   1      40.351  30.403  30.665  1.00  0.00     0.167 HD
ATOM     25  C   UNL A   1      41.629  33.351  33.620  1.00  0.00     0.031 A 
ATOM     26  C   UNL A   1      40.588  28.047  29.176  1.00  0.00     0.031 A 
ATOM     27  C   UNL A   1      42.637  32.322  33.645  1.00  0.00     0.049 A 
ATOM     28  C   UNL A   1      41.806  28.117  30.046  1.00  0.00     0.074 A 
ATOM     29  C   UNL A   1      43.764  32.240  34.446  1.00  0.00     0.029 A 
ATOM     30  N   UNL A   1      42.646  31.201  32.828  1.00  0.00    -0.354 N 
ATOM     31  N   UNL A   1      42.130  29.020  30.940  1.00  0.00    -0.248 NA
ATOM     32  C   UNL A   1      42.783  27.030  29.901  1.00  0.00     0.031 C 
ATOM     33  C   UNL A   1      44.484  31.100  34.073  1.00  0.00     0.029 A 
ATOM     34  C   UNL A   1      43.775  30.438  33.084  1.00  0.00     0.049 A 
ATOM     35  H   UNL A   1      41.952  30.981  32.165  1.00  0.00     0.167 HD
ATOM     36  C   UNL A   1      43.341  28.604  31.474  1.00  0.00     0.074 A 
ATOM     37  C   UNL A   1      43.680  27.355  30.822  1.00  0.00     0.031 C 
ATOM     38  C   UNL A   1      44.104  29.204  32.419  1.00  0.00     0.031 A 
BRANCH  25  39
ATOM     39  C   UNL A   1      41.817  34.547  34.514  1.00  0.00    -0.014 A 
ATOM     40  C   UNL A   1      42.484  35.698  34.069  1.00  0.00     0.009 A 
ATOM     41  C   UNL A   1      41.266  34.539  35.806  1.00  0.00     0.009 A 
ATOM     42  C   UNL A   1      42.622  36.806  34.910  1.00  0.00     0.001 A 
ATOM     43  C   UNL A   1      41.381  35.657  36.634  1.00  0.00     0.001 A 
ATOM     44  C   UNL A   1      42.066  36.787  36.189  1.00  0.00     0.000 A 
ENDBRANCH  25  39
BRANCH  26  45
ATOM     45  C   UNL A   1      40.386  26.925  28.223  1.00  0.00    -0.014 A 
ATOM     46  C   UNL A   1      40.908  26.985  26.922  1.00  0.00     0.009 A 
ATOM     47  C   UNL A   1      39.683  25.776  28.622  1.00  0.00     0.009 A 
ATOM     48  C   UNL A   1      40.711  25.925  26.035  1.00  0.00     0.001 A 
ATOM     49  C   UNL A   1      39.516  24.705  27.743  1.00  0.00     0.001 A 
ATOM     50  C   UNL A   1      40.023  24.784  26.447  1.00  0.00     0.000 A 
ENDBRANCH  26  45
BRANCH  38  51
ATOM     51  C   UNL A   1      45.369  28.499  32.822  1.00  0.00    -0.014 A 
ATOM     52  C   UNL A   1      45.375  27.542  33.848  1.00  0.00     0.009 A 
ATOM     53  C   UNL A   1      46.565  28.781  32.146  1.00  0.00     0.009 A 
ATOM     54  C   UNL A   1      46.565  26.908  34.213  1.00  0.00     0.001 A 
ATOM     55  C   UNL A   1      47.746  28.124  32.492  1.00  0.00     0.001 A 
ATOM     56  C   UNL A   1      47.747  27.196  33.532  1.00  0.00     0.000 A 
ENDBRANCH  38  51
ENDBRANCH  12  13
ENDBRANCH   5   7
ENDBRANCH   2   3
ENDBRANCH   1   2
BRANCH   1  57
ATOM     57  C   UNL A   1      31.627  30.407  26.505  1.00  0.00     0.118 C 
BRANCH  57  58
ATOM     58  N   UNL A   1      32.159  30.211  25.164  1.00  0.00    -0.352 N 
ATOM     59  C   UNL A   1      32.434  29.049  24.486  1.00  0.00     0.255 C 
ATOM     60  H   UNL A   1      32.352  31.038  24.667  1.00  0.00     0.163 HD
ATOM     61  O   UNL A   1      33.109  29.094  23.460  1.00  0.00    -0.269 OA
BRANCH  59  62
ATOM     62  C   UNL A   1      31.937  27.750  24.982  1.00  0.00     0.082 A 
ATOM     63  C   UNL A   1      32.492  27.194  26.139  1.00  0.00     0.020 A 
ATOM     64  C   UNL A   1      30.872  27.103  24.341  1.00  0.00     0.139 A 
ATOM     65  C   UNL A   1      32.063  25.947  26.566  1.00  0.00     0.034 A 
ATOM     66  N   UNL A   1      30.457  25.885  24.764  1.00  0.00    -0.226 NA
ATOM     67  C   UNL A   1      31.061  25.302  25.846  1.00  0.00     0.146 A 
BRANCH  64  68
ATOM     68  N   UNL A   1      30.284  27.659  23.220  1.00  0.00    -0.369 N 
ATOM     69  H   UNL A   1      30.708  27.487  22.347  1.00  0.00     0.162 HD
BRANCH  68  70
ATOM     70  C   UNL A   1      29.087  28.475  23.241  1.00  0.00     0.120 C 
BRANCH  70  71
ATOM     71  C   UNL A   1      29.335  29.859  22.615  1.00  0.00     0.036 C 
ATOM     72  C   UNL A   1      29.147  30.968  23.639  1.00  0.00     0.036 C 
ATOM     73  C   UNL A   1      28.279  30.262  21.593  1.00  0.00     0.165 C 
ATOM     74  C   UNL A   1      27.648  31.197  23.627  1.00  0.00     0.160 C 
ATOM     75  O   UNL A   1      27.178  30.819  22.327  1.00  0.00    -0.381 OA
ENDBRANCH  70  71
ENDBRANCH  68  70
ENDBRANCH  64  68
BRANCH  67  76
ATOM     76  C   UNL A   1      30.623  23.905  26.270  1.00  0.00     0.433 C 
ATOM     77  F   UNL A   1      30.473  23.049  25.220  1.00  0.00    -0.165 F 
ATOM     78  F   UNL A   1      31.494  23.305  27.132  1.00  0.00    -0.165 F 
ATOM     79  F   UNL A   1      29.418  23.898  26.918  1.00  0.00    -0.165 F 
ENDBRANCH  67  76
ENDBRANCH  59  62
ENDBRANCH  57  58
ENDBRANCH   1  57
TORSDOF 14
ENDMDL
