MODEL 1
REMARK VINA RESULT:     -11.1      0.000      0.000
REMARK SMILES CC[C@H](C(=O)NCCCNC(=O)c1ccc(-c2c3nc(c(-c4ccccc4)c4ccc([nH]4)c(-c4ccccc4)c4nc(c(-c5ccccc5)c5ccc2[nH]5)C=C4)C=C3)cc1)[C@@H]1CCOC2(CCOCC2)C1
REMARK SMILES IDX 8 1 7 2 6 3 4 4 5 5 3 7 2 8 1 9 61 10 62 11 71 12 63 13
REMARK SMILES IDX 65 14 64 15 66 16 70 17 67 18 69 19 68 20 9 21 10 22 11 23
REMARK SMILES IDX 12 25 13 26 14 27 60 28 15 29 59 30 16 31 17 32 18 33 53 34
REMARK SMILES IDX 19 35 58 36 52 37 54 38 20 39 57 40 51 41 50 42 21 44 43 45
REMARK SMILES IDX 28 46 42 47 29 48 32 49 41 50 55 51 30 52 31 53 40 55 56 56
REMARK SMILES IDX 33 57 22 58 23 59 27 60 24 61 26 62 25 63 44 64 45 65 49 66
REMARK SMILES IDX 46 67 48 68 47 69 34 70 35 71 39 72 36 73 38 74 37 75
REMARK H PARENT 6 6 10 24 54 43 32 54
REMARK Flexibility Score: inf
ROOT
ATOM      1  C   UNL A   1      32.179  29.212  26.763  1.00  0.00     0.042 C 
ENDROOT
BRANCH   1   2
ATOM      2  C   UNL A   1      31.877  29.646  25.350  1.00  0.00     0.117 C 
BRANCH   2   3
ATOM      3  N   UNL A   1      33.035  29.688  24.480  1.00  0.00    -0.356 N 
ATOM      4  C   UNL A   1      33.504  28.695  23.662  1.00  0.00     0.223 C 
ATOM      5  O   UNL A   1      34.456  28.956  22.928  1.00  0.00    -0.275 OA
ATOM      6  H   UNL A   1      33.545  30.530  24.477  1.00  0.00     0.163 HD
BRANCH   4   7
ATOM      7  C   UNL A   1      32.828  27.313  23.705  1.00  0.00     0.081 C 
BRANCH   7   8
ATOM      8  C   UNL A   1      31.973  27.083  22.425  1.00  0.00     0.010 C 
ATOM      9  C   UNL A   1      30.507  27.488  22.453  1.00  0.00     0.005 C 
ENDBRANCH   7   8
BRANCH   7  10
ATOM     10  C   UNL A   1      33.860  26.204  24.140  1.00  0.00     0.006 C 
ATOM     11  C   UNL A   1      33.976  25.033  23.168  1.00  0.00     0.033 C 
ATOM     12  C   UNL A   1      33.656  25.596  25.555  1.00  0.00     0.040 C 
ATOM     13  C   UNL A   1      33.011  23.896  23.506  1.00  0.00     0.161 C 
ATOM     14  C   UNL A   1      32.344  24.798  25.670  1.00  0.00     0.073 C 
ATOM     15  O   UNL A   1      31.953  24.310  24.372  1.00  0.00    -0.375 OA
ATOM     16  C   UNL A   1      31.272  25.740  26.277  1.00  0.00     0.064 C 
ATOM     17  C   UNL A   1      32.379  23.567  26.588  1.00  0.00     0.064 C 
ATOM     18  C   UNL A   1      29.921  25.063  26.369  1.00  0.00     0.163 C 
ATOM     19  C   UNL A   1      30.967  22.962  26.665  1.00  0.00     0.163 C 
ATOM     20  O   UNL A   1      30.025  23.902  27.190  1.00  0.00    -0.381 OA
ENDBRANCH   7  10
ENDBRANCH   4   7
ENDBRANCH   2   3
ENDBRANCH   1   2
BRANCH   1  21
ATOM     21  C   UNL A   1      33.620  29.503  27.162  1.00  0.00     0.118 C 
BRANCH  21  22
ATOM     22  N   UNL A   1      33.805  30.712  27.962  1.00  0.00    -0.352 N 
ATOM     23  C   UNL A   1      34.894  31.154  28.695  1.00  0.00     0.251 C 
ATOM     24  H   UNL A   1      33.025  31.310  27.985  1.00  0.00     0.163 HD
ATOM     25  O   UNL A   1      34.822  32.176  29.360  1.00  0.00    -0.269 OA
BRANCH  23  26
ATOM     26  C   UNL A   1      36.128  30.344  28.704  1.00  0.00     0.039 A 
ATOM     27  C   UNL A   1      36.985  30.381  27.603  1.00  0.00     0.014 A 
ATOM     28  C   UNL A   1      36.480  29.625  29.840  1.00  0.00     0.014 A 
ATOM     29  C   UNL A   1      38.254  29.804  27.702  1.00  0.00     0.010 A 
ATOM     30  C   UNL A   1      37.790  29.204  29.996  1.00  0.00     0.010 A 
ATOM     31  C   UNL A   1      38.693  29.275  28.927  1.00  0.00    -0.014 A 
BRANCH  31  32
ATOM     32  C   UNL A   1      40.072  28.756  29.127  1.00  0.00     0.031 A 
ATOM     33  C   UNL A   1      41.126  29.667  29.707  1.00  0.00     0.074 A 
ATOM     34  C   UNL A   1      40.411  27.526  28.690  1.00  0.00     0.049 A 
ATOM     35  N   UNL A   1      42.419  29.486  29.796  1.00  0.00    -0.248 NA
ATOM     36  C   UNL A   1      40.674  30.984  30.190  1.00  0.00     0.031 C 
ATOM     37  C   UNL A   1      39.512  26.566  28.043  1.00  0.00     0.029 A 
ATOM     38  N   UNL A   1      41.618  26.875  28.719  1.00  0.00    -0.354 N 
ATOM     39  C   UNL A   1      42.931  30.684  30.280  1.00  0.00     0.074 A 
ATOM     40  C   UNL A   1      41.823  31.602  30.406  1.00  0.00     0.031 C 
ATOM     41  C   UNL A   1      40.188  25.436  27.780  1.00  0.00     0.029 A 
ATOM     42  C   UNL A   1      41.576  25.605  28.195  1.00  0.00     0.049 A 
ATOM     43  H   UNL A   1      42.440  27.279  29.081  1.00  0.00     0.167 HD
ATOM     44  C   UNL A   1      44.204  30.987  30.624  1.00  0.00     0.031 A 
ATOM     45  C   UNL A   1      42.547  24.681  28.067  1.00  0.00     0.031 A 
ATOM     46  C   UNL A   1      45.288  30.047  30.587  1.00  0.00     0.049 A 
ATOM     47  C   UNL A   1      43.934  25.008  28.547  1.00  0.00     0.074 A 
ATOM     48  C   UNL A   1      46.595  30.220  31.004  1.00  0.00     0.029 A 
ATOM     49  N   UNL A   1      45.177  28.743  30.132  1.00  0.00    -0.354 N 
ATOM     50  N   UNL A   1      44.390  26.127  29.057  1.00  0.00    -0.248 NA
ATOM     51  C   UNL A   1      44.938  23.938  28.449  1.00  0.00     0.031 C 
ATOM     52  C   UNL A   1      47.283  29.024  30.783  1.00  0.00     0.029 A 
ATOM     53  C   UNL A   1      46.393  28.097  30.264  1.00  0.00     0.049 A 
ATOM     54  H   UNL A   1      44.357  28.337  29.769  1.00  0.00     0.167 HD
ATOM     55  C   UNL A   1      45.719  25.883  29.374  1.00  0.00     0.074 A 
ATOM     56  C   UNL A   1      45.994  24.509  29.009  1.00  0.00     0.031 C 
ATOM     57  C   UNL A   1      46.633  26.722  29.918  1.00  0.00     0.031 A 
BRANCH  44  58
ATOM     58  C   UNL A   1      44.478  32.386  31.099  1.00  0.00    -0.014 A 
ATOM     59  C   UNL A   1      44.383  32.726  32.458  1.00  0.00     0.009 A 
ATOM     60  C   UNL A   1      44.855  33.374  30.176  1.00  0.00     0.009 A 
ATOM     61  C   UNL A   1      44.616  34.037  32.877  1.00  0.00     0.001 A 
ATOM     62  C   UNL A   1      45.118  34.677  30.603  1.00  0.00     0.001 A 
ATOM     63  C   UNL A   1      44.987  35.009  31.950  1.00  0.00     0.000 A 
ENDBRANCH  44  58
BRANCH  45  64
ATOM     64  C   UNL A   1      42.242  23.340  27.503  1.00  0.00    -0.014 A 
ATOM     65  C   UNL A   1      41.664  22.348  28.314  1.00  0.00     0.009 A 
ATOM     66  C   UNL A   1      42.543  23.034  26.169  1.00  0.00     0.009 A 
ATOM     67  C   UNL A   1      41.430  21.068  27.808  1.00  0.00     0.001 A 
ATOM     68  C   UNL A   1      42.282  21.759  25.659  1.00  0.00     0.001 A 
ATOM     69  C   UNL A   1      41.737  20.774  26.481  1.00  0.00     0.000 A 
ENDBRANCH  45  64
BRANCH  57  70
ATOM     70  C   UNL A   1      47.994  26.161  30.207  1.00  0.00    -0.014 A 
ATOM     71  C   UNL A   1      48.988  26.114  29.218  1.00  0.00     0.009 A 
ATOM     72  C   UNL A   1      48.297  25.721  31.504  1.00  0.00     0.009 A 
ATOM     73  C   UNL A   1      50.253  25.607  29.518  1.00  0.00     0.001 A 
ATOM     74  C   UNL A   1      49.570  25.240  31.807  1.00  0.00     0.001 A 
ATOM     75  C   UNL A   1      50.544  25.176  30.813  1.00  0.00     0.000 A 
ENDBRANCH  57  70
ENDBRANCH  31  32
ENDBRANCH  23  26
ENDBRANCH  21  22
ENDBRANCH   1  21
TORSDOF 12
ENDMDL
MODEL 2
REMARK VINA RESULT:     -10.9      2.272      6.858
REMARK SMILES CC[C@H](C(=O)NCCCNC(=O)c1ccc(-c2c3nc(c(-c4ccccc4)c4ccc([nH]4)c(-c4ccccc4)c4nc(c(-c5ccccc5)c5ccc2[nH]5)C=C4)C=C3)cc1)[C@@H]1CCOC2(CCOCC2)C1
REMARK SMILES IDX 8 1 7 2 6 3 4 4 5 5 3 7 2 8 1 9 61 10 62 11 71 12 63 13
REMARK SMILES IDX 65 14 64 15 66 16 70 17 67 18 69 19 68 20 9 21 10 22 11 23
REMARK SMILES IDX 12 25 13 26 14 27 60 28 15 29 59 30 16 31 17 32 18 33 53 34
REMARK SMILES IDX 19 35 58 36 52 37 54 38 20 39 57 40 51 41 50 42 21 44 43 45
REMARK SMILES IDX 28 46 42 47 29 48 32 49 41 50 55 51 30 52 31 53 40 55 56 56
REMARK SMILES IDX 33 57 22 58 23 59 27 60 24 61 26 62 25 63 44 64 45 65 49 66
REMARK SMILES IDX 46 67 48 68 47 69 34 70 35 71 39 72 36 73 38 74 37 75
REMARK H PARENT 6 6 10 24 54 43 32 54
REMARK Flexibility Score: inf
ROOT
ATOM      1  C   UNL A   1      32.057  29.935  26.816  1.00  0.00     0.042 C 
ENDROOT
BRANCH   1   2
ATOM      2  C   UNL A   1      31.813  29.728  25.341  1.00  0.00     0.117 C 
BRANCH   2   3
ATOM      3  N   UNL A   1      33.015  29.739  24.532  1.00  0.00    -0.356 N 
ATOM      4  C   UNL A   1      33.497  28.734  23.736  1.00  0.00     0.223 C 
ATOM      5  O   UNL A   1      34.493  28.970  23.052  1.00  0.00    -0.275 OA
ATOM      6  H   UNL A   1      33.548  30.566  24.557  1.00  0.00     0.163 HD
BRANCH   4   7
ATOM      7  C   UNL A   1      32.782  27.371  23.740  1.00  0.00     0.081 C 
BRANCH   7   8
ATOM      8  C   UNL A   1      31.903  27.212  22.466  1.00  0.00     0.010 C 
ATOM      9  C   UNL A   1      30.405  27.453  22.587  1.00  0.00     0.005 C 
ENDBRANCH   7   8
BRANCH   7  10
ATOM     10  C   UNL A   1      33.788  26.219  24.121  1.00  0.00     0.006 C 
ATOM     11  C   UNL A   1      33.847  25.075  23.111  1.00  0.00     0.033 C 
ATOM     12  C   UNL A   1      33.593  25.574  25.520  1.00  0.00     0.040 C 
ATOM     13  C   UNL A   1      32.854  23.958  23.435  1.00  0.00     0.161 C 
ATOM     14  C   UNL A   1      32.259  24.813  25.638  1.00  0.00     0.073 C 
ATOM     15  O   UNL A   1      31.827  24.378  24.335  1.00  0.00    -0.375 OA
ATOM     16  C   UNL A   1      31.229  25.769  26.296  1.00  0.00     0.064 C 
ATOM     17  C   UNL A   1      32.273  23.554  26.517  1.00  0.00     0.064 C 
ATOM     18  C   UNL A   1      29.859  25.131  26.395  1.00  0.00     0.163 C 
ATOM     19  C   UNL A   1      30.845  22.990  26.606  1.00  0.00     0.163 C 
ATOM     20  O   UNL A   1      29.944  23.942  27.178  1.00  0.00    -0.381 OA
ENDBRANCH   7  10
ENDBRANCH   4   7
ENDBRANCH   2   3
ENDBRANCH   1   2
BRANCH   1  21
ATOM     21  C   UNL A   1      33.100  31.013  27.083  1.00  0.00     0.118 C 
BRANCH  21  22
ATOM     22  N   UNL A   1      32.556  32.339  27.368  1.00  0.00    -0.352 N 
ATOM     23  C   UNL A   1      33.079  33.393  28.099  1.00  0.00     0.251 C 
ATOM     24  H   UNL A   1      31.670  32.511  26.976  1.00  0.00     0.163 HD
ATOM     25  O   UNL A   1      32.425  34.410  28.277  1.00  0.00    -0.269 OA
BRANCH  23  26
ATOM     26  C   UNL A   1      34.416  33.251  28.706  1.00  0.00     0.039 A 
ATOM     27  C   UNL A   1      34.550  32.596  29.931  1.00  0.00     0.014 A 
ATOM     28  C   UNL A   1      35.543  33.682  28.016  1.00  0.00     0.014 A 
ATOM     29  C   UNL A   1      35.827  32.258  30.392  1.00  0.00     0.010 A 
ATOM     30  C   UNL A   1      36.788  33.203  28.386  1.00  0.00     0.010 A 
ATOM     31  C   UNL A   1      36.952  32.495  29.585  1.00  0.00    -0.014 A 
BRANCH  31  32
ATOM     32  C   UNL A   1      38.318  32.053  29.967  1.00  0.00     0.031 A 
ATOM     33  C   UNL A   1      38.853  30.753  29.418  1.00  0.00     0.074 A 
ATOM     34  C   UNL A   1      39.030  32.740  30.883  1.00  0.00     0.049 A 
ATOM     35  N   UNL A   1      39.930  30.092  29.757  1.00  0.00    -0.248 NA
ATOM     36  C   UNL A   1      38.033  30.074  28.398  1.00  0.00     0.031 C 
ATOM     37  C   UNL A   1      38.606  33.974  31.553  1.00  0.00     0.029 A 
ATOM     38  N   UNL A   1      40.269  32.488  31.418  1.00  0.00    -0.354 N 
ATOM     39  C   UNL A   1      39.876  28.900  29.043  1.00  0.00     0.074 A 
ATOM     40  C   UNL A   1      38.636  28.900  28.304  1.00  0.00     0.031 C 
ATOM     41  C   UNL A   1      39.585  34.392  32.371  1.00  0.00     0.029 A 
ATOM     42  C   UNL A   1      40.686  33.436  32.321  1.00  0.00     0.049 A 
ATOM     43  H   UNL A   1      40.809  31.701  31.178  1.00  0.00     0.167 HD
ATOM     44  C   UNL A   1      40.792  27.906  28.978  1.00  0.00     0.031 A 
ATOM     45  C   UNL A   1      41.829  33.526  33.027  1.00  0.00     0.031 A 
ATOM     46  C   UNL A   1      42.065  27.947  29.640  1.00  0.00     0.049 A 
ATOM     47  C   UNL A   1      42.873  32.456  32.864  1.00  0.00     0.074 A 
ATOM     48  C   UNL A   1      43.106  27.039  29.565  1.00  0.00     0.029 A 
ATOM     49  N   UNL A   1      42.480  28.971  30.475  1.00  0.00    -0.354 N 
ATOM     50  N   UNL A   1      42.832  31.364  32.139  1.00  0.00    -0.248 NA
ATOM     51  C   UNL A   1      44.131  32.641  33.603  1.00  0.00     0.031 C 
ATOM     52  C   UNL A   1      44.147  27.505  30.372  1.00  0.00     0.029 A 
ATOM     53  C   UNL A   1      43.767  28.721  30.917  1.00  0.00     0.049 A 
ATOM     54  H   UNL A   1      41.942  29.759  30.717  1.00  0.00     0.167 HD
ATOM     55  C   UNL A   1      44.067  30.753  32.306  1.00  0.00     0.074 A 
ATOM     56  C   UNL A   1      44.840  31.600  33.191  1.00  0.00     0.031 C 
ATOM     57  C   UNL A   1      44.522  29.593  31.776  1.00  0.00     0.031 A 
BRANCH  44  58
ATOM     58  C   UNL A   1      40.454  26.707  28.137  1.00  0.00    -0.014 A 
ATOM     59  C   UNL A   1      39.670  25.659  28.644  1.00  0.00     0.009 A 
ATOM     60  C   UNL A   1      40.911  26.635  26.813  1.00  0.00     0.009 A 
ATOM     61  C   UNL A   1      39.389  24.541  27.857  1.00  0.00     0.001 A 
ATOM     62  C   UNL A   1      40.601  25.530  26.016  1.00  0.00     0.001 A 
ATOM     63  C   UNL A   1      39.850  24.480  26.543  1.00  0.00     0.000 A 
ENDBRANCH  44  58
BRANCH  45  64
ATOM     64  C   UNL A   1      42.075  34.689  33.919  1.00  0.00    -0.014 A 
ATOM     65  C   UNL A   1      41.732  34.622  35.279  1.00  0.00     0.009 A 
ATOM     66  C   UNL A   1      42.631  35.876  33.419  1.00  0.00     0.009 A 
ATOM     67  C   UNL A   1      41.905  35.730  36.110  1.00  0.00     0.001 A 
ATOM     68  C   UNL A   1      42.827  36.975  34.259  1.00  0.00     0.001 A 
ATOM     69  C   UNL A   1      42.454  36.905  35.600  1.00  0.00     0.000 A 
ENDBRANCH  45  64
BRANCH  57  70
ATOM     70  C   UNL A   1      45.937  29.203  32.089  1.00  0.00    -0.014 A 
ATOM     71  C   UNL A   1      47.005  29.633  31.288  1.00  0.00     0.009 A 
ATOM     72  C   UNL A   1      46.204  28.435  33.233  1.00  0.00     0.009 A 
ATOM     73  C   UNL A   1      48.315  29.275  31.612  1.00  0.00     0.001 A 
ATOM     74  C   UNL A   1      47.516  28.101  33.568  1.00  0.00     0.001 A 
ATOM     75  C   UNL A   1      48.568  28.514  32.754  1.00  0.00     0.000 A 
ENDBRANCH  57  70
ENDBRANCH  31  32
ENDBRANCH  23  26
ENDBRANCH  21  22
ENDBRANCH   1  21
TORSDOF 12
ENDMDL
MODEL 3
REMARK VINA RESULT:     -10.9      2.347      7.562
REMARK SMILES CC[C@H](C(=O)NCCCNC(=O)c1ccc(-c2c3nc(c(-c4ccccc4)c4ccc([nH]4)c(-c4ccccc4)c4nc(c(-c5ccccc5)c5ccc2[nH]5)C=C4)C=C3)cc1)[C@@H]1CCOC2(CCOCC2)C1
REMARK SMILES IDX 8 1 7 2 6 3 4 4 5 5 3 7 2 8 1 9 61 10 62 11 71 12 63 13
REMARK SMILES IDX 65 14 64 15 66 16 70 17 67 18 69 19 68 20 9 21 10 22 11 23
REMARK SMILES IDX 12 25 13 26 14 27 60 28 15 29 59 30 16 31 17 32 18 33 53 34
REMARK SMILES IDX 19 35 58 36 52 37 54 38 20 39 57 40 51 41 50 42 21 44 43 45
REMARK SMILES IDX 28 46 42 47 29 48 32 49 41 50 55 51 30 52 31 53 40 55 56 56
REMARK SMILES IDX 33 57 22 58 23 59 27 60 24 61 26 62 25 63 44 64 45 65 49 66
REMARK SMILES IDX 46 67 48 68 47 69 34 70 35 71 39 72 36 73 38 74 37 75
REMARK H PARENT 6 6 10 24 54 43 32 54
REMARK Flexibility Score: inf
ROOT
ATOM      1  C   UNL A   1      37.415  20.613  24.873  1.00  0.00     0.042 C 
ENDROOT
BRANCH   1   2
ATOM      2  C   UNL A   1      36.338  21.629  25.167  1.00  0.00     0.117 C 
BRANCH   2   3
ATOM      3  N   UNL A   1      35.711  21.472  26.465  1.00  0.00    -0.356 N 
ATOM      4  C   UNL A   1      34.441  21.832  26.829  1.00  0.00     0.223 C 
ATOM      5  O   UNL A   1      34.061  21.532  27.961  1.00  0.00    -0.275 OA
ATOM      6  H   UNL A   1      36.264  21.060  27.167  1.00  0.00     0.163 HD
BRANCH   4   7
ATOM      7  C   UNL A   1      33.562  22.590  25.819  1.00  0.00     0.081 C 
BRANCH   7   8
ATOM      8  C   UNL A   1      32.221  21.834  25.586  1.00  0.00     0.010 C 
ATOM      9  C   UNL A   1      32.211  20.663  24.614  1.00  0.00     0.005 C 
ENDBRANCH   7   8
BRANCH   7  10
ATOM     10  C   UNL A   1      33.520  24.127  26.164  1.00  0.00     0.006 C 
ATOM     11  C   UNL A   1      32.126  24.663  26.485  1.00  0.00     0.033 C 
ATOM     12  C   UNL A   1      34.137  25.084  25.108  1.00  0.00     0.040 C 
ATOM     13  C   UNL A   1      31.403  25.190  25.245  1.00  0.00     0.161 C 
ATOM     14  C   UNL A   1      33.352  25.087  23.784  1.00  0.00     0.073 C 
ATOM     15  O   UNL A   1      31.981  24.716  24.027  1.00  0.00    -0.375 OA
ATOM     16  C   UNL A   1      34.052  24.096  22.818  1.00  0.00     0.064 C 
ATOM     17  C   UNL A   1      33.295  26.426  23.032  1.00  0.00     0.064 C 
ATOM     18  C   UNL A   1      33.310  23.978  21.503  1.00  0.00     0.163 C 
ATOM     19  C   UNL A   1      32.569  26.217  21.693  1.00  0.00     0.163 C 
ATOM     20  O   UNL A   1      33.246  25.258  20.877  1.00  0.00    -0.381 OA
ENDBRANCH   7  10
ENDBRANCH   4   7
ENDBRANCH   2   3
ENDBRANCH   1   2
BRANCH   1  21
ATOM     21  C   UNL A   1      38.682  20.864  25.681  1.00  0.00     0.118 C 
BRANCH  21  22
ATOM     22  N   UNL A   1      39.658  19.777  25.648  1.00  0.00    -0.352 N 
ATOM     23  C   UNL A   1      40.998  19.754  25.997  1.00  0.00     0.251 C 
ATOM     24  H   UNL A   1      39.303  18.919  25.323  1.00  0.00     0.163 HD
ATOM     25  O   UNL A   1      41.666  18.745  25.829  1.00  0.00    -0.269 OA
BRANCH  23  26
ATOM     26  C   UNL A   1      41.622  20.981  26.525  1.00  0.00     0.039 A 
ATOM     27  C   UNL A   1      42.158  21.918  25.640  1.00  0.00     0.014 A 
ATOM     28  C   UNL A   1      41.591  21.247  27.889  1.00  0.00     0.014 A 
ATOM     29  C   UNL A   1      42.538  23.176  26.118  1.00  0.00     0.010 A 
ATOM     30  C   UNL A   1      41.807  22.542  28.332  1.00  0.00     0.010 A 
ATOM     31  C   UNL A   1      42.295  23.522  27.458  1.00  0.00    -0.014 A 
BRANCH  31  32
ATOM     32  C   UNL A   1      42.567  24.881  27.995  1.00  0.00     0.031 A 
ATOM     33  C   UNL A   1      43.964  25.231  28.445  1.00  0.00     0.074 A 
ATOM     34  C   UNL A   1      41.558  25.755  28.189  1.00  0.00     0.049 A 
ATOM     35  N   UNL A   1      44.383  26.279  29.106  1.00  0.00    -0.248 NA
ATOM     36  C   UNL A   1      45.019  24.238  28.172  1.00  0.00     0.031 C 
ATOM     37  C   UNL A   1      40.146  25.523  27.869  1.00  0.00     0.029 A 
ATOM     38  N   UNL A   1      41.569  27.022  28.715  1.00  0.00    -0.354 N 
ATOM     39  C   UNL A   1      45.724  26.036  29.381  1.00  0.00     0.074 A 
ATOM     40  C   UNL A   1      46.032  24.720  28.872  1.00  0.00     0.031 C 
ATOM     41  C   UNL A   1      39.439  26.626  28.164  1.00  0.00     0.029 A 
ATOM     42  C   UNL A   1      40.335  27.626  28.734  1.00  0.00     0.049 A 
ATOM     43  H   UNL A   1      42.386  27.459  29.050  1.00  0.00     0.167 HD
ATOM     44  C   UNL A   1      46.631  26.847  29.972  1.00  0.00     0.031 A 
ATOM     45  C   UNL A   1      39.968  28.849  29.161  1.00  0.00     0.031 A 
ATOM     46  C   UNL A   1      46.348  28.190  30.394  1.00  0.00     0.049 A 
ATOM     47  C   UNL A   1      41.015  29.769  29.726  1.00  0.00     0.074 A 
ATOM     48  C   UNL A   1      47.217  29.131  30.916  1.00  0.00     0.029 A 
ATOM     49  N   UNL A   1      45.102  28.790  30.311  1.00  0.00    -0.354 N 
ATOM     50  N   UNL A   1      42.291  29.546  29.925  1.00  0.00    -0.248 NA
ATOM     51  C   UNL A   1      40.572  31.118  30.110  1.00  0.00     0.031 C 
ATOM     52  C   UNL A   1      46.490  30.299  31.168  1.00  0.00     0.029 A 
ATOM     53  C   UNL A   1      45.180  30.094  30.766  1.00  0.00     0.049 A 
ATOM     54  H   UNL A   1      44.285  28.355  29.978  1.00  0.00     0.167 HD
ATOM     55  C   UNL A   1      42.810  30.735  30.420  1.00  0.00     0.074 A 
ATOM     56  C   UNL A   1      41.714  31.679  30.482  1.00  0.00     0.031 C 
ATOM     57  C   UNL A   1      44.081  31.020  30.793  1.00  0.00     0.031 A 
BRANCH  44  58
ATOM     58  C   UNL A   1      48.020  26.308  30.165  1.00  0.00    -0.014 A 
ATOM     59  C   UNL A   1      48.409  25.713  31.376  1.00  0.00     0.009 A 
ATOM     60  C   UNL A   1      48.947  26.379  29.114  1.00  0.00     0.009 A 
ATOM     61  C   UNL A   1      49.711  25.241  31.545  1.00  0.00     0.001 A 
ATOM     62  C   UNL A   1      50.240  25.877  29.276  1.00  0.00     0.001 A 
ATOM     63  C   UNL A   1      50.624  25.320  30.495  1.00  0.00     0.000 A 
ENDBRANCH  44  58
BRANCH  45  64
ATOM     64  C   UNL A   1      38.558  29.301  29.032  1.00  0.00    -0.014 A 
ATOM     65  C   UNL A   1      37.692  29.236  30.136  1.00  0.00     0.009 A 
ATOM     66  C   UNL A   1      38.063  29.777  27.809  1.00  0.00     0.009 A 
ATOM     67  C   UNL A   1      36.351  29.603  30.007  1.00  0.00     0.001 A 
ATOM     68  C   UNL A   1      36.727  30.168  27.690  1.00  0.00     0.001 A 
ATOM     69  C   UNL A   1      35.869  30.070  28.785  1.00  0.00     0.000 A 
ENDBRANCH  45  64
BRANCH  57  70
ATOM     70  C   UNL A   1      44.366  32.423  31.242  1.00  0.00    -0.014 A 
ATOM     71  C   UNL A   1      44.727  33.422  30.326  1.00  0.00     0.009 A 
ATOM     72  C   UNL A   1      44.221  32.756  32.598  1.00  0.00     0.009 A 
ATOM     73  C   UNL A   1      44.966  34.725  30.766  1.00  0.00     0.001 A 
ATOM     74  C   UNL A   1      44.435  34.065  33.030  1.00  0.00     0.001 A 
ATOM     75  C   UNL A   1      44.815  35.045  32.116  1.00  0.00     0.000 A 
ENDBRANCH  57  70
ENDBRANCH  31  32
ENDBRANCH  23  26
ENDBRANCH  21  22
ENDBRANCH   1  21
TORSDOF 12
ENDMDL
