MODEL 1
REMARK VINA RESULT:     -13.3      0.000      0.000
REMARK SMILES COc1ccccc1C(=O)N/C(=C/c1ccc2c(c1)OCO2)C(=O)Nc1ccc(C(=O)NCCCNC(=O)c2ccc(-c3c4nc(c(-c5ccccc5)c5ccc([nH]5)c(-c5ccccc5)c5nc(c(-c6ccccc6)c6ccc3[nH]6)C=C5)C=C4)cc2)cc1
REMARK SMILES IDX 30 1 31 2 32 3 29 5 26 6 27 7 88 8 28 9 87 10 25 11 23 12
REMARK SMILES IDX 24 13 12 15 13 16 11 17 9 18 10 19 8 21 3 22 4 23 5 24 7 25
REMARK SMILES IDX 6 26 2 27 1 28 14 29 15 30 19 31 16 32 18 33 17 34 20 35
REMARK SMILES IDX 22 36 21 37 33 38 34 39 35 40 36 41 37 42 38 44 39 45 40 46
REMARK SMILES IDX 86 47 41 48 85 49 42 50 43 51 44 52 79 53 45 54 84 55 78 56
REMARK SMILES IDX 80 57 46 58 83 59 77 60 76 61 47 63 69 64 54 65 68 66 55 67
REMARK SMILES IDX 58 68 67 69 81 70 56 71 57 72 66 74 82 75 59 76 48 77 49 78
REMARK SMILES IDX 53 79 50 80 52 81 51 82 70 83 71 84 75 85 72 86 74 87 73 88
REMARK SMILES IDX 60 89 61 90 65 91 62 92 64 93 63 94
REMARK H PARENT 32 4 25 14 11 20 36 43 80 62 58 73
REMARK Flexibility Score: inf
ROOT
ATOM      1  C   UNL A   1      33.337  29.100  26.234  1.00  0.00     0.251 C 
ATOM      2  O   UNL A   1      34.510  28.841  26.473  1.00  0.00    -0.269 OA
ATOM      3  N   UNL A   1      32.860  30.371  26.393  1.00  0.00    -0.352 N 
ATOM      4  H   UNL A   1      33.507  31.016  26.759  1.00  0.00     0.163 HD
ENDROOT
BRANCH   1   5
ATOM      5  C   UNL A   1      32.471  28.056  25.688  1.00  0.00     0.039 A 
ATOM      6  C   UNL A   1      30.386  25.232  24.454  1.00  0.00     0.041 A 
ATOM      7  C   UNL A   1      30.031  25.909  26.048  1.00  0.00     0.027 A 
ATOM      8  C   UNL A   1      31.654  25.974  23.488  1.00  0.00     0.027 A 
ATOM      9  C   UNL A   1      31.187  27.406  26.767  1.00  0.00     0.016 A 
ATOM     10  C   UNL A   1      32.651  27.337  24.079  1.00  0.00     0.016 A 
BRANCH   6  11
ATOM     11  N   UNL A   1      30.205  23.838  24.433  1.00  0.00    -0.321 N 
ATOM     12  C   UNL A   1      30.713  23.031  25.446  1.00  0.00     0.272 C 
ATOM     13  O   UNL A   1      29.964  22.325  26.123  1.00  0.00    -0.267 OA
ATOM     14  H   UNL A   1      29.711  23.425  23.688  1.00  0.00     0.170 HD
BRANCH  12  15
ATOM     15  C   UNL A   1      32.244  22.851  25.581  1.00  0.00     0.108 C 
ATOM     16  C   UNL A   1      32.970  21.733  25.287  1.00  0.00     0.040 C 
BRANCH  15  17
ATOM     17  N   UNL A   1      32.989  23.950  26.002  1.00  0.00    -0.317 N 
ATOM     18  C   UNL A   1      34.278  24.400  25.810  1.00  0.00     0.259 C 
ATOM     19  O   UNL A   1      34.596  25.462  26.354  1.00  0.00    -0.269 OA
ATOM     20  H   UNL A   1      32.467  24.553  26.580  1.00  0.00     0.170 HD
BRANCH  18  21
ATOM     21  C   UNL A   1      35.321  23.700  25.040  1.00  0.00     0.082 A 
ATOM     22  C   UNL A   1      35.395  23.598  23.645  1.00  0.00     0.131 A 
ATOM     23  C   UNL A   1      36.382  22.771  23.083  1.00  0.00     0.047 A 
ATOM     24  C   UNL A   1      37.351  22.156  23.875  1.00  0.00     0.004 A 
ATOM     25  C   UNL A   1      36.341  23.130  25.827  1.00  0.00     0.018 A 
ATOM     26  C   UNL A   1      37.354  22.368  25.248  1.00  0.00     0.001 A 
BRANCH  22  27
ATOM     27  O   UNL A   1      34.586  24.159  22.695  1.00  0.00    -0.496 OA
ATOM     28  C   UNL A   1      33.613  23.336  22.071  1.00  0.00     0.278 C 
ENDBRANCH  22  27
ENDBRANCH  18  21
ENDBRANCH  15  17
BRANCH  16  29
ATOM     29  C   UNL A   1      32.417  20.381  25.040  1.00  0.00    -0.019 A 
ATOM     30  C   UNL A   1      32.201  20.163  23.269  1.00  0.00     0.012 A 
ATOM     31  C   UNL A   1      32.896  18.973  26.007  1.00  0.00     0.058 A 
ATOM     32  C   UNL A   1      32.663  18.365  22.458  1.00  0.00     0.051 A 
ATOM     33  C   UNL A   1      33.243  17.398  25.265  1.00  0.00     0.166 A 
ATOM     34  C   UNL A   1      33.153  17.064  23.577  1.00  0.00     0.165 A 
ATOM     35  O   UNL A   1      34.081  16.444  25.789  1.00  0.00    -0.454 OA
ATOM     36  O   UNL A   1      33.923  15.977  23.313  1.00  0.00    -0.454 OA
ATOM     37  C   UNL A   1      34.672  15.873  24.569  1.00  0.00     0.468 C 
ENDBRANCH  16  29
ENDBRANCH  12  15
ENDBRANCH   6  11
ENDBRANCH   1   5
BRANCH   3  38
ATOM     38  C   UNL A   1      31.546  30.913  26.107  1.00  0.00     0.118 C 
BRANCH  38  39
ATOM     39  C   UNL A   1      31.393  32.318  26.674  1.00  0.00     0.042 C 
BRANCH  39  40
ATOM     40  C   UNL A   1      32.707  32.928  27.143  1.00  0.00     0.118 C 
BRANCH  40  41
ATOM     41  N   UNL A   1      32.507  34.142  27.914  1.00  0.00    -0.352 N 
ATOM     42  C   UNL A   1      33.206  34.602  29.002  1.00  0.00     0.251 C 
ATOM     43  H   UNL A   1      31.766  34.717  27.614  1.00  0.00     0.163 HD
ATOM     44  O   UNL A   1      32.759  35.532  29.667  1.00  0.00    -0.269 OA
BRANCH  42  45
ATOM     45  C   UNL A   1      34.489  33.973  29.377  1.00  0.00     0.039 A 
ATOM     46  C   UNL A   1      35.634  34.282  28.640  1.00  0.00     0.014 A 
ATOM     47  C   UNL A   1      34.558  33.054  30.428  1.00  0.00     0.014 A 
ATOM     48  C   UNL A   1      36.853  33.688  28.974  1.00  0.00     0.010 A 
ATOM     49  C   UNL A   1      35.788  32.537  30.819  1.00  0.00     0.010 A 
ATOM     50  C   UNL A   1      36.941  32.821  30.076  1.00  0.00    -0.014 A 
BRANCH  50  51
ATOM     51  C   UNL A   1      38.217  32.148  30.422  1.00  0.00     0.031 A 
ATOM     52  C   UNL A   1      39.164  32.804  31.393  1.00  0.00     0.074 A 
ATOM     53  C   UNL A   1      38.543  30.981  29.833  1.00  0.00     0.049 A 
ATOM     54  N   UNL A   1      40.343  32.402  31.795  1.00  0.00    -0.248 NA
ATOM     55  C   UNL A   1      38.747  34.096  31.965  1.00  0.00     0.031 C 
ATOM     56  C   UNL A   1      37.733  30.272  28.839  1.00  0.00     0.029 A 
ATOM     57  N   UNL A   1      39.650  30.185  29.987  1.00  0.00    -0.354 N 
ATOM     58  C   UNL A   1      40.817  33.405  32.634  1.00  0.00     0.074 A 
ATOM     59  C   UNL A   1      39.823  34.453  32.651  1.00  0.00     0.031 C 
ATOM     60  C   UNL A   1      38.357  29.134  28.495  1.00  0.00     0.029 A 
ATOM     61  C   UNL A   1      39.622  29.047  29.217  1.00  0.00     0.049 A 
ATOM     62  H   UNL A   1      40.394  30.407  30.592  1.00  0.00     0.167 HD
ATOM     63  C   UNL A   1      41.968  33.439  33.345  1.00  0.00     0.031 A 
ATOM     64  C   UNL A   1      40.517  28.047  29.110  1.00  0.00     0.031 A 
ATOM     65  C   UNL A   1      42.931  32.374  33.367  1.00  0.00     0.049 A 
ATOM     66  C   UNL A   1      41.765  28.094  29.947  1.00  0.00     0.074 A 
ATOM     67  C   UNL A   1      44.089  32.275  34.118  1.00  0.00     0.029 A 
ATOM     68  N   UNL A   1      42.842  31.218  32.609  1.00  0.00    -0.354 N 
ATOM     69  N   UNL A   1      42.157  29.009  30.800  1.00  0.00    -0.248 NA
ATOM     70  C   UNL A   1      42.686  26.954  29.823  1.00  0.00     0.031 C 
ATOM     71  C   UNL A   1      44.723  31.075  33.782  1.00  0.00     0.029 A 
ATOM     72  C   UNL A   1      43.931  30.406  32.863  1.00  0.00     0.049 A 
ATOM     73  H   UNL A   1      42.111  31.008  31.983  1.00  0.00     0.167 HD
ATOM     74  C   UNL A   1      43.346  28.539  31.341  1.00  0.00     0.074 A 
ATOM     75  C   UNL A   1      43.603  27.250  30.732  1.00  0.00     0.031 C 
ATOM     76  C   UNL A   1      44.155  29.119  32.260  1.00  0.00     0.031 A 
BRANCH  63  77
ATOM     77  C   UNL A   1      42.248  34.667  34.167  1.00  0.00    -0.014 A 
ATOM     78  C   UNL A   1      42.881  35.789  33.610  1.00  0.00     0.009 A 
ATOM     79  C   UNL A   1      41.817  34.722  35.502  1.00  0.00     0.009 A 
ATOM     80  C   UNL A   1      43.101  36.932  34.383  1.00  0.00     0.001 A 
ATOM     81  C   UNL A   1      42.014  35.876  36.263  1.00  0.00     0.001 A 
ATOM     82  C   UNL A   1      42.661  36.977  35.705  1.00  0.00     0.000 A 
ENDBRANCH  63  77
BRANCH  64  83
ATOM     83  C   UNL A   1      40.264  26.902  28.196  1.00  0.00    -0.014 A 
ATOM     84  C   UNL A   1      39.518  25.794  28.630  1.00  0.00     0.009 A 
ATOM     85  C   UNL A   1      40.800  26.890  26.900  1.00  0.00     0.009 A 
ATOM     86  C   UNL A   1      39.353  24.681  27.802  1.00  0.00     0.001 A 
ATOM     87  C   UNL A   1      40.606  25.789  26.061  1.00  0.00     0.001 A 
ATOM     88  C   UNL A   1      39.896  24.681  26.518  1.00  0.00     0.000 A 
ENDBRANCH  64  83
BRANCH  76  89
ATOM     89  C   UNL A   1      45.358  28.338  32.704  1.00  0.00    -0.014 A 
ATOM     90  C   UNL A   1      46.619  28.541  32.123  1.00  0.00     0.009 A 
ATOM     91  C   UNL A   1      45.229  27.408  33.747  1.00  0.00     0.009 A 
ATOM     92  C   UNL A   1      47.718  27.796  32.551  1.00  0.00     0.001 A 
ATOM     93  C   UNL A   1      46.335  26.688  34.195  1.00  0.00     0.001 A 
ATOM     94  C   UNL A   1      47.577  26.873  33.588  1.00  0.00     0.000 A 
ENDBRANCH  76  89
ENDBRANCH  50  51
ENDBRANCH  42  45
ENDBRANCH  40  41
ENDBRANCH  39  40
ENDBRANCH  38  39
ENDBRANCH   3  38
TORSDOF 16
ENDMDL
MODEL 2
REMARK VINA RESULT:     -12.0      1.258      5.618
REMARK SMILES COc1ccccc1C(=O)N/C(=C/c1ccc2c(c1)OCO2)C(=O)Nc1ccc(C(=O)NCCCNC(=O)c2ccc(-c3c4nc(c(-c5ccccc5)c5ccc([nH]5)c(-c5ccccc5)c5nc(c(-c6ccccc6)c6ccc3[nH]6)C=C5)C=C4)cc2)cc1
REMARK SMILES IDX 30 1 31 2 32 3 29 5 26 6 27 7 88 8 28 9 87 10 25 11 23 12
REMARK SMILES IDX 24 13 12 15 13 16 11 17 9 18 10 19 8 21 3 22 4 23 5 24 7 25
REMARK SMILES IDX 6 26 2 27 1 28 14 29 15 30 19 31 16 32 18 33 17 34 20 35
REMARK SMILES IDX 22 36 21 37 33 38 34 39 35 40 36 41 37 42 38 44 39 45 40 46
REMARK SMILES IDX 86 47 41 48 85 49 42 50 43 51 44 52 79 53 45 54 84 55 78 56
REMARK SMILES IDX 80 57 46 58 83 59 77 60 76 61 47 63 69 64 54 65 68 66 55 67
REMARK SMILES IDX 58 68 67 69 81 70 56 71 57 72 66 74 82 75 59 76 48 77 49 78
REMARK SMILES IDX 53 79 50 80 52 81 51 82 70 83 71 84 75 85 72 86 74 87 73 88
REMARK SMILES IDX 60 89 61 90 65 91 62 92 64 93 63 94
REMARK H PARENT 32 4 25 14 11 20 36 43 80 62 58 73
REMARK Flexibility Score: inf
ROOT
ATOM      1  C   UNL A   1      32.742  29.327  24.739  1.00  0.00     0.251 C 
ATOM      2  O   UNL A   1      33.647  29.249  23.917  1.00  0.00    -0.269 OA
ATOM      3  N   UNL A   1      32.488  30.505  25.383  1.00  0.00    -0.352 N 
ATOM      4  H   UNL A   1      33.112  31.237  25.174  1.00  0.00     0.163 HD
ENDROOT
BRANCH   1   5
ATOM      5  C   UNL A   1      31.876  28.170  24.960  1.00  0.00     0.039 A 
ATOM      6  C   UNL A   1      29.881  25.078  25.518  1.00  0.00     0.041 A 
ATOM      7  C   UNL A   1      30.814  25.736  26.869  1.00  0.00     0.027 A 
ATOM      8  C   UNL A   1      29.871  25.957  23.996  1.00  0.00     0.027 A 
ATOM      9  C   UNL A   1      31.953  27.382  26.576  1.00  0.00     0.016 A 
ATOM     10  C   UNL A   1      30.825  27.448  23.731  1.00  0.00     0.016 A 
BRANCH   6  11
ATOM     11  N   UNL A   1      29.885  23.672  25.523  1.00  0.00    -0.321 N 
ATOM     12  C   UNL A   1      31.046  22.958  25.803  1.00  0.00     0.272 C 
ATOM     13  O   UNL A   1      31.088  22.175  26.753  1.00  0.00    -0.267 OA
ATOM     14  H   UNL A   1      29.053  23.185  25.325  1.00  0.00     0.170 HD
BRANCH  12  15
ATOM     15  C   UNL A   1      32.216  22.978  24.791  1.00  0.00     0.108 C 
ATOM     16  C   UNL A   1      32.598  21.969  23.954  1.00  0.00     0.040 C 
BRANCH  15  17
ATOM     17  N   UNL A   1      32.944  24.159  24.668  1.00  0.00    -0.317 N 
ATOM     18  C   UNL A   1      34.279  24.493  24.609  1.00  0.00     0.259 C 
ATOM     19  O   UNL A   1      34.561  25.689  24.484  1.00  0.00    -0.269 OA
ATOM     20  H   UNL A   1      32.360  24.950  24.608  1.00  0.00     0.170 HD
BRANCH  18  21
ATOM     21  C   UNL A   1      35.402  23.546  24.722  1.00  0.00     0.082 A 
ATOM     22  C   UNL A   1      35.838  22.909  25.891  1.00  0.00     0.131 A 
ATOM     23  C   UNL A   1      37.016  22.146  25.841  1.00  0.00     0.047 A 
ATOM     24  C   UNL A   1      37.683  21.917  24.637  1.00  0.00     0.004 A 
ATOM     25  C   UNL A   1      36.042  23.257  23.500  1.00  0.00     0.018 A 
ATOM     26  C   UNL A   1      37.172  22.441  23.456  1.00  0.00     0.001 A 
BRANCH  22  27
ATOM     27  O   UNL A   1      35.304  22.957  27.149  1.00  0.00    -0.496 OA
ATOM     28  C   UNL A   1      34.371  21.954  27.521  1.00  0.00     0.278 C 
ENDBRANCH  22  27
ENDBRANCH  18  21
ENDBRANCH  15  17
BRANCH  16  29
ATOM     29  C   UNL A   1      32.149  20.560  24.035  1.00  0.00    -0.019 A 
ATOM     30  C   UNL A   1      31.973  19.915  22.367  1.00  0.00     0.012 A 
ATOM     31  C   UNL A   1      32.717  19.459  25.306  1.00  0.00     0.058 A 
ATOM     32  C   UNL A   1      32.575  18.016  22.001  1.00  0.00     0.051 A 
ATOM     33  C   UNL A   1      33.188  17.784  24.954  1.00  0.00     0.166 A 
ATOM     34  C   UNL A   1      33.145  17.055  23.393  1.00  0.00     0.165 A 
ATOM     35  O   UNL A   1      34.087  17.045  25.684  1.00  0.00    -0.454 OA
ATOM     36  O   UNL A   1      33.996  15.998  23.389  1.00  0.00    -0.454 OA
ATOM     37  C   UNL A   1      34.735  16.248  24.630  1.00  0.00     0.468 C 
ENDBRANCH  16  29
ENDBRANCH  12  15
ENDBRANCH   6  11
ENDBRANCH   1   5
BRANCH   3  38
ATOM     38  C   UNL A   1      31.439  30.841  26.326  1.00  0.00     0.118 C 
BRANCH  38  39
ATOM     39  C   UNL A   1      31.403  32.339  26.599  1.00  0.00     0.042 C 
BRANCH  39  40
ATOM     40  C   UNL A   1      32.673  32.867  27.250  1.00  0.00     0.118 C 
BRANCH  40  41
ATOM     41  N   UNL A   1      32.530  34.239  27.707  1.00  0.00    -0.352 N 
ATOM     42  C   UNL A   1      33.196  34.891  28.713  1.00  0.00     0.251 C 
ATOM     43  H   UNL A   1      31.860  34.777  27.225  1.00  0.00     0.163 HD
ATOM     44  O   UNL A   1      32.790  35.978  29.111  1.00  0.00    -0.269 OA
BRANCH  42  45
ATOM     45  C   UNL A   1      34.395  34.281  29.323  1.00  0.00     0.039 A 
ATOM     46  C   UNL A   1      35.647  34.546  28.764  1.00  0.00     0.014 A 
ATOM     47  C   UNL A   1      34.285  33.421  30.420  1.00  0.00     0.014 A 
ATOM     48  C   UNL A   1      36.790  33.969  29.321  1.00  0.00     0.010 A 
ATOM     49  C   UNL A   1      35.430  32.923  31.030  1.00  0.00     0.010 A 
ATOM     50  C   UNL A   1      36.691  33.163  30.468  1.00  0.00    -0.014 A 
BRANCH  50  51
ATOM     51  C   UNL A   1      37.887  32.507  31.050  1.00  0.00     0.031 A 
ATOM     52  C   UNL A   1      38.465  31.286  30.383  1.00  0.00     0.074 A 
ATOM     53  C   UNL A   1      38.422  32.977  32.195  1.00  0.00     0.049 A 
ATOM     54  N   UNL A   1      39.477  30.544  30.753  1.00  0.00    -0.248 NA
ATOM     55  C   UNL A   1      37.799  30.817  29.154  1.00  0.00     0.031 C 
ATOM     56  C   UNL A   1      37.923  34.120  32.962  1.00  0.00     0.029 A 
ATOM     57  N   UNL A   1      39.507  32.543  32.914  1.00  0.00    -0.354 N 
ATOM     58  C   UNL A   1      39.544  29.509  29.827  1.00  0.00     0.074 A 
ATOM     59  C   UNL A   1      38.448  29.690  28.904  1.00  0.00     0.031 C 
ATOM     60  C   UNL A   1      38.717  34.314  34.028  1.00  0.00     0.029 A 
ATOM     61  C   UNL A   1      39.759  33.293  34.037  1.00  0.00     0.049 A 
ATOM     62  H   UNL A   1      40.053  31.768  32.651  1.00  0.00     0.167 HD
ATOM     63  C   UNL A   1      40.452  28.509  29.740  1.00  0.00     0.031 A 
ATOM     64  C   UNL A   1      40.725  33.171  34.966  1.00  0.00     0.031 A 
ATOM     65  C   UNL A   1      41.570  28.359  30.628  1.00  0.00     0.049 A 
ATOM     66  C   UNL A   1      41.745  32.076  34.817  1.00  0.00     0.074 A 
ATOM     67  C   UNL A   1      42.594  27.430  30.576  1.00  0.00     0.029 A 
ATOM     68  N   UNL A   1      41.816  29.169  31.725  1.00  0.00    -0.354 N 
ATOM     69  N   UNL A   1      41.843  31.157  33.886  1.00  0.00    -0.248 NA
ATOM     70  C   UNL A   1      42.803  32.015  35.836  1.00  0.00     0.031 C 
ATOM     71  C   UNL A   1      43.438  27.652  31.669  1.00  0.00     0.029 A 
ATOM     72  C   UNL A   1      42.967  28.752  32.367  1.00  0.00     0.049 A 
ATOM     73  H   UNL A   1      41.254  29.928  32.005  1.00  0.00     0.167 HD
ATOM     74  C   UNL A   1      42.992  30.437  34.185  1.00  0.00     0.074 A 
ATOM     75  C   UNL A   1      43.565  31.034  35.374  1.00  0.00     0.031 C 
ATOM     76  C   UNL A   1      43.528  29.375  33.536  1.00  0.00     0.031 A 
BRANCH  63  77
ATOM     77  C   UNL A   1      40.279  27.499  28.640  1.00  0.00    -0.014 A 
ATOM     78  C   UNL A   1      40.924  27.649  27.402  1.00  0.00     0.009 A 
ATOM     79  C   UNL A   1      39.506  26.349  28.869  1.00  0.00     0.009 A 
ATOM     80  C   UNL A   1      40.775  26.680  26.406  1.00  0.00     0.001 A 
ATOM     81  C   UNL A   1      39.382  25.370  27.881  1.00  0.00     0.001 A 
ATOM     82  C   UNL A   1      40.012  25.540  26.649  1.00  0.00     0.000 A 
ENDBRANCH  63  77
BRANCH  64  83
ATOM     83  C   UNL A   1      40.798  34.117  36.110  1.00  0.00    -0.014 A 
ATOM     84  C   UNL A   1      41.444  35.356  35.972  1.00  0.00     0.009 A 
ATOM     85  C   UNL A   1      40.258  33.772  37.359  1.00  0.00     0.009 A 
ATOM     86  C   UNL A   1      41.587  36.209  37.069  1.00  0.00     0.001 A 
ATOM     87  C   UNL A   1      40.375  34.640  38.447  1.00  0.00     0.001 A 
ATOM     88  C   UNL A   1      41.051  35.851  38.305  1.00  0.00     0.000 A 
ENDBRANCH  64  83
BRANCH  76  89
ATOM     89  C   UNL A   1      44.826  28.833  34.063  1.00  0.00    -0.014 A 
ATOM     90  C   UNL A   1      46.060  29.334  33.624  1.00  0.00     0.009 A 
ATOM     91  C   UNL A   1      44.806  27.828  35.043  1.00  0.00     0.009 A 
ATOM     92  C   UNL A   1      47.252  28.807  34.126  1.00  0.00     0.001 A 
ATOM     93  C   UNL A   1      45.997  27.326  35.566  1.00  0.00     0.001 A 
ATOM     94  C   UNL A   1      47.219  27.807  35.099  1.00  0.00     0.000 A 
ENDBRANCH  76  89
ENDBRANCH  50  51
ENDBRANCH  42  45
ENDBRANCH  40  41
ENDBRANCH  39  40
ENDBRANCH  38  39
ENDBRANCH   3  38
TORSDOF 16
ENDMDL
MODEL 3
REMARK VINA RESULT:     -11.7      4.588      7.815
REMARK SMILES COc1ccccc1C(=O)N/C(=C/c1ccc2c(c1)OCO2)C(=O)Nc1ccc(C(=O)NCCCNC(=O)c2ccc(-c3c4nc(c(-c5ccccc5)c5ccc([nH]5)c(-c5ccccc5)c5nc(c(-c6ccccc6)c6ccc3[nH]6)C=C5)C=C4)cc2)cc1
REMARK SMILES IDX 30 1 31 2 32 3 29 5 26 6 27 7 88 8 28 9 87 10 25 11 23 12
REMARK SMILES IDX 24 13 12 15 13 16 11 17 9 18 10 19 8 21 3 22 4 23 5 24 7 25
REMARK SMILES IDX 6 26 2 27 1 28 14 29 15 30 19 31 16 32 18 33 17 34 20 35
REMARK SMILES IDX 22 36 21 37 33 38 34 39 35 40 36 41 37 42 38 44 39 45 40 46
REMARK SMILES IDX 86 47 41 48 85 49 42 50 43 51 44 52 79 53 45 54 84 55 78 56
REMARK SMILES IDX 80 57 46 58 83 59 77 60 76 61 47 63 69 64 54 65 68 66 55 67
REMARK SMILES IDX 58 68 67 69 81 70 56 71 57 72 66 74 82 75 59 76 48 77 49 78
REMARK SMILES IDX 53 79 50 80 52 81 51 82 70 83 71 84 75 85 72 86 74 87 73 88
REMARK SMILES IDX 60 89 61 90 65 91 62 92 64 93 63 94
REMARK H PARENT 32 4 25 14 11 20 36 43 80 62 58 73
REMARK Flexibility Score: inf
ROOT
ATOM      1  C   UNL A   1      35.887  33.672  29.366  1.00  0.00     0.251 C 
ATOM      2  O   UNL A   1      36.029  34.673  28.673  1.00  0.00    -0.269 OA
ATOM      3  N   UNL A   1      34.939  33.636  30.348  1.00  0.00    -0.352 N 
ATOM      4  H   UNL A   1      34.441  34.476  30.477  1.00  0.00     0.163 HD
ENDROOT
BRANCH   1   5
ATOM      5  C   UNL A   1      36.683  32.482  29.072  1.00  0.00     0.039 A 
ATOM      6  C   UNL A   1      38.563  29.322  28.491  1.00  0.00     0.041 A 
ATOM      7  C   UNL A   1      36.960  29.498  27.763  1.00  0.00     0.027 A 
ATOM      8  C   UNL A   1      39.231  30.678  29.389  1.00  0.00     0.027 A 
ATOM      9  C   UNL A   1      35.894  31.181  28.112  1.00  0.00     0.016 A 
ATOM     10  C   UNL A   1      38.329  32.199  29.662  1.00  0.00     0.016 A 
BRANCH   6  11
ATOM     11  N   UNL A   1      38.791  28.005  28.925  1.00  0.00    -0.321 N 
ATOM     12  C   UNL A   1      40.070  27.458  28.922  1.00  0.00     0.272 C 
ATOM     13  O   UNL A   1      40.583  27.051  29.966  1.00  0.00    -0.267 OA
ATOM     14  H   UNL A   1      38.033  27.459  29.234  1.00  0.00     0.170 HD
BRANCH  12  15
ATOM     15  C   UNL A   1      40.768  27.158  27.574  1.00  0.00     0.108 C 
ATOM     16  C   UNL A   1      40.693  26.004  26.848  1.00  0.00     0.040 C 
BRANCH  15  17
ATOM     17  N   UNL A   1      41.522  28.175  26.995  1.00  0.00    -0.317 N 
ATOM     18  C   UNL A   1      42.833  28.329  26.599  1.00  0.00     0.259 C 
ATOM     19  O   UNL A   1      43.152  29.411  26.096  1.00  0.00    -0.269 OA
ATOM     20  H   UNL A   1      40.987  28.985  26.828  1.00  0.00     0.170 HD
BRANCH  18  21
ATOM     21  C   UNL A   1      43.897  27.322  26.758  1.00  0.00     0.082 A 
ATOM     22  C   UNL A   1      44.930  27.054  25.850  1.00  0.00     0.131 A 
ATOM     23  C   UNL A   1      45.775  25.960  26.098  1.00  0.00     0.047 A 
ATOM     24  C   UNL A   1      45.681  25.221  27.277  1.00  0.00     0.004 A 
ATOM     25  C   UNL A   1      43.850  26.614  27.975  1.00  0.00     0.018 A 
ATOM     26  C   UNL A   1      44.741  25.575  28.237  1.00  0.00     0.001 A 
BRANCH  22  27
ATOM     27  O   UNL A   1      45.229  27.686  24.674  1.00  0.00    -0.496 OA
ATOM     28  C   UNL A   1      46.591  27.964  24.389  1.00  0.00     0.278 C 
ENDBRANCH  22  27
ENDBRANCH  18  21
ENDBRANCH  15  17
BRANCH  16  29
ATOM     29  C   UNL A   1      40.154  24.711  27.330  1.00  0.00    -0.019 A 
ATOM     30  C   UNL A   1      38.755  24.251  26.300  1.00  0.00     0.012 A 
ATOM     31  C   UNL A   1      41.205  23.420  27.945  1.00  0.00     0.058 A 
ATOM     32  C   UNL A   1      38.545  22.305  25.775  1.00  0.00     0.051 A 
ATOM     33  C   UNL A   1      40.958  21.718  27.503  1.00  0.00     0.166 A 
ATOM     34  C   UNL A   1      39.709  21.141  26.466  1.00  0.00     0.165 A 
ATOM     35  O   UNL A   1      41.940  20.758  27.472  1.00  0.00    -0.454 OA
ATOM     36  O   UNL A   1      40.089  19.939  25.964  1.00  0.00    -0.454 OA
ATOM     37  C   UNL A   1      41.508  19.936  26.331  1.00  0.00     0.468 C 
ENDBRANCH  16  29
ENDBRANCH  12  15
ENDBRANCH   6  11
ENDBRANCH   1   5
BRANCH   3  38
ATOM     38  C   UNL A   1      34.553  32.551  31.228  1.00  0.00     0.118 C 
BRANCH  38  39
ATOM     39  C   UNL A   1      35.685  32.182  32.178  1.00  0.00     0.042 C 
BRANCH  39  40
ATOM     40  C   UNL A   1      36.378  33.390  32.792  1.00  0.00     0.118 C 
BRANCH  40  41
ATOM     41  N   UNL A   1      36.494  33.284  34.236  1.00  0.00    -0.352 N 
ATOM     42  C   UNL A   1      37.392  32.563  34.983  1.00  0.00     0.251 C 
ATOM     43  H   UNL A   1      35.836  33.803  34.753  1.00  0.00     0.163 HD
ATOM     44  O   UNL A   1      37.203  32.409  36.185  1.00  0.00    -0.269 OA
BRANCH  42  45
ATOM     45  C   UNL A   1      38.579  31.965  34.337  1.00  0.00     0.039 A 
ATOM     46  C   UNL A   1      39.823  32.576  34.512  1.00  0.00     0.014 A 
ATOM     47  C   UNL A   1      38.463  30.828  33.532  1.00  0.00     0.014 A 
ATOM     48  C   UNL A   1      40.953  32.030  33.900  1.00  0.00     0.010 A 
ATOM     49  C   UNL A   1      39.602  30.233  33.001  1.00  0.00     0.010 A 
ATOM     50  C   UNL A   1      40.853  30.846  33.152  1.00  0.00    -0.014 A 
BRANCH  50  51
ATOM     51  C   UNL A   1      42.033  30.274  32.460  1.00  0.00     0.031 A 
ATOM     52  C   UNL A   1      42.614  30.987  31.266  1.00  0.00     0.074 A 
ATOM     53  C   UNL A   1      42.551  29.099  32.871  1.00  0.00     0.049 A 
ATOM     54  N   UNL A   1      43.614  30.633  30.499  1.00  0.00    -0.248 NA
ATOM     55  C   UNL A   1      41.967  32.247  30.860  1.00  0.00     0.031 C 
ATOM     56  C   UNL A   1      42.046  28.289  33.982  1.00  0.00     0.029 A 
ATOM     57  N   UNL A   1      43.619  28.382  32.396  1.00  0.00    -0.354 N 
ATOM     58  C   UNL A   1      43.690  31.605  29.507  1.00  0.00     0.074 A 
ATOM     59  C   UNL A   1      42.613  32.538  29.740  1.00  0.00     0.031 C 
ATOM     60  C   UNL A   1      42.823  27.201  34.120  1.00  0.00     0.029 A 
ATOM     61  C   UNL A   1      43.857  27.221  33.091  1.00  0.00     0.049 A 
ATOM     62  H   UNL A   1      44.165  28.671  31.629  1.00  0.00     0.167 HD
ATOM     63  C   UNL A   1      44.592  31.723  28.505  1.00  0.00     0.031 A 
ATOM     64  C   UNL A   1      44.805  26.282  32.918  1.00  0.00     0.031 A 
ATOM     65  C   UNL A   1      45.693  30.822  28.306  1.00  0.00     0.049 A 
ATOM     66  C   UNL A   1      45.819  26.464  31.823  1.00  0.00     0.074 A 
ATOM     67  C   UNL A   1      46.711  30.899  27.371  1.00  0.00     0.029 A 
ATOM     68  N   UNL A   1      45.925  29.685  29.062  1.00  0.00    -0.354 N 
ATOM     69  N   UNL A   1      45.928  27.434  30.947  1.00  0.00    -0.248 NA
ATOM     70  C   UNL A   1      46.858  25.430  31.707  1.00  0.00     0.031 C 
ATOM     71  C   UNL A   1      47.537  29.783  27.535  1.00  0.00     0.029 A 
ATOM     72  C   UNL A   1      47.061  29.042  28.606  1.00  0.00     0.049 A 
ATOM     73  H   UNL A   1      45.364  29.380  29.811  1.00  0.00     0.167 HD
ATOM     74  C   UNL A   1      47.065  27.148  30.204  1.00  0.00     0.074 A 
ATOM     75  C   UNL A   1      47.621  25.923  30.742  1.00  0.00     0.031 C 
ATOM     76  C   UNL A   1      47.605  27.836  29.169  1.00  0.00     0.031 A 
BRANCH  63  77
ATOM     77  C   UNL A   1      44.432  32.871  27.549  1.00  0.00    -0.014 A 
ATOM     78  C   UNL A   1      43.982  32.669  26.234  1.00  0.00     0.009 A 
ATOM     79  C   UNL A   1      44.677  34.181  27.989  1.00  0.00     0.009 A 
ATOM     80  C   UNL A   1      43.808  33.755  25.373  1.00  0.00     0.001 A 
ATOM     81  C   UNL A   1      44.476  35.267  27.134  1.00  0.00     0.001 A 
ATOM     82  C   UNL A   1      44.048  35.052  25.825  1.00  0.00     0.000 A 
ENDBRANCH  63  77
BRANCH  64  83
ATOM     83  C   UNL A   1      44.864  25.094  33.810  1.00  0.00    -0.014 A 
ATOM     84  C   UNL A   1      44.203  23.905  33.460  1.00  0.00     0.009 A 
ATOM     85  C   UNL A   1      45.546  25.153  35.035  1.00  0.00     0.009 A 
ATOM     86  C   UNL A   1      44.186  22.818  34.337  1.00  0.00     0.001 A 
ATOM     87  C   UNL A   1      45.554  24.052  35.896  1.00  0.00     0.001 A 
ATOM     88  C   UNL A   1      44.863  22.892  35.553  1.00  0.00     0.000 A 
ENDBRANCH  64  83
BRANCH  76  89
ATOM     89  C   UNL A   1      48.890  27.312  28.593  1.00  0.00    -0.014 A 
ATOM     90  C   UNL A   1      48.896  26.408  27.520  1.00  0.00     0.009 A 
ATOM     91  C   UNL A   1      50.113  27.761  29.116  1.00  0.00     0.009 A 
ATOM     92  C   UNL A   1      50.104  25.932  27.010  1.00  0.00     0.001 A 
ATOM     93  C   UNL A   1      51.319  27.308  28.583  1.00  0.00     0.001 A 
ATOM     94  C   UNL A   1      51.314  26.385  27.538  1.00  0.00     0.000 A 
ENDBRANCH  76  89
ENDBRANCH  50  51
ENDBRANCH  42  45
ENDBRANCH  40  41
ENDBRANCH  39  40
ENDBRANCH  38  39
ENDBRANCH   3  38
TORSDOF 16
ENDMDL
