MODEL 1
REMARK VINA RESULT:     -10.9      0.000      0.000
REMARK SMILES [NH3+][C@@H](CNc1ccc(C(=O)NCCCNC(=O)c2ccc(-c3c4nc(c(-c5ccccc5)c5ccc([nH]5)c(-c5ccccc5)c5nc(c(-c6ccccc6)c6ccc3[nH]6)C=C5)C=C4)cc2)c(F)c1F)c1ccccc1
REMARK SMILES IDX 12 1 11 2 9 3 10 4 8 6 5 7 6 8 68 9 7 10 66 11 69 12 67 13
REMARK SMILES IDX 4 14 3 16 2 17 1 18 70 22 71 23 75 24 72 25 74 26 73 27
REMARK SMILES IDX 13 28 14 29 15 30 16 31 17 33 18 34 19 35 65 36 20 37 64 38
REMARK SMILES IDX 21 39 22 40 23 41 58 42 24 43 63 44 57 45 59 46 25 47 62 48
REMARK SMILES IDX 56 49 55 50 26 52 48 53 33 54 47 55 34 56 37 57 46 58 60 59
REMARK SMILES IDX 35 60 36 61 45 63 61 64 38 65 27 66 28 67 32 68 29 69 31 70
REMARK SMILES IDX 30 71 49 72 50 73 54 74 51 75 53 76 52 77 39 78 40 79 44 80
REMARK SMILES IDX 41 81 43 82 42 83
REMARK H PARENT 11 5 4 15 1 19 1 20 1 21 15 32 59 51 37 62
REMARK Flexibility Score: inf
ROOT
ATOM      1  C   UNL A   1      37.089  20.643  24.973  1.00  0.00     0.118 C 
ENDROOT
BRANCH   1   2
ATOM      2  N   UNL A   1      37.521  21.898  25.554  1.00  0.00    -0.352 N 
ATOM      3  C   UNL A   1      37.061  23.184  25.526  1.00  0.00     0.254 C 
ATOM      4  O   UNL A   1      37.753  23.994  26.152  1.00  0.00    -0.269 OA
ATOM      5  H   UNL A   1      38.337  21.802  26.096  1.00  0.00     0.163 HD
BRANCH   3   6
ATOM      6  C   UNL A   1      35.818  23.688  24.870  1.00  0.00     0.078 A 
ATOM      7  C   UNL A   1      33.356  24.787  23.933  1.00  0.00     0.074 A 
ATOM      8  C   UNL A   1      33.808  25.065  25.219  1.00  0.00     0.030 A 
ATOM      9  C   UNL A   1      34.160  23.973  23.125  1.00  0.00     0.182 A 
ATOM     10  C   UNL A   1      35.002  24.503  25.686  1.00  0.00     0.019 A 
ATOM     11  C   UNL A   1      35.389  23.472  23.564  1.00  0.00     0.173 A 
ATOM     12  F   UNL A   1      33.750  23.695  21.875  1.00  0.00    -0.201 F 
ATOM     13  F   UNL A   1      36.142  22.852  22.649  1.00  0.00    -0.203 F 
BRANCH   7  14
ATOM     14  N   UNL A   1      32.203  25.390  23.425  1.00  0.00    -0.376 N 
ATOM     15  H   UNL A   1      31.310  25.025  23.621  1.00  0.00     0.160 HD
BRANCH  14  16
ATOM     16  C   UNL A   1      32.370  26.588  22.589  1.00  0.00     0.183 C 
BRANCH  16  17
ATOM     17  C   UNL A   1      31.758  27.874  23.245  1.00  0.00     0.231 C 
BRANCH  17  18
ATOM     18  N   UNL A   1      31.948  29.038  22.352  1.00  0.00    -0.350 N 
ATOM     19  H   UNL A   1      31.207  29.055  21.651  1.00  0.00     0.345 HD
ATOM     20  H   UNL A   1      32.853  28.967  21.887  1.00  0.00     0.345 HD
ATOM     21  H   UNL A   1      31.915  29.897  22.901  1.00  0.00     0.345 HD
ENDBRANCH  17  18
BRANCH  17  22
ATOM     22  C   UNL A   1      32.239  28.135  24.673  1.00  0.00     0.011 A 
ATOM     23  C   UNL A   1      31.423  27.914  25.797  1.00  0.00     0.010 A 
ATOM     24  C   UNL A   1      33.552  28.587  24.904  1.00  0.00     0.010 A 
ATOM     25  C   UNL A   1      31.879  28.183  27.091  1.00  0.00     0.001 A 
ATOM     26  C   UNL A   1      34.008  28.857  26.199  1.00  0.00     0.001 A 
ATOM     27  C   UNL A   1      33.168  28.662  27.291  1.00  0.00     0.000 A 
ENDBRANCH  17  22
ENDBRANCH  16  17
ENDBRANCH  14  16
ENDBRANCH   7  14
ENDBRANCH   3   6
ENDBRANCH   1   2
BRANCH   1  28
ATOM     28  C   UNL A   1      38.220  19.613  24.999  1.00  0.00     0.042 C 
BRANCH  28  29
ATOM     29  C   UNL A   1      39.209  19.847  26.143  1.00  0.00     0.118 C 
BRANCH  29  30
ATOM     30  N   UNL A   1      40.469  19.144  25.922  1.00  0.00    -0.352 N 
ATOM     31  C   UNL A   1      41.760  19.605  25.904  1.00  0.00     0.251 C 
ATOM     32  H   UNL A   1      40.377  18.177  25.761  1.00  0.00     0.163 HD
ATOM     33  O   UNL A   1      42.649  18.899  25.438  1.00  0.00    -0.269 OA
BRANCH  31  34
ATOM     34  C   UNL A   1      42.094  20.939  26.444  1.00  0.00     0.039 A 
ATOM     35  C   UNL A   1      42.131  21.118  27.830  1.00  0.00     0.014 A 
ATOM     36  C   UNL A   1      42.303  22.027  25.593  1.00  0.00     0.014 A 
ATOM     37  C   UNL A   1      42.428  22.374  28.360  1.00  0.00     0.010 A 
ATOM     38  C   UNL A   1      42.676  23.258  26.120  1.00  0.00     0.010 A 
ATOM     39  C   UNL A   1      42.732  23.447  27.509  1.00  0.00    -0.014 A 
BRANCH  39  40
ATOM     40  C   UNL A   1      43.112  24.776  28.049  1.00  0.00     0.031 A 
ATOM     41  C   UNL A   1      42.058  25.812  28.324  1.00  0.00     0.074 A 
ATOM     42  C   UNL A   1      44.415  25.076  28.209  1.00  0.00     0.049 A 
ATOM     43  N   UNL A   1      42.202  27.050  28.725  1.00  0.00    -0.248 NA
ATOM     44  C   UNL A   1      40.661  25.416  28.085  1.00  0.00     0.031 C 
ATOM     45  C   UNL A   1      45.532  24.175  27.921  1.00  0.00     0.029 A 
ATOM     46  N   UNL A   1      45.018  26.231  28.637  1.00  0.00    -0.354 N 
ATOM     47  C   UNL A   1      40.922  27.588  28.755  1.00  0.00     0.074 A 
ATOM     48  C   UNL A   1      40.020  26.557  28.287  1.00  0.00     0.031 C 
ATOM     49  C   UNL A   1      46.685  24.804  28.199  1.00  0.00     0.029 A 
ATOM     50  C   UNL A   1      46.390  26.162  28.645  1.00  0.00     0.049 A 
ATOM     51  H   UNL A   1      44.517  27.032  28.915  1.00  0.00     0.167 HD
ATOM     52  C   UNL A   1      40.529  28.823  29.148  1.00  0.00     0.031 A 
ATOM     53  C   UNL A   1      47.310  27.091  28.963  1.00  0.00     0.031 A 
ATOM     54  C   UNL A   1      41.429  29.838  29.626  1.00  0.00     0.049 A 
ATOM     55  C   UNL A   1      46.853  28.449  29.417  1.00  0.00     0.074 A 
ATOM     56  C   UNL A   1      41.127  31.091  30.130  1.00  0.00     0.029 A 
ATOM     57  N   UNL A   1      42.810  29.720  29.650  1.00  0.00    -0.354 N 
ATOM     58  N   UNL A   1      45.633  28.913  29.527  1.00  0.00    -0.248 NA
ATOM     59  C   UNL A   1      47.901  29.403  29.805  1.00  0.00     0.031 C 
ATOM     60  C   UNL A   1      42.330  31.752  30.403  1.00  0.00     0.029 A 
ATOM     61  C   UNL A   1      43.378  30.888  30.129  1.00  0.00     0.049 A 
ATOM     62  H   UNL A   1      43.314  28.921  29.369  1.00  0.00     0.167 HD
ATOM     63  C   UNL A   1      45.761  30.206  30.016  1.00  0.00     0.074 A 
ATOM     64  C   UNL A   1      47.180  30.444  30.197  1.00  0.00     0.031 C 
ATOM     65  C   UNL A   1      44.792  31.114  30.290  1.00  0.00     0.031 A 
BRANCH  52  66
ATOM     66  C   UNL A   1      39.062  29.145  29.053  1.00  0.00    -0.014 A 
ATOM     67  C   UNL A   1      38.492  29.636  27.866  1.00  0.00     0.009 A 
ATOM     68  C   UNL A   1      38.232  28.945  30.168  1.00  0.00     0.009 A 
ATOM     69  C   UNL A   1      37.136  29.969  27.816  1.00  0.00     0.001 A 
ATOM     70  C   UNL A   1      36.870  29.247  30.104  1.00  0.00     0.001 A 
ATOM     71  C   UNL A   1      36.327  29.772  28.932  1.00  0.00     0.000 A 
ENDBRANCH  52  66
BRANCH  53  72
ATOM     72  C   UNL A   1      48.754  26.753  28.873  1.00  0.00    -0.014 A 
ATOM     73  C   UNL A   1      49.474  27.009  27.696  1.00  0.00     0.009 A 
ATOM     74  C   UNL A   1      49.428  26.209  29.977  1.00  0.00     0.009 A 
ATOM     75  C   UNL A   1      50.836  26.711  27.623  1.00  0.00     0.001 A 
ATOM     76  C   UNL A   1      50.796  25.938  29.910  1.00  0.00     0.001 A 
ATOM     77  C   UNL A   1      51.498  26.184  28.731  1.00  0.00     0.000 A 
ENDBRANCH  53  72
BRANCH  65  78
ATOM     78  C   UNL A   1      45.233  32.442  30.837  1.00  0.00    -0.014 A 
ATOM     79  C   UNL A   1      45.496  33.530  29.989  1.00  0.00     0.009 A 
ATOM     80  C   UNL A   1      45.343  32.620  32.225  1.00  0.00     0.009 A 
ATOM     81  C   UNL A   1      45.891  34.758  30.520  1.00  0.00     0.001 A 
ATOM     82  C   UNL A   1      45.709  33.858  32.755  1.00  0.00     0.001 A 
ATOM     83  C   UNL A   1      45.992  34.924  31.902  1.00  0.00     0.000 A 
ENDBRANCH  65  78
ENDBRANCH  39  40
ENDBRANCH  31  34
ENDBRANCH  29  30
ENDBRANCH  28  29
ENDBRANCH   1  28
TORSDOF 15
ENDMDL
MODEL 2
REMARK VINA RESULT:     -10.9      0.368      5.987
REMARK SMILES [NH3+][C@@H](CNc1ccc(C(=O)NCCCNC(=O)c2ccc(-c3c4nc(c(-c5ccccc5)c5ccc([nH]5)c(-c5ccccc5)c5nc(c(-c6ccccc6)c6ccc3[nH]6)C=C5)C=C4)cc2)c(F)c1F)c1ccccc1
REMARK SMILES IDX 12 1 11 2 9 3 10 4 8 6 5 7 6 8 68 9 7 10 66 11 69 12 67 13
REMARK SMILES IDX 4 14 3 16 2 17 1 18 70 22 71 23 75 24 72 25 74 26 73 27
REMARK SMILES IDX 13 28 14 29 15 30 16 31 17 33 18 34 19 35 65 36 20 37 64 38
REMARK SMILES IDX 21 39 22 40 23 41 58 42 24 43 63 44 57 45 59 46 25 47 62 48
REMARK SMILES IDX 56 49 55 50 26 52 48 53 33 54 47 55 34 56 37 57 46 58 60 59
REMARK SMILES IDX 35 60 36 61 45 63 61 64 38 65 27 66 28 67 32 68 29 69 31 70
REMARK SMILES IDX 30 71 49 72 50 73 54 74 51 75 53 76 52 77 39 78 40 79 44 80
REMARK SMILES IDX 41 81 43 82 42 83
REMARK H PARENT 11 5 4 15 1 19 1 20 1 21 15 32 59 51 37 62
REMARK Flexibility Score: inf
ROOT
ATOM      1  C   UNL A   1      37.219  20.594  24.925  1.00  0.00     0.118 C 
ENDROOT
BRANCH   1   2
ATOM      2  N   UNL A   1      37.607  21.853  25.529  1.00  0.00    -0.352 N 
ATOM      3  C   UNL A   1      37.101  23.122  25.524  1.00  0.00     0.254 C 
ATOM      4  O   UNL A   1      37.764  23.945  26.165  1.00  0.00    -0.269 OA
ATOM      5  H   UNL A   1      38.426  21.776  26.069  1.00  0.00     0.163 HD
BRANCH   3   6
ATOM      6  C   UNL A   1      35.842  23.593  24.876  1.00  0.00     0.078 A 
ATOM      7  C   UNL A   1      33.350  24.637  23.953  1.00  0.00     0.074 A 
ATOM      8  C   UNL A   1      33.817  24.949  25.225  1.00  0.00     0.030 A 
ATOM      9  C   UNL A   1      34.153  23.815  23.151  1.00  0.00     0.182 A 
ATOM     10  C   UNL A   1      35.027  24.416  25.686  1.00  0.00     0.019 A 
ATOM     11  C   UNL A   1      35.396  23.342  23.582  1.00  0.00     0.173 A 
ATOM     12  F   UNL A   1      33.729  23.504  21.914  1.00  0.00    -0.201 F 
ATOM     13  F   UNL A   1      36.144  22.713  22.670  1.00  0.00    -0.203 F 
BRANCH   7  14
ATOM     14  N   UNL A   1      32.181  25.212  23.450  1.00  0.00    -0.376 N 
ATOM     15  H   UNL A   1      31.298  24.821  23.643  1.00  0.00     0.160 HD
BRANCH  14  16
ATOM     16  C   UNL A   1      32.315  26.418  22.621  1.00  0.00     0.183 C 
BRANCH  16  17
ATOM     17  C   UNL A   1      31.664  27.682  23.283  1.00  0.00     0.231 C 
BRANCH  17  18
ATOM     18  N   UNL A   1      31.717  28.828  22.349  1.00  0.00    -0.350 N 
ATOM     19  H   UNL A   1      31.393  28.532  21.428  1.00  0.00     0.345 HD
ATOM     20  H   UNL A   1      32.677  29.167  22.279  1.00  0.00     0.345 HD
ATOM     21  H   UNL A   1      31.118  29.577  22.695  1.00  0.00     0.345 HD
ENDBRANCH  17  18
BRANCH  17  22
ATOM     22  C   UNL A   1      32.221  28.018  24.668  1.00  0.00     0.011 A 
ATOM     23  C   UNL A   1      33.520  28.522  24.857  1.00  0.00     0.010 A 
ATOM     24  C   UNL A   1      31.417  27.854  25.811  1.00  0.00     0.010 A 
ATOM     25  C   UNL A   1      34.014  28.798  26.134  1.00  0.00     0.001 A 
ATOM     26  C   UNL A   1      31.911  28.131  27.091  1.00  0.00     0.001 A 
ATOM     27  C   UNL A   1      33.212  28.596  27.252  1.00  0.00     0.000 A 
ENDBRANCH  17  22
ENDBRANCH  16  17
ENDBRANCH  14  16
ENDBRANCH   7  14
ENDBRANCH   3   6
ENDBRANCH   1   2
BRANCH   1  28
ATOM     28  C   UNL A   1      38.360  19.578  25.005  1.00  0.00     0.042 C 
BRANCH  28  29
ATOM     29  C   UNL A   1      39.356  19.891  26.125  1.00  0.00     0.118 C 
BRANCH  29  30
ATOM     30  N   UNL A   1      40.625  19.196  25.932  1.00  0.00    -0.352 N 
ATOM     31  C   UNL A   1      41.910  19.672  25.897  1.00  0.00     0.251 C 
ATOM     32  H   UNL A   1      40.545  18.223  25.808  1.00  0.00     0.163 HD
ATOM     33  O   UNL A   1      42.808  18.960  25.459  1.00  0.00    -0.269 OA
BRANCH  31  34
ATOM     34  C   UNL A   1      42.226  21.030  26.385  1.00  0.00     0.039 A 
ATOM     35  C   UNL A   1      42.628  22.003  25.464  1.00  0.00     0.014 A 
ATOM     36  C   UNL A   1      42.193  21.330  27.749  1.00  0.00     0.014 A 
ATOM     37  C   UNL A   1      42.947  23.287  25.906  1.00  0.00     0.010 A 
ATOM     38  C   UNL A   1      42.434  22.630  28.179  1.00  0.00     0.010 A 
ATOM     39  C   UNL A   1      42.824  23.619  27.265  1.00  0.00    -0.014 A 
BRANCH  39  40
ATOM     40  C   UNL A   1      43.096  24.994  27.750  1.00  0.00     0.031 A 
ATOM     41  C   UNL A   1      44.500  25.414  28.089  1.00  0.00     0.074 A 
ATOM     42  C   UNL A   1      42.067  25.835  27.966  1.00  0.00     0.049 A 
ATOM     43  N   UNL A   1      44.924  26.544  28.596  1.00  0.00    -0.248 NA
ATOM     44  C   UNL A   1      45.562  24.422  27.860  1.00  0.00     0.031 C 
ATOM     45  C   UNL A   1      40.656  25.523  27.731  1.00  0.00     0.029 A 
ATOM     46  N   UNL A   1      42.050  27.118  28.450  1.00  0.00    -0.354 N 
ATOM     47  C   UNL A   1      46.292  26.387  28.776  1.00  0.00     0.074 A 
ATOM     48  C   UNL A   1      46.619  25.037  28.369  1.00  0.00     0.031 C 
ATOM     49  C   UNL A   1      39.912  26.593  28.052  1.00  0.00     0.029 A 
ATOM     50  C   UNL A   1      40.787  27.648  28.553  1.00  0.00     0.049 A 
ATOM     51  H   UNL A   1      42.864  27.613  28.697  1.00  0.00     0.167 HD
ATOM     52  C   UNL A   1      47.198  27.288  29.227  1.00  0.00     0.031 A 
ATOM     53  C   UNL A   1      40.376  28.845  29.010  1.00  0.00     0.031 A 
ATOM     54  C   UNL A   1      46.869  28.632  29.616  1.00  0.00     0.049 A 
ATOM     55  C   UNL A   1      41.398  29.837  29.486  1.00  0.00     0.074 A 
ATOM     56  C   UNL A   1      47.721  29.651  30.004  1.00  0.00     0.029 A 
ATOM     57  N   UNL A   1      45.581  29.144  29.675  1.00  0.00    -0.354 N 
ATOM     58  N   UNL A   1      42.700  29.706  29.565  1.00  0.00    -0.248 NA
ATOM     59  C   UNL A   1      40.895  31.148  29.921  1.00  0.00     0.031 C 
ATOM     60  C   UNL A   1      46.942  30.760  30.355  1.00  0.00     0.029 A 
ATOM     61  C   UNL A   1      45.611  30.453  30.125  1.00  0.00     0.049 A 
ATOM     62  H   UNL A   1      44.765  28.648  29.432  1.00  0.00     0.167 HD
ATOM     63  C   UNL A   1      43.175  30.921  30.038  1.00  0.00     0.074 A 
ATOM     64  C   UNL A   1      42.022  31.782  30.211  1.00  0.00     0.031 C 
ATOM     65  C   UNL A   1      44.453  31.291  30.305  1.00  0.00     0.031 A 
BRANCH  52  66
ATOM     66  C   UNL A   1      48.628  26.831  29.342  1.00  0.00    -0.014 A 
ATOM     67  C   UNL A   1      49.539  26.994  28.285  1.00  0.00     0.009 A 
ATOM     68  C   UNL A   1      49.073  26.235  30.532  1.00  0.00     0.009 A 
ATOM     69  C   UNL A   1      50.849  26.521  28.400  1.00  0.00     0.001 A 
ATOM     70  C   UNL A   1      50.392  25.794  30.656  1.00  0.00     0.001 A 
ATOM     71  C   UNL A   1      51.275  25.925  29.585  1.00  0.00     0.000 A 
ENDBRANCH  52  66
BRANCH  53  72
ATOM     72  C   UNL A   1      38.925  29.165  29.022  1.00  0.00    -0.014 A 
ATOM     73  C   UNL A   1      38.166  28.992  30.190  1.00  0.00     0.009 A 
ATOM     74  C   UNL A   1      38.301  29.683  27.877  1.00  0.00     0.009 A 
ATOM     75  C   UNL A   1      36.808  29.316  30.204  1.00  0.00     0.001 A 
ATOM     76  C   UNL A   1      36.949  30.032  27.903  1.00  0.00     0.001 A 
ATOM     77  C   UNL A   1      36.202  29.843  29.064  1.00  0.00     0.000 A 
ENDBRANCH  53  72
BRANCH  65  78
ATOM     78  C   UNL A   1      44.672  32.695  30.792  1.00  0.00    -0.014 A 
ATOM     79  C   UNL A   1      44.616  33.011  32.159  1.00  0.00     0.009 A 
ATOM     80  C   UNL A   1      44.984  33.709  29.872  1.00  0.00     0.009 A 
ATOM     81  C   UNL A   1      44.836  34.321  32.589  1.00  0.00     0.001 A 
ATOM     82  C   UNL A   1      45.233  35.011  30.309  1.00  0.00     0.001 A 
ATOM     83  C   UNL A   1      45.150  35.317  31.666  1.00  0.00     0.000 A 
ENDBRANCH  65  78
ENDBRANCH  39  40
ENDBRANCH  31  34
ENDBRANCH  29  30
ENDBRANCH  28  29
ENDBRANCH   1  28
TORSDOF 15
ENDMDL
MODEL 3
REMARK VINA RESULT:     -10.8      1.757      2.670
REMARK SMILES [NH3+][C@@H](CNc1ccc(C(=O)NCCCNC(=O)c2ccc(-c3c4nc(c(-c5ccccc5)c5ccc([nH]5)c(-c5ccccc5)c5nc(c(-c6ccccc6)c6ccc3[nH]6)C=C5)C=C4)cc2)c(F)c1F)c1ccccc1
REMARK SMILES IDX 12 1 11 2 9 3 10 4 8 6 5 7 6 8 68 9 7 10 66 11 69 12 67 13
REMARK SMILES IDX 4 14 3 16 2 17 1 18 70 22 71 23 75 24 72 25 74 26 73 27
REMARK SMILES IDX 13 28 14 29 15 30 16 31 17 33 18 34 19 35 65 36 20 37 64 38
REMARK SMILES IDX 21 39 22 40 23 41 58 42 24 43 63 44 57 45 59 46 25 47 62 48
REMARK SMILES IDX 56 49 55 50 26 52 48 53 33 54 47 55 34 56 37 57 46 58 60 59
REMARK SMILES IDX 35 60 36 61 45 63 61 64 38 65 27 66 28 67 32 68 29 69 31 70
REMARK SMILES IDX 30 71 49 72 50 73 54 74 51 75 53 76 52 77 39 78 40 79 44 80
REMARK SMILES IDX 41 81 43 82 42 83
REMARK H PARENT 11 5 4 15 1 19 1 20 1 21 15 32 59 51 37 62
REMARK Flexibility Score: inf
ROOT
ATOM      1  C   UNL A   1      36.187  20.183  24.994  1.00  0.00     0.118 C 
ENDROOT
BRANCH   1   2
ATOM      2  N   UNL A   1      35.012  19.335  24.998  1.00  0.00    -0.352 N 
ATOM      3  C   UNL A   1      33.686  19.522  25.271  1.00  0.00     0.254 C 
ATOM      4  O   UNL A   1      32.992  18.504  25.180  1.00  0.00    -0.269 OA
ATOM      5  H   UNL A   1      35.217  18.406  24.745  1.00  0.00     0.163 HD
BRANCH   3   6
ATOM      6  C   UNL A   1      33.005  20.804  25.614  1.00  0.00     0.078 A 
ATOM      7  C   UNL A   1      31.860  23.231  26.589  1.00  0.00     0.074 A 
ATOM      8  C   UNL A   1      32.816  22.552  27.338  1.00  0.00     0.030 A 
ATOM      9  C   UNL A   1      31.504  22.690  25.347  1.00  0.00     0.182 A 
ATOM     10  C   UNL A   1      33.357  21.348  26.871  1.00  0.00     0.019 A 
ATOM     11  C   UNL A   1      32.098  21.528  24.846  1.00  0.00     0.173 A 
ATOM     12  F   UNL A   1      30.589  23.331  24.600  1.00  0.00    -0.201 F 
ATOM     13  F   UNL A   1      31.804  21.205  23.582  1.00  0.00    -0.203 F 
BRANCH   7  14
ATOM     14  N   UNL A   1      31.358  24.466  27.007  1.00  0.00    -0.376 N 
ATOM     15  H   UNL A   1      30.822  24.546  27.829  1.00  0.00     0.160 HD
BRANCH  14  16
ATOM     16  C   UNL A   1      31.656  25.640  26.174  1.00  0.00     0.183 C 
BRANCH  16  17
ATOM     17  C   UNL A   1      33.185  25.988  26.146  1.00  0.00     0.231 C 
BRANCH  17  18
ATOM     18  N   UNL A   1      33.371  27.436  25.901  1.00  0.00    -0.350 N 
ATOM     19  H   UNL A   1      32.639  27.773  25.275  1.00  0.00     0.345 HD
ATOM     20  H   UNL A   1      34.284  27.595  25.473  1.00  0.00     0.345 HD
ATOM     21  H   UNL A   1      33.319  27.940  26.786  1.00  0.00     0.345 HD
ENDBRANCH  17  18
BRANCH  17  22
ATOM     22  C   UNL A   1      34.006  25.115  25.195  1.00  0.00     0.011 A 
ATOM     23  C   UNL A   1      35.204  24.491  25.589  1.00  0.00     0.010 A 
ATOM     24  C   UNL A   1      33.558  24.886  23.881  1.00  0.00     0.010 A 
ATOM     25  C   UNL A   1      35.948  23.717  24.694  1.00  0.00     0.001 A 
ATOM     26  C   UNL A   1      34.303  24.111  22.985  1.00  0.00     0.001 A 
ATOM     27  C   UNL A   1      35.501  23.533  23.390  1.00  0.00     0.000 A 
ENDBRANCH  17  22
ENDBRANCH  16  17
ENDBRANCH  14  16
ENDBRANCH   7  14
ENDBRANCH   3   6
ENDBRANCH   1   2
BRANCH   1  28
ATOM     28  C   UNL A   1      37.465  19.343  24.958  1.00  0.00     0.042 C 
BRANCH  28  29
ATOM     29  C   UNL A   1      38.691  20.107  25.465  1.00  0.00     0.118 C 
BRANCH  29  30
ATOM     30  N   UNL A   1      39.819  19.215  25.716  1.00  0.00    -0.352 N 
ATOM     31  C   UNL A   1      41.116  19.489  26.065  1.00  0.00     0.251 C 
ATOM     32  H   UNL A   1      39.614  18.257  25.619  1.00  0.00     0.163 HD
ATOM     33  O   UNL A   1      41.968  18.612  25.967  1.00  0.00    -0.269 OA
BRANCH  31  34
ATOM     34  C   UNL A   1      41.498  20.827  26.562  1.00  0.00     0.039 A 
ATOM     35  C   UNL A   1      41.374  21.101  27.928  1.00  0.00     0.014 A 
ATOM     36  C   UNL A   1      41.913  21.829  25.683  1.00  0.00     0.014 A 
ATOM     37  C   UNL A   1      41.714  22.363  28.416  1.00  0.00     0.010 A 
ATOM     38  C   UNL A   1      42.326  23.061  26.180  1.00  0.00     0.010 A 
ATOM     39  C   UNL A   1      42.221  23.344  27.549  1.00  0.00    -0.014 A 
BRANCH  39  40
ATOM     40  C   UNL A   1      42.649  24.671  28.055  1.00  0.00     0.031 A 
ATOM     41  C   UNL A   1      41.631  25.746  28.319  1.00  0.00     0.074 A 
ATOM     42  C   UNL A   1      43.962  24.935  28.191  1.00  0.00     0.049 A 
ATOM     43  N   UNL A   1      41.818  26.988  28.690  1.00  0.00    -0.248 NA
ATOM     44  C   UNL A   1      40.219  25.388  28.107  1.00  0.00     0.031 C 
ATOM     45  C   UNL A   1      45.048  23.994  27.910  1.00  0.00     0.029 A 
ATOM     46  N   UNL A   1      44.606  26.080  28.586  1.00  0.00    -0.354 N 
ATOM     47  C   UNL A   1      40.554  27.565  28.723  1.00  0.00     0.074 A 
ATOM     48  C   UNL A   1      39.616  26.552  28.290  1.00  0.00     0.031 C 
ATOM     49  C   UNL A   1      46.223  24.594  28.159  1.00  0.00     0.029 A 
ATOM     50  C   UNL A   1      45.975  25.970  28.577  1.00  0.00     0.049 A 
ATOM     51  H   UNL A   1      44.133  26.902  28.851  1.00  0.00     0.167 HD
ATOM     52  C   UNL A   1      40.204  28.820  29.093  1.00  0.00     0.031 A 
ATOM     53  C   UNL A   1      46.927  26.877  28.863  1.00  0.00     0.031 A 
ATOM     54  C   UNL A   1      41.141  29.818  29.536  1.00  0.00     0.049 A 
ATOM     55  C   UNL A   1      46.518  28.258  29.291  1.00  0.00     0.074 A 
ATOM     56  C   UNL A   1      40.884  31.090  30.015  1.00  0.00     0.029 A 
ATOM     57  N   UNL A   1      42.519  29.657  29.546  1.00  0.00    -0.354 N 
ATOM     58  N   UNL A   1      45.313  28.762  29.406  1.00  0.00    -0.248 NA
ATOM     59  C   UNL A   1      47.599  29.188  29.644  1.00  0.00     0.031 C 
ATOM     60  C   UNL A   1      42.111  31.720  30.258  1.00  0.00     0.029 A 
ATOM     61  C   UNL A   1      43.128  30.818  29.991  1.00  0.00     0.049 A 
ATOM     62  H   UNL A   1      42.994  28.837  29.277  1.00  0.00     0.167 HD
ATOM     63  C   UNL A   1      45.488  30.060  29.863  1.00  0.00     0.074 A 
ATOM     64  C   UNL A   1      46.915  30.259  30.021  1.00  0.00     0.031 C 
ATOM     65  C   UNL A   1      44.550  31.004  30.129  1.00  0.00     0.031 A 
BRANCH  52  66
ATOM     66  C   UNL A   1      38.747  29.184  29.009  1.00  0.00    -0.014 A 
ATOM     67  C   UNL A   1      37.887  29.037  30.111  1.00  0.00     0.009 A 
ATOM     68  C   UNL A   1      38.225  29.692  27.809  1.00  0.00     0.009 A 
ATOM     69  C   UNL A   1      36.528  29.339  29.995  1.00  0.00     0.001 A 
ATOM     70  C   UNL A   1      36.873  30.025  27.706  1.00  0.00     0.001 A 
ATOM     71  C   UNL A   1      36.023  29.836  28.795  1.00  0.00     0.000 A 
ENDBRANCH  52  66
BRANCH  53  72
ATOM     72  C   UNL A   1      48.358  26.493  28.762  1.00  0.00    -0.014 A 
ATOM     73  C   UNL A   1      49.016  25.901  29.851  1.00  0.00     0.009 A 
ATOM     74  C   UNL A   1      49.063  26.681  27.563  1.00  0.00     0.009 A 
ATOM     75  C   UNL A   1      50.355  25.520  29.745  1.00  0.00     0.001 A 
ATOM     76  C   UNL A   1      50.394  26.274  27.452  1.00  0.00     0.001 A 
ATOM     77  C   UNL A   1      51.041  25.699  28.544  1.00  0.00     0.000 A 
ENDBRANCH  53  72
BRANCH  65  78
ATOM     78  C   UNL A   1      45.039  32.330  30.639  1.00  0.00    -0.014 A 
ATOM     79  C   UNL A   1      45.235  32.557  32.010  1.00  0.00     0.009 A 
ATOM     80  C   UNL A   1      45.350  33.353  29.729  1.00  0.00     0.009 A 
ATOM     81  C   UNL A   1      45.703  33.793  32.460  1.00  0.00     0.001 A 
ATOM     82  C   UNL A   1      45.846  34.577  30.180  1.00  0.00     0.001 A 
ATOM     83  C   UNL A   1      46.014  34.799  31.546  1.00  0.00     0.000 A 
ENDBRANCH  65  78
ENDBRANCH  39  40
ENDBRANCH  31  34
ENDBRANCH  29  30
ENDBRANCH  28  29
ENDBRANCH   1  28
TORSDOF 15
ENDMDL
