MODEL 1
REMARK VINA RESULT:     -11.3      0.000      0.000
REMARK SMILES O=C(C[C@@H](NS(=O)(=O)c1ccc(Cl)cc1)c1ccc(F)cc1)NCCCNC(=O)c1ccc(-c2c3nc(c(-c4ccccc4)c4ccc([nH]4)c(-c4ccccc4)c4nc(c(-c5ccccc5)c5ccc2[nH]5)C=C4)C=C3)cc1
REMARK SMILES IDX 24 1 23 2 1 3 2 4 3 6 4 7 5 8 6 10 7 11 8 12 9 13 10 14
REMARK SMILES IDX 15 15 11 16 14 17 12 18 13 19 16 20 17 21 22 22 18 23 21 24
REMARK SMILES IDX 19 25 20 26 25 27 26 28 27 29 28 30 29 32 30 33 31 34 77 35
REMARK SMILES IDX 32 36 76 37 33 38 34 39 35 40 70 41 36 42 75 43 69 44 71 45
REMARK SMILES IDX 37 46 74 47 68 48 67 49 38 51 60 52 45 53 59 54 46 55 49 56
REMARK SMILES IDX 58 57 72 58 47 59 48 60 57 62 73 63 50 64 39 65 40 66 44 67
REMARK SMILES IDX 41 68 43 69 42 70 61 71 62 72 66 73 63 74 65 75 64 76 51 77
REMARK SMILES IDX 52 78 56 79 53 80 55 81 54 82
REMARK H PARENT 23 5 5 9 27 31 71 50 49 61
REMARK Flexibility Score: inf
ROOT
ATOM      1  C   UNL A   1      31.451  27.223  26.658  1.00  0.00     0.117 C 
ENDROOT
BRANCH   1   2
ATOM      2  N   UNL A   1      32.362  26.095  26.611  1.00  0.00    -0.356 N 
ATOM      3  O   UNL A   1      30.826  24.560  25.849  1.00  0.00    -0.275 OA
ATOM      4  C   UNL A   1      31.966  24.845  26.193  1.00  0.00     0.221 C 
ATOM      5  H   UNL A   1      33.297  26.229  26.888  1.00  0.00     0.163 HD
BRANCH   4   6
ATOM      6  C   UNL A   1      33.091  23.845  26.169  1.00  0.00     0.124 C 
BRANCH   6   7
ATOM      7  C   UNL A   1      33.757  23.802  24.782  1.00  0.00     0.109 C 
BRANCH   7   8
ATOM      8  N   UNL A   1      33.781  25.173  24.187  1.00  0.00    -0.203 NA
ATOM      9  H   UNL A   1      34.757  25.403  24.000  1.00  0.00     0.142 HD
BRANCH   8  10
ATOM     10  S   UNL A   1      32.917  25.447  22.749  1.00  0.00     0.241 S 
ATOM     11  O   UNL A   1      33.888  25.777  21.733  1.00  0.00    -0.207 OA
ATOM     12  O   UNL A   1      32.048  24.297  22.610  1.00  0.00    -0.207 OA
BRANCH  10  13
ATOM     13  C   UNL A   1      31.890  26.852  23.064  1.00  0.00     0.082 A 
ATOM     14  C   UNL A   1      32.469  28.106  23.285  1.00  0.00     0.023 A 
ATOM     15  C   UNL A   1      30.499  26.695  23.074  1.00  0.00     0.023 A 
ATOM     16  C   UNL A   1      31.643  29.222  23.448  1.00  0.00     0.022 A 
ATOM     17  C   UNL A   1      29.681  27.813  23.236  1.00  0.00     0.022 A 
ATOM     18  C   UNL A   1      30.255  29.074  23.406  1.00  0.00     0.041 A 
ATOM     19  Cl  UNL A   1      29.243  30.457  23.539  1.00  0.00    -0.084 Cl
ENDBRANCH  10  13
ENDBRANCH   8  10
ENDBRANCH   7   8
BRANCH   7  20
ATOM     20  C   UNL A   1      35.158  23.245  24.973  1.00  0.00    -0.029 A 
ATOM     21  C   UNL A   1      35.487  21.980  24.464  1.00  0.00     0.008 A 
ATOM     22  C   UNL A   1      36.143  23.983  25.656  1.00  0.00     0.008 A 
ATOM     23  C   UNL A   1      36.783  21.480  24.608  1.00  0.00     0.039 A 
ATOM     24  C   UNL A   1      37.434  23.480  25.801  1.00  0.00     0.039 A 
ATOM     25  C   UNL A   1      37.744  22.237  25.268  1.00  0.00     0.123 A 
ATOM     26  F   UNL A   1      38.992  21.764  25.381  1.00  0.00    -0.207 F 
ENDBRANCH   7  20
ENDBRANCH   6   7
ENDBRANCH   4   6
ENDBRANCH   1   2
BRANCH   1  27
ATOM     27  C   UNL A   1      31.925  28.286  27.639  1.00  0.00     0.042 C 
BRANCH  27  28
ATOM     28  C   UNL A   1      33.336  28.805  27.375  1.00  0.00     0.118 C 
BRANCH  28  29
ATOM     29  N   UNL A   1      33.483  30.230  27.625  1.00  0.00    -0.352 N 
ATOM     30  C   UNL A   1      34.561  30.926  28.120  1.00  0.00     0.251 C 
ATOM     31  H   UNL A   1      32.694  30.778  27.407  1.00  0.00     0.163 HD
ATOM     32  O   UNL A   1      34.445  32.113  28.407  1.00  0.00    -0.269 OA
BRANCH  30  33
ATOM     33  C   UNL A   1      35.848  30.237  28.349  1.00  0.00     0.039 A 
ATOM     34  C   UNL A   1      36.783  30.205  27.311  1.00  0.00     0.014 A 
ATOM     35  C   UNL A   1      36.144  29.641  29.578  1.00  0.00     0.014 A 
ATOM     36  C   UNL A   1      38.046  29.653  27.534  1.00  0.00     0.010 A 
ATOM     37  C   UNL A   1      37.429  29.161  29.822  1.00  0.00     0.010 A 
ATOM     38  C   UNL A   1      38.397  29.175  28.807  1.00  0.00    -0.014 A 
BRANCH  38  39
ATOM     39  C   UNL A   1      39.783  28.730  29.103  1.00  0.00     0.031 A 
ATOM     40  C   UNL A   1      40.767  29.666  29.747  1.00  0.00     0.074 A 
ATOM     41  C   UNL A   1      40.177  27.498  28.727  1.00  0.00     0.049 A 
ATOM     42  N   UNL A   1      42.034  29.475  30.015  1.00  0.00    -0.248 NA
ATOM     43  C   UNL A   1      40.268  30.999  30.120  1.00  0.00     0.031 C 
ATOM     44  C   UNL A   1      39.329  26.501  28.068  1.00  0.00     0.029 A 
ATOM     45  N   UNL A   1      41.395  26.874  28.837  1.00  0.00    -0.354 N 
ATOM     46  C   UNL A   1      42.486  30.661  30.577  1.00  0.00     0.074 A 
ATOM     47  C   UNL A   1      41.370  31.584  30.567  1.00  0.00     0.031 C 
ATOM     48  C   UNL A   1      40.044  25.385  27.857  1.00  0.00     0.029 A 
ATOM     49  C   UNL A   1      41.412  25.603  28.316  1.00  0.00     0.049 A 
ATOM     50  H   UNL A   1      42.182  27.298  29.251  1.00  0.00     0.167 HD
ATOM     51  C   UNL A   1      43.713  30.953  31.071  1.00  0.00     0.031 A 
ATOM     52  C   UNL A   1      42.419  24.716  28.200  1.00  0.00     0.031 A 
ATOM     53  C   UNL A   1      44.825  30.037  31.076  1.00  0.00     0.049 A 
ATOM     54  C   UNL A   1      43.784  25.084  28.709  1.00  0.00     0.074 A 
ATOM     55  C   UNL A   1      46.093  30.226  31.598  1.00  0.00     0.029 A 
ATOM     56  N   UNL A   1      44.805  28.767  30.522  1.00  0.00    -0.354 N 
ATOM     57  N   UNL A   1      44.177  26.187  29.300  1.00  0.00    -0.248 NA
ATOM     58  C   UNL A   1      44.846  24.081  28.539  1.00  0.00     0.031 C 
ATOM     59  C   UNL A   1      46.861  29.096  31.299  1.00  0.00     0.029 A 
ATOM     60  C   UNL A   1      46.051  28.175  30.654  1.00  0.00     0.049 A 
ATOM     61  H   UNL A   1      44.023  28.347  30.098  1.00  0.00     0.167 HD
ATOM     62  C   UNL A   1      45.522  26.000  29.594  1.00  0.00     0.074 A 
ATOM     63  C   UNL A   1      45.871  24.671  29.138  1.00  0.00     0.031 C 
ATOM     64  C   UNL A   1      46.390  26.855  30.187  1.00  0.00     0.031 A 
BRANCH  51  65
ATOM     65  C   UNL A   1      43.925  32.332  31.634  1.00  0.00    -0.014 A 
ATOM     66  C   UNL A   1      43.718  32.606  32.996  1.00  0.00     0.009 A 
ATOM     67  C   UNL A   1      44.381  33.364  30.799  1.00  0.00     0.009 A 
ATOM     68  C   UNL A   1      43.925  33.891  33.501  1.00  0.00     0.001 A 
ATOM     69  C   UNL A   1      44.620  34.641  31.312  1.00  0.00     0.001 A 
ATOM     70  C   UNL A   1      44.382  34.906  32.659  1.00  0.00     0.000 A 
ENDBRANCH  51  65
BRANCH  52  71
ATOM     71  C   UNL A   1      42.178  23.391  27.569  1.00  0.00    -0.014 A 
ATOM     72  C   UNL A   1      41.607  22.341  28.305  1.00  0.00     0.009 A 
ATOM     73  C   UNL A   1      42.534  23.163  26.230  1.00  0.00     0.009 A 
ATOM     74  C   UNL A   1      41.424  21.084  27.722  1.00  0.00     0.001 A 
ATOM     75  C   UNL A   1      42.318  21.915  25.640  1.00  0.00     0.001 A 
ATOM     76  C   UNL A   1      41.776  20.874  26.390  1.00  0.00     0.000 A 
ENDBRANCH  52  71
BRANCH  64  77
ATOM     77  C   UNL A   1      47.798  26.368  30.402  1.00  0.00    -0.014 A 
ATOM     78  C   UNL A   1      48.202  25.816  31.628  1.00  0.00     0.009 A 
ATOM     79  C   UNL A   1      48.724  26.431  29.348  1.00  0.00     0.009 A 
ATOM     80  C   UNL A   1      49.514  25.370  31.804  1.00  0.00     0.001 A 
ATOM     81  C   UNL A   1      50.024  25.953  29.517  1.00  0.00     0.001 A 
ATOM     82  C   UNL A   1      50.421  25.434  30.748  1.00  0.00     0.000 A 
ENDBRANCH  64  77
ENDBRANCH  38  39
ENDBRANCH  30  33
ENDBRANCH  28  29
ENDBRANCH  27  28
ENDBRANCH   1  27
TORSDOF 15
ENDMDL
MODEL 2
REMARK VINA RESULT:     -11.2      5.652     10.763
REMARK SMILES O=C(C[C@@H](NS(=O)(=O)c1ccc(Cl)cc1)c1ccc(F)cc1)NCCCNC(=O)c1ccc(-c2c3nc(c(-c4ccccc4)c4ccc([nH]4)c(-c4ccccc4)c4nc(c(-c5ccccc5)c5ccc2[nH]5)C=C4)C=C3)cc1
REMARK SMILES IDX 24 1 23 2 1 3 2 4 3 6 4 7 5 8 6 10 7 11 8 12 9 13 10 14
REMARK SMILES IDX 15 15 11 16 14 17 12 18 13 19 16 20 17 21 22 22 18 23 21 24
REMARK SMILES IDX 19 25 20 26 25 27 26 28 27 29 28 30 29 32 30 33 31 34 77 35
REMARK SMILES IDX 32 36 76 37 33 38 34 39 35 40 70 41 36 42 75 43 69 44 71 45
REMARK SMILES IDX 37 46 74 47 68 48 67 49 38 51 60 52 45 53 59 54 46 55 49 56
REMARK SMILES IDX 58 57 72 58 47 59 48 60 57 62 73 63 50 64 39 65 40 66 44 67
REMARK SMILES IDX 41 68 43 69 42 70 61 71 62 72 66 73 63 74 65 75 64 76 51 77
REMARK SMILES IDX 52 78 56 79 53 80 55 81 54 82
REMARK H PARENT 23 5 5 9 27 31 71 50 49 61
REMARK Flexibility Score: inf
ROOT
ATOM      1  C   UNL A   1      34.324  35.760  33.196  1.00  0.00     0.117 C 
ENDROOT
BRANCH   1   2
ATOM      2  N   UNL A   1      34.793  34.396  33.352  1.00  0.00    -0.356 N 
ATOM      3  O   UNL A   1      36.861  34.933  34.206  1.00  0.00    -0.275 OA
ATOM      4  C   UNL A   1      36.035  34.097  33.862  1.00  0.00     0.221 C 
ATOM      5  H   UNL A   1      34.200  33.657  33.082  1.00  0.00     0.163 HD
BRANCH   4   6
ATOM      6  C   UNL A   1      36.283  32.618  33.989  1.00  0.00     0.124 C 
BRANCH   6   7
ATOM      7  C   UNL A   1      37.638  32.345  34.666  1.00  0.00     0.109 C 
BRANCH   7   8
ATOM      8  N   UNL A   1      37.445  32.179  36.139  1.00  0.00    -0.203 NA
ATOM      9  H   UNL A   1      37.480  31.178  36.337  1.00  0.00     0.142 HD
BRANCH   8  10
ATOM     10  S   UNL A   1      38.545  32.937  37.191  1.00  0.00     0.241 S 
ATOM     11  O   UNL A   1      39.708  32.084  37.266  1.00  0.00    -0.207 OA
ATOM     12  O   UNL A   1      38.644  34.299  36.709  1.00  0.00    -0.207 OA
BRANCH  10  13
ATOM     13  C   UNL A   1      37.747  32.989  38.768  1.00  0.00     0.082 A 
ATOM     14  C   UNL A   1      38.421  33.512  39.876  1.00  0.00     0.023 A 
ATOM     15  C   UNL A   1      36.435  32.515  38.887  1.00  0.00     0.023 A 
ATOM     16  C   UNL A   1      37.748  33.625  41.096  1.00  0.00     0.022 A 
ATOM     17  C   UNL A   1      35.769  32.632  40.107  1.00  0.00     0.022 A 
ATOM     18  C   UNL A   1      36.421  33.201  41.201  1.00  0.00     0.041 A 
ATOM     19  Cl  UNL A   1      35.574  33.403  42.684  1.00  0.00    -0.084 Cl
ENDBRANCH  10  13
ENDBRANCH   8  10
ENDBRANCH   7   8
BRANCH   7  20
ATOM     20  C   UNL A   1      38.215  31.092  34.028  1.00  0.00    -0.029 A 
ATOM     21  C   UNL A   1      37.409  30.284  33.211  1.00  0.00     0.008 A 
ATOM     22  C   UNL A   1      39.557  30.724  34.240  1.00  0.00     0.008 A 
ATOM     23  C   UNL A   1      37.945  29.152  32.596  1.00  0.00     0.039 A 
ATOM     24  C   UNL A   1      40.088  29.591  33.626  1.00  0.00     0.039 A 
ATOM     25  C   UNL A   1      39.279  28.820  32.804  1.00  0.00     0.123 A 
ATOM     26  F   UNL A   1      39.796  27.747  32.191  1.00  0.00    -0.207 F 
ENDBRANCH   7  20
ENDBRANCH   6   7
ENDBRANCH   4   6
ENDBRANCH   1   2
BRANCH   1  27
ATOM     27  C   UNL A   1      33.182  35.850  32.193  1.00  0.00     0.042 C 
BRANCH  27  28
ATOM     28  C   UNL A   1      33.615  36.209  30.774  1.00  0.00     0.118 C 
BRANCH  28  29
ATOM     29  N   UNL A   1      32.825  35.550  29.746  1.00  0.00    -0.352 N 
ATOM     30  C   UNL A   1      33.154  34.490  28.934  1.00  0.00     0.251 C 
ATOM     31  H   UNL A   1      31.921  35.915  29.613  1.00  0.00     0.163 HD
ATOM     32  O   UNL A   1      32.408  34.167  28.015  1.00  0.00    -0.269 OA
BRANCH  30  33
ATOM     33  C   UNL A   1      34.426  33.765  29.136  1.00  0.00     0.039 A 
ATOM     34  C   UNL A   1      35.507  34.067  28.304  1.00  0.00     0.014 A 
ATOM     35  C   UNL A   1      34.563  32.807  30.145  1.00  0.00     0.014 A 
ATOM     36  C   UNL A   1      36.749  33.473  28.540  1.00  0.00     0.010 A 
ATOM     37  C   UNL A   1      35.820  32.276  30.427  1.00  0.00     0.010 A 
ATOM     38  C   UNL A   1      36.928  32.614  29.636  1.00  0.00    -0.014 A 
BRANCH  38  39
ATOM     39  C   UNL A   1      38.274  32.098  29.995  1.00  0.00     0.031 A 
ATOM     40  C   UNL A   1      38.746  30.768  29.480  1.00  0.00     0.074 A 
ATOM     41  C   UNL A   1      39.046  32.802  30.846  1.00  0.00     0.049 A 
ATOM     42  N   UNL A   1      39.858  30.128  29.745  1.00  0.00    -0.248 NA
ATOM     43  C   UNL A   1      37.844  30.051  28.565  1.00  0.00     0.031 C 
ATOM     44  C   UNL A   1      38.695  34.094  31.440  1.00  0.00     0.029 A 
ATOM     45  N   UNL A   1      40.288  32.526  31.366  1.00  0.00    -0.354 N 
ATOM     46  C   UNL A   1      39.785  28.935  29.040  1.00  0.00     0.074 A 
ATOM     47  C   UNL A   1      38.500  28.915  28.375  1.00  0.00     0.031 C 
ATOM     48  C   UNL A   1      39.705  34.510  32.220  1.00  0.00     0.029 A 
ATOM     49  C   UNL A   1      40.751  33.493  32.225  1.00  0.00     0.049 A 
ATOM     50  H   UNL A   1      40.796  31.713  31.143  1.00  0.00     0.167 HD
ATOM     51  C   UNL A   1      40.710  27.950  28.941  1.00  0.00     0.031 A 
ATOM     52  C   UNL A   1      41.884  33.549  32.952  1.00  0.00     0.031 A 
ATOM     53  C   UNL A   1      41.987  27.965  29.608  1.00  0.00     0.049 A 
ATOM     54  C   UNL A   1      42.870  32.418  32.865  1.00  0.00     0.074 A 
ATOM     55  C   UNL A   1      43.010  27.036  29.531  1.00  0.00     0.029 A 
ATOM     56  N   UNL A   1      42.410  28.954  30.483  1.00  0.00    -0.354 N 
ATOM     57  N   UNL A   1      42.815  31.327  32.140  1.00  0.00    -0.248 NA
ATOM     58  C   UNL A   1      44.078  32.529  33.695  1.00  0.00     0.031 C 
ATOM     59  C   UNL A   1      44.023  27.426  30.412  1.00  0.00     0.029 A 
ATOM     60  C   UNL A   1      43.663  28.636  30.983  1.00  0.00     0.049 A 
ATOM     61  H   UNL A   1      41.898  29.761  30.714  1.00  0.00     0.167 HD
ATOM     62  C   UNL A   1      43.990  30.636  32.407  1.00  0.00     0.074 A 
ATOM     63  C   UNL A   1      44.747  31.441  33.342  1.00  0.00     0.031 C 
ATOM     64  C   UNL A   1      44.403  29.440  31.922  1.00  0.00     0.031 A 
BRANCH  51  65
ATOM     65  C   UNL A   1      40.366  26.756  28.092  1.00  0.00    -0.014 A 
ATOM     66  C   UNL A   1      39.551  25.722  28.581  1.00  0.00     0.009 A 
ATOM     67  C   UNL A   1      40.830  26.684  26.769  1.00  0.00     0.009 A 
ATOM     68  C   UNL A   1      39.238  24.625  27.776  1.00  0.00     0.001 A 
ATOM     69  C   UNL A   1      40.489  25.601  25.955  1.00  0.00     0.001 A 
ATOM     70  C   UNL A   1      39.703  24.568  26.462  1.00  0.00     0.000 A 
ENDBRANCH  51  65
BRANCH  52  71
ATOM     71  C   UNL A   1      42.146  34.717  33.835  1.00  0.00    -0.014 A 
ATOM     72  C   UNL A   1      42.810  35.852  33.341  1.00  0.00     0.009 A 
ATOM     73  C   UNL A   1      41.751  34.697  35.182  1.00  0.00     0.009 A 
ATOM     74  C   UNL A   1      43.095  36.928  34.185  1.00  0.00     0.001 A 
ATOM     75  C   UNL A   1      42.008  35.789  36.014  1.00  0.00     0.001 A 
ATOM     76  C   UNL A   1      42.691  36.898  35.519  1.00  0.00     0.000 A 
ENDBRANCH  52  71
BRANCH  64  77
ATOM     77  C   UNL A   1      45.749  28.941  32.373  1.00  0.00    -0.014 A 
ATOM     78  C   UNL A   1      46.927  29.306  31.702  1.00  0.00     0.009 A 
ATOM     79  C   UNL A   1      45.842  28.122  33.510  1.00  0.00     0.009 A 
ATOM     80  C   UNL A   1      48.166  28.831  32.140  1.00  0.00     0.001 A 
ATOM     81  C   UNL A   1      47.084  27.678  33.965  1.00  0.00     0.001 A 
ATOM     82  C   UNL A   1      48.243  28.024  33.273  1.00  0.00     0.000 A 
ENDBRANCH  64  77
ENDBRANCH  38  39
ENDBRANCH  30  33
ENDBRANCH  28  29
ENDBRANCH  27  28
ENDBRANCH   1  27
TORSDOF 15
ENDMDL
MODEL 3
REMARK VINA RESULT:     -11.2      5.630     10.861
REMARK SMILES O=C(C[C@@H](NS(=O)(=O)c1ccc(Cl)cc1)c1ccc(F)cc1)NCCCNC(=O)c1ccc(-c2c3nc(c(-c4ccccc4)c4ccc([nH]4)c(-c4ccccc4)c4nc(c(-c5ccccc5)c5ccc2[nH]5)C=C4)C=C3)cc1
REMARK SMILES IDX 24 1 23 2 1 3 2 4 3 6 4 7 5 8 6 10 7 11 8 12 9 13 10 14
REMARK SMILES IDX 15 15 11 16 14 17 12 18 13 19 16 20 17 21 22 22 18 23 21 24
REMARK SMILES IDX 19 25 20 26 25 27 26 28 27 29 28 30 29 32 30 33 31 34 77 35
REMARK SMILES IDX 32 36 76 37 33 38 34 39 35 40 70 41 36 42 75 43 69 44 71 45
REMARK SMILES IDX 37 46 74 47 68 48 67 49 38 51 60 52 45 53 59 54 46 55 49 56
REMARK SMILES IDX 58 57 72 58 47 59 48 60 57 62 73 63 50 64 39 65 40 66 44 67
REMARK SMILES IDX 41 68 43 69 42 70 61 71 62 72 66 73 63 74 65 75 64 76 51 77
REMARK SMILES IDX 52 78 56 79 53 80 55 81 54 82
REMARK H PARENT 23 5 5 9 27 31 71 50 49 61
REMARK Flexibility Score: inf
ROOT
ATOM      1  C   UNL A   1      46.018  21.167  24.970  1.00  0.00     0.117 C 
ENDROOT
BRANCH   1   2
ATOM      2  N   UNL A   1      45.376  22.456  25.147  1.00  0.00    -0.356 N 
ATOM      3  O   UNL A   1      46.847  23.653  23.844  1.00  0.00    -0.275 OA
ATOM      4  C   UNL A   1      45.848  23.602  24.549  1.00  0.00     0.221 C 
ATOM      5  H   UNL A   1      44.574  22.512  25.716  1.00  0.00     0.163 HD
BRANCH   4   6
ATOM      6  C   UNL A   1      44.990  24.809  24.824  1.00  0.00     0.124 C 
BRANCH   6   7
ATOM      7  C   UNL A   1      45.851  26.001  25.280  1.00  0.00     0.109 C 
BRANCH   7   8
ATOM      8  N   UNL A   1      46.750  26.434  24.166  1.00  0.00    -0.203 NA
ATOM      9  H   UNL A   1      46.315  27.245  23.726  1.00  0.00     0.142 HD
BRANCH   8  10
ATOM     10  S   UNL A   1      48.352  26.863  24.539  1.00  0.00     0.241 S 
ATOM     11  O   UNL A   1      48.301  28.156  25.179  1.00  0.00    -0.207 OA
ATOM     12  O   UNL A   1      48.898  25.709  25.222  1.00  0.00    -0.207 OA
BRANCH  10  13
ATOM     13  C   UNL A   1      49.187  27.004  22.986  1.00  0.00     0.082 A 
ATOM     14  C   UNL A   1      48.625  26.439  21.836  1.00  0.00     0.023 A 
ATOM     15  C   UNL A   1      50.401  27.698  22.923  1.00  0.00     0.023 A 
ATOM     16  C   UNL A   1      49.254  26.633  20.602  1.00  0.00     0.022 A 
ATOM     17  C   UNL A   1      51.022  27.887  21.688  1.00  0.00     0.022 A 
ATOM     18  C   UNL A   1      50.439  27.369  20.532  1.00  0.00     0.041 A 
ATOM     19  Cl  UNL A   1      51.173  27.663  19.005  1.00  0.00    -0.084 Cl
ENDBRANCH  10  13
ENDBRANCH   8  10
ENDBRANCH   7   8
BRANCH   7  20
ATOM     20  C   UNL A   1      44.899  27.109  25.699  1.00  0.00    -0.029 A 
ATOM     21  C   UNL A   1      43.548  27.054  25.321  1.00  0.00     0.008 A 
ATOM     22  C   UNL A   1      45.349  28.197  26.468  1.00  0.00     0.008 A 
ATOM     23  C   UNL A   1      42.663  28.052  25.733  1.00  0.00     0.039 A 
ATOM     24  C   UNL A   1      44.463  29.193  26.876  1.00  0.00     0.039 A 
ATOM     25  C   UNL A   1      43.127  29.107  26.511  1.00  0.00     0.123 A 
ATOM     26  F   UNL A   1      42.269  30.048  26.925  1.00  0.00    -0.207 F 
ENDBRANCH   7  20
ENDBRANCH   6   7
ENDBRANCH   4   6
ENDBRANCH   1   2
BRANCH   1  27
ATOM     27  C   UNL A   1      45.021  20.097  24.548  1.00  0.00     0.042 C 
BRANCH  27  28
ATOM     28  C   UNL A   1      44.394  19.325  25.706  1.00  0.00     0.118 C 
BRANCH  28  29
ATOM     29  N   UNL A   1      43.004  18.968  25.476  1.00  0.00    -0.352 N 
ATOM     30  C   UNL A   1      41.857  19.629  25.846  1.00  0.00     0.251 C 
ATOM     31  H   UNL A   1      42.863  18.129  24.981  1.00  0.00     0.163 HD
ATOM     32  O   UNL A   1      40.764  19.094  25.695  1.00  0.00    -0.269 OA
BRANCH  30  33
ATOM     33  C   UNL A   1      41.938  20.968  26.466  1.00  0.00     0.039 A 
ATOM     34  C   UNL A   1      42.004  21.058  27.859  1.00  0.00     0.014 A 
ATOM     35  C   UNL A   1      41.966  22.129  25.687  1.00  0.00     0.014 A 
ATOM     36  C   UNL A   1      42.186  22.302  28.465  1.00  0.00     0.010 A 
ATOM     37  C   UNL A   1      42.225  23.359  26.289  1.00  0.00     0.010 A 
ATOM     38  C   UNL A   1      42.351  23.456  27.682  1.00  0.00    -0.014 A 
BRANCH  38  39
ATOM     39  C   UNL A   1      42.702  24.760  28.301  1.00  0.00     0.031 A 
ATOM     40  C   UNL A   1      41.654  25.818  28.503  1.00  0.00     0.074 A 
ATOM     41  C   UNL A   1      43.986  25.017  28.619  1.00  0.00     0.049 A 
ATOM     42  N   UNL A   1      41.790  27.037  28.961  1.00  0.00    -0.248 NA
ATOM     43  C   UNL A   1      40.276  25.469  28.122  1.00  0.00     0.031 C 
ATOM     44  C   UNL A   1      45.105  24.087  28.448  1.00  0.00     0.029 A 
ATOM     45  N   UNL A   1      44.570  26.142  29.148  1.00  0.00    -0.354 N 
ATOM     46  C   UNL A   1      40.523  27.603  28.915  1.00  0.00     0.074 A 
ATOM     47  C   UNL A   1      39.640  26.612  28.338  1.00  0.00     0.031 C 
ATOM     48  C   UNL A   1      46.232  24.668  28.886  1.00  0.00     0.029 A 
ATOM     49  C   UNL A   1      45.928  26.028  29.319  1.00  0.00     0.049 A 
ATOM     50  H   UNL A   1      44.062  26.953  29.381  1.00  0.00     0.167 HD
ATOM     51  C   UNL A   1      40.127  28.830  29.328  1.00  0.00     0.031 A 
ATOM     52  C   UNL A   1      46.834  26.922  29.759  1.00  0.00     0.031 A 
ATOM     53  C   UNL A   1      41.006  29.819  29.896  1.00  0.00     0.049 A 
ATOM     54  C   UNL A   1      46.375  28.296  30.161  1.00  0.00     0.074 A 
ATOM     55  C   UNL A   1      40.688  31.073  30.388  1.00  0.00     0.029 A 
ATOM     56  N   UNL A   1      42.378  29.671  30.036  1.00  0.00    -0.354 N 
ATOM     57  N   UNL A   1      45.161  28.791  30.175  1.00  0.00    -0.248 NA
ATOM     58  C   UNL A   1      47.413  29.233  30.616  1.00  0.00     0.031 C 
ATOM     59  C   UNL A   1      41.876  31.711  30.762  1.00  0.00     0.029 A 
ATOM     60  C   UNL A   1      42.925  30.827  30.570  1.00  0.00     0.049 A 
ATOM     61  H   UNL A   1      42.887  28.865  29.792  1.00  0.00     0.167 HD
ATOM     62  C   UNL A   1      45.287  30.087  30.661  1.00  0.00     0.074 A 
ATOM     63  C   UNL A   1      46.690  30.292  30.952  1.00  0.00     0.031 C 
ATOM     64  C   UNL A   1      44.325  31.023  30.847  1.00  0.00     0.031 A 
BRANCH  51  65
ATOM     65  C   UNL A   1      38.673  29.183  29.163  1.00  0.00    -0.014 A 
ATOM     66  C   UNL A   1      37.767  29.068  30.230  1.00  0.00     0.009 A 
ATOM     67  C   UNL A   1      38.210  29.677  27.933  1.00  0.00     0.009 A 
ATOM     68  C   UNL A   1      36.423  29.405  30.058  1.00  0.00     0.001 A 
ATOM     69  C   UNL A   1      36.873  30.046  27.773  1.00  0.00     0.001 A 
ATOM     70  C   UNL A   1      35.978  29.899  28.832  1.00  0.00     0.000 A 
ENDBRANCH  51  65
BRANCH  52  71
ATOM     71  C   UNL A   1      48.273  26.552  29.835  1.00  0.00    -0.014 A 
ATOM     72  C   UNL A   1      49.119  26.744  28.731  1.00  0.00     0.009 A 
ATOM     73  C   UNL A   1      48.804  25.989  31.006  1.00  0.00     0.009 A 
ATOM     74  C   UNL A   1      50.459  26.353  28.790  1.00  0.00     0.001 A 
ATOM     75  C   UNL A   1      50.152  25.630  31.073  1.00  0.00     0.001 A 
ATOM     76  C   UNL A   1      50.976  25.801  29.962  1.00  0.00     0.000 A 
ENDBRANCH  52  71
BRANCH  64  77
ATOM     77  C   UNL A   1      44.754  32.348  31.418  1.00  0.00    -0.014 A 
ATOM     78  C   UNL A   1      45.139  33.411  30.586  1.00  0.00     0.009 A 
ATOM     79  C   UNL A   1      44.739  32.544  32.808  1.00  0.00     0.009 A 
ATOM     80  C   UNL A   1      45.533  34.633  31.138  1.00  0.00     0.001 A 
ATOM     81  C   UNL A   1      45.100  33.777  33.354  1.00  0.00     0.001 A 
ATOM     82  C   UNL A   1      45.508  34.815  32.520  1.00  0.00     0.000 A 
ENDBRANCH  64  77
ENDBRANCH  38  39
ENDBRANCH  30  33
ENDBRANCH  28  29
ENDBRANCH  27  28
ENDBRANCH   1  27
TORSDOF 15
ENDMDL
