MODEL 1
REMARK VINA RESULT:     -11.3      0.000      0.000
REMARK SMILES CCCn1nc(C(=O)NCCCNC(=O)c2ccc(-c3c4nc(c(-c5ccccc5)c5ccc([nH]5)c(-c5ccccc5)c5nc(c(-c6ccccc6)c6ccc3[nH]6)C=C5)C=C4)cc2)c2c1CC[C@@H]([NH+]1CC[NH+](Cc3ccccn3)CC1)C2
REMARK SMILES IDX 10 1 9 2 7 3 8 4 6 6 4 7 5 8 65 9 64 10 66 11 82 12 67 13
REMARK SMILES IDX 68 14 3 15 2 16 1 17 69 18 70 19 81 20 71 22 80 23 72 24
REMARK SMILES IDX 73 26 74 27 75 28 79 29 76 30 78 31 77 32 11 33 12 34 13 35
REMARK SMILES IDX 14 36 15 38 16 39 17 40 63 41 18 42 62 43 19 44 20 45 21 46
REMARK SMILES IDX 56 47 22 48 61 49 55 50 57 51 23 52 60 53 54 54 53 55 24 57
REMARK SMILES IDX 46 58 31 59 45 60 32 61 35 62 44 63 58 64 33 65 34 66 43 68
REMARK SMILES IDX 59 69 36 70 25 71 26 72 30 73 27 74 29 75 28 76 47 77 48 78
REMARK SMILES IDX 52 79 49 80 51 81 50 82 37 83 38 84 42 85 39 86 41 87 40 88
REMARK H PARENT 9 5 69 21 72 25 13 37 57 56 35 67
REMARK Flexibility Score: inf
ROOT
ATOM      1  C   UNL A   1      42.048  28.739  35.805  1.00  0.00     0.118 C 
ENDROOT
BRANCH   1   2
ATOM      2  N   UNL A   1      40.752  29.321  36.161  1.00  0.00    -0.351 N 
ATOM      3  C   UNL A   1      39.749  30.034  35.523  1.00  0.00     0.272 C 
ATOM      4  O   UNL A   1      38.719  30.128  36.203  1.00  0.00    -0.267 OA
ATOM      5  H   UNL A   1      40.535  29.163  37.108  1.00  0.00     0.163 HD
BRANCH   3   6
ATOM      6  C   UNL A   1      39.836  30.662  34.171  1.00  0.00     0.153 A 
ATOM      7  N   UNL A   1      40.155  30.704  32.027  1.00  0.00    -0.269 N 
ATOM      8  N   UNL A   1      40.298  29.929  33.123  1.00  0.00    -0.167 NA
ATOM      9  C   UNL A   1      39.760  31.964  32.338  1.00  0.00     0.043 A 
ATOM     10  C   UNL A   1      39.417  31.923  33.670  1.00  0.00     0.012 A 
ATOM     11  C   UNL A   1      39.500  33.099  31.412  1.00  0.00     0.062 C 
ATOM     12  C   UNL A   1      38.664  33.025  34.281  1.00  0.00     0.105 C 
ATOM     13  C   UNL A   1      39.107  34.349  32.220  1.00  0.00     0.072 C 
ATOM     14  C   UNL A   1      38.069  34.057  33.315  1.00  0.00     0.189 C 
BRANCH   7  15
ATOM     15  C   UNL A   1      40.401  30.155  30.705  1.00  0.00     0.144 C 
BRANCH  15  16
ATOM     16  C   UNL A   1      41.880  29.912  30.366  1.00  0.00     0.020 C 
ATOM     17  C   UNL A   1      42.375  28.504  30.663  1.00  0.00     0.006 C 
ENDBRANCH  15  16
ENDBRANCH   7  15
BRANCH  14  18
ATOM     18  N   UNL A   1      36.775  33.750  32.700  1.00  0.00    -0.323 N 
ATOM     19  C   UNL A   1      36.076  32.513  33.016  1.00  0.00     0.324 C 
ATOM     20  C   UNL A   1      35.885  34.901  32.516  1.00  0.00     0.324 C 
ATOM     21  H   UNL A   1      37.139  33.490  31.784  1.00  0.00     0.348 HD
ATOM     22  C   UNL A   1      34.893  32.215  32.061  1.00  0.00     0.324 C 
ATOM     23  C   UNL A   1      34.593  34.579  31.717  1.00  0.00     0.324 C 
ATOM     24  N   UNL A   1      34.542  33.255  31.089  1.00  0.00    -0.321 N 
ATOM     25  H   UNL A   1      33.571  33.089  30.821  1.00  0.00     0.348 HD
BRANCH  24  26
ATOM     26  C   UNL A   1      35.197  33.150  29.770  1.00  0.00     0.319 C 
BRANCH  26  27
ATOM     27  C   UNL A   1      35.010  31.936  28.861  1.00  0.00     0.095 A 
ATOM     28  C   UNL A   1      35.915  30.874  28.909  1.00  0.00     0.030 A 
ATOM     29  N   UNL A   1      33.876  31.862  28.111  1.00  0.00    -0.255 NA
ATOM     30  C   UNL A   1      35.690  29.742  28.120  1.00  0.00     0.004 A 
ATOM     31  C   UNL A   1      33.692  30.763  27.344  1.00  0.00     0.111 A 
ATOM     32  C   UNL A   1      34.563  29.688  27.312  1.00  0.00     0.020 A 
ENDBRANCH  26  27
ENDBRANCH  24  26
ENDBRANCH  14  18
ENDBRANCH   3   6
ENDBRANCH   1   2
BRANCH   1  33
ATOM     33  C   UNL A   1      41.945  27.579  34.802  1.00  0.00     0.042 C 
BRANCH  33  34
ATOM     34  C   UNL A   1      42.270  26.186  35.278  1.00  0.00     0.118 C 
BRANCH  34  35
ATOM     35  N   UNL A   1      43.365  26.153  36.248  1.00  0.00    -0.352 N 
ATOM     36  C   UNL A   1      44.616  25.617  36.043  1.00  0.00     0.251 C 
ATOM     37  H   UNL A   1      43.190  26.554  37.130  1.00  0.00     0.163 HD
ATOM     38  O   UNL A   1      45.328  25.268  36.990  1.00  0.00    -0.269 OA
BRANCH  36  39
ATOM     39  C   UNL A   1      45.058  25.428  34.657  1.00  0.00     0.039 A 
ATOM     40  C   UNL A   1      44.895  24.197  34.026  1.00  0.00     0.014 A 
ATOM     41  C   UNL A   1      45.445  26.561  33.946  1.00  0.00     0.014 A 
ATOM     42  C   UNL A   1      45.000  24.144  32.639  1.00  0.00     0.010 A 
ATOM     43  C   UNL A   1      45.390  26.533  32.570  1.00  0.00     0.010 A 
ATOM     44  C   UNL A   1      45.187  25.328  31.900  1.00  0.00    -0.014 A 
BRANCH  44  45
ATOM     45  C   UNL A   1      45.040  25.297  30.441  1.00  0.00     0.031 A 
ATOM     46  C   UNL A   1      46.073  26.043  29.666  1.00  0.00     0.074 A 
ATOM     47  C   UNL A   1      44.154  24.540  29.759  1.00  0.00     0.049 A 
ATOM     48  N   UNL A   1      45.903  27.132  28.993  1.00  0.00    -0.248 NA
ATOM     49  C   UNL A   1      47.469  25.579  29.713  1.00  0.00     0.031 C 
ATOM     50  C   UNL A   1      43.242  23.510  30.270  1.00  0.00     0.029 A 
ATOM     51  N   UNL A   1      43.956  24.473  28.409  1.00  0.00    -0.354 N 
ATOM     52  C   UNL A   1      47.118  27.397  28.367  1.00  0.00     0.074 A 
ATOM     53  C   UNL A   1      48.078  26.498  28.959  1.00  0.00     0.031 C 
ATOM     54  C   UNL A   1      42.783  22.763  29.245  1.00  0.00     0.029 A 
ATOM     55  C   UNL A   1      43.204  23.382  28.003  1.00  0.00     0.049 A 
ATOM     56  H   UNL A   1      44.316  25.140  27.781  1.00  0.00     0.167 HD
ATOM     57  C   UNL A   1      47.183  28.168  27.245  1.00  0.00     0.031 A 
ATOM     58  C   UNL A   1      42.924  23.001  26.737  1.00  0.00     0.031 A 
ATOM     59  C   UNL A   1      45.965  28.909  27.032  1.00  0.00     0.049 A 
ATOM     60  C   UNL A   1      43.081  24.184  25.867  1.00  0.00     0.074 A 
ATOM     61  C   UNL A   1      45.234  29.839  27.745  1.00  0.00     0.029 A 
ATOM     62  N   UNL A   1      45.128  28.441  26.051  1.00  0.00    -0.354 N 
ATOM     63  N   UNL A   1      42.278  25.209  25.893  1.00  0.00    -0.248 NA
ATOM     64  C   UNL A   1      44.343  24.399  25.180  1.00  0.00     0.031 C 
ATOM     65  C   UNL A   1      43.869  29.549  27.441  1.00  0.00     0.029 A 
ATOM     66  C   UNL A   1      43.844  28.498  26.523  1.00  0.00     0.049 A 
ATOM     67  H   UNL A   1      45.402  28.121  25.161  1.00  0.00     0.167 HD
ATOM     68  C   UNL A   1      43.095  26.297  25.642  1.00  0.00     0.074 A 
ATOM     69  C   UNL A   1      44.302  25.727  25.053  1.00  0.00     0.031 C 
ATOM     70  C   UNL A   1      42.831  27.515  26.202  1.00  0.00     0.031 A 
BRANCH  57  71
ATOM     71  C   UNL A   1      48.146  27.911  26.105  1.00  0.00    -0.014 A 
ATOM     72  C   UNL A   1      47.876  26.845  25.223  1.00  0.00     0.009 A 
ATOM     73  C   UNL A   1      49.442  28.455  26.054  1.00  0.00     0.009 A 
ATOM     74  C   UNL A   1      48.878  26.291  24.416  1.00  0.00     0.001 A 
ATOM     75  C   UNL A   1      50.432  27.935  25.215  1.00  0.00     0.001 A 
ATOM     76  C   UNL A   1      50.160  26.830  24.422  1.00  0.00     0.000 A 
ENDBRANCH  57  71
BRANCH  58  77
ATOM     77  C   UNL A   1      42.658  21.653  26.205  1.00  0.00    -0.014 A 
ATOM     78  C   UNL A   1      43.704  20.859  25.713  1.00  0.00     0.009 A 
ATOM     79  C   UNL A   1      41.411  21.039  26.426  1.00  0.00     0.009 A 
ATOM     80  C   UNL A   1      43.525  19.487  25.502  1.00  0.00     0.001 A 
ATOM     81  C   UNL A   1      41.230  19.670  26.208  1.00  0.00     0.001 A 
ATOM     82  C   UNL A   1      42.293  18.891  25.764  1.00  0.00     0.000 A 
ENDBRANCH  58  77
BRANCH  70  83
ATOM     83  C   UNL A   1      41.451  27.752  26.767  1.00  0.00    -0.014 A 
ATOM     84  C   UNL A   1      40.875  26.956  27.771  1.00  0.00     0.009 A 
ATOM     85  C   UNL A   1      40.752  28.892  26.342  1.00  0.00     0.009 A 
ATOM     86  C   UNL A   1      39.614  27.264  28.295  1.00  0.00     0.001 A 
ATOM     87  C   UNL A   1      39.506  29.216  26.883  1.00  0.00     0.001 A 
ATOM     88  C   UNL A   1      38.933  28.395  27.852  1.00  0.00     0.000 A 
ENDBRANCH  70  83
ENDBRANCH  44  45
ENDBRANCH  36  39
ENDBRANCH  34  35
ENDBRANCH  33  34
ENDBRANCH   1  33
TORSDOF 15
ENDMDL
MODEL 2
REMARK VINA RESULT:     -11.2      4.244      9.930
REMARK SMILES CCCn1nc(C(=O)NCCCNC(=O)c2ccc(-c3c4nc(c(-c5ccccc5)c5ccc([nH]5)c(-c5ccccc5)c5nc(c(-c6ccccc6)c6ccc3[nH]6)C=C5)C=C4)cc2)c2c1CC[C@@H]([NH+]1CC[NH+](Cc3ccccn3)CC1)C2
REMARK SMILES IDX 10 1 9 2 7 3 8 4 6 6 4 7 5 8 65 9 64 10 66 11 82 12 67 13
REMARK SMILES IDX 68 14 3 15 2 16 1 17 69 18 70 19 81 20 71 22 80 23 72 24
REMARK SMILES IDX 73 26 74 27 75 28 79 29 76 30 78 31 77 32 11 33 12 34 13 35
REMARK SMILES IDX 14 36 15 38 16 39 17 40 63 41 18 42 62 43 19 44 20 45 21 46
REMARK SMILES IDX 56 47 22 48 61 49 55 50 57 51 23 52 60 53 54 54 53 55 24 57
REMARK SMILES IDX 46 58 31 59 45 60 32 61 35 62 44 63 58 64 33 65 34 66 43 68
REMARK SMILES IDX 59 69 36 70 25 71 26 72 30 73 27 74 29 75 28 76 47 77 48 78
REMARK SMILES IDX 52 79 49 80 51 81 50 82 37 83 38 84 42 85 39 86 41 87 40 88
REMARK H PARENT 9 5 69 21 72 25 13 37 57 56 35 67
REMARK Flexibility Score: inf
ROOT
ATOM      1  C   UNL A   1      31.784  30.274  26.069  1.00  0.00     0.118 C 
ENDROOT
BRANCH   1   2
ATOM      2  N   UNL A   1      31.624  29.173  27.023  1.00  0.00    -0.351 N 
ATOM      3  C   UNL A   1      31.770  27.795  27.018  1.00  0.00     0.272 C 
ATOM      4  O   UNL A   1      31.722  27.302  28.153  1.00  0.00    -0.267 OA
ATOM      5  H   UNL A   1      31.334  29.501  27.905  1.00  0.00     0.163 HD
BRANCH   3   6
ATOM      6  C   UNL A   1      31.955  26.932  25.813  1.00  0.00     0.153 A 
ATOM      7  N   UNL A   1      32.805  26.358  23.904  1.00  0.00    -0.269 N 
ATOM      8  N   UNL A   1      32.724  27.377  24.784  1.00  0.00    -0.167 NA
ATOM      9  C   UNL A   1      31.999  25.320  24.244  1.00  0.00     0.043 A 
ATOM     10  C   UNL A   1      31.558  25.601  25.517  1.00  0.00     0.012 A 
ATOM     11  C   UNL A   1      31.812  24.030  23.528  1.00  0.00     0.062 C 
ATOM     12  C   UNL A   1      30.906  24.564  26.325  1.00  0.00     0.105 C 
ATOM     13  C   UNL A   1      30.768  23.173  24.266  1.00  0.00     0.072 C 
ATOM     14  C   UNL A   1      30.989  23.131  25.786  1.00  0.00     0.189 C 
BRANCH   7  15
ATOM     15  C   UNL A   1      33.699  26.446  22.761  1.00  0.00     0.144 C 
BRANCH  15  16
ATOM     16  C   UNL A   1      33.020  26.809  21.431  1.00  0.00     0.020 C 
ATOM     17  C   UNL A   1      32.669  25.616  20.553  1.00  0.00     0.006 C 
ENDBRANCH  15  16
ENDBRANCH   7  15
BRANCH  14  18
ATOM     18  N   UNL A   1      32.196  22.357  26.089  1.00  0.00    -0.323 N 
ATOM     19  C   UNL A   1      32.773  22.370  27.424  1.00  0.00     0.324 C 
ATOM     20  C   UNL A   1      32.282  21.053  25.422  1.00  0.00     0.324 C 
ATOM     21  H   UNL A   1      32.856  22.984  25.631  1.00  0.00     0.348 HD
ATOM     22  C   UNL A   1      34.192  21.753  27.487  1.00  0.00     0.324 C 
ATOM     23  C   UNL A   1      33.639  20.327  25.628  1.00  0.00     0.324 C 
ATOM     24  N   UNL A   1      34.697  21.116  26.267  1.00  0.00    -0.321 N 
ATOM     25  H   UNL A   1      35.424  20.461  26.558  1.00  0.00     0.348 HD
BRANCH  24  26
ATOM     26  C   UNL A   1      35.478  21.985  25.363  1.00  0.00     0.319 C 
BRANCH  26  27
ATOM     27  C   UNL A   1      36.870  22.496  25.726  1.00  0.00     0.095 A 
ATOM     28  C   UNL A   1      37.054  23.827  26.109  1.00  0.00     0.030 A 
ATOM     29  N   UNL A   1      37.890  21.597  25.794  1.00  0.00    -0.255 NA
ATOM     30  C   UNL A   1      38.323  24.260  26.504  1.00  0.00     0.004 A 
ATOM     31  C   UNL A   1      39.111  22.047  26.162  1.00  0.00     0.111 A 
ATOM     32  C   UNL A   1      39.377  23.357  26.521  1.00  0.00     0.020 A 
ENDBRANCH  26  27
ENDBRANCH  24  26
ENDBRANCH  14  18
ENDBRANCH   3   6
ENDBRANCH   1   2
BRANCH   1  33
ATOM     33  C   UNL A   1      32.736  31.376  26.561  1.00  0.00     0.042 C 
BRANCH  33  34
ATOM     34  C   UNL A   1      33.893  30.984  27.446  1.00  0.00     0.118 C 
BRANCH  34  35
ATOM     35  N   UNL A   1      34.072  31.884  28.586  1.00  0.00    -0.352 N 
ATOM     36  C   UNL A   1      35.061  31.800  29.540  1.00  0.00     0.251 C 
ATOM     37  H   UNL A   1      33.424  32.619  28.678  1.00  0.00     0.163 HD
ATOM     38  O   UNL A   1      34.924  32.316  30.653  1.00  0.00    -0.269 OA
BRANCH  36  39
ATOM     39  C   UNL A   1      36.266  31.034  29.206  1.00  0.00     0.039 A 
ATOM     40  C   UNL A   1      37.482  31.683  29.000  1.00  0.00     0.014 A 
ATOM     41  C   UNL A   1      36.195  29.647  29.310  1.00  0.00     0.014 A 
ATOM     42  C   UNL A   1      38.650  30.927  29.029  1.00  0.00     0.010 A 
ATOM     43  C   UNL A   1      37.358  28.932  29.495  1.00  0.00     0.010 A 
ATOM     44  C   UNL A   1      38.595  29.555  29.339  1.00  0.00    -0.014 A 
BRANCH  44  45
ATOM     45  C   UNL A   1      39.839  28.829  29.618  1.00  0.00     0.031 A 
ATOM     46  C   UNL A   1      40.229  28.732  31.053  1.00  0.00     0.074 A 
ATOM     47  C   UNL A   1      40.557  28.130  28.713  1.00  0.00     0.049 A 
ATOM     48  N   UNL A   1      41.226  29.319  31.629  1.00  0.00    -0.248 NA
ATOM     49  C   UNL A   1      39.370  27.971  31.974  1.00  0.00     0.031 C 
ATOM     50  C   UNL A   1      40.227  27.827  27.316  1.00  0.00     0.029 A 
ATOM     51  N   UNL A   1      41.725  27.445  28.901  1.00  0.00    -0.354 N 
ATOM     52  C   UNL A   1      41.246  28.857  32.942  1.00  0.00     0.074 A 
ATOM     53  C   UNL A   1      40.003  28.149  33.136  1.00  0.00     0.031 C 
ATOM     54  C   UNL A   1      41.025  26.835  26.868  1.00  0.00     0.029 A 
ATOM     55  C   UNL A   1      42.042  26.578  27.868  1.00  0.00     0.049 A 
ATOM     56  H   UNL A   1      42.289  27.558  29.700  1.00  0.00     0.167 HD
ATOM     57  C   UNL A   1      42.386  28.889  33.686  1.00  0.00     0.031 A 
ATOM     58  C   UNL A   1      43.074  25.707  27.813  1.00  0.00     0.031 A 
ATOM     59  C   UNL A   1      43.390  29.738  33.095  1.00  0.00     0.049 A 
ATOM     60  C   UNL A   1      44.106  26.173  28.760  1.00  0.00     0.074 A 
ATOM     61  C   UNL A   1      43.474  31.067  32.733  1.00  0.00     0.029 A 
ATOM     62  N   UNL A   1      44.427  29.105  32.455  1.00  0.00    -0.354 N 
ATOM     63  N   UNL A   1      44.814  27.251  28.581  1.00  0.00    -0.248 NA
ATOM     64  C   UNL A   1      44.136  25.625  30.106  1.00  0.00     0.031 C 
ATOM     65  C   UNL A   1      44.272  31.080  31.549  1.00  0.00     0.029 A 
ATOM     66  C   UNL A   1      44.673  29.769  31.284  1.00  0.00     0.049 A 
ATOM     67  H   UNL A   1      44.909  28.312  32.782  1.00  0.00     0.167 HD
ATOM     68  C   UNL A   1      44.998  27.762  29.854  1.00  0.00     0.074 A 
ATOM     69  C   UNL A   1      44.709  26.646  30.748  1.00  0.00     0.031 C 
ATOM     70  C   UNL A   1      45.082  29.110  30.062  1.00  0.00     0.031 A 
BRANCH  57  71
ATOM     71  C   UNL A   1      42.766  27.816  34.686  1.00  0.00    -0.014 A 
ATOM     72  C   UNL A   1      43.211  26.570  34.200  1.00  0.00     0.009 A 
ATOM     73  C   UNL A   1      42.409  27.868  36.046  1.00  0.00     0.009 A 
ATOM     74  C   UNL A   1      43.195  25.423  35.003  1.00  0.00     0.001 A 
ATOM     75  C   UNL A   1      42.436  26.734  36.863  1.00  0.00     0.001 A 
ATOM     76  C   UNL A   1      42.796  25.504  36.332  1.00  0.00     0.000 A 
ENDBRANCH  57  71
BRANCH  58  77
ATOM     77  C   UNL A   1      43.175  24.425  27.095  1.00  0.00    -0.014 A 
ATOM     78  C   UNL A   1      42.955  23.211  27.763  1.00  0.00     0.009 A 
ATOM     79  C   UNL A   1      43.226  24.404  25.689  1.00  0.00     0.009 A 
ATOM     80  C   UNL A   1      42.739  22.027  27.048  1.00  0.00     0.001 A 
ATOM     81  C   UNL A   1      43.017  23.220  24.975  1.00  0.00     0.001 A 
ATOM     82  C   UNL A   1      42.754  22.035  25.655  1.00  0.00     0.000 A 
ENDBRANCH  58  77
BRANCH  70  83
ATOM     83  C   UNL A   1      45.360  29.996  28.871  1.00  0.00    -0.014 A 
ATOM     84  C   UNL A   1      46.653  30.363  28.461  1.00  0.00     0.009 A 
ATOM     85  C   UNL A   1      44.275  30.384  28.071  1.00  0.00     0.009 A 
ATOM     86  C   UNL A   1      46.847  31.139  27.313  1.00  0.00     0.001 A 
ATOM     87  C   UNL A   1      44.469  31.134  26.910  1.00  0.00     0.001 A 
ATOM     88  C   UNL A   1      45.755  31.521  26.537  1.00  0.00     0.000 A 
ENDBRANCH  70  83
ENDBRANCH  44  45
ENDBRANCH  36  39
ENDBRANCH  34  35
ENDBRANCH  33  34
ENDBRANCH   1  33
TORSDOF 15
ENDMDL
MODEL 3
REMARK VINA RESULT:     -11.1      4.069     10.019
REMARK SMILES CCCn1nc(C(=O)NCCCNC(=O)c2ccc(-c3c4nc(c(-c5ccccc5)c5ccc([nH]5)c(-c5ccccc5)c5nc(c(-c6ccccc6)c6ccc3[nH]6)C=C5)C=C4)cc2)c2c1CC[C@@H]([NH+]1CC[NH+](Cc3ccccn3)CC1)C2
REMARK SMILES IDX 10 1 9 2 7 3 8 4 6 6 4 7 5 8 65 9 64 10 66 11 82 12 67 13
REMARK SMILES IDX 68 14 3 15 2 16 1 17 69 18 70 19 81 20 71 22 80 23 72 24
REMARK SMILES IDX 73 26 74 27 75 28 79 29 76 30 78 31 77 32 11 33 12 34 13 35
REMARK SMILES IDX 14 36 15 38 16 39 17 40 63 41 18 42 62 43 19 44 20 45 21 46
REMARK SMILES IDX 56 47 22 48 61 49 55 50 57 51 23 52 60 53 54 54 53 55 24 57
REMARK SMILES IDX 46 58 31 59 45 60 32 61 35 62 44 63 58 64 33 65 34 66 43 68
REMARK SMILES IDX 59 69 36 70 25 71 26 72 30 73 27 74 29 75 28 76 47 77 48 78
REMARK SMILES IDX 52 79 49 80 51 81 50 82 37 83 38 84 42 85 39 86 41 87 40 88
REMARK H PARENT 9 5 69 21 72 25 13 37 57 56 35 67
REMARK Flexibility Score: inf
ROOT
ATOM      1  C   UNL A   1      32.165  31.799  26.882  1.00  0.00     0.118 C 
ENDROOT
BRANCH   1   2
ATOM      2  N   UNL A   1      33.141  30.709  26.815  1.00  0.00    -0.351 N 
ATOM      3  C   UNL A   1      33.265  29.494  26.158  1.00  0.00     0.272 C 
ATOM      4  O   UNL A   1      34.398  29.005  26.261  1.00  0.00    -0.267 OA
ATOM      5  H   UNL A   1      33.918  30.885  27.392  1.00  0.00     0.163 HD
BRANCH   3   6
ATOM      6  C   UNL A   1      32.190  28.787  25.401  1.00  0.00     0.153 A 
ATOM      7  N   UNL A   1      30.852  28.433  23.732  1.00  0.00    -0.269 N 
ATOM      8  N   UNL A   1      31.714  29.333  24.249  1.00  0.00    -0.167 NA
ATOM      9  C   UNL A   1      30.631  27.391  24.573  1.00  0.00     0.043 A 
ATOM     10  C   UNL A   1      31.569  27.521  25.572  1.00  0.00     0.012 A 
ATOM     11  C   UNL A   1      29.750  26.212  24.362  1.00  0.00     0.062 C 
ATOM     12  C   UNL A   1      31.830  26.413  26.499  1.00  0.00     0.105 C 
ATOM     13  C   UNL A   1      29.787  25.305  25.606  1.00  0.00     0.072 C 
ATOM     14  C   UNL A   1      31.212  25.059  26.129  1.00  0.00     0.189 C 
BRANCH   7  15
ATOM     15  C   UNL A   1      30.289  28.635  22.407  1.00  0.00     0.144 C 
BRANCH  15  16
ATOM     16  C   UNL A   1      29.326  29.825  22.284  1.00  0.00     0.020 C 
ATOM     17  C   UNL A   1      27.879  29.509  22.636  1.00  0.00     0.006 C 
ENDBRANCH  15  16
ENDBRANCH   7  15
BRANCH  14  18
ATOM     18  N   UNL A   1      31.944  24.209  25.187  1.00  0.00    -0.323 N 
ATOM     19  C   UNL A   1      31.235  23.316  24.284  1.00  0.00     0.324 C 
ATOM     20  C   UNL A   1      33.138  24.822  24.595  1.00  0.00     0.324 C 
ATOM     21  H   UNL A   1      32.256  23.519  25.870  1.00  0.00     0.348 HD
ATOM     22  C   UNL A   1      32.159  22.287  23.586  1.00  0.00     0.324 C 
ATOM     23  C   UNL A   1      33.985  23.848  23.731  1.00  0.00     0.324 C 
ATOM     24  N   UNL A   1      33.601  22.434  23.797  1.00  0.00    -0.321 N 
ATOM     25  H   UNL A   1      34.061  21.963  23.017  1.00  0.00     0.348 HD
BRANCH  24  26
ATOM     26  C   UNL A   1      34.167  21.673  24.930  1.00  0.00     0.319 C 
BRANCH  26  27
ATOM     27  C   UNL A   1      35.672  21.566  25.169  1.00  0.00     0.095 A 
ATOM     28  C   UNL A   1      36.355  20.393  24.839  1.00  0.00     0.030 A 
ATOM     29  N   UNL A   1      36.340  22.678  25.581  1.00  0.00    -0.255 NA
ATOM     30  C   UNL A   1      37.742  20.337  25.000  1.00  0.00     0.004 A 
ATOM     31  C   UNL A   1      37.680  22.590  25.746  1.00  0.00     0.111 A 
ATOM     32  C   UNL A   1      38.419  21.453  25.474  1.00  0.00     0.020 A 
ENDBRANCH  26  27
ENDBRANCH  24  26
ENDBRANCH  14  18
ENDBRANCH   3   6
ENDBRANCH   1   2
BRANCH   1  33
ATOM     33  C   UNL A   1      32.743  33.104  27.451  1.00  0.00     0.042 C 
BRANCH  33  34
ATOM     34  C   UNL A   1      34.121  33.073  28.065  1.00  0.00     0.118 C 
BRANCH  34  35
ATOM     35  N   UNL A   1      34.104  33.246  29.518  1.00  0.00    -0.352 N 
ATOM     36  C   UNL A   1      34.845  32.531  30.430  1.00  0.00     0.251 C 
ATOM     37  H   UNL A   1      33.505  33.941  29.876  1.00  0.00     0.163 HD
ATOM     38  O   UNL A   1      34.501  32.445  31.613  1.00  0.00    -0.269 OA
BRANCH  36  39
ATOM     39  C   UNL A   1      36.037  31.830  29.940  1.00  0.00     0.039 A 
ATOM     40  C   UNL A   1      37.285  32.450  29.972  1.00  0.00     0.014 A 
ATOM     41  C   UNL A   1      35.910  30.475  29.646  1.00  0.00     0.014 A 
ATOM     42  C   UNL A   1      38.421  31.661  29.830  1.00  0.00     0.010 A 
ATOM     43  C   UNL A   1      37.036  29.681  29.666  1.00  0.00     0.010 A 
ATOM     44  C   UNL A   1      38.301  30.261  29.738  1.00  0.00    -0.014 A 
BRANCH  44  45
ATOM     45  C   UNL A   1      39.502  29.426  29.848  1.00  0.00     0.031 A 
ATOM     46  C   UNL A   1      39.977  29.145  31.233  1.00  0.00     0.074 A 
ATOM     47  C   UNL A   1      40.105  28.783  28.824  1.00  0.00     0.049 A 
ATOM     48  N   UNL A   1      41.050  29.596  31.793  1.00  0.00    -0.248 NA
ATOM     49  C   UNL A   1      39.124  28.347  32.128  1.00  0.00     0.031 C 
ATOM     50  C   UNL A   1      39.663  28.659  27.431  1.00  0.00     0.029 A 
ATOM     51  N   UNL A   1      41.227  28.004  28.854  1.00  0.00    -0.354 N 
ATOM     52  C   UNL A   1      41.121  28.992  33.045  1.00  0.00     0.074 A 
ATOM     53  C   UNL A   1      39.844  28.353  33.254  1.00  0.00     0.031 C 
ATOM     54  C   UNL A   1      40.352  27.671  26.824  1.00  0.00     0.029 A 
ATOM     55  C   UNL A   1      41.410  27.237  27.715  1.00  0.00     0.049 A 
ATOM     56  H   UNL A   1      41.849  27.990  29.617  1.00  0.00     0.167 HD
ATOM     57  C   UNL A   1      42.306  28.863  33.703  1.00  0.00     0.031 A 
ATOM     58  C   UNL A   1      42.368  26.309  27.493  1.00  0.00     0.031 A 
ATOM     59  C   UNL A   1      43.331  29.702  33.133  1.00  0.00     0.049 A 
ATOM     60  C   UNL A   1      43.492  26.596  28.406  1.00  0.00     0.074 A 
ATOM     61  C   UNL A   1      43.491  31.055  32.908  1.00  0.00     0.029 A 
ATOM     62  N   UNL A   1      44.272  29.075  32.356  1.00  0.00    -0.354 N 
ATOM     63  N   UNL A   1      44.266  27.637  28.291  1.00  0.00    -0.248 NA
ATOM     64  C   UNL A   1      43.568  25.902  29.681  1.00  0.00     0.031 C 
ATOM     65  C   UNL A   1      44.209  31.143  31.676  1.00  0.00     0.029 A 
ATOM     66  C   UNL A   1      44.492  29.846  31.246  1.00  0.00     0.049 A 
ATOM     67  H   UNL A   1      44.714  28.219  32.561  1.00  0.00     0.167 HD
ATOM     68  C   UNL A   1      44.570  27.991  29.593  1.00  0.00     0.074 A 
ATOM     69  C   UNL A   1      44.256  26.805  30.383  1.00  0.00     0.031 C 
ATOM     70  C   UNL A   1      44.769  29.299  29.935  1.00  0.00     0.031 A 
BRANCH  57  71
ATOM     71  C   UNL A   1      42.668  27.663  34.554  1.00  0.00    -0.014 A 
ATOM     72  C   UNL A   1      43.116  26.492  33.910  1.00  0.00     0.009 A 
ATOM     73  C   UNL A   1      42.291  27.533  35.903  1.00  0.00     0.009 A 
ATOM     74  C   UNL A   1      43.085  25.247  34.551  1.00  0.00     0.001 A 
ATOM     75  C   UNL A   1      42.303  26.299  36.560  1.00  0.00     0.001 A 
ATOM     76  C   UNL A   1      42.667  25.150  35.873  1.00  0.00     0.000 A 
ENDBRANCH  57  71
BRANCH  58  77
ATOM     77  C   UNL A   1      42.325  25.110  26.639  1.00  0.00    -0.014 A 
ATOM     78  C   UNL A   1      43.256  24.936  25.603  1.00  0.00     0.009 A 
ATOM     79  C   UNL A   1      41.536  24.005  27.009  1.00  0.00     0.009 A 
ATOM     80  C   UNL A   1      43.428  23.686  24.997  1.00  0.00     0.001 A 
ATOM     81  C   UNL A   1      41.703  22.758  26.399  1.00  0.00     0.001 A 
ATOM     82  C   UNL A   1      42.664  22.595  25.406  1.00  0.00     0.000 A 
ENDBRANCH  58  77
BRANCH  70  83
ATOM     83  C   UNL A   1      45.035  30.289  28.827  1.00  0.00    -0.014 A 
ATOM     84  C   UNL A   1      46.324  30.656  28.406  1.00  0.00     0.009 A 
ATOM     85  C   UNL A   1      43.936  30.788  28.111  1.00  0.00     0.009 A 
ATOM     86  C   UNL A   1      46.504  31.535  27.333  1.00  0.00     0.001 A 
ATOM     87  C   UNL A   1      44.115  31.644  27.023  1.00  0.00     0.001 A 
ATOM     88  C   UNL A   1      45.399  32.026  26.641  1.00  0.00     0.000 A 
ENDBRANCH  70  83
ENDBRANCH  44  45
ENDBRANCH  36  39
ENDBRANCH  34  35
ENDBRANCH  33  34
ENDBRANCH   1  33
TORSDOF 15
ENDMDL
