MODEL 1
REMARK VINA RESULT:     -11.5      0.000      0.000
REMARK SMILES COc1ccc(/C=C(/Sc2nc(C)n[nH]2)C(=O)NCCCNC(=O)c2ccc(-c3c4nc(c(-c5ccccc5)c5ccc([nH]5)c(-c5ccccc5)c5nc(c(-c6ccccc6)c6ccc3[nH]6)C=C5)C=C4)cc2)cc1OC
REMARK SMILES IDX 20 1 19 2 18 3 16 4 17 5 8 7 7 8 6 9 3 10 4 11 74 12 5 13
REMARK SMILES IDX 73 14 2 15 1 16 75 17 76 18 9 19 10 20 11 21 15 22 12 23
REMARK SMILES IDX 14 24 13 26 21 27 22 28 23 29 24 31 25 32 26 33 72 34 27 35
REMARK SMILES IDX 71 36 28 37 29 38 30 39 65 40 31 41 70 42 64 43 66 44 32 45
REMARK SMILES IDX 69 46 63 47 62 48 33 50 55 51 40 52 54 53 41 54 44 55 53 56
REMARK SMILES IDX 67 57 42 58 43 59 52 61 68 62 45 63 34 64 35 65 39 66 36 67
REMARK SMILES IDX 38 68 37 69 56 70 57 71 61 72 58 73 60 74 59 75 46 76 47 77
REMARK SMILES IDX 51 78 48 79 50 80 49 81
REMARK H PARENT 18 6 15 25 22 30 66 49 44 60
REMARK Flexibility Score: inf
ROOT
ATOM      1  C   UNL A   1      31.646  31.097  26.273  1.00  0.00     0.042 C 
ENDROOT
BRANCH   1   2
ATOM      2  C   UNL A   1      31.486  29.594  26.513  1.00  0.00     0.118 C 
BRANCH   2   3
ATOM      3  N   UNL A   1      32.734  28.879  26.744  1.00  0.00    -0.352 N 
ATOM      4  C   UNL A   1      33.771  28.572  25.903  1.00  0.00     0.258 C 
ATOM      5  O   UNL A   1      34.887  28.675  26.422  1.00  0.00    -0.269 OA
ATOM      6  H   UNL A   1      32.853  28.559  27.668  1.00  0.00     0.163 HD
BRANCH   4   7
ATOM      7  C   UNL A   1      33.603  28.067  24.480  1.00  0.00     0.081 C 
ATOM      8  C   UNL A   1      33.485  26.745  24.210  1.00  0.00     0.029 C 
BRANCH   8   9
ATOM      9  C   UNL A   1      33.459  25.505  25.026  1.00  0.00    -0.020 A 
ATOM     10  C   UNL A   1      33.306  23.380  26.898  1.00  0.00     0.160 A 
ATOM     11  C   UNL A   1      34.511  23.688  26.257  1.00  0.00     0.051 A 
ATOM     12  C   UNL A   1      32.167  24.145  26.634  1.00  0.00     0.161 A 
ATOM     13  C   UNL A   1      34.591  24.754  25.350  1.00  0.00     0.012 A 
ATOM     14  C   UNL A   1      32.257  25.179  25.682  1.00  0.00     0.058 A 
BRANCH  10  15
ATOM     15  O   UNL A   1      33.349  22.421  27.874  1.00  0.00    -0.493 OA
ATOM     16  C   UNL A   1      33.913  21.199  27.399  1.00  0.00     0.278 C 
ENDBRANCH  10  15
BRANCH  12  17
ATOM     17  O   UNL A   1      30.928  24.075  27.211  1.00  0.00    -0.493 OA
ATOM     18  C   UNL A   1      30.064  23.002  26.877  1.00  0.00     0.278 C 
ENDBRANCH  12  17
ENDBRANCH   8   9
BRANCH   7  19
ATOM     19  S   UNL A   1      33.338  29.242  23.211  1.00  0.00    -0.045 SA
BRANCH  19  20
ATOM     20  C   UNL A   1      31.710  28.981  22.717  1.00  0.00     0.188 A 
ATOM     21  N   UNL A   1      30.767  28.304  23.323  1.00  0.00    -0.206 NA
ATOM     22  N   UNL A   1      31.159  29.739  21.728  1.00  0.00    -0.254 N 
ATOM     23  C   UNL A   1      29.629  28.699  22.667  1.00  0.00     0.148 A 
ATOM     24  N   UNL A   1      29.826  29.573  21.671  1.00  0.00    -0.158 NA
ATOM     25  H   UNL A   1      31.671  30.331  21.131  1.00  0.00     0.192 HD
ATOM     26  C   UNL A   1      28.287  28.254  23.096  1.00  0.00     0.092 C 
ENDBRANCH  19  20
ENDBRANCH   7  19
ENDBRANCH   4   7
ENDBRANCH   2   3
ENDBRANCH   1   2
BRANCH   1  27
ATOM     27  C   UNL A   1      32.627  31.736  27.243  1.00  0.00     0.118 C 
BRANCH  27  28
ATOM     28  N   UNL A   1      32.353  33.157  27.494  1.00  0.00    -0.352 N 
ATOM     29  C   UNL A   1      33.015  34.040  28.335  1.00  0.00     0.251 C 
ATOM     30  H   UNL A   1      31.594  33.535  26.996  1.00  0.00     0.163 HD
ATOM     31  O   UNL A   1      32.514  35.103  28.650  1.00  0.00    -0.269 OA
BRANCH  29  32
ATOM     32  C   UNL A   1      34.348  33.662  28.836  1.00  0.00     0.039 A 
ATOM     33  C   UNL A   1      34.542  33.133  30.115  1.00  0.00     0.014 A 
ATOM     34  C   UNL A   1      35.414  33.814  27.960  1.00  0.00     0.014 A 
ATOM     35  C   UNL A   1      35.816  32.690  30.465  1.00  0.00     0.010 A 
ATOM     36  C   UNL A   1      36.590  33.174  28.214  1.00  0.00     0.010 A 
ATOM     37  C   UNL A   1      36.829  32.703  29.494  1.00  0.00    -0.014 A 
BRANCH  37  38
ATOM     38  C   UNL A   1      38.144  32.134  29.732  1.00  0.00     0.031 A 
ATOM     39  C   UNL A   1      38.249  30.699  29.373  1.00  0.00     0.074 A 
ATOM     40  C   UNL A   1      39.221  32.910  29.990  1.00  0.00     0.049 A 
ATOM     41  N   UNL A   1      38.378  29.702  30.179  1.00  0.00    -0.248 NA
ATOM     42  C   UNL A   1      38.014  30.306  27.972  1.00  0.00     0.031 C 
ATOM     43  C   UNL A   1      39.298  34.378  30.047  1.00  0.00     0.029 A 
ATOM     44  N   UNL A   1      40.522  32.548  30.125  1.00  0.00    -0.354 N 
ATOM     45  C   UNL A   1      38.483  28.573  29.374  1.00  0.00     0.074 A 
ATOM     46  C   UNL A   1      38.030  28.975  28.067  1.00  0.00     0.031 C 
ATOM     47  C   UNL A   1      40.588  34.772  29.953  1.00  0.00     0.029 A 
ATOM     48  C   UNL A   1      41.432  33.593  30.010  1.00  0.00     0.049 A 
ATOM     49  H   UNL A   1      40.800  31.618  30.292  1.00  0.00     0.167 HD
ATOM     50  C   UNL A   1      39.221  27.500  29.777  1.00  0.00     0.031 A 
ATOM     51  C   UNL A   1      42.784  33.490  29.944  1.00  0.00     0.031 A 
ATOM     52  C   UNL A   1      39.542  27.591  31.183  1.00  0.00     0.049 A 
ATOM     53  C   UNL A   1      43.142  32.156  30.477  1.00  0.00     0.074 A 
ATOM     54  C   UNL A   1      38.808  27.686  32.348  1.00  0.00     0.029 A 
ATOM     55  N   UNL A   1      40.809  28.030  31.497  1.00  0.00    -0.354 N 
ATOM     56  N   UNL A   1      42.978  31.823  31.725  1.00  0.00    -0.248 NA
ATOM     57  C   UNL A   1      43.220  31.046  29.540  1.00  0.00     0.031 C 
ATOM     58  C   UNL A   1      39.525  28.618  33.157  1.00  0.00     0.029 A 
ATOM     59  C   UNL A   1      40.698  28.969  32.487  1.00  0.00     0.049 A 
ATOM     60  H   UNL A   1      41.647  27.723  31.083  1.00  0.00     0.167 HD
ATOM     61  C   UNL A   1      42.466  30.534  31.678  1.00  0.00     0.074 A 
ATOM     62  C   UNL A   1      42.742  30.068  30.317  1.00  0.00     0.031 C 
ATOM     63  C   UNL A   1      41.604  30.086  32.640  1.00  0.00     0.031 A 
BRANCH  50  64
ATOM     64  C   UNL A   1      40.055  26.656  28.835  1.00  0.00    -0.014 A 
ATOM     65  C   UNL A   1      41.085  27.291  28.117  1.00  0.00     0.009 A 
ATOM     66  C   UNL A   1      39.691  25.369  28.400  1.00  0.00     0.009 A 
ATOM     67  C   UNL A   1      41.622  26.727  26.955  1.00  0.00     0.001 A 
ATOM     68  C   UNL A   1      40.253  24.783  27.263  1.00  0.00     0.001 A 
ATOM     69  C   UNL A   1      41.191  25.480  26.518  1.00  0.00     0.000 A 
ENDBRANCH  50  64
BRANCH  51  70
ATOM     70  C   UNL A   1      43.769  34.346  29.247  1.00  0.00    -0.014 A 
ATOM     71  C   UNL A   1      43.923  34.278  27.853  1.00  0.00     0.009 A 
ATOM     72  C   UNL A   1      44.357  35.434  29.917  1.00  0.00     0.009 A 
ATOM     73  C   UNL A   1      44.599  35.286  27.150  1.00  0.00     0.001 A 
ATOM     74  C   UNL A   1      45.033  36.440  29.215  1.00  0.00     0.001 A 
ATOM     75  C   UNL A   1      45.139  36.375  27.830  1.00  0.00     0.000 A 
ENDBRANCH  51  70
BRANCH  63  76
ATOM     76  C   UNL A   1      41.401  30.950  33.863  1.00  0.00    -0.014 A 
ATOM     77  C   UNL A   1      42.155  30.811  35.044  1.00  0.00     0.009 A 
ATOM     78  C   UNL A   1      40.525  32.038  33.762  1.00  0.00     0.009 A 
ATOM     79  C   UNL A   1      42.013  31.720  36.099  1.00  0.00     0.001 A 
ATOM     80  C   UNL A   1      40.398  32.958  34.805  1.00  0.00     0.001 A 
ATOM     81  C   UNL A   1      41.137  32.796  35.975  1.00  0.00     0.000 A 
ENDBRANCH  63  76
ENDBRANCH  37  38
ENDBRANCH  29  32
ENDBRANCH  27  28
ENDBRANCH   1  27
TORSDOF 15
ENDMDL
MODEL 2
REMARK VINA RESULT:     -11.3      2.367      5.803
REMARK SMILES COc1ccc(/C=C(/Sc2nc(C)n[nH]2)C(=O)NCCCNC(=O)c2ccc(-c3c4nc(c(-c5ccccc5)c5ccc([nH]5)c(-c5ccccc5)c5nc(c(-c6ccccc6)c6ccc3[nH]6)C=C5)C=C4)cc2)cc1OC
REMARK SMILES IDX 20 1 19 2 18 3 16 4 17 5 8 7 7 8 6 9 3 10 4 11 74 12 5 13
REMARK SMILES IDX 73 14 2 15 1 16 75 17 76 18 9 19 10 20 11 21 15 22 12 23
REMARK SMILES IDX 14 24 13 26 21 27 22 28 23 29 24 31 25 32 26 33 72 34 27 35
REMARK SMILES IDX 71 36 28 37 29 38 30 39 65 40 31 41 70 42 64 43 66 44 32 45
REMARK SMILES IDX 69 46 63 47 62 48 33 50 55 51 40 52 54 53 41 54 44 55 53 56
REMARK SMILES IDX 67 57 42 58 43 59 52 61 68 62 45 63 34 64 35 65 39 66 36 67
REMARK SMILES IDX 38 68 37 69 56 70 57 71 61 72 58 73 60 74 59 75 46 76 47 77
REMARK SMILES IDX 51 78 48 79 50 80 49 81
REMARK H PARENT 18 6 15 25 22 30 66 49 44 60
REMARK Flexibility Score: inf
ROOT
ATOM      1  C   UNL A   1      32.120  29.287  27.347  1.00  0.00     0.042 C 
ENDROOT
BRANCH   1   2
ATOM      2  C   UNL A   1      31.788  27.793  27.314  1.00  0.00     0.118 C 
BRANCH   2   3
ATOM      3  N   UNL A   1      31.093  27.352  26.112  1.00  0.00    -0.352 N 
ATOM      4  C   UNL A   1      31.558  26.794  24.950  1.00  0.00     0.258 C 
ATOM      5  O   UNL A   1      30.837  25.900  24.498  1.00  0.00    -0.269 OA
ATOM      6  H   UNL A   1      30.117  27.477  26.139  1.00  0.00     0.163 HD
BRANCH   4   7
ATOM      7  C   UNL A   1      32.798  27.263  24.208  1.00  0.00     0.081 C 
ATOM      8  C   UNL A   1      33.822  26.416  23.940  1.00  0.00     0.029 C 
BRANCH   8   9
ATOM      9  C   UNL A   1      34.089  24.978  24.195  1.00  0.00    -0.020 A 
ATOM     10  C   UNL A   1      34.909  22.361  24.917  1.00  0.00     0.160 A 
ATOM     11  C   UNL A   1      34.936  22.780  23.582  1.00  0.00     0.051 A 
ATOM     12  C   UNL A   1      34.499  23.250  25.913  1.00  0.00     0.161 A 
ATOM     13  C   UNL A   1      34.552  24.082  23.230  1.00  0.00     0.012 A 
ATOM     14  C   UNL A   1      34.071  24.537  25.532  1.00  0.00     0.058 A 
BRANCH  10  15
ATOM     15  O   UNL A   1      35.434  21.127  25.191  1.00  0.00    -0.493 OA
ATOM     16  C   UNL A   1      36.844  21.085  24.977  1.00  0.00     0.278 C 
ENDBRANCH  10  15
BRANCH  12  17
ATOM     17  O   UNL A   1      34.485  23.079  27.271  1.00  0.00    -0.493 OA
ATOM     18  C   UNL A   1      33.482  22.267  27.860  1.00  0.00     0.278 C 
ENDBRANCH  12  17
ENDBRANCH   8   9
BRANCH   7  19
ATOM     19  S   UNL A   1      32.787  28.864  23.504  1.00  0.00    -0.045 SA
BRANCH  19  20
ATOM     20  C   UNL A   1      31.204  29.035  22.849  1.00  0.00     0.188 A 
ATOM     21  N   UNL A   1      30.049  28.875  23.444  1.00  0.00    -0.206 NA
ATOM     22  N   UNL A   1      31.016  29.662  21.654  1.00  0.00    -0.254 N 
ATOM     23  C   UNL A   1      29.163  29.445  22.564  1.00  0.00     0.148 A 
ATOM     24  N   UNL A   1      29.716  29.932  21.445  1.00  0.00    -0.158 NA
ATOM     25  H   UNL A   1      31.739  29.889  21.025  1.00  0.00     0.192 HD
ATOM     26  C   UNL A   1      27.728  29.582  22.882  1.00  0.00     0.092 C 
ENDBRANCH  19  20
ENDBRANCH   7  19
ENDBRANCH   4   7
ENDBRANCH   2   3
ENDBRANCH   1   2
BRANCH   1  27
ATOM     27  C   UNL A   1      33.610  29.551  27.200  1.00  0.00     0.118 C 
BRANCH  27  28
ATOM     28  N   UNL A   1      33.936  30.976  27.059  1.00  0.00    -0.352 N 
ATOM     29  C   UNL A   1      35.010  31.683  27.580  1.00  0.00     0.251 C 
ATOM     30  H   UNL A   1      33.304  31.503  26.520  1.00  0.00     0.163 HD
ATOM     31  O   UNL A   1      35.005  32.899  27.614  1.00  0.00    -0.269 OA
BRANCH  29  32
ATOM     32  C   UNL A   1      36.166  30.924  28.088  1.00  0.00     0.039 A 
ATOM     33  C   UNL A   1      36.367  29.575  27.782  1.00  0.00     0.014 A 
ATOM     34  C   UNL A   1      37.085  31.622  28.861  1.00  0.00     0.014 A 
ATOM     35  C   UNL A   1      37.547  28.966  28.203  1.00  0.00     0.010 A 
ATOM     36  C   UNL A   1      38.326  31.099  29.067  1.00  0.00     0.010 A 
ATOM     37  C   UNL A   1      38.526  29.748  28.833  1.00  0.00    -0.014 A 
BRANCH  37  38
ATOM     38  C   UNL A   1      39.837  29.227  29.179  1.00  0.00     0.031 A 
ATOM     39  C   UNL A   1      40.069  29.113  30.640  1.00  0.00     0.074 A 
ATOM     40  C   UNL A   1      40.642  28.651  28.258  1.00  0.00     0.049 A 
ATOM     41  N   UNL A   1      40.870  29.823  31.358  1.00  0.00    -0.248 NA
ATOM     42  C   UNL A   1      39.190  28.228  31.424  1.00  0.00     0.031 C 
ATOM     43  C   UNL A   1      40.375  28.413  26.831  1.00  0.00     0.029 A 
ATOM     44  N   UNL A   1      41.833  28.025  28.436  1.00  0.00    -0.354 N 
ATOM     45  C   UNL A   1      40.776  29.312  32.648  1.00  0.00     0.074 A 
ATOM     46  C   UNL A   1      39.583  28.505  32.669  1.00  0.00     0.031 C 
ATOM     47  C   UNL A   1      41.243  27.494  26.351  1.00  0.00     0.029 A 
ATOM     48  C   UNL A   1      42.230  27.215  27.377  1.00  0.00     0.049 A 
ATOM     49  H   UNL A   1      42.374  28.135  29.251  1.00  0.00     0.167 HD
ATOM     50  C   UNL A   1      41.848  29.350  33.489  1.00  0.00     0.031 A 
ATOM     51  C   UNL A   1      43.283  26.361  27.357  1.00  0.00     0.031 A 
ATOM     52  C   UNL A   1      42.872  30.236  32.983  1.00  0.00     0.049 A 
ATOM     53  C   UNL A   1      44.194  26.773  28.450  1.00  0.00     0.074 A 
ATOM     54  C   UNL A   1      42.927  31.573  32.646  1.00  0.00     0.029 A 
ATOM     55  N   UNL A   1      43.940  29.642  32.349  1.00  0.00    -0.354 N 
ATOM     56  N   UNL A   1      44.849  27.897  28.442  1.00  0.00    -0.248 NA
ATOM     57  C   UNL A   1      43.999  26.173  29.761  1.00  0.00     0.031 C 
ATOM     58  C   UNL A   1      43.720  31.620  31.460  1.00  0.00     0.029 A 
ATOM     59  C   UNL A   1      44.181  30.330  31.191  1.00  0.00     0.049 A 
ATOM     60  H   UNL A   1      44.443  28.860  32.673  1.00  0.00     0.167 HD
ATOM     61  C   UNL A   1      44.735  28.377  29.739  1.00  0.00     0.074 A 
ATOM     62  C   UNL A   1      44.300  27.225  30.530  1.00  0.00     0.031 C 
ATOM     63  C   UNL A   1      44.708  29.720  29.989  1.00  0.00     0.031 A 
BRANCH  50  64
ATOM     64  C   UNL A   1      42.182  28.247  34.472  1.00  0.00    -0.014 A 
ATOM     65  C   UNL A   1      42.690  27.039  33.958  1.00  0.00     0.009 A 
ATOM     66  C   UNL A   1      41.745  28.224  35.809  1.00  0.00     0.009 A 
ATOM     67  C   UNL A   1      42.639  25.851  34.696  1.00  0.00     0.001 A 
ATOM     68  C   UNL A   1      41.729  27.048  36.564  1.00  0.00     0.001 A 
ATOM     69  C   UNL A   1      42.140  25.854  35.994  1.00  0.00     0.000 A 
ENDBRANCH  50  64
BRANCH  51  70
ATOM     70  C   UNL A   1      43.458  25.084  26.631  1.00  0.00    -0.014 A 
ATOM     71  C   UNL A   1      42.551  24.025  26.808  1.00  0.00     0.009 A 
ATOM     72  C   UNL A   1      44.352  25.003  25.548  1.00  0.00     0.009 A 
ATOM     73  C   UNL A   1      42.509  22.952  25.906  1.00  0.00     0.001 A 
ATOM     74  C   UNL A   1      44.310  23.931  24.649  1.00  0.00     0.001 A 
ATOM     75  C   UNL A   1      43.378  22.913  24.819  1.00  0.00     0.000 A 
ENDBRANCH  51  70
BRANCH  63  76
ATOM     76  C   UNL A   1      45.025  30.659  28.848  1.00  0.00    -0.014 A 
ATOM     77  C   UNL A   1      46.322  31.134  28.574  1.00  0.00     0.009 A 
ATOM     78  C   UNL A   1      44.008  30.945  27.929  1.00  0.00     0.009 A 
ATOM     79  C   UNL A   1      46.580  31.897  27.429  1.00  0.00     0.001 A 
ATOM     80  C   UNL A   1      44.269  31.688  26.775  1.00  0.00     0.001 A 
ATOM     81  C   UNL A   1      45.553  32.168  26.529  1.00  0.00     0.000 A 
ENDBRANCH  63  76
ENDBRANCH  37  38
ENDBRANCH  29  32
ENDBRANCH  27  28
ENDBRANCH   1  27
TORSDOF 15
ENDMDL
MODEL 3
REMARK VINA RESULT:     -10.8      1.980      2.702
REMARK SMILES COc1ccc(/C=C(/Sc2nc(C)n[nH]2)C(=O)NCCCNC(=O)c2ccc(-c3c4nc(c(-c5ccccc5)c5ccc([nH]5)c(-c5ccccc5)c5nc(c(-c6ccccc6)c6ccc3[nH]6)C=C5)C=C4)cc2)cc1OC
REMARK SMILES IDX 20 1 19 2 18 3 16 4 17 5 8 7 7 8 6 9 3 10 4 11 74 12 5 13
REMARK SMILES IDX 73 14 2 15 1 16 75 17 76 18 9 19 10 20 11 21 15 22 12 23
REMARK SMILES IDX 14 24 13 26 21 27 22 28 23 29 24 31 25 32 26 33 72 34 27 35
REMARK SMILES IDX 71 36 28 37 29 38 30 39 65 40 31 41 70 42 64 43 66 44 32 45
REMARK SMILES IDX 69 46 63 47 62 48 33 50 55 51 40 52 54 53 41 54 44 55 53 56
REMARK SMILES IDX 67 57 42 58 43 59 52 61 68 62 45 63 34 64 35 65 39 66 36 67
REMARK SMILES IDX 38 68 37 69 56 70 57 71 61 72 58 73 60 74 59 75 46 76 47 77
REMARK SMILES IDX 51 78 48 79 50 80 49 81
REMARK H PARENT 18 6 15 25 22 30 66 49 44 60
REMARK Flexibility Score: inf
ROOT
ATOM      1  C   UNL A   1      31.724  28.983  26.009  1.00  0.00     0.042 C 
ENDROOT
BRANCH   1   2
ATOM      2  C   UNL A   1      30.993  29.694  24.867  1.00  0.00     0.118 C 
BRANCH   2   3
ATOM      3  N   UNL A   1      31.021  28.987  23.594  1.00  0.00    -0.352 N 
ATOM      4  C   UNL A   1      30.012  28.494  22.810  1.00  0.00     0.258 C 
ATOM      5  O   UNL A   1      30.195  28.647  21.599  1.00  0.00    -0.269 OA
ATOM      6  H   UNL A   1      31.925  28.836  23.234  1.00  0.00     0.163 HD
BRANCH   4   7
ATOM      7  C   UNL A   1      28.800  27.746  23.338  1.00  0.00     0.081 C 
ATOM      8  C   UNL A   1      28.932  26.607  24.060  1.00  0.00     0.029 C 
BRANCH   8   9
ATOM      9  C   UNL A   1      30.081  25.799  24.544  1.00  0.00    -0.020 A 
ATOM     10  C   UNL A   1      32.053  23.929  25.352  1.00  0.00     0.160 A 
ATOM     11  C   UNL A   1      31.445  24.779  26.282  1.00  0.00     0.051 A 
ATOM     12  C   UNL A   1      31.667  23.981  24.011  1.00  0.00     0.161 A 
ATOM     13  C   UNL A   1      30.453  25.686  25.884  1.00  0.00     0.012 A 
ATOM     14  C   UNL A   1      30.705  24.934  23.625  1.00  0.00     0.058 A 
BRANCH  10  15
ATOM     15  O   UNL A   1      32.905  22.977  25.845  1.00  0.00    -0.493 OA
ATOM     16  C   UNL A   1      34.270  23.283  25.566  1.00  0.00     0.278 C 
ENDBRANCH  10  15
BRANCH  12  17
ATOM     17  O   UNL A   1      32.061  23.188  22.967  1.00  0.00    -0.493 OA
ATOM     18  C   UNL A   1      33.044  23.665  22.063  1.00  0.00     0.278 C 
ENDBRANCH  12  17
ENDBRANCH   8   9
BRANCH   7  19
ATOM     19  S   UNL A   1      27.229  28.504  23.192  1.00  0.00    -0.045 SA
BRANCH  19  20
ATOM     20  C   UNL A   1      27.577  30.131  22.748  1.00  0.00     0.188 A 
ATOM     21  N   UNL A   1      27.949  31.127  23.512  1.00  0.00    -0.206 NA
ATOM     22  N   UNL A   1      27.772  30.462  21.441  1.00  0.00    -0.254 N 
ATOM     23  C   UNL A   1      28.390  32.063  22.610  1.00  0.00     0.148 A 
ATOM     24  N   UNL A   1      28.289  31.698  21.324  1.00  0.00    -0.158 NA
ATOM     25  H   UNL A   1      27.563  29.873  20.681  1.00  0.00     0.192 HD
ATOM     26  C   UNL A   1      29.008  33.332  23.042  1.00  0.00     0.092 C 
ENDBRANCH  19  20
ENDBRANCH   7  19
ENDBRANCH   4   7
ENDBRANCH   2   3
ENDBRANCH   1   2
BRANCH   1  27
ATOM     27  C   UNL A   1      32.104  29.934  27.133  1.00  0.00     0.118 C 
BRANCH  27  28
ATOM     28  N   UNL A   1      31.688  31.320  26.886  1.00  0.00    -0.352 N 
ATOM     29  C   UNL A   1      32.335  32.501  27.218  1.00  0.00     0.251 C 
ATOM     30  H   UNL A   1      30.828  31.426  26.419  1.00  0.00     0.163 HD
ATOM     31  O   UNL A   1      31.749  33.566  27.200  1.00  0.00    -0.269 OA
BRANCH  29  32
ATOM     32  C   UNL A   1      33.760  32.435  27.590  1.00  0.00     0.039 A 
ATOM     33  C   UNL A   1      34.493  33.572  27.940  1.00  0.00     0.014 A 
ATOM     34  C   UNL A   1      34.344  31.175  27.620  1.00  0.00     0.014 A 
ATOM     35  C   UNL A   1      35.799  33.407  28.395  1.00  0.00     0.010 A 
ATOM     36  C   UNL A   1      35.524  30.996  28.278  1.00  0.00     0.010 A 
ATOM     37  C   UNL A   1      36.296  32.107  28.573  1.00  0.00    -0.014 A 
BRANCH  37  38
ATOM     38  C   UNL A   1      37.594  31.844  29.171  1.00  0.00     0.031 A 
ATOM     39  C   UNL A   1      38.075  30.456  28.967  1.00  0.00     0.074 A 
ATOM     40  C   UNL A   1      38.388  32.841  29.620  1.00  0.00     0.049 A 
ATOM     41  N   UNL A   1      38.193  29.533  29.860  1.00  0.00    -0.248 NA
ATOM     42  C   UNL A   1      38.292  29.982  27.588  1.00  0.00     0.031 C 
ATOM     43  C   UNL A   1      38.150  34.292  29.573  1.00  0.00     0.029 A 
ATOM     44  N   UNL A   1      39.656  32.774  30.098  1.00  0.00    -0.354 N 
ATOM     45  C   UNL A   1      38.728  28.433  29.200  1.00  0.00     0.074 A 
ATOM     46  C   UNL A   1      38.553  28.690  27.794  1.00  0.00     0.031 C 
ATOM     47  C   UNL A   1      39.313  34.953  29.765  1.00  0.00     0.029 A 
ATOM     48  C   UNL A   1      40.335  33.988  30.123  1.00  0.00     0.049 A 
ATOM     49  H   UNL A   1      40.065  31.931  30.404  1.00  0.00     0.167 HD
ATOM     50  C   UNL A   1      39.539  27.557  29.857  1.00  0.00     0.031 A 
ATOM     51  C   UNL A   1      41.650  34.179  30.399  1.00  0.00     0.031 A 
ATOM     52  C   UNL A   1      39.464  27.755  31.287  1.00  0.00     0.049 A 
ATOM     53  C   UNL A   1      42.122  32.969  31.111  1.00  0.00     0.074 A 
ATOM     54  C   UNL A   1      38.452  27.720  32.225  1.00  0.00     0.029 A 
ATOM     55  N   UNL A   1      40.491  28.466  31.864  1.00  0.00    -0.354 N 
ATOM     56  N   UNL A   1      41.714  32.643  32.304  1.00  0.00    -0.248 NA
ATOM     57  C   UNL A   1      42.661  31.877  30.316  1.00  0.00     0.031 C 
ATOM     58  C   UNL A   1      38.733  28.808  33.106  1.00  0.00     0.029 A 
ATOM     59  C   UNL A   1      39.943  29.386  32.716  1.00  0.00     0.049 A 
ATOM     60  H   UNL A   1      41.452  28.336  31.694  1.00  0.00     0.167 HD
ATOM     61  C   UNL A   1      41.504  31.274  32.238  1.00  0.00     0.074 A 
ATOM     62  C   UNL A   1      42.208  30.841  31.030  1.00  0.00     0.031 C 
ATOM     63  C   UNL A   1      40.534  30.677  32.994  1.00  0.00     0.031 A 
BRANCH  50  64
ATOM     64  C   UNL A   1      40.739  26.887  29.221  1.00  0.00    -0.014 A 
ATOM     65  C   UNL A   1      41.893  27.665  29.008  1.00  0.00     0.009 A 
ATOM     66  C   UNL A   1      40.690  25.647  28.557  1.00  0.00     0.009 A 
ATOM     67  C   UNL A   1      42.872  27.285  28.084  1.00  0.00     0.001 A 
ATOM     68  C   UNL A   1      41.685  25.244  27.663  1.00  0.00     0.001 A 
ATOM     69  C   UNL A   1      42.757  26.081  27.397  1.00  0.00     0.000 A 
ENDBRANCH  50  64
BRANCH  51  70
ATOM     70  C   UNL A   1      42.586  35.208  29.896  1.00  0.00    -0.014 A 
ATOM     71  C   UNL A   1      43.574  35.752  30.733  1.00  0.00     0.009 A 
ATOM     72  C   UNL A   1      42.695  35.449  28.514  1.00  0.00     0.009 A 
ATOM     73  C   UNL A   1      44.656  36.469  30.201  1.00  0.00     0.001 A 
ATOM     74  C   UNL A   1      43.775  36.165  27.984  1.00  0.00     0.001 A 
ATOM     75  C   UNL A   1      44.765  36.662  28.826  1.00  0.00     0.000 A 
ENDBRANCH  51  70
BRANCH  63  76
ATOM     76  C   UNL A   1      39.853  31.510  34.056  1.00  0.00    -0.014 A 
ATOM     77  C   UNL A   1      38.722  32.310  33.805  1.00  0.00     0.009 A 
ATOM     78  C   UNL A   1      40.275  31.357  35.382  1.00  0.00     0.009 A 
ATOM     79  C   UNL A   1      38.054  32.958  34.851  1.00  0.00     0.001 A 
ATOM     80  C   UNL A   1      39.597  31.986  36.429  1.00  0.00     0.001 A 
ATOM     81  C   UNL A   1      38.491  32.790  36.163  1.00  0.00     0.000 A 
ENDBRANCH  63  76
ENDBRANCH  37  38
ENDBRANCH  29  32
ENDBRANCH  27  28
ENDBRANCH   1  27
TORSDOF 15
ENDMDL
