MODEL 1
REMARK VINA RESULT:     -11.9      0.000      0.000
REMARK SMILES O=C(NCCCNC(=O)c1ccc(S(=O)(=O)N[C@@H]2CC[N@H+]3CCC[C@H]23)cc1)c1ccc(-c2c3nc(c(-c4ccccc4)c4ccc([nH]4)c(-c4ccccc4)c4nc(c(-c5ccccc5)c5ccc2[nH]5)C=C4)C=C3)cc1
REMARK SMILES IDX 5 1 4 2 3 3 1 4 2 5 28 7 29 8 75 9 30 10 74 11 31 12 32 13
REMARK SMILES IDX 33 14 68 15 34 16 73 17 67 18 69 19 35 20 72 21 66 22 65 23
REMARK SMILES IDX 36 25 58 26 43 27 57 28 44 29 47 30 56 31 70 32 45 33 46 34
REMARK SMILES IDX 55 36 71 37 48 38 37 39 38 40 42 41 39 42 41 43 40 44 59 45
REMARK SMILES IDX 60 46 64 47 61 48 63 49 62 50 49 51 50 52 54 53 51 54 53 55
REMARK SMILES IDX 52 56 6 57 7 58 8 59 9 61 10 62 11 63 27 64 12 65 26 66
REMARK SMILES IDX 13 67 14 68 15 69 16 70 17 71 18 73 19 74 25 75 20 76 21 77
REMARK SMILES IDX 24 78 22 79 23 81
REMARK H PARENT 3 6 69 24 47 35 7 60 17 72 21 80
REMARK Flexibility Score: inf
ROOT
ATOM      1  C   UNL A   1      37.656  19.929  24.913  1.00  0.00     0.042 C 
ENDROOT
BRANCH   1   2
ATOM      2  C   UNL A   1      38.848  20.414  25.719  1.00  0.00     0.118 C 
BRANCH   2   3
ATOM      3  N   UNL A   1      39.953  19.462  25.731  1.00  0.00    -0.352 N 
ATOM      4  O   UNL A   1      42.076  18.724  25.815  1.00  0.00    -0.269 OA
ATOM      5  C   UNL A   1      41.281  19.632  26.041  1.00  0.00     0.251 C 
ATOM      6  H   UNL A   1      39.706  18.545  25.473  1.00  0.00     0.163 HD
BRANCH   5   7
ATOM      7  C   UNL A   1      41.766  20.907  26.612  1.00  0.00     0.039 A 
ATOM      8  C   UNL A   1      41.809  21.111  27.989  1.00  0.00     0.014 A 
ATOM      9  C   UNL A   1      42.200  21.920  25.748  1.00  0.00     0.014 A 
ATOM     10  C   UNL A   1      42.076  22.377  28.494  1.00  0.00     0.010 A 
ATOM     11  C   UNL A   1      42.583  23.162  26.266  1.00  0.00     0.010 A 
ATOM     12  C   UNL A   1      42.470  23.419  27.640  1.00  0.00    -0.014 A 
BRANCH  12  13
ATOM     13  C   UNL A   1      42.773  24.752  28.223  1.00  0.00     0.031 A 
ATOM     14  C   UNL A   1      44.190  25.176  28.501  1.00  0.00     0.074 A 
ATOM     15  C   UNL A   1      41.760  25.614  28.440  1.00  0.00     0.049 A 
ATOM     16  N   UNL A   1      44.631  26.331  28.937  1.00  0.00    -0.248 NA
ATOM     17  C   UNL A   1      45.249  24.180  28.275  1.00  0.00     0.031 C 
ATOM     18  C   UNL A   1      40.341  25.324  28.215  1.00  0.00     0.029 A 
ATOM     19  N   UNL A   1      41.769  26.921  28.854  1.00  0.00    -0.354 N 
ATOM     20  C   UNL A   1      46.007  26.189  29.069  1.00  0.00     0.074 A 
ATOM     21  C   UNL A   1      46.329  24.832  28.683  1.00  0.00     0.031 C 
ATOM     22  C   UNL A   1      39.627  26.441  28.416  1.00  0.00     0.029 A 
ATOM     23  C   UNL A   1      40.526  27.506  28.843  1.00  0.00     0.049 A 
ATOM     24  H   UNL A   1      42.587  27.394  29.133  1.00  0.00     0.167 HD
ATOM     25  C   UNL A   1      46.921  27.104  29.471  1.00  0.00     0.031 A 
ATOM     26  C   UNL A   1      40.147  28.762  29.138  1.00  0.00     0.031 A 
ATOM     27  C   UNL A   1      46.611  28.464  29.828  1.00  0.00     0.049 A 
ATOM     28  C   UNL A   1      41.181  29.759  29.565  1.00  0.00     0.074 A 
ATOM     29  C   UNL A   1      47.477  29.472  30.215  1.00  0.00     0.029 A 
ATOM     30  N   UNL A   1      45.336  29.004  29.836  1.00  0.00    -0.354 N 
ATOM     31  N   UNL A   1      42.479  29.610  29.664  1.00  0.00    -0.248 NA
ATOM     32  C   UNL A   1      40.695  31.099  29.921  1.00  0.00     0.031 C 
ATOM     33  C   UNL A   1      46.719  30.617  30.488  1.00  0.00     0.029 A 
ATOM     34  C   UNL A   1      45.388  30.330  30.234  1.00  0.00     0.049 A 
ATOM     35  H   UNL A   1      44.513  28.519  29.595  1.00  0.00     0.167 HD
ATOM     36  C   UNL A   1      42.968  30.839  30.080  1.00  0.00     0.074 A 
ATOM     37  C   UNL A   1      41.829  31.728  30.197  1.00  0.00     0.031 C 
ATOM     38  C   UNL A   1      44.247  31.199  30.346  1.00  0.00     0.031 A 
BRANCH  25  39
ATOM     39  C   UNL A   1      48.351  26.655  29.574  1.00  0.00    -0.014 A 
ATOM     40  C   UNL A   1      48.840  26.034  30.733  1.00  0.00     0.009 A 
ATOM     41  C   UNL A   1      49.212  26.825  28.478  1.00  0.00     0.009 A 
ATOM     42  C   UNL A   1      50.172  25.618  30.804  1.00  0.00     0.001 A 
ATOM     43  C   UNL A   1      50.536  26.389  28.542  1.00  0.00     0.001 A 
ATOM     44  C   UNL A   1      51.018  25.793  29.707  1.00  0.00     0.000 A 
ENDBRANCH  25  39
BRANCH  26  45
ATOM     45  C   UNL A   1      38.718  29.146  29.024  1.00  0.00    -0.014 A 
ATOM     46  C   UNL A   1      37.866  29.047  30.134  1.00  0.00     0.009 A 
ATOM     47  C   UNL A   1      38.204  29.631  27.812  1.00  0.00     0.009 A 
ATOM     48  C   UNL A   1      36.523  29.412  30.028  1.00  0.00     0.001 A 
ATOM     49  C   UNL A   1      36.867  30.019  27.715  1.00  0.00     0.001 A 
ATOM     50  C   UNL A   1      36.027  29.902  28.821  1.00  0.00     0.000 A 
ENDBRANCH  26  45
BRANCH  38  51
ATOM     51  C   UNL A   1      44.478  32.622  30.760  1.00  0.00    -0.014 A 
ATOM     52  C   UNL A   1      44.761  33.615  29.811  1.00  0.00     0.009 A 
ATOM     53  C   UNL A   1      44.396  32.973  32.116  1.00  0.00     0.009 A 
ATOM     54  C   UNL A   1      44.990  34.932  30.217  1.00  0.00     0.001 A 
ATOM     55  C   UNL A   1      44.605  34.293  32.516  1.00  0.00     0.001 A 
ATOM     56  C   UNL A   1      44.911  35.269  31.569  1.00  0.00     0.000 A 
ENDBRANCH  38  51
ENDBRANCH  12  13
ENDBRANCH   5   7
ENDBRANCH   2   3
ENDBRANCH   1   2
BRANCH   1  57
ATOM     57  C   UNL A   1      36.555  20.964  24.762  1.00  0.00     0.118 C 
BRANCH  57  58
ATOM     58  N   UNL A   1      35.280  20.507  25.298  1.00  0.00    -0.352 N 
ATOM     59  C   UNL A   1      34.078  21.156  25.428  1.00  0.00     0.251 C 
ATOM     60  H   UNL A   1      35.281  19.577  25.621  1.00  0.00     0.163 HD
ATOM     61  O   UNL A   1      33.186  20.648  26.101  1.00  0.00    -0.269 OA
BRANCH  59  62
ATOM     62  C   UNL A   1      33.843  22.453  24.758  1.00  0.00     0.039 A 
ATOM     63  C   UNL A   1      33.350  22.473  23.448  1.00  0.00     0.015 A 
ATOM     64  C   UNL A   1      34.164  23.652  25.397  1.00  0.00     0.015 A 
ATOM     65  C   UNL A   1      33.145  23.694  22.796  1.00  0.00     0.022 A 
ATOM     66  C   UNL A   1      33.882  24.866  24.787  1.00  0.00     0.022 A 
ATOM     67  C   UNL A   1      33.406  24.890  23.475  1.00  0.00     0.082 A 
BRANCH  67  68
ATOM     68  S   UNL A   1      33.244  26.424  22.591  1.00  0.00     0.241 S 
ATOM     69  O   UNL A   1      33.753  27.470  23.446  1.00  0.00    -0.207 OA
ATOM     70  O   UNL A   1      33.751  26.196  21.256  1.00  0.00    -0.207 OA
BRANCH  68  71
ATOM     71  N   UNL A   1      31.590  26.649  22.433  1.00  0.00    -0.202 NA
ATOM     72  H   UNL A   1      31.198  25.762  22.116  1.00  0.00     0.141 HD
BRANCH  71  73
ATOM     73  C   UNL A   1      30.803  27.071  23.599  1.00  0.00     0.133 C 
ATOM     74  C   UNL A   1      29.713  26.003  23.891  1.00  0.00     0.087 C 
ATOM     75  C   UNL A   1      29.996  28.341  23.411  1.00  0.00     0.202 C 
ATOM     76  C   UNL A   1      28.386  26.768  23.939  1.00  0.00     0.264 C 
ATOM     77  N   UNL A   1      28.684  27.826  23.005  1.00  0.00    -0.331 N 
ATOM     78  C   UNL A   1      30.199  29.374  22.332  1.00  0.00     0.072 C 
ATOM     79  C   UNL A   1      27.840  29.000  22.927  1.00  0.00     0.262 C 
ATOM     80  H   UNL A   1      28.574  27.380  22.095  1.00  0.00     0.348 HD
ATOM     81  C   UNL A   1      28.786  29.986  22.216  1.00  0.00     0.068 C 
ENDBRANCH  71  73
ENDBRANCH  68  71
ENDBRANCH  67  68
ENDBRANCH  59  62
ENDBRANCH  57  58
ENDBRANCH   1  57
TORSDOF 13
ENDMDL
MODEL 2
REMARK VINA RESULT:     -11.9      1.118      1.602
REMARK SMILES O=C(NCCCNC(=O)c1ccc(S(=O)(=O)N[C@@H]2CC[N@H+]3CCC[C@H]23)cc1)c1ccc(-c2c3nc(c(-c4ccccc4)c4ccc([nH]4)c(-c4ccccc4)c4nc(c(-c5ccccc5)c5ccc2[nH]5)C=C4)C=C3)cc1
REMARK SMILES IDX 5 1 4 2 3 3 1 4 2 5 28 7 29 8 75 9 30 10 74 11 31 12 32 13
REMARK SMILES IDX 33 14 68 15 34 16 73 17 67 18 69 19 35 20 72 21 66 22 65 23
REMARK SMILES IDX 36 25 58 26 43 27 57 28 44 29 47 30 56 31 70 32 45 33 46 34
REMARK SMILES IDX 55 36 71 37 48 38 37 39 38 40 42 41 39 42 41 43 40 44 59 45
REMARK SMILES IDX 60 46 64 47 61 48 63 49 62 50 49 51 50 52 54 53 51 54 53 55
REMARK SMILES IDX 52 56 6 57 7 58 8 59 9 61 10 62 11 63 27 64 12 65 26 66
REMARK SMILES IDX 13 67 14 68 15 69 16 70 17 71 18 73 19 74 25 75 20 76 21 77
REMARK SMILES IDX 24 78 22 79 23 81
REMARK H PARENT 3 6 69 24 47 35 7 60 17 72 21 80
REMARK Flexibility Score: inf
ROOT
ATOM      1  C   UNL A   1      37.791  20.064  24.837  1.00  0.00     0.042 C 
ENDROOT
BRANCH   1   2
ATOM      2  C   UNL A   1      38.897  20.415  25.816  1.00  0.00     0.118 C 
BRANCH   2   3
ATOM      3  N   UNL A   1      40.021  19.487  25.763  1.00  0.00    -0.352 N 
ATOM      4  O   UNL A   1      42.161  18.793  25.745  1.00  0.00    -0.269 OA
ATOM      5  C   UNL A   1      41.357  19.678  26.023  1.00  0.00     0.251 C 
ATOM      6  H   UNL A   1      39.783  18.571  25.495  1.00  0.00     0.163 HD
BRANCH   5   7
ATOM      7  C   UNL A   1      41.839  20.952  26.602  1.00  0.00     0.039 A 
ATOM      8  C   UNL A   1      41.917  21.133  27.981  1.00  0.00     0.014 A 
ATOM      9  C   UNL A   1      42.232  21.986  25.744  1.00  0.00     0.014 A 
ATOM     10  C   UNL A   1      42.179  22.395  28.499  1.00  0.00     0.010 A 
ATOM     11  C   UNL A   1      42.610  23.225  26.272  1.00  0.00     0.010 A 
ATOM     12  C   UNL A   1      42.533  23.457  27.653  1.00  0.00    -0.014 A 
BRANCH  12  13
ATOM     13  C   UNL A   1      42.831  24.785  28.250  1.00  0.00     0.031 A 
ATOM     14  C   UNL A   1      44.247  25.207  28.540  1.00  0.00     0.074 A 
ATOM     15  C   UNL A   1      41.817  25.644  28.469  1.00  0.00     0.049 A 
ATOM     16  N   UNL A   1      44.685  26.358  28.989  1.00  0.00    -0.248 NA
ATOM     17  C   UNL A   1      45.307  24.213  28.310  1.00  0.00     0.031 C 
ATOM     18  C   UNL A   1      40.399  25.355  28.235  1.00  0.00     0.029 A 
ATOM     19  N   UNL A   1      41.823  26.946  28.896  1.00  0.00    -0.354 N 
ATOM     20  C   UNL A   1      46.060  26.215  29.127  1.00  0.00     0.074 A 
ATOM     21  C   UNL A   1      46.385  24.862  28.730  1.00  0.00     0.031 C 
ATOM     22  C   UNL A   1      39.684  26.469  28.443  1.00  0.00     0.029 A 
ATOM     23  C   UNL A   1      40.580  27.531  28.884  1.00  0.00     0.049 A 
ATOM     24  H   UNL A   1      42.639  27.417  29.184  1.00  0.00     0.167 HD
ATOM     25  C   UNL A   1      46.971  27.127  29.543  1.00  0.00     0.031 A 
ATOM     26  C   UNL A   1      40.199  28.784  29.189  1.00  0.00     0.031 A 
ATOM     27  C   UNL A   1      46.659  28.483  29.911  1.00  0.00     0.049 A 
ATOM     28  C   UNL A   1      41.229  29.778  29.630  1.00  0.00     0.074 A 
ATOM     29  C   UNL A   1      47.521  29.489  30.312  1.00  0.00     0.029 A 
ATOM     30  N   UNL A   1      45.383  29.023  29.917  1.00  0.00    -0.354 N 
ATOM     31  N   UNL A   1      42.527  29.628  29.736  1.00  0.00    -0.248 NA
ATOM     32  C   UNL A   1      40.741  31.114  29.997  1.00  0.00     0.031 C 
ATOM     33  C   UNL A   1      46.761  30.630  30.592  1.00  0.00     0.029 A 
ATOM     34  C   UNL A   1      45.432  30.345  30.328  1.00  0.00     0.049 A 
ATOM     35  H   UNL A   1      44.562  28.539  29.667  1.00  0.00     0.167 HD
ATOM     36  C   UNL A   1      43.013  30.854  30.165  1.00  0.00     0.074 A 
ATOM     37  C   UNL A   1      41.873  31.741  30.285  1.00  0.00     0.031 C 
ATOM     38  C   UNL A   1      44.290  31.212  30.442  1.00  0.00     0.031 A 
BRANCH  25  39
ATOM     39  C   UNL A   1      48.401  26.677  29.649  1.00  0.00    -0.014 A 
ATOM     40  C   UNL A   1      48.883  26.042  30.803  1.00  0.00     0.009 A 
ATOM     41  C   UNL A   1      49.269  26.862  28.561  1.00  0.00     0.009 A 
ATOM     42  C   UNL A   1      50.215  25.627  30.877  1.00  0.00     0.001 A 
ATOM     43  C   UNL A   1      50.593  26.426  28.628  1.00  0.00     0.001 A 
ATOM     44  C   UNL A   1      51.068  25.816  29.788  1.00  0.00     0.000 A 
ENDBRANCH  25  39
BRANCH  26  45
ATOM     45  C   UNL A   1      38.770  29.168  29.071  1.00  0.00    -0.014 A 
ATOM     46  C   UNL A   1      38.255  29.620  27.847  1.00  0.00     0.009 A 
ATOM     47  C   UNL A   1      37.910  29.066  30.175  1.00  0.00     0.009 A 
ATOM     48  C   UNL A   1      36.910  29.977  27.735  1.00  0.00     0.001 A 
ATOM     49  C   UNL A   1      36.561  29.399  30.055  1.00  0.00     0.001 A 
ATOM     50  C   UNL A   1      36.064  29.861  28.837  1.00  0.00     0.000 A 
ENDBRANCH  26  45
BRANCH  38  51
ATOM     51  C   UNL A   1      44.518  32.631  30.871  1.00  0.00    -0.014 A 
ATOM     52  C   UNL A   1      44.743  33.645  29.927  1.00  0.00     0.009 A 
ATOM     53  C   UNL A   1      44.491  32.957  32.235  1.00  0.00     0.009 A 
ATOM     54  C   UNL A   1      44.971  34.958  30.347  1.00  0.00     0.001 A 
ATOM     55  C   UNL A   1      44.697  34.273  32.649  1.00  0.00     0.001 A 
ATOM     56  C   UNL A   1      44.946  35.270  31.706  1.00  0.00     0.000 A 
ENDBRANCH  38  51
ENDBRANCH  12  13
ENDBRANCH   5   7
ENDBRANCH   2   3
ENDBRANCH   1   2
BRANCH   1  57
ATOM     57  C   UNL A   1      36.675  21.093  24.777  1.00  0.00     0.118 C 
BRANCH  57  58
ATOM     58  N   UNL A   1      35.729  20.956  25.878  1.00  0.00    -0.352 N 
ATOM     59  C   UNL A   1      34.678  21.751  26.259  1.00  0.00     0.251 C 
ATOM     60  H   UNL A   1      35.868  20.161  26.441  1.00  0.00     0.163 HD
ATOM     61  O   UNL A   1      34.139  21.561  27.346  1.00  0.00    -0.269 OA
BRANCH  59  62
ATOM     62  C   UNL A   1      34.183  22.827  25.374  1.00  0.00     0.039 A 
ATOM     63  C   UNL A   1      33.336  22.505  24.306  1.00  0.00     0.015 A 
ATOM     64  C   UNL A   1      34.600  24.146  25.556  1.00  0.00     0.015 A 
ATOM     65  C   UNL A   1      32.878  23.511  23.448  1.00  0.00     0.022 A 
ATOM     66  C   UNL A   1      34.081  25.158  24.760  1.00  0.00     0.022 A 
ATOM     67  C   UNL A   1      33.249  24.839  23.686  1.00  0.00     0.082 A 
BRANCH  67  68
ATOM     68  S   UNL A   1      32.748  26.085  22.519  1.00  0.00     0.241 S 
ATOM     69  O   UNL A   1      33.798  26.199  21.535  1.00  0.00    -0.207 OA
ATOM     70  O   UNL A   1      31.376  25.801  22.164  1.00  0.00    -0.207 OA
BRANCH  68  71
ATOM     71  N   UNL A   1      32.718  27.507  23.406  1.00  0.00    -0.202 NA
ATOM     72  H   UNL A   1      32.942  28.265  22.761  1.00  0.00     0.141 HD
BRANCH  71  73
ATOM     73  C   UNL A   1      31.488  27.895  24.110  1.00  0.00     0.133 C 
ATOM     74  C   UNL A   1      30.737  28.964  23.270  1.00  0.00     0.087 C 
ATOM     75  C   UNL A   1      31.695  28.590  25.442  1.00  0.00     0.202 C 
ATOM     76  C   UNL A   1      30.494  30.143  24.219  1.00  0.00     0.264 C 
ATOM     77  N   UNL A   1      31.652  30.008  25.070  1.00  0.00    -0.331 N 
ATOM     78  C   UNL A   1      32.961  28.589  26.260  1.00  0.00     0.072 C 
ATOM     79  C   UNL A   1      31.727  30.718  26.330  1.00  0.00     0.262 C 
ATOM     80  H   UNL A   1      32.406  30.410  24.514  1.00  0.00     0.348 HD
ATOM     81  C   UNL A   1      32.824  29.910  27.049  1.00  0.00     0.068 C 
ENDBRANCH  71  73
ENDBRANCH  68  71
ENDBRANCH  67  68
ENDBRANCH  59  62
ENDBRANCH  57  58
ENDBRANCH   1  57
TORSDOF 13
ENDMDL
MODEL 3
REMARK VINA RESULT:     -11.8      3.644      9.340
REMARK SMILES O=C(NCCCNC(=O)c1ccc(S(=O)(=O)N[C@@H]2CC[N@H+]3CCC[C@H]23)cc1)c1ccc(-c2c3nc(c(-c4ccccc4)c4ccc([nH]4)c(-c4ccccc4)c4nc(c(-c5ccccc5)c5ccc2[nH]5)C=C4)C=C3)cc1
REMARK SMILES IDX 5 1 4 2 3 3 1 4 2 5 28 7 29 8 75 9 30 10 74 11 31 12 32 13
REMARK SMILES IDX 33 14 68 15 34 16 73 17 67 18 69 19 35 20 72 21 66 22 65 23
REMARK SMILES IDX 36 25 58 26 43 27 57 28 44 29 47 30 56 31 70 32 45 33 46 34
REMARK SMILES IDX 55 36 71 37 48 38 37 39 38 40 42 41 39 42 41 43 40 44 59 45
REMARK SMILES IDX 60 46 64 47 61 48 63 49 62 50 49 51 50 52 54 53 51 54 53 55
REMARK SMILES IDX 52 56 6 57 7 58 8 59 9 61 10 62 11 63 27 64 12 65 26 66
REMARK SMILES IDX 13 67 14 68 15 69 16 70 17 71 18 73 19 74 25 75 20 76 21 77
REMARK SMILES IDX 24 78 22 79 23 81
REMARK H PARENT 3 6 69 24 47 35 7 60 17 72 21 80
REMARK Flexibility Score: inf
ROOT
ATOM      1  C   UNL A   1      31.436  31.675  26.521  1.00  0.00     0.042 C 
ENDROOT
BRANCH   1   2
ATOM      2  C   UNL A   1      32.658  32.327  27.144  1.00  0.00     0.118 C 
BRANCH   2   3
ATOM      3  N   UNL A   1      32.409  33.692  27.592  1.00  0.00    -0.352 N 
ATOM      4  O   UNL A   1      32.591  35.543  28.858  1.00  0.00    -0.269 OA
ATOM      5  C   UNL A   1      33.080  34.475  28.502  1.00  0.00     0.251 C 
ATOM      6  H   UNL A   1      31.631  34.125  27.175  1.00  0.00     0.163 HD
BRANCH   5   7
ATOM      7  C   UNL A   1      34.366  34.027  29.080  1.00  0.00     0.039 A 
ATOM      8  C   UNL A   1      35.582  34.420  28.525  1.00  0.00     0.014 A 
ATOM      9  C   UNL A   1      34.356  33.203  30.212  1.00  0.00     0.014 A 
ATOM     10  C   UNL A   1      36.763  33.832  28.958  1.00  0.00     0.010 A 
ATOM     11  C   UNL A   1      35.558  32.702  30.721  1.00  0.00     0.010 A 
ATOM     12  C   UNL A   1      36.768  32.967  30.064  1.00  0.00    -0.014 A 
BRANCH  12  13
ATOM     13  C   UNL A   1      38.058  32.379  30.512  1.00  0.00     0.031 A 
ATOM     14  C   UNL A   1      38.777  32.912  31.722  1.00  0.00     0.074 A 
ATOM     15  C   UNL A   1      38.548  31.309  29.856  1.00  0.00     0.049 A 
ATOM     16  N   UNL A   1      39.870  32.464  32.290  1.00  0.00    -0.248 NA
ATOM     17  C   UNL A   1      38.209  34.102  32.375  1.00  0.00     0.031 C 
ATOM     18  C   UNL A   1      37.949  30.699  28.666  1.00  0.00     0.029 A 
ATOM     19  N   UNL A   1      39.636  30.518  30.122  1.00  0.00    -0.354 N 
ATOM     20  C   UNL A   1      40.139  33.334  33.340  1.00  0.00     0.074 A 
ATOM     21  C   UNL A   1      39.103  34.345  33.323  1.00  0.00     0.031 C 
ATOM     22  C   UNL A   1      38.628  29.587  28.353  1.00  0.00     0.029 A 
ATOM     23  C   UNL A   1      39.744  29.438  29.279  1.00  0.00     0.049 A 
ATOM     24  H   UNL A   1      40.277  30.705  30.845  1.00  0.00     0.167 HD
ATOM     25  C   UNL A   1      41.151  33.295  34.239  1.00  0.00     0.031 A 
ATOM     26  C   UNL A   1      40.638  28.434  29.254  1.00  0.00     0.031 A 
ATOM     27  C   UNL A   1      42.167  32.276  34.279  1.00  0.00     0.049 A 
ATOM     28  C   UNL A   1      41.739  28.406  30.270  1.00  0.00     0.074 A 
ATOM     29  C   UNL A   1      43.212  32.135  35.175  1.00  0.00     0.029 A 
ATOM     30  N   UNL A   1      42.258  31.220  33.386  1.00  0.00    -0.354 N 
ATOM     31  N   UNL A   1      41.963  29.227  31.266  1.00  0.00    -0.248 NA
ATOM     32  C   UNL A   1      42.712  27.310  30.156  1.00  0.00     0.031 C 
ATOM     33  C   UNL A   1      43.957  31.009  34.804  1.00  0.00     0.029 A 
ATOM     34  C   UNL A   1      43.352  30.430  33.701  1.00  0.00     0.049 A 
ATOM     35  H   UNL A   1      41.639  31.055  32.638  1.00  0.00     0.167 HD
ATOM     36  C   UNL A   1      43.092  28.740  31.907  1.00  0.00     0.074 A 
ATOM     37  C   UNL A   1      43.497  27.543  31.198  1.00  0.00     0.031 C 
ATOM     38  C   UNL A   1      43.741  29.244  32.986  1.00  0.00     0.031 A 
BRANCH  25  39
ATOM     39  C   UNL A   1      41.228  34.409  35.244  1.00  0.00    -0.014 A 
ATOM     40  C   UNL A   1      41.963  35.576  34.987  1.00  0.00     0.009 A 
ATOM     41  C   UNL A   1      40.521  34.301  36.453  1.00  0.00     0.009 A 
ATOM     42  C   UNL A   1      42.014  36.601  35.934  1.00  0.00     0.001 A 
ATOM     43  C   UNL A   1      40.556  35.337  37.388  1.00  0.00     0.001 A 
ATOM     44  C   UNL A   1      41.308  36.482  37.132  1.00  0.00     0.000 A 
ENDBRANCH  25  39
BRANCH  26  45
ATOM     45  C   UNL A   1      40.515  27.365  28.232  1.00  0.00    -0.014 A 
ATOM     46  C   UNL A   1      41.138  27.502  26.982  1.00  0.00     0.009 A 
ATOM     47  C   UNL A   1      39.792  26.195  28.507  1.00  0.00     0.009 A 
ATOM     48  C   UNL A   1      41.026  26.494  26.023  1.00  0.00     0.001 A 
ATOM     49  C   UNL A   1      39.702  25.177  27.556  1.00  0.00     0.001 A 
ATOM     50  C   UNL A   1      40.313  25.332  26.313  1.00  0.00     0.000 A 
ENDBRANCH  26  45
BRANCH  38  51
ATOM     51  C   UNL A   1      44.935  28.480  33.476  1.00  0.00    -0.014 A 
ATOM     52  C   UNL A   1      44.796  27.439  34.406  1.00  0.00     0.009 A 
ATOM     53  C   UNL A   1      46.210  28.798  32.988  1.00  0.00     0.009 A 
ATOM     54  C   UNL A   1      45.922  26.751  34.864  1.00  0.00     0.001 A 
ATOM     55  C   UNL A   1      47.330  28.094  33.431  1.00  0.00     0.001 A 
ATOM     56  C   UNL A   1      47.186  27.078  34.375  1.00  0.00     0.000 A 
ENDBRANCH  38  51
ENDBRANCH  12  13
ENDBRANCH   5   7
ENDBRANCH   2   3
ENDBRANCH   1   2
BRANCH   1  57
ATOM     57  C   UNL A   1      31.677  30.256  26.037  1.00  0.00     0.118 C 
BRANCH  57  58
ATOM     58  N   UNL A   1      31.397  30.095  24.616  1.00  0.00    -0.352 N 
ATOM     59  C   UNL A   1      31.353  28.968  23.834  1.00  0.00     0.251 C 
ATOM     60  H   UNL A   1      31.210  30.934  24.137  1.00  0.00     0.163 HD
ATOM     61  O   UNL A   1      31.305  29.081  22.612  1.00  0.00    -0.269 OA
BRANCH  59  62
ATOM     62  C   UNL A   1      31.353  27.622  24.445  1.00  0.00     0.039 A 
ATOM     63  C   UNL A   1      32.558  27.072  24.900  1.00  0.00     0.015 A 
ATOM     64  C   UNL A   1      30.177  26.873  24.517  1.00  0.00     0.015 A 
ATOM     65  C   UNL A   1      32.574  25.790  25.461  1.00  0.00     0.022 A 
ATOM     66  C   UNL A   1      30.174  25.638  25.149  1.00  0.00     0.022 A 
ATOM     67  C   UNL A   1      31.375  25.080  25.589  1.00  0.00     0.082 A 
BRANCH  67  68
ATOM     68  S   UNL A   1      31.435  23.411  26.201  1.00  0.00     0.241 S 
ATOM     69  O   UNL A   1      30.987  23.438  27.573  1.00  0.00    -0.207 OA
ATOM     70  O   UNL A   1      30.818  22.573  25.198  1.00  0.00    -0.207 OA
BRANCH  68  71
ATOM     71  N   UNL A   1      33.065  23.020  26.200  1.00  0.00    -0.202 NA
ATOM     72  H   UNL A   1      33.221  22.392  26.989  1.00  0.00     0.141 HD
BRANCH  71  73
ATOM     73  C   UNL A   1      33.654  22.375  25.019  1.00  0.00     0.133 C 
ATOM     74  C   UNL A   1      33.748  20.845  25.268  1.00  0.00     0.087 C 
ATOM     75  C   UNL A   1      35.089  22.761  24.718  1.00  0.00     0.202 C 
ATOM     76  C   UNL A   1      35.208  20.468  24.996  1.00  0.00     0.264 C 
ATOM     77  N   UNL A   1      35.851  21.700  25.387  1.00  0.00    -0.331 N 
ATOM     78  C   UNL A   1      35.820  23.964  25.257  1.00  0.00     0.072 C 
ATOM     79  C   UNL A   1      37.229  21.958  25.027  1.00  0.00     0.262 C 
ATOM     80  H   UNL A   1      35.864  21.650  26.404  1.00  0.00     0.348 HD
ATOM     81  C   UNL A   1      37.289  23.487  25.202  1.00  0.00     0.068 C 
ENDBRANCH  71  73
ENDBRANCH  68  71
ENDBRANCH  67  68
ENDBRANCH  59  62
ENDBRANCH  57  58
ENDBRANCH   1  57
TORSDOF 13
ENDMDL
