MODEL 1
REMARK VINA RESULT:     -13.0      0.000      0.000
REMARK SMILES Cc1cc(S(F)(F)(F)(F)F)cc2c1O[C@H](C(F)(F)F)C(C(=O)NCCCNC(=O)c1ccc(-c3c4nc(c(-c5ccccc5)c5ccc([nH]5)c(-c5ccccc5)c5nc(c(-c6ccccc6)c6ccc3[nH]6)C=C5)C=C4)cc1)=C2
REMARK SMILES IDX 25 1 24 2 23 3 21 4 22 5 20 7 1 8 2 9 3 10 13 11 4 12 12 13
REMARK SMILES IDX 14 14 11 15 78 16 15 17 5 18 6 19 7 20 8 21 9 22 10 23 16 24
REMARK SMILES IDX 17 25 18 26 19 27 26 28 27 29 28 30 29 32 30 33 31 34 77 35
REMARK SMILES IDX 32 36 76 37 33 38 34 39 35 40 70 41 36 42 75 43 69 44 71 45
REMARK SMILES IDX 37 46 74 47 68 48 67 49 38 51 60 52 45 53 59 54 46 55 49 56
REMARK SMILES IDX 58 57 72 58 47 59 48 60 57 62 73 63 50 64 39 65 40 66 44 67
REMARK SMILES IDX 41 68 43 69 42 70 61 71 62 72 66 73 63 74 65 75 64 76 51 77
REMARK SMILES IDX 52 78 56 79 53 80 55 81 54 82
REMARK H PARENT 23 6 27 31 71 50 49 61
REMARK Flexibility Score: inf
ROOT
ATOM      1  C   UNL A   1      37.755  20.165  24.627  1.00  0.00     0.042 C 
ENDROOT
BRANCH   1   2
ATOM      2  C   UNL A   1      36.640  21.184  24.793  1.00  0.00     0.118 C 
BRANCH   2   3
ATOM      3  N   UNL A   1      35.684  20.703  25.801  1.00  0.00    -0.352 N 
ATOM      4  C   UNL A   1      34.464  21.474  26.083  1.00  0.00     0.251 C 
ATOM      5  O   UNL A   1      33.638  21.058  26.956  1.00  0.00    -0.270 OA
ATOM      6  H   UNL A   1      35.861  19.866  26.287  1.00  0.00     0.163 HD
BRANCH   4   7
ATOM      7  C   UNL A   1      34.192  22.767  25.333  1.00  0.00     0.067 C 
ATOM      8  C   UNL A   1      33.278  26.225  21.721  1.00  0.00     0.048 C 
ATOM      9  C   UNL A   1      33.442  26.307  23.229  1.00  0.00    -0.007 A 
ATOM     10  C   UNL A   1      33.298  27.478  23.940  1.00  0.00     0.031 A 
ATOM     11  C   UNL A   1      33.692  25.117  23.914  1.00  0.00     0.130 A 
ATOM     12  C   UNL A   1      33.403  27.485  25.326  1.00  0.00     0.108 A 
ATOM     13  C   UNL A   1      33.792  25.127  25.322  1.00  0.00     0.019 A 
ATOM     14  O   UNL A   1      33.855  23.837  23.214  1.00  0.00    -0.475 OA
ATOM     15  C   UNL A   1      33.641  26.330  26.017  1.00  0.00     0.036 A 
ATOM     16  C   UNL A   1      34.056  23.865  26.015  1.00  0.00     0.025 C 
ATOM     17  C   UNL A   1      34.096  22.726  23.943  1.00  0.00     0.314 C 
BRANCH  12  18
ATOM     18  S   UNL A   1      33.222  29.044  26.228  1.00  0.00     0.310 S 
ATOM     19  F   UNL A   1      33.499  28.349  27.626  1.00  0.00    -0.094 F 
ATOM     20  F   UNL A   1      31.698  28.710  26.441  1.00  0.00    -0.094 F 
ATOM     21  F   UNL A   1      33.064  30.387  26.996  1.00  0.00    -0.094 F 
ATOM     22  F   UNL A   1      34.778  29.293  26.127  1.00  0.00    -0.094 F 
ATOM     23  F   UNL A   1      33.420  27.631  25.546  1.00  0.00    -0.094 F 
ENDBRANCH  12  18
BRANCH  17  24
ATOM     24  C   UNL A   1      32.826  21.919  23.728  1.00  0.00     0.429 C 
ATOM     25  F   UNL A   1      33.092  20.624  23.873  1.00  0.00    -0.167 F 
ATOM     26  F   UNL A   1      31.912  22.286  24.624  1.00  0.00    -0.167 F 
ATOM     27  F   UNL A   1      32.360  22.142  22.503  1.00  0.00    -0.167 F 
ENDBRANCH  17  24
ENDBRANCH   4   7
ENDBRANCH   2   3
ENDBRANCH   1   2
BRANCH   1  28
ATOM     28  C   UNL A   1      38.765  20.332  25.751  1.00  0.00     0.118 C 
BRANCH  28  29
ATOM     29  N   UNL A   1      39.712  19.208  25.730  1.00  0.00    -0.352 N 
ATOM     30  C   UNL A   1      41.108  19.414  26.144  1.00  0.00     0.251 C 
ATOM     31  H   UNL A   1      39.411  18.317  25.438  1.00  0.00     0.163 HD
ATOM     32  O   UNL A   1      41.925  18.442  26.126  1.00  0.00    -0.269 OA
BRANCH  30  33
ATOM     33  C   UNL A   1      41.572  20.790  26.594  1.00  0.00     0.039 A 
ATOM     34  C   UNL A   1      42.197  21.657  25.706  1.00  0.00     0.014 A 
ATOM     35  C   UNL A   1      41.385  21.191  27.833  1.00  0.00     0.014 A 
ATOM     36  C   UNL A   1      42.132  23.033  26.016  1.00  0.00     0.010 A 
ATOM     37  C   UNL A   1      41.815  22.457  28.248  1.00  0.00     0.010 A 
ATOM     38  C   UNL A   1      42.181  23.365  27.369  1.00  0.00    -0.014 A 
BRANCH  38  39
ATOM     39  C   UNL A   1      42.645  24.741  27.818  1.00  0.00     0.031 A 
ATOM     40  C   UNL A   1      44.019  24.977  27.895  1.00  0.00     0.074 A 
ATOM     41  C   UNL A   1      41.679  25.686  28.120  1.00  0.00     0.049 A 
ATOM     42  N   UNL A   1      44.631  26.115  28.226  1.00  0.00    -0.248 NA
ATOM     43  C   UNL A   1      45.045  23.965  27.608  1.00  0.00     0.031 C 
ATOM     44  C   UNL A   1      40.291  25.458  28.037  1.00  0.00     0.029 A 
ATOM     45  N   UNL A   1      41.868  26.982  28.546  1.00  0.00    -0.354 N 
ATOM     46  C   UNL A   1      45.955  25.959  28.169  1.00  0.00     0.074 A 
ATOM     47  C   UNL A   1      46.241  24.573  27.777  1.00  0.00     0.031 C 
ATOM     48  C   UNL A   1      39.653  26.596  28.418  1.00  0.00     0.029 A 
ATOM     49  C   UNL A   1      40.631  27.555  28.745  1.00  0.00     0.049 A 
ATOM     50  H   UNL A   1      42.737  27.423  28.684  1.00  0.00     0.167 HD
ATOM     51  C   UNL A   1      46.935  26.919  28.427  1.00  0.00     0.031 A 
ATOM     52  C   UNL A   1      40.351  28.837  29.187  1.00  0.00     0.031 A 
ATOM     53  C   UNL A   1      46.654  28.215  28.828  1.00  0.00     0.049 A 
ATOM     54  C   UNL A   1      41.332  29.781  29.502  1.00  0.00     0.074 A 
ATOM     55  C   UNL A   1      47.630  29.197  29.085  1.00  0.00     0.029 A 
ATOM     56  N   UNL A   1      45.418  28.781  29.051  1.00  0.00    -0.354 N 
ATOM     57  N   UNL A   1      42.656  29.636  29.407  1.00  0.00    -0.248 NA
ATOM     58  C   UNL A   1      41.048  31.132  30.003  1.00  0.00     0.031 C 
ATOM     59  C   UNL A   1      46.992  30.337  29.466  1.00  0.00     0.029 A 
ATOM     60  C   UNL A   1      45.607  30.083  29.454  1.00  0.00     0.049 A 
ATOM     61  H   UNL A   1      44.550  28.330  28.941  1.00  0.00     0.167 HD
ATOM     62  C   UNL A   1      43.268  30.762  29.779  1.00  0.00     0.074 A 
ATOM     63  C   UNL A   1      42.243  31.738  30.174  1.00  0.00     0.031 C 
ATOM     64  C   UNL A   1      44.640  31.016  29.799  1.00  0.00     0.031 A 
BRANCH  51  65
ATOM     65  C   UNL A   1      48.392  26.520  28.259  1.00  0.00    -0.014 A 
ATOM     66  C   UNL A   1      49.135  26.000  29.313  1.00  0.00     0.009 A 
ATOM     67  C   UNL A   1      48.978  26.656  27.088  1.00  0.00     0.009 A 
ATOM     68  C   UNL A   1      50.249  25.203  28.966  1.00  0.00     0.001 A 
ATOM     69  C   UNL A   1      50.317  26.292  26.912  1.00  0.00     0.001 A 
ATOM     70  C   UNL A   1      50.948  25.581  27.822  1.00  0.00     0.000 A 
ENDBRANCH  51  65
BRANCH  52  71
ATOM     71  C   UNL A   1      38.893  29.242  29.340  1.00  0.00    -0.014 A 
ATOM     72  C   UNL A   1      38.206  29.901  28.327  1.00  0.00     0.009 A 
ATOM     73  C   UNL A   1      38.254  28.975  30.459  1.00  0.00     0.009 A 
ATOM     74  C   UNL A   1      36.798  29.791  28.345  1.00  0.00     0.001 A 
ATOM     75  C   UNL A   1      36.918  29.355  30.627  1.00  0.00     0.001 A 
ATOM     76  C   UNL A   1      36.196  29.753  29.601  1.00  0.00     0.000 A 
ENDBRANCH  52  71
BRANCH  64  77
ATOM     77  C   UNL A   1      45.104  32.400  30.226  1.00  0.00    -0.014 A 
ATOM     78  C   UNL A   1      45.251  33.422  29.294  1.00  0.00     0.009 A 
ATOM     79  C   UNL A   1      45.366  32.663  31.487  1.00  0.00     0.009 A 
ATOM     80  C   UNL A   1      45.172  34.743  29.787  1.00  0.00     0.001 A 
ATOM     81  C   UNL A   1      45.793  33.936  31.880  1.00  0.00     0.001 A 
ATOM     82  C   UNL A   1      45.702  34.960  31.058  1.00  0.00     0.000 A 
ENDBRANCH  64  77
ENDBRANCH  38  39
ENDBRANCH  30  33
ENDBRANCH  28  29
ENDBRANCH   1  28
TORSDOF 12
ENDMDL
MODEL 2
REMARK VINA RESULT:     -13.0      0.691      5.729
REMARK SMILES Cc1cc(S(F)(F)(F)(F)F)cc2c1O[C@H](C(F)(F)F)C(C(=O)NCCCNC(=O)c1ccc(-c3c4nc(c(-c5ccccc5)c5ccc([nH]5)c(-c5ccccc5)c5nc(c(-c6ccccc6)c6ccc3[nH]6)C=C5)C=C4)cc1)=C2
REMARK SMILES IDX 25 1 24 2 23 3 21 4 22 5 20 7 1 8 2 9 3 10 13 11 4 12 12 13
REMARK SMILES IDX 14 14 11 15 78 16 15 17 5 18 6 19 7 20 8 21 9 22 10 23 16 24
REMARK SMILES IDX 17 25 18 26 19 27 26 28 27 29 28 30 29 32 30 33 31 34 77 35
REMARK SMILES IDX 32 36 76 37 33 38 34 39 35 40 70 41 36 42 75 43 69 44 71 45
REMARK SMILES IDX 37 46 74 47 68 48 67 49 38 51 60 52 45 53 59 54 46 55 49 56
REMARK SMILES IDX 58 57 72 58 47 59 48 60 57 62 73 63 50 64 39 65 40 66 44 67
REMARK SMILES IDX 41 68 43 69 42 70 61 71 62 72 66 73 63 74 65 75 64 76 51 77
REMARK SMILES IDX 52 78 56 79 53 80 55 81 54 82
REMARK H PARENT 23 6 27 31 71 50 49 61
REMARK Flexibility Score: inf
ROOT
ATOM      1  C   UNL A   1      37.746  20.112  24.633  1.00  0.00     0.042 C 
ENDROOT
BRANCH   1   2
ATOM      2  C   UNL A   1      36.631  21.129  24.807  1.00  0.00     0.118 C 
BRANCH   2   3
ATOM      3  N   UNL A   1      35.658  20.626  25.787  1.00  0.00    -0.352 N 
ATOM      4  C   UNL A   1      34.420  21.377  26.046  1.00  0.00     0.251 C 
ATOM      5  O   UNL A   1      33.578  20.941  26.893  1.00  0.00    -0.270 OA
ATOM      6  H   UNL A   1      35.834  19.786  26.269  1.00  0.00     0.163 HD
BRANCH   4   7
ATOM      7  C   UNL A   1      34.149  22.674  25.301  1.00  0.00     0.067 C 
ATOM      8  C   UNL A   1      33.202  26.144  21.709  1.00  0.00     0.048 C 
ATOM      9  C   UNL A   1      33.399  26.223  23.214  1.00  0.00    -0.007 A 
ATOM     10  C   UNL A   1      33.286  27.396  23.928  1.00  0.00     0.031 A 
ATOM     11  C   UNL A   1      33.648  25.030  23.893  1.00  0.00     0.130 A 
ATOM     12  C   UNL A   1      33.421  27.401  25.311  1.00  0.00     0.108 A 
ATOM     13  C   UNL A   1      33.780  25.039  25.299  1.00  0.00     0.019 A 
ATOM     14  O   UNL A   1      33.780  23.749  23.190  1.00  0.00    -0.475 OA
ATOM     15  C   UNL A   1      33.659  26.243  25.997  1.00  0.00     0.036 A 
ATOM     16  C   UNL A   1      34.042  23.773  25.986  1.00  0.00     0.025 C 
ATOM     17  C   UNL A   1      34.022  22.634  23.913  1.00  0.00     0.314 C 
BRANCH  12  18
ATOM     18  S   UNL A   1      33.280  28.963  26.216  1.00  0.00     0.310 S 
ATOM     19  F   UNL A   1      33.559  28.260  27.611  1.00  0.00    -0.094 F 
ATOM     20  F   UNL A   1      31.752  28.657  26.446  1.00  0.00    -0.094 F 
ATOM     21  F   UNL A   1      33.156  30.307  26.987  1.00  0.00    -0.094 F 
ATOM     22  F   UNL A   1      34.840  29.182  26.099  1.00  0.00    -0.094 F 
ATOM     23  F   UNL A   1      33.443  27.547  25.531  1.00  0.00    -0.094 F 
ENDBRANCH  12  18
BRANCH  17  24
ATOM     24  C   UNL A   1      32.738  21.844  23.727  1.00  0.00     0.429 C 
ATOM     25  F   UNL A   1      32.996  20.543  23.832  1.00  0.00    -0.167 F 
ATOM     26  F   UNL A   1      31.860  22.199  24.662  1.00  0.00    -0.167 F 
ATOM     27  F   UNL A   1      32.230  22.099  22.524  1.00  0.00    -0.167 F 
ENDBRANCH  17  24
ENDBRANCH   4   7
ENDBRANCH   2   3
ENDBRANCH   1   2
BRANCH   1  28
ATOM     28  C   UNL A   1      38.773  20.291  25.740  1.00  0.00     0.118 C 
BRANCH  28  29
ATOM     29  N   UNL A   1      39.787  19.231  25.644  1.00  0.00    -0.352 N 
ATOM     30  C   UNL A   1      41.167  19.492  26.077  1.00  0.00     0.251 C 
ATOM     31  H   UNL A   1      39.541  18.346  25.290  1.00  0.00     0.163 HD
ATOM     32  O   UNL A   1      42.043  18.575  25.994  1.00  0.00    -0.269 OA
BRANCH  30  33
ATOM     33  C   UNL A   1      41.547  20.858  26.624  1.00  0.00     0.039 A 
ATOM     34  C   UNL A   1      42.187  21.795  25.821  1.00  0.00     0.014 A 
ATOM     35  C   UNL A   1      41.271  21.185  27.869  1.00  0.00     0.014 A 
ATOM     36  C   UNL A   1      42.047  23.149  26.196  1.00  0.00     0.010 A 
ATOM     37  C   UNL A   1      41.623  22.442  28.373  1.00  0.00     0.010 A 
ATOM     38  C   UNL A   1      42.002  23.410  27.565  1.00  0.00    -0.014 A 
BRANCH  38  39
ATOM     39  C   UNL A   1      42.382  24.777  28.111  1.00  0.00     0.031 A 
ATOM     40  C   UNL A   1      41.372  25.729  28.258  1.00  0.00     0.074 A 
ATOM     41  C   UNL A   1      43.710  25.000  28.437  1.00  0.00     0.049 A 
ATOM     42  N   UNL A   1      41.483  26.963  28.750  1.00  0.00    -0.248 NA
ATOM     43  C   UNL A   1      39.969  25.505  27.881  1.00  0.00     0.031 C 
ATOM     44  C   UNL A   1      44.734  24.042  28.298  1.00  0.00     0.029 A 
ATOM     45  N   UNL A   1      44.275  26.151  28.938  1.00  0.00    -0.354 N 
ATOM     46  C   UNL A   1      40.293  27.568  28.750  1.00  0.00     0.074 A 
ATOM     47  C   UNL A   1      39.304  26.642  28.185  1.00  0.00     0.031 C 
ATOM     48  C   UNL A   1      45.900  24.611  28.699  1.00  0.00     0.029 A 
ATOM     49  C   UNL A   1      45.626  25.934  29.096  1.00  0.00     0.049 A 
ATOM     50  H   UNL A   1      43.796  26.985  29.147  1.00  0.00     0.167 HD
ATOM     51  C   UNL A   1      39.996  28.855  29.201  1.00  0.00     0.031 A 
ATOM     52  C   UNL A   1      46.581  26.826  29.557  1.00  0.00     0.031 A 
ATOM     53  C   UNL A   1      40.944  29.733  29.702  1.00  0.00     0.049 A 
ATOM     54  C   UNL A   1      46.292  28.135  29.953  1.00  0.00     0.074 A 
ATOM     55  C   UNL A   1      40.659  31.031  30.167  1.00  0.00     0.029 A 
ATOM     56  N   UNL A   1      42.299  29.524  29.837  1.00  0.00    -0.354 N 
ATOM     57  N   UNL A   1      45.097  28.725  29.989  1.00  0.00    -0.248 NA
ATOM     58  C   UNL A   1      47.300  29.099  30.411  1.00  0.00     0.031 C 
ATOM     59  C   UNL A   1      41.827  31.601  30.569  1.00  0.00     0.029 A 
ATOM     60  C   UNL A   1      42.860  30.668  30.359  1.00  0.00     0.049 A 
ATOM     61  H   UNL A   1      42.782  28.700  29.600  1.00  0.00     0.167 HD
ATOM     62  C   UNL A   1      45.215  29.975  30.443  1.00  0.00     0.074 A 
ATOM     63  C   UNL A   1      46.636  30.236  30.714  1.00  0.00     0.031 C 
ATOM     64  C   UNL A   1      44.196  30.906  30.645  1.00  0.00     0.031 A 
BRANCH  51  65
ATOM     65  C   UNL A   1      38.550  29.320  29.138  1.00  0.00    -0.014 A 
ATOM     66  C   UNL A   1      37.647  29.046  30.160  1.00  0.00     0.009 A 
ATOM     67  C   UNL A   1      38.128  30.011  28.101  1.00  0.00     0.009 A 
ATOM     68  C   UNL A   1      36.540  29.915  30.274  1.00  0.00     0.001 A 
ATOM     69  C   UNL A   1      36.802  30.452  28.026  1.00  0.00     0.001 A 
ATOM     70  C   UNL A   1      36.018  30.410  29.081  1.00  0.00     0.000 A 
ENDBRANCH  51  65
BRANCH  52  71
ATOM     71  C   UNL A   1      48.024  26.355  29.635  1.00  0.00    -0.014 A 
ATOM     72  C   UNL A   1      48.892  26.471  28.555  1.00  0.00     0.009 A 
ATOM     73  C   UNL A   1      48.476  25.813  30.746  1.00  0.00     0.009 A 
ATOM     74  C   UNL A   1      50.273  26.483  28.853  1.00  0.00     0.001 A 
ATOM     75  C   UNL A   1      49.796  25.356  30.832  1.00  0.00     0.001 A 
ATOM     76  C   UNL A   1      50.683  25.679  29.915  1.00  0.00     0.000 A 
ENDBRANCH  52  71
BRANCH  64  77
ATOM     77  C   UNL A   1      44.573  32.265  31.213  1.00  0.00    -0.014 A 
ATOM     78  C   UNL A   1      44.889  33.327  30.372  1.00  0.00     0.009 A 
ATOM     79  C   UNL A   1      44.600  32.468  32.512  1.00  0.00     0.009 A 
ATOM     80  C   UNL A   1      44.720  34.625  30.903  1.00  0.00     0.001 A 
ATOM     81  C   UNL A   1      44.947  33.719  33.035  1.00  0.00     0.001 A 
ATOM     82  C   UNL A   1      45.007  34.780  32.258  1.00  0.00     0.000 A 
ENDBRANCH  64  77
ENDBRANCH  38  39
ENDBRANCH  30  33
ENDBRANCH  28  29
ENDBRANCH   1  28
TORSDOF 12
ENDMDL
MODEL 3
REMARK VINA RESULT:     -12.7      4.401      8.985
REMARK SMILES Cc1cc(S(F)(F)(F)(F)F)cc2c1O[C@H](C(F)(F)F)C(C(=O)NCCCNC(=O)c1ccc(-c3c4nc(c(-c5ccccc5)c5ccc([nH]5)c(-c5ccccc5)c5nc(c(-c6ccccc6)c6ccc3[nH]6)C=C5)C=C4)cc1)=C2
REMARK SMILES IDX 25 1 24 2 23 3 21 4 22 5 20 7 1 8 2 9 3 10 13 11 4 12 12 13
REMARK SMILES IDX 14 14 11 15 78 16 15 17 5 18 6 19 7 20 8 21 9 22 10 23 16 24
REMARK SMILES IDX 17 25 18 26 19 27 26 28 27 29 28 30 29 32 30 33 31 34 77 35
REMARK SMILES IDX 32 36 76 37 33 38 34 39 35 40 70 41 36 42 75 43 69 44 71 45
REMARK SMILES IDX 37 46 74 47 68 48 67 49 38 51 60 52 45 53 59 54 46 55 49 56
REMARK SMILES IDX 58 57 72 58 47 59 48 60 57 62 73 63 50 64 39 65 40 66 44 67
REMARK SMILES IDX 41 68 43 69 42 70 61 71 62 72 66 73 63 74 65 75 64 76 51 77
REMARK SMILES IDX 52 78 56 79 53 80 55 81 54 82
REMARK H PARENT 23 6 27 31 71 50 49 61
REMARK Flexibility Score: inf
ROOT
ATOM      1  C   UNL A   1      31.438  31.307  26.686  1.00  0.00     0.042 C 
ENDROOT
BRANCH   1   2
ATOM      2  C   UNL A   1      31.885  29.977  26.101  1.00  0.00     0.118 C 
BRANCH   2   3
ATOM      3  N   UNL A   1      32.015  30.103  24.642  1.00  0.00    -0.352 N 
ATOM      4  C   UNL A   1      32.256  28.908  23.821  1.00  0.00     0.251 C 
ATOM      5  O   UNL A   1      32.369  29.016  22.559  1.00  0.00    -0.270 OA
ATOM      6  H   UNL A   1      31.941  30.987  24.216  1.00  0.00     0.163 HD
BRANCH   4   7
ATOM      7  C   UNL A   1      32.371  27.543  24.480  1.00  0.00     0.067 C 
ATOM      8  C   UNL A   1      31.410  23.229  26.990  1.00  0.00     0.048 C 
ATOM      9  C   UNL A   1      32.647  23.788  26.308  1.00  0.00    -0.007 A 
ATOM     10  C   UNL A   1      33.834  23.094  26.213  1.00  0.00     0.031 A 
ATOM     11  C   UNL A   1      32.537  25.041  25.704  1.00  0.00     0.130 A 
ATOM     12  C   UNL A   1      34.917  23.631  25.528  1.00  0.00     0.108 A 
ATOM     13  C   UNL A   1      33.638  25.580  25.004  1.00  0.00     0.019 A 
ATOM     14  O   UNL A   1      31.300  25.829  25.770  1.00  0.00    -0.475 OA
ATOM     15  C   UNL A   1      34.828  24.854  24.924  1.00  0.00     0.036 A 
ATOM     16  C   UNL A   1      33.495  26.897  24.382  1.00  0.00     0.025 C 
ATOM     17  C   UNL A   1      31.267  27.035  25.162  1.00  0.00     0.314 C 
BRANCH  12  18
ATOM     18  S   UNL A   1      36.466  22.699  25.434  1.00  0.00     0.310 S 
ATOM     19  F   UNL A   1      37.119  23.747  24.440  1.00  0.00    -0.094 F 
ATOM     20  F   UNL A   1      35.904  21.951  24.167  1.00  0.00    -0.094 F 
ATOM     21  F   UNL A   1      37.792  21.892  25.358  1.00  0.00    -0.094 F 
ATOM     22  F   UNL A   1      37.065  23.558  26.616  1.00  0.00    -0.094 F 
ATOM     23  F   UNL A   1      35.170  23.605  25.453  1.00  0.00    -0.094 F 
ENDBRANCH  12  18
BRANCH  17  24
ATOM     24  C   UNL A   1      30.270  26.802  24.039  1.00  0.00     0.429 C 
ATOM     25  F   UNL A   1      30.904  26.315  22.976  1.00  0.00    -0.167 F 
ATOM     26  F   UNL A   1      29.346  25.932  24.441  1.00  0.00    -0.167 F 
ATOM     27  F   UNL A   1      29.685  27.953  23.718  1.00  0.00    -0.167 F 
ENDBRANCH  17  24
ENDBRANCH   4   7
ENDBRANCH   2   3
ENDBRANCH   1   2
BRANCH   1  28
ATOM     28  C   UNL A   1      32.658  32.164  26.985  1.00  0.00     0.118 C 
BRANCH  28  29
ATOM     29  N   UNL A   1      32.225  33.514  27.371  1.00  0.00    -0.352 N 
ATOM     30  C   UNL A   1      33.049  34.317  28.288  1.00  0.00     0.251 C 
ATOM     31  H   UNL A   1      31.384  33.882  27.016  1.00  0.00     0.163 HD
ATOM     32  O   UNL A   1      32.674  35.485  28.620  1.00  0.00    -0.269 OA
BRANCH  30  33
ATOM     33  C   UNL A   1      34.348  33.750  28.836  1.00  0.00     0.039 A 
ATOM     34  C   UNL A   1      34.390  33.143  30.086  1.00  0.00     0.014 A 
ATOM     35  C   UNL A   1      35.460  33.816  28.136  1.00  0.00     0.014 A 
ATOM     36  C   UNL A   1      35.435  32.220  30.306  1.00  0.00     0.010 A 
ATOM     37  C   UNL A   1      36.656  33.296  28.642  1.00  0.00     0.010 A 
ATOM     38  C   UNL A   1      36.656  32.514  29.701  1.00  0.00    -0.014 A 
BRANCH  38  39
ATOM     39  C   UNL A   1      37.955  31.947  30.251  1.00  0.00     0.031 A 
ATOM     40  C   UNL A   1      38.577  32.627  31.298  1.00  0.00     0.074 A 
ATOM     41  C   UNL A   1      38.446  30.782  29.685  1.00  0.00     0.049 A 
ATOM     42  N   UNL A   1      39.691  32.282  31.945  1.00  0.00    -0.248 NA
ATOM     43  C   UNL A   1      38.076  33.882  31.878  1.00  0.00     0.031 C 
ATOM     44  C   UNL A   1      37.820  30.085  28.632  1.00  0.00     0.029 A 
ATOM     45  N   UNL A   1      39.594  30.099  30.017  1.00  0.00    -0.354 N 
ATOM     46  C   UNL A   1      39.964  33.172  32.901  1.00  0.00     0.074 A 
ATOM     47  C   UNL A   1      38.933  34.217  32.868  1.00  0.00     0.031 C 
ATOM     48  C   UNL A   1      38.586  29.005  28.328  1.00  0.00     0.029 A 
ATOM     49  C   UNL A   1      39.703  29.007  29.185  1.00  0.00     0.049 A 
ATOM     50  H   UNL A   1      40.229  30.349  30.728  1.00  0.00     0.167 HD
ATOM     51  C   UNL A   1      41.031  33.152  33.800  1.00  0.00     0.031 A 
ATOM     52  C   UNL A   1      40.711  28.057  29.158  1.00  0.00     0.031 A 
ATOM     53  C   UNL A   1      42.017  32.178  33.801  1.00  0.00     0.049 A 
ATOM     54  C   UNL A   1      41.811  28.069  30.019  1.00  0.00     0.074 A 
ATOM     55  C   UNL A   1      43.096  32.139  34.705  1.00  0.00     0.029 A 
ATOM     56  N   UNL A   1      42.139  31.100  32.953  1.00  0.00    -0.354 N 
ATOM     57  N   UNL A   1      42.063  28.938  31.000  1.00  0.00    -0.248 NA
ATOM     58  C   UNL A   1      42.903  27.088  29.978  1.00  0.00     0.031 C 
ATOM     59  C   UNL A   1      43.863  31.058  34.401  1.00  0.00     0.029 A 
ATOM     60  C   UNL A   1      43.275  30.404  33.300  1.00  0.00     0.049 A 
ATOM     61  H   UNL A   1      41.520  30.867  32.223  1.00  0.00     0.167 HD
ATOM     62  C   UNL A   1      43.200  28.615  31.619  1.00  0.00     0.074 A 
ATOM     63  C   UNL A   1      43.761  27.424  30.966  1.00  0.00     0.031 C 
ATOM     64  C   UNL A   1      43.791  29.263  32.705  1.00  0.00     0.031 A 
BRANCH  51  65
ATOM     65  C   UNL A   1      41.118  34.261  34.836  1.00  0.00    -0.014 A 
ATOM     66  C   UNL A   1      41.802  35.445  34.585  1.00  0.00     0.009 A 
ATOM     67  C   UNL A   1      40.527  34.115  36.003  1.00  0.00     0.009 A 
ATOM     68  C   UNL A   1      41.409  36.573  35.341  1.00  0.00     0.001 A 
ATOM     69  C   UNL A   1      40.592  35.125  36.969  1.00  0.00     0.001 A 
ATOM     70  C   UNL A   1      41.020  36.329  36.657  1.00  0.00     0.000 A 
ENDBRANCH  51  65
BRANCH  52  71
ATOM     71  C   UNL A   1      40.616  26.939  28.132  1.00  0.00    -0.014 A 
ATOM     72  C   UNL A   1      40.039  25.712  28.437  1.00  0.00     0.009 A 
ATOM     73  C   UNL A   1      41.098  27.120  26.921  1.00  0.00     0.009 A 
ATOM     74  C   UNL A   1      39.555  24.953  27.348  1.00  0.00     0.001 A 
ATOM     75  C   UNL A   1      41.038  26.097  25.968  1.00  0.00     0.001 A 
ATOM     76  C   UNL A   1      40.285  25.035  26.165  1.00  0.00     0.000 A 
ENDBRANCH  52  71
BRANCH  64  77
ATOM     77  C   UNL A   1      45.077  28.682  33.270  1.00  0.00    -0.014 A 
ATOM     78  C   UNL A   1      46.317  29.108  32.805  1.00  0.00     0.009 A 
ATOM     79  C   UNL A   1      45.045  27.769  34.217  1.00  0.00     0.009 A 
ATOM     80  C   UNL A   1      47.412  28.939  33.682  1.00  0.00     0.001 A 
ATOM     81  C   UNL A   1      46.229  27.234  34.737  1.00  0.00     0.001 A 
ATOM     82  C   UNL A   1      47.390  27.798  34.483  1.00  0.00     0.000 A 
ENDBRANCH  64  77
ENDBRANCH  38  39
ENDBRANCH  30  33
ENDBRANCH  28  29
ENDBRANCH   1  28
TORSDOF 12
ENDMDL
