MODEL 1
REMARK VINA RESULT:     -12.2      0.000      0.000
REMARK SMILES O=C(NCCCNC(=O)c1cccc2c1cc(Br)c1ccccc12)c1ccc(-c2c3nc(c(-c4ccccc4)c4ccc([nH]4)c(-c4ccccc4)c4nc(c(-c5ccccc5)c5ccc2[nH]5)C=C4)C=C3)cc1
REMARK SMILES IDX 4 1 3 2 1 3 2 4 25 6 26 7 72 8 27 9 71 10 28 11 29 12 30 13
REMARK SMILES IDX 65 14 31 15 70 16 64 17 66 18 32 19 69 20 63 21 62 22 33 24
REMARK SMILES IDX 55 25 40 26 54 27 41 28 44 29 53 30 67 31 42 32 43 33 52 35
REMARK SMILES IDX 68 36 45 37 34 38 35 39 39 40 36 41 38 42 37 43 56 44 57 45
REMARK SMILES IDX 61 46 58 47 60 48 59 49 46 50 47 51 51 52 48 53 50 54 49 55
REMARK SMILES IDX 5 56 6 57 7 58 8 59 9 61 10 62 11 63 15 64 12 65 14 66 16 67
REMARK SMILES IDX 13 68 24 69 17 70 19 71 23 72 18 73 20 74 22 75 21 76
REMARK H PARENT 3 5 66 23 44 34 7 60
REMARK Flexibility Score: inf
ROOT
ATOM      1  C   UNL A   1      33.290  28.437  27.336  1.00  0.00     0.118 C 
ENDROOT
BRANCH   1   2
ATOM      2  N   UNL A   1      33.336  29.887  27.453  1.00  0.00    -0.352 N 
ATOM      3  O   UNL A   1      34.060  31.919  28.065  1.00  0.00    -0.269 OA
ATOM      4  C   UNL A   1      34.317  30.725  27.917  1.00  0.00     0.251 C 
ATOM      5  H   UNL A   1      32.522  30.346  27.144  1.00  0.00     0.163 HD
BRANCH   4   6
ATOM      6  C   UNL A   1      35.669  30.226  28.259  1.00  0.00     0.039 A 
ATOM      7  C   UNL A   1      35.889  29.738  29.553  1.00  0.00     0.014 A 
ATOM      8  C   UNL A   1      36.734  30.288  27.358  1.00  0.00     0.014 A 
ATOM      9  C   UNL A   1      37.157  29.280  29.921  1.00  0.00     0.010 A 
ATOM     10  C   UNL A   1      37.972  29.744  27.695  1.00  0.00     0.010 A 
ATOM     11  C   UNL A   1      38.204  29.257  28.987  1.00  0.00    -0.014 A 
BRANCH  11  12
ATOM     12  C   UNL A   1      39.553  28.768  29.368  1.00  0.00     0.031 A 
ATOM     13  C   UNL A   1      40.425  29.579  30.290  1.00  0.00     0.074 A 
ATOM     14  C   UNL A   1      40.008  27.602  28.871  1.00  0.00     0.049 A 
ATOM     15  N   UNL A   1      41.623  29.306  30.744  1.00  0.00    -0.248 NA
ATOM     16  C   UNL A   1      39.893  30.873  30.746  1.00  0.00     0.031 C 
ATOM     17  C   UNL A   1      39.281  26.741  27.938  1.00  0.00     0.029 A 
ATOM     18  N   UNL A   1      41.186  26.934  29.094  1.00  0.00    -0.354 N 
ATOM     19  C   UNL A   1      41.986  30.395  31.526  1.00  0.00     0.074 A 
ATOM     20  C   UNL A   1      40.913  31.359  31.436  1.00  0.00     0.031 C 
ATOM     21  C   UNL A   1      40.005  25.635  27.708  1.00  0.00     0.029 A 
ATOM     22  C   UNL A   1      41.261  25.724  28.449  1.00  0.00     0.049 A 
ATOM     23  H   UNL A   1      41.908  27.289  29.662  1.00  0.00     0.167 HD
ATOM     24  C   UNL A   1      43.099  30.567  32.277  1.00  0.00     0.031 A 
ATOM     25  C   UNL A   1      42.224  24.783  28.460  1.00  0.00     0.031 A 
ATOM     26  C   UNL A   1      44.160  29.603  32.382  1.00  0.00     0.049 A 
ATOM     27  C   UNL A   1      43.455  24.993  29.295  1.00  0.00     0.074 A 
ATOM     28  C   UNL A   1      45.304  29.665  33.159  1.00  0.00     0.029 A 
ATOM     29  N   UNL A   1      44.208  28.402  31.692  1.00  0.00    -0.354 N 
ATOM     30  N   UNL A   1      43.760  26.006  30.069  1.00  0.00    -0.248 NA
ATOM     31  C   UNL A   1      44.468  23.930  29.266  1.00  0.00     0.031 C 
ATOM     32  C   UNL A   1      46.069  28.524  32.900  1.00  0.00     0.029 A 
ATOM     33  C   UNL A   1      45.374  27.725  32.005  1.00  0.00     0.049 A 
ATOM     34  H   UNL A   1      43.516  28.079  31.071  1.00  0.00     0.167 HD
ATOM     35  C   UNL A   1      44.996  25.702  30.624  1.00  0.00     0.074 A 
ATOM     36  C   UNL A   1      45.372  24.398  30.117  1.00  0.00     0.031 C 
ATOM     37  C   UNL A   1      45.750  26.439  31.475  1.00  0.00     0.031 A 
BRANCH  24  38
ATOM     38  C   UNL A   1      43.217  31.847  33.057  1.00  0.00    -0.014 A 
ATOM     39  C   UNL A   1      43.852  32.961  32.488  1.00  0.00     0.009 A 
ATOM     40  C   UNL A   1      42.741  31.938  34.375  1.00  0.00     0.009 A 
ATOM     41  C   UNL A   1      44.004  34.141  33.219  1.00  0.00     0.001 A 
ATOM     42  C   UNL A   1      42.867  33.128  35.094  1.00  0.00     0.001 A 
ATOM     43  C   UNL A   1      43.503  34.226  34.517  1.00  0.00     0.000 A 
ENDBRANCH  24  38
BRANCH  25  44
ATOM     44  C   UNL A   1      42.022  23.532  27.686  1.00  0.00    -0.014 A 
ATOM     45  C   UNL A   1      41.390  22.421  28.269  1.00  0.00     0.009 A 
ATOM     46  C   UNL A   1      42.523  23.419  26.381  1.00  0.00     0.009 A 
ATOM     47  C   UNL A   1      41.286  21.218  27.569  1.00  0.00     0.001 A 
ATOM     48  C   UNL A   1      42.397  22.221  25.674  1.00  0.00     0.001 A 
ATOM     49  C   UNL A   1      41.789  21.119  26.273  1.00  0.00     0.000 A 
ENDBRANCH  25  44
BRANCH  37  50
ATOM     50  C   UNL A   1      47.070  25.869  31.908  1.00  0.00    -0.014 A 
ATOM     51  C   UNL A   1      47.180  25.215  33.145  1.00  0.00     0.009 A 
ATOM     52  C   UNL A   1      48.225  26.059  31.133  1.00  0.00     0.009 A 
ATOM     53  C   UNL A   1      48.422  24.771  33.603  1.00  0.00     0.001 A 
ATOM     54  C   UNL A   1      49.461  25.589  31.582  1.00  0.00     0.001 A 
ATOM     55  C   UNL A   1      49.560  24.954  32.819  1.00  0.00     0.000 A 
ENDBRANCH  37  50
ENDBRANCH  11  12
ENDBRANCH   4   6
ENDBRANCH   1   2
BRANCH   1  56
ATOM     56  C   UNL A   1      33.785  27.930  25.988  1.00  0.00     0.042 C 
BRANCH  56  57
ATOM     57  C   UNL A   1      32.763  28.005  24.862  1.00  0.00     0.118 C 
BRANCH  57  58
ATOM     58  N   UNL A   1      33.358  27.832  23.545  1.00  0.00    -0.352 N 
ATOM     59  C   UNL A   1      33.314  26.761  22.688  1.00  0.00     0.251 C 
ATOM     60  H   UNL A   1      33.872  28.606  23.218  1.00  0.00     0.163 HD
ATOM     61  O   UNL A   1      33.940  26.810  21.631  1.00  0.00    -0.269 OA
BRANCH  59  62
ATOM     62  C   UNL A   1      32.503  25.565  23.029  1.00  0.00     0.047 A 
ATOM     63  C   UNL A   1      31.121  25.670  22.832  1.00  0.00     0.014 A 
ATOM     64  C   UNL A   1      33.099  24.353  23.480  1.00  0.00    -0.004 A 
ATOM     65  C   UNL A   1      30.299  24.616  23.182  1.00  0.00     0.002 A 
ATOM     66  C   UNL A   1      32.265  23.252  23.815  1.00  0.00    -0.010 A 
ATOM     67  C   UNL A   1      34.491  24.189  23.604  1.00  0.00     0.026 A 
ATOM     68  C   UNL A   1      30.864  23.440  23.675  1.00  0.00     0.009 A 
ATOM     69  C   UNL A   1      32.849  22.004  24.258  1.00  0.00    -0.009 A 
ATOM     70  C   UNL A   1      35.061  22.978  24.005  1.00  0.00     0.026 A 
ATOM     71  C   UNL A   1      34.262  21.865  24.333  1.00  0.00    -0.004 A 
ATOM     72  C   UNL A   1      32.072  20.872  24.621  1.00  0.00     0.009 A 
ATOM     73  Br  UNL A   1      36.970  22.939  24.068  1.00  0.00    -0.050 Br
ATOM     74  C   UNL A   1      34.809  20.615  24.728  1.00  0.00     0.010 A 
ATOM     75  C   UNL A   1      32.636  19.656  25.014  1.00  0.00     0.001 A 
ATOM     76  C   UNL A   1      34.009  19.526  25.060  1.00  0.00     0.001 A 
ENDBRANCH  59  62
ENDBRANCH  57  58
ENDBRANCH  56  57
ENDBRANCH   1  56
TORSDOF 10
ENDMDL
MODEL 2
REMARK VINA RESULT:     -12.1      0.916      6.119
REMARK SMILES O=C(NCCCNC(=O)c1cccc2c1cc(Br)c1ccccc12)c1ccc(-c2c3nc(c(-c4ccccc4)c4ccc([nH]4)c(-c4ccccc4)c4nc(c(-c5ccccc5)c5ccc2[nH]5)C=C4)C=C3)cc1
REMARK SMILES IDX 4 1 3 2 1 3 2 4 25 6 26 7 72 8 27 9 71 10 28 11 29 12 30 13
REMARK SMILES IDX 65 14 31 15 70 16 64 17 66 18 32 19 69 20 63 21 62 22 33 24
REMARK SMILES IDX 55 25 40 26 54 27 41 28 44 29 53 30 67 31 42 32 43 33 52 35
REMARK SMILES IDX 68 36 45 37 34 38 35 39 39 40 36 41 38 42 37 43 56 44 57 45
REMARK SMILES IDX 61 46 58 47 60 48 59 49 46 50 47 51 51 52 48 53 50 54 49 55
REMARK SMILES IDX 5 56 6 57 7 58 8 59 9 61 10 62 11 63 15 64 12 65 14 66 16 67
REMARK SMILES IDX 13 68 24 69 17 70 19 71 23 72 18 73 20 74 22 75 21 76
REMARK H PARENT 3 5 66 23 44 34 7 60
REMARK Flexibility Score: inf
ROOT
ATOM      1  C   UNL A   1      33.557  28.261  27.386  1.00  0.00     0.118 C 
ENDROOT
BRANCH   1   2
ATOM      2  N   UNL A   1      33.519  29.703  27.580  1.00  0.00    -0.352 N 
ATOM      3  O   UNL A   1      34.126  31.738  28.296  1.00  0.00    -0.269 OA
ATOM      4  C   UNL A   1      34.453  30.572  28.083  1.00  0.00     0.251 C 
ATOM      5  H   UNL A   1      32.676  30.128  27.301  1.00  0.00     0.163 HD
BRANCH   4   6
ATOM      6  C   UNL A   1      35.835  30.136  28.390  1.00  0.00     0.039 A 
ATOM      7  C   UNL A   1      36.785  30.169  27.363  1.00  0.00     0.014 A 
ATOM      8  C   UNL A   1      36.196  29.639  29.645  1.00  0.00     0.014 A 
ATOM      9  C   UNL A   1      38.093  29.744  27.607  1.00  0.00     0.010 A 
ATOM     10  C   UNL A   1      37.522  29.305  29.912  1.00  0.00     0.010 A 
ATOM     11  C   UNL A   1      38.479  29.330  28.891  1.00  0.00    -0.014 A 
BRANCH  11  12
ATOM     12  C   UNL A   1      39.868  28.881  29.161  1.00  0.00     0.031 A 
ATOM     13  C   UNL A   1      40.312  27.497  28.765  1.00  0.00     0.074 A 
ATOM     14  C   UNL A   1      40.732  29.709  29.780  1.00  0.00     0.049 A 
ATOM     15  N   UNL A   1      41.487  26.936  28.906  1.00  0.00    -0.248 NA
ATOM     16  C   UNL A   1      39.301  26.623  28.149  1.00  0.00     0.031 C 
ATOM     17  C   UNL A   1      40.418  31.058  30.250  1.00  0.00     0.029 A 
ATOM     18  N   UNL A   1      42.054  29.540  30.106  1.00  0.00    -0.354 N 
ATOM     19  C   UNL A   1      41.350  25.647  28.408  1.00  0.00     0.074 A 
ATOM     20  C   UNL A   1      39.967  25.485  28.020  1.00  0.00     0.031 C 
ATOM     21  C   UNL A   1      41.529  31.614  30.758  1.00  0.00     0.029 A 
ATOM     22  C   UNL A   1      42.624  30.649  30.681  1.00  0.00     0.049 A 
ATOM     23  H   UNL A   1      42.547  28.703  29.943  1.00  0.00     0.167 HD
ATOM     24  C   UNL A   1      42.296  24.691  28.258  1.00  0.00     0.031 A 
ATOM     25  C   UNL A   1      43.887  30.875  31.089  1.00  0.00     0.031 A 
ATOM     26  C   UNL A   1      43.676  24.853  28.627  1.00  0.00     0.049 A 
ATOM     27  C   UNL A   1      44.922  29.800  30.919  1.00  0.00     0.074 A 
ATOM     28  C   UNL A   1      44.720  23.959  28.465  1.00  0.00     0.029 A 
ATOM     29  N   UNL A   1      44.205  25.983  29.230  1.00  0.00    -0.354 N 
ATOM     30  N   UNL A   1      44.788  28.604  30.400  1.00  0.00    -0.248 NA
ATOM     31  C   UNL A   1      46.282  30.107  31.383  1.00  0.00     0.031 C 
ATOM     32  C   UNL A   1      45.871  24.529  29.017  1.00  0.00     0.029 A 
ATOM     33  C   UNL A   1      45.556  25.801  29.470  1.00  0.00     0.049 A 
ATOM     34  H   UNL A   1      43.695  26.795  29.454  1.00  0.00     0.167 HD
ATOM     35  C   UNL A   1      46.045  28.017  30.468  1.00  0.00     0.074 A 
ATOM     36  C   UNL A   1      46.934  28.998  31.056  1.00  0.00     0.031 C 
ATOM     37  C   UNL A   1      46.424  26.775  30.079  1.00  0.00     0.031 A 
BRANCH  24  38
ATOM     38  C   UNL A   1      41.868  23.381  27.654  1.00  0.00    -0.014 A 
ATOM     39  C   UNL A   1      41.508  22.309  28.484  1.00  0.00     0.009 A 
ATOM     40  C   UNL A   1      41.866  23.193  26.263  1.00  0.00     0.009 A 
ATOM     41  C   UNL A   1      41.148  21.076  27.934  1.00  0.00     0.001 A 
ATOM     42  C   UNL A   1      41.477  21.969  25.714  1.00  0.00     0.001 A 
ATOM     43  C   UNL A   1      41.125  20.911  26.550  1.00  0.00     0.000 A 
ENDBRANCH  24  38
BRANCH  25  44
ATOM     44  C   UNL A   1      44.240  32.204  31.650  1.00  0.00    -0.014 A 
ATOM     45  C   UNL A   1      44.130  32.454  33.027  1.00  0.00     0.009 A 
ATOM     46  C   UNL A   1      44.624  33.250  30.798  1.00  0.00     0.009 A 
ATOM     47  C   UNL A   1      44.374  33.731  33.536  1.00  0.00     0.001 A 
ATOM     48  C   UNL A   1      44.890  34.521  31.313  1.00  0.00     0.001 A 
ATOM     49  C   UNL A   1      44.754  34.762  32.680  1.00  0.00     0.000 A 
ENDBRANCH  25  44
BRANCH  37  50
ATOM     50  C   UNL A   1      47.861  26.390  30.287  1.00  0.00    -0.014 A 
ATOM     51  C   UNL A   1      48.780  26.510  29.232  1.00  0.00     0.009 A 
ATOM     52  C   UNL A   1      48.286  25.823  31.498  1.00  0.00     0.009 A 
ATOM     53  C   UNL A   1      50.093  26.060  29.383  1.00  0.00     0.001 A 
ATOM     54  C   UNL A   1      49.608  25.399  31.654  1.00  0.00     0.001 A 
ATOM     55  C   UNL A   1      50.507  25.510  30.595  1.00  0.00     0.000 A 
ENDBRANCH  37  50
ENDBRANCH  11  12
ENDBRANCH   4   6
ENDBRANCH   1   2
BRANCH   1  56
ATOM     56  C   UNL A   1      33.997  27.858  25.985  1.00  0.00     0.042 C 
BRANCH  56  57
ATOM     57  C   UNL A   1      32.929  28.009  24.911  1.00  0.00     0.118 C 
BRANCH  57  58
ATOM     58  N   UNL A   1      33.455  27.852  23.563  1.00  0.00    -0.352 N 
ATOM     59  C   UNL A   1      33.345  26.800  22.688  1.00  0.00     0.251 C 
ATOM     60  H   UNL A   1      33.969  28.621  23.227  1.00  0.00     0.163 HD
ATOM     61  O   UNL A   1      33.920  26.858  21.602  1.00  0.00    -0.269 OA
BRANCH  59  62
ATOM     62  C   UNL A   1      32.525  25.615  23.044  1.00  0.00     0.047 A 
ATOM     63  C   UNL A   1      31.142  25.735  22.868  1.00  0.00     0.014 A 
ATOM     64  C   UNL A   1      33.114  24.396  23.488  1.00  0.00    -0.004 A 
ATOM     65  C   UNL A   1      30.313  24.693  23.233  1.00  0.00     0.002 A 
ATOM     66  C   UNL A   1      32.272  23.306  23.839  1.00  0.00    -0.010 A 
ATOM     67  C   UNL A   1      34.505  24.216  23.592  1.00  0.00     0.026 A 
ATOM     68  C   UNL A   1      30.871  23.511  23.720  1.00  0.00     0.009 A 
ATOM     69  C   UNL A   1      32.848  22.053  24.276  1.00  0.00    -0.009 A 
ATOM     70  C   UNL A   1      35.067  22.999  23.987  1.00  0.00     0.026 A 
ATOM     71  C   UNL A   1      34.260  21.897  24.329  1.00  0.00    -0.004 A 
ATOM     72  C   UNL A   1      32.063  20.930  24.653  1.00  0.00     0.009 A 
ATOM     73  Br  UNL A   1      36.976  22.938  24.021  1.00  0.00    -0.050 Br
ATOM     74  C   UNL A   1      34.798  20.641  24.719  1.00  0.00     0.010 A 
ATOM     75  C   UNL A   1      32.619  19.709  25.040  1.00  0.00     0.001 A 
ATOM     76  C   UNL A   1      33.991  19.562  25.066  1.00  0.00     0.001 A 
ENDBRANCH  59  62
ENDBRANCH  57  58
ENDBRANCH  56  57
ENDBRANCH   1  56
TORSDOF 10
ENDMDL
MODEL 3
REMARK VINA RESULT:     -11.9      2.952      7.482
REMARK SMILES O=C(NCCCNC(=O)c1cccc2c1cc(Br)c1ccccc12)c1ccc(-c2c3nc(c(-c4ccccc4)c4ccc([nH]4)c(-c4ccccc4)c4nc(c(-c5ccccc5)c5ccc2[nH]5)C=C4)C=C3)cc1
REMARK SMILES IDX 4 1 3 2 1 3 2 4 25 6 26 7 72 8 27 9 71 10 28 11 29 12 30 13
REMARK SMILES IDX 65 14 31 15 70 16 64 17 66 18 32 19 69 20 63 21 62 22 33 24
REMARK SMILES IDX 55 25 40 26 54 27 41 28 44 29 53 30 67 31 42 32 43 33 52 35
REMARK SMILES IDX 68 36 45 37 34 38 35 39 39 40 36 41 38 42 37 43 56 44 57 45
REMARK SMILES IDX 61 46 58 47 60 48 59 49 46 50 47 51 51 52 48 53 50 54 49 55
REMARK SMILES IDX 5 56 6 57 7 58 8 59 9 61 10 62 11 63 15 64 12 65 14 66 16 67
REMARK SMILES IDX 13 68 24 69 17 70 19 71 23 72 18 73 20 74 22 75 21 76
REMARK H PARENT 3 5 66 23 44 34 7 60
REMARK Flexibility Score: inf
ROOT
ATOM      1  C   UNL A   1      36.939  23.775  24.984  1.00  0.00     0.118 C 
ENDROOT
BRANCH   1   2
ATOM      2  N   UNL A   1      37.912  22.778  25.406  1.00  0.00    -0.352 N 
ATOM      3  O   UNL A   1      39.812  21.920  26.231  1.00  0.00    -0.269 OA
ATOM      4  C   UNL A   1      39.067  22.894  26.135  1.00  0.00     0.251 C 
ATOM      5  H   UNL A   1      37.703  21.860  25.119  1.00  0.00     0.163 HD
BRANCH   4   6
ATOM      6  C   UNL A   1      39.446  24.166  26.794  1.00  0.00     0.039 A 
ATOM      7  C   UNL A   1      40.183  25.101  26.058  1.00  0.00     0.014 A 
ATOM      8  C   UNL A   1      39.147  24.427  28.133  1.00  0.00     0.014 A 
ATOM      9  C   UNL A   1      40.580  26.302  26.650  1.00  0.00     0.010 A 
ATOM     10  C   UNL A   1      39.461  25.663  28.694  1.00  0.00     0.010 A 
ATOM     11  C   UNL A   1      40.202  26.604  27.968  1.00  0.00    -0.014 A 
BRANCH  11  12
ATOM     12  C   UNL A   1      40.615  27.880  28.606  1.00  0.00     0.031 A 
ATOM     13  C   UNL A   1      39.623  28.999  28.782  1.00  0.00     0.074 A 
ATOM     14  C   UNL A   1      41.888  28.043  29.013  1.00  0.00     0.049 A 
ATOM     15  N   UNL A   1      39.798  30.176  29.329  1.00  0.00    -0.248 NA
ATOM     16  C   UNL A   1      38.266  28.778  28.259  1.00  0.00     0.031 C 
ATOM     17  C   UNL A   1      42.956  27.054  28.866  1.00  0.00     0.029 A 
ATOM     18  N   UNL A   1      42.496  29.099  29.647  1.00  0.00    -0.354 N 
ATOM     19  C   UNL A   1      38.581  30.833  29.205  1.00  0.00     0.074 A 
ATOM     20  C   UNL A   1      37.695  29.952  28.477  1.00  0.00     0.031 C 
ATOM     21  C   UNL A   1      44.074  27.527  29.439  1.00  0.00     0.029 A 
ATOM     22  C   UNL A   1      43.811  28.865  29.963  1.00  0.00     0.049 A 
ATOM     23  H   UNL A   1      42.032  29.942  29.855  1.00  0.00     0.167 HD
ATOM     24  C   UNL A   1      38.219  32.048  29.680  1.00  0.00     0.031 A 
ATOM     25  C   UNL A   1      44.706  29.632  30.614  1.00  0.00     0.031 A 
ATOM     26  C   UNL A   1      39.092  32.920  30.418  1.00  0.00     0.049 A 
ATOM     27  C   UNL A   1      44.289  30.980  31.129  1.00  0.00     0.074 A 
ATOM     28  C   UNL A   1      38.801  34.148  30.985  1.00  0.00     0.029 A 
ATOM     29  N   UNL A   1      40.424  32.655  30.694  1.00  0.00    -0.354 N 
ATOM     30  N   UNL A   1      43.119  31.565  31.047  1.00  0.00    -0.248 NA
ATOM     31  C   UNL A   1      45.310  31.769  31.831  1.00  0.00     0.031 C 
ATOM     32  C   UNL A   1      39.972  34.651  31.560  1.00  0.00     0.029 A 
ATOM     33  C   UNL A   1      40.977  33.709  31.401  1.00  0.00     0.049 A 
ATOM     34  H   UNL A   1      40.906  31.840  30.426  1.00  0.00     0.167 HD
ATOM     35  C   UNL A   1      43.259  32.787  31.692  1.00  0.00     0.074 A 
ATOM     36  C   UNL A   1      44.622  32.848  32.181  1.00  0.00     0.031 C 
ATOM     37  C   UNL A   1      42.341  33.769  31.860  1.00  0.00     0.031 A 
BRANCH  24  38
ATOM     38  C   UNL A   1      36.808  32.501  29.422  1.00  0.00    -0.014 A 
ATOM     39  C   UNL A   1      36.494  33.182  28.237  1.00  0.00     0.009 A 
ATOM     40  C   UNL A   1      35.797  32.295  30.375  1.00  0.00     0.009 A 
ATOM     41  C   UNL A   1      35.195  33.643  28.008  1.00  0.00     0.001 A 
ATOM     42  C   UNL A   1      34.493  32.729  30.130  1.00  0.00     0.001 A 
ATOM     43  C   UNL A   1      34.195  33.409  28.949  1.00  0.00     0.000 A 
ENDBRANCH  24  38
BRANCH  25  44
ATOM     44  C   UNL A   1      46.073  29.104  30.855  1.00  0.00    -0.014 A 
ATOM     45  C   UNL A   1      47.091  29.288  29.905  1.00  0.00     0.009 A 
ATOM     46  C   UNL A   1      46.348  28.353  32.007  1.00  0.00     0.009 A 
ATOM     47  C   UNL A   1      48.348  28.710  30.094  1.00  0.00     0.001 A 
ATOM     48  C   UNL A   1      47.613  27.796  32.205  1.00  0.00     0.001 A 
ATOM     49  C   UNL A   1      48.608  27.966  31.243  1.00  0.00     0.000 A 
ENDBRANCH  25  44
BRANCH  37  50
ATOM     50  C   UNL A   1      42.773  35.009  32.591  1.00  0.00    -0.014 A 
ATOM     51  C   UNL A   1      42.430  35.183  33.941  1.00  0.00     0.009 A 
ATOM     52  C   UNL A   1      43.440  36.044  31.919  1.00  0.00     0.009 A 
ATOM     53  C   UNL A   1      42.737  36.375  34.601  1.00  0.00     0.001 A 
ATOM     54  C   UNL A   1      43.771  37.224  32.590  1.00  0.00     0.001 A 
ATOM     55  C   UNL A   1      43.412  37.391  33.926  1.00  0.00     0.000 A 
ENDBRANCH  37  50
ENDBRANCH  11  12
ENDBRANCH   4   6
ENDBRANCH   1   2
BRANCH   1  56
ATOM     56  C   UNL A   1      35.691  23.800  25.856  1.00  0.00     0.042 C 
BRANCH  56  57
ATOM     57  C   UNL A   1      35.000  22.454  26.023  1.00  0.00     0.118 C 
BRANCH  57  58
ATOM     58  N   UNL A   1      33.925  22.486  27.003  1.00  0.00    -0.352 N 
ATOM     59  C   UNL A   1      32.636  22.945  26.887  1.00  0.00     0.251 C 
ATOM     60  H   UNL A   1      34.158  22.122  27.887  1.00  0.00     0.163 HD
ATOM     61  O   UNL A   1      31.898  22.924  27.870  1.00  0.00    -0.269 OA
BRANCH  59  62
ATOM     62  C   UNL A   1      32.135  23.442  25.581  1.00  0.00     0.047 A 
ATOM     63  C   UNL A   1      31.885  22.478  24.598  1.00  0.00     0.014 A 
ATOM     64  C   UNL A   1      31.868  24.823  25.351  1.00  0.00    -0.004 A 
ATOM     65  C   UNL A   1      31.472  22.874  23.341  1.00  0.00     0.002 A 
ATOM     66  C   UNL A   1      31.414  25.239  24.070  1.00  0.00    -0.010 A 
ATOM     67  C   UNL A   1      32.026  25.805  26.347  1.00  0.00     0.026 A 
ATOM     68  C   UNL A   1      31.257  24.228  23.084  1.00  0.00     0.009 A 
ATOM     69  C   UNL A   1      31.119  26.633  23.820  1.00  0.00    -0.009 A 
ATOM     70  C   UNL A   1      31.716  27.147  26.118  1.00  0.00     0.026 A 
ATOM     71  C   UNL A   1      31.254  27.589  24.863  1.00  0.00    -0.004 A 
ATOM     72  C   UNL A   1      30.676  27.115  22.559  1.00  0.00     0.009 A 
ATOM     73  Br  UNL A   1      31.954  28.320  27.608  1.00  0.00    -0.050 Br
ATOM     74  C   UNL A   1      30.914  28.943  24.601  1.00  0.00     0.010 A 
ATOM     75  C   UNL A   1      30.357  28.455  22.326  1.00  0.00     0.001 A 
ATOM     76  C   UNL A   1      30.469  29.370  23.353  1.00  0.00     0.001 A 
ENDBRANCH  59  62
ENDBRANCH  57  58
ENDBRANCH  56  57
ENDBRANCH   1  56
TORSDOF 10
ENDMDL
