MODEL 1
REMARK VINA RESULT:     -11.9      0.000      0.000
REMARK SMILES C[C@@H]1C[C@H](C)C[C@H]([N@@H+]2[C@@H](C(=O)NCCCNC(=O)c3ccc(-c4c5nc(c(-c6ccccc6)c6ccc([nH]6)c(-c6ccccc6)c6nc(c(-c7ccccc7)c7ccc4[nH]7)C=C6)C=C5)cc3)CC[C@@H]3CCCC[C@@H]32)C1
REMARK SMILES IDX 14 1 13 2 12 3 10 4 11 5 9 7 8 8 74 9 67 11 69 12 73 13
REMARK SMILES IDX 68 14 70 15 72 16 71 17 7 18 5 19 4 20 6 21 3 22 2 23 75 24
REMARK SMILES IDX 1 25 15 26 16 27 17 28 18 30 19 31 20 32 66 33 21 34 65 35
REMARK SMILES IDX 22 36 23 37 24 38 59 39 25 40 64 41 58 42 60 43 26 44 63 45
REMARK SMILES IDX 57 46 56 47 27 49 49 50 34 51 48 52 35 53 38 54 47 55 61 56
REMARK SMILES IDX 36 57 37 58 46 60 62 61 39 62 28 63 29 64 33 65 30 66 32 67
REMARK SMILES IDX 31 68 50 69 51 70 55 71 52 72 54 73 53 74 40 75 41 76 45 77
REMARK SMILES IDX 42 78 44 79 43 80
REMARK H PARENT 12 6 8 10 16 29 60 48 38 59
REMARK Flexibility Score: inf
ROOT
ATOM      1  C   UNL A   1      34.162  28.790  25.729  1.00  0.00     0.042 C 
ENDROOT
BRANCH   1   2
ATOM      2  C   UNL A   1      33.094  28.813  24.638  1.00  0.00     0.118 C 
BRANCH   2   3
ATOM      3  N   UNL A   1      33.593  28.257  23.396  1.00  0.00    -0.351 N 
ATOM      4  C   UNL A   1      33.525  26.968  22.940  1.00  0.00     0.278 C 
ATOM      5  O   UNL A   1      34.049  26.734  21.849  1.00  0.00    -0.268 OA
ATOM      6  H   UNL A   1      34.045  28.895  22.798  1.00  0.00     0.163 HD
BRANCH   4   7
ATOM      7  C   UNL A   1      32.758  25.894  23.766  1.00  0.00     0.274 C 
ATOM      8  N   UNL A   1      33.550  25.429  24.975  1.00  0.00    -0.320 N 
ATOM      9  C   UNL A   1      34.693  24.583  24.492  1.00  0.00     0.188 C 
ATOM     10  H   UNL A   1      34.159  26.036  25.523  1.00  0.00     0.349 HD
ATOM     11  C   UNL A   1      32.277  24.705  22.922  1.00  0.00     0.076 C 
ATOM     12  C   UNL A   1      34.440  23.464  23.451  1.00  0.00     0.048 C 
ATOM     13  C   UNL A   1      35.912  24.188  25.357  1.00  0.00     0.065 C 
ATOM     14  C   UNL A   1      33.392  23.814  22.402  1.00  0.00     0.016 C 
ATOM     15  C   UNL A   1      34.207  22.104  24.089  1.00  0.00     0.010 C 
ATOM     16  C   UNL A   1      36.302  22.706  25.503  1.00  0.00     0.006 C 
ATOM     17  C   UNL A   1      35.432  21.629  24.860  1.00  0.00     0.001 C 
BRANCH   8  18
ATOM     18  C   UNL A   1      32.632  25.262  26.152  1.00  0.00     0.185 C 
ATOM     19  C   UNL A   1      29.613  25.812  24.801  1.00  0.00     0.008 C 
ATOM     20  C   UNL A   1      30.034  25.570  26.225  1.00  0.00    -0.008 C 
ATOM     21  C   UNL A   1      31.429  26.140  26.496  1.00  0.00     0.068 C 
ATOM     22  C   UNL A   1      29.855  24.091  26.590  1.00  0.00     0.007 C 
ATOM     23  C   UNL A   1      31.027  23.162  26.267  1.00  0.00    -0.008 C 
ATOM     24  C   UNL A   1      32.358  23.809  26.627  1.00  0.00     0.068 C 
ATOM     25  C   UNL A   1      31.052  22.556  24.867  1.00  0.00     0.008 C 
ENDBRANCH   8  18
ENDBRANCH   4   7
ENDBRANCH   2   3
ENDBRANCH   1   2
BRANCH   1  26
ATOM     26  C   UNL A   1      33.588  28.921  27.130  1.00  0.00     0.118 C 
BRANCH  26  27
ATOM     27  N   UNL A   1      33.672  30.302  27.602  1.00  0.00    -0.352 N 
ATOM     28  C   UNL A   1      34.630  30.930  28.361  1.00  0.00     0.251 C 
ATOM     29  H   UNL A   1      32.919  30.876  27.332  1.00  0.00     0.163 HD
ATOM     30  O   UNL A   1      34.376  32.016  28.872  1.00  0.00    -0.269 OA
BRANCH  28  31
ATOM     31  C   UNL A   1      35.957  30.309  28.576  1.00  0.00     0.039 A 
ATOM     32  C   UNL A   1      36.895  30.338  27.538  1.00  0.00     0.014 A 
ATOM     33  C   UNL A   1      36.268  29.661  29.774  1.00  0.00     0.014 A 
ATOM     34  C   UNL A   1      38.164  29.785  27.730  1.00  0.00     0.010 A 
ATOM     35  C   UNL A   1      37.557  29.188  29.995  1.00  0.00     0.010 A 
ATOM     36  C   UNL A   1      38.519  29.246  28.976  1.00  0.00    -0.014 A 
BRANCH  36  37
ATOM     37  C   UNL A   1      39.893  28.753  29.251  1.00  0.00     0.031 A 
ATOM     38  C   UNL A   1      40.924  29.675  29.844  1.00  0.00     0.074 A 
ATOM     39  C   UNL A   1      40.235  27.504  28.878  1.00  0.00     0.049 A 
ATOM     40  N   UNL A   1      42.201  29.466  30.042  1.00  0.00    -0.248 NA
ATOM     41  C   UNL A   1      40.467  31.016  30.245  1.00  0.00     0.031 C 
ATOM     42  C   UNL A   1      39.338  26.525  28.260  1.00  0.00     0.029 A 
ATOM     43  N   UNL A   1      41.440  26.850  28.945  1.00  0.00    -0.354 N 
ATOM     44  C   UNL A   1      42.703  30.652  30.562  1.00  0.00     0.074 A 
ATOM     45  C   UNL A   1      41.603  31.590  30.621  1.00  0.00     0.031 C 
ATOM     46  C   UNL A   1      40.019  25.394  28.017  1.00  0.00     0.029 A 
ATOM     47  C   UNL A   1      41.409  25.582  28.414  1.00  0.00     0.049 A 
ATOM     48  H   UNL A   1      42.250  27.251  29.337  1.00  0.00     0.167 HD
ATOM     49  C   UNL A   1      43.965  30.932  30.966  1.00  0.00     0.031 A 
ATOM     50  C   UNL A   1      42.395  24.681  28.244  1.00  0.00     0.031 A 
ATOM     51  C   UNL A   1      45.053  29.992  30.928  1.00  0.00     0.049 A 
ATOM     52  C   UNL A   1      43.790  25.030  28.685  1.00  0.00     0.074 A 
ATOM     53  C   UNL A   1      46.349  30.159  31.384  1.00  0.00     0.029 A 
ATOM     54  N   UNL A   1      44.975  28.713  30.400  1.00  0.00    -0.354 N 
ATOM     55  N   UNL A   1      44.229  26.129  29.249  1.00  0.00    -0.248 NA
ATOM     56  C   UNL A   1      44.825  24.010  28.468  1.00  0.00     0.031 C 
ATOM     57  C   UNL A   1      47.072  29.002  31.077  1.00  0.00     0.029 A 
ATOM     58  C   UNL A   1      46.209  28.093  30.487  1.00  0.00     0.049 A 
ATOM     59  H   UNL A   1      44.163  28.307  30.019  1.00  0.00     0.167 HD
ATOM     60  C   UNL A   1      45.582  25.919  29.482  1.00  0.00     0.074 A 
ATOM     61  C   UNL A   1      45.886  24.582  29.018  1.00  0.00     0.031 C 
ATOM     62  C   UNL A   1      46.493  26.760  30.027  1.00  0.00     0.031 A 
BRANCH  49  63
ATOM     63  C   UNL A   1      44.251  32.314  31.482  1.00  0.00    -0.014 A 
ATOM     64  C   UNL A   1      44.157  32.617  32.849  1.00  0.00     0.009 A 
ATOM     65  C   UNL A   1      44.704  33.304  30.596  1.00  0.00     0.009 A 
ATOM     66  C   UNL A   1      44.493  33.889  33.315  1.00  0.00     0.001 A 
ATOM     67  C   UNL A   1      45.064  34.568  31.068  1.00  0.00     0.001 A 
ATOM     68  C   UNL A   1      44.953  34.861  32.427  1.00  0.00     0.000 A 
ENDBRANCH  49  63
BRANCH  50  69
ATOM     69  C   UNL A   1      42.115  23.365  27.610  1.00  0.00    -0.014 A 
ATOM     70  C   UNL A   1      42.291  23.185  26.229  1.00  0.00     0.009 A 
ATOM     71  C   UNL A   1      41.627  22.293  28.375  1.00  0.00     0.009 A 
ATOM     72  C   UNL A   1      41.941  21.977  25.622  1.00  0.00     0.001 A 
ATOM     73  C   UNL A   1      41.313  21.074  27.770  1.00  0.00     0.001 A 
ATOM     74  C   UNL A   1      41.455  20.922  26.392  1.00  0.00     0.000 A 
ENDBRANCH  50  69
BRANCH  62  75
ATOM     75  C   UNL A   1      47.895  26.243  30.187  1.00  0.00    -0.014 A 
ATOM     76  C   UNL A   1      48.805  26.256  29.119  1.00  0.00     0.009 A 
ATOM     77  C   UNL A   1      48.320  25.769  31.439  1.00  0.00     0.009 A 
ATOM     78  C   UNL A   1      50.102  25.771  29.292  1.00  0.00     0.001 A 
ATOM     79  C   UNL A   1      49.628  25.315  31.617  1.00  0.00     0.001 A 
ATOM     80  C   UNL A   1      50.514  25.306  30.541  1.00  0.00     0.000 A 
ENDBRANCH  62  75
ENDBRANCH  36  37
ENDBRANCH  28  31
ENDBRANCH  26  27
ENDBRANCH   1  26
TORSDOF 11
ENDMDL
MODEL 2
REMARK VINA RESULT:     -11.9      1.043      2.721
REMARK SMILES C[C@@H]1C[C@H](C)C[C@H]([N@@H+]2[C@@H](C(=O)NCCCNC(=O)c3ccc(-c4c5nc(c(-c6ccccc6)c6ccc([nH]6)c(-c6ccccc6)c6nc(c(-c7ccccc7)c7ccc4[nH]7)C=C6)C=C5)cc3)CC[C@@H]3CCCC[C@@H]32)C1
REMARK SMILES IDX 14 1 13 2 12 3 10 4 11 5 9 7 8 8 74 9 67 11 69 12 73 13
REMARK SMILES IDX 68 14 70 15 72 16 71 17 7 18 5 19 4 20 6 21 3 22 2 23 75 24
REMARK SMILES IDX 1 25 15 26 16 27 17 28 18 30 19 31 20 32 66 33 21 34 65 35
REMARK SMILES IDX 22 36 23 37 24 38 59 39 25 40 64 41 58 42 60 43 26 44 63 45
REMARK SMILES IDX 57 46 56 47 27 49 49 50 34 51 48 52 35 53 38 54 47 55 61 56
REMARK SMILES IDX 36 57 37 58 46 60 62 61 39 62 28 63 29 64 33 65 30 66 32 67
REMARK SMILES IDX 31 68 50 69 51 70 55 71 52 72 54 73 53 74 40 75 41 76 45 77
REMARK SMILES IDX 42 78 44 79 43 80
REMARK H PARENT 12 6 8 10 16 29 60 48 38 59
REMARK Flexibility Score: inf
ROOT
ATOM      1  C   UNL A   1      33.993  28.703  25.812  1.00  0.00     0.042 C 
ENDROOT
BRANCH   1   2
ATOM      2  C   UNL A   1      33.815  27.279  25.289  1.00  0.00     0.118 C 
BRANCH   2   3
ATOM      3  N   UNL A   1      32.414  26.924  25.184  1.00  0.00    -0.351 N 
ATOM      4  C   UNL A   1      31.790  25.761  25.548  1.00  0.00     0.278 C 
ATOM      5  O   UNL A   1      30.579  25.688  25.335  1.00  0.00    -0.268 OA
ATOM      6  H   UNL A   1      31.831  27.615  24.795  1.00  0.00     0.163 HD
BRANCH   4   7
ATOM      7  C   UNL A   1      32.603  24.633  26.249  1.00  0.00     0.274 C 
ATOM      8  N   UNL A   1      33.461  23.853  25.271  1.00  0.00    -0.320 N 
ATOM      9  C   UNL A   1      32.557  23.001  24.426  1.00  0.00     0.188 C 
ATOM     10  H   UNL A   1      33.918  24.267  24.459  1.00  0.00     0.349 HD
ATOM     11  C   UNL A   1      31.734  23.697  27.102  1.00  0.00     0.076 C 
ATOM     12  C   UNL A   1      31.451  22.147  25.097  1.00  0.00     0.048 C 
ATOM     13  C   UNL A   1      32.985  22.311  23.111  1.00  0.00     0.065 C 
ATOM     14  C   UNL A   1      30.795  22.812  26.301  1.00  0.00     0.016 C 
ATOM     15  C   UNL A   1      31.895  20.721  25.378  1.00  0.00     0.010 C 
ATOM     16  C   UNL A   1      32.774  20.796  22.934  1.00  0.00     0.006 C 
ATOM     17  C   UNL A   1      32.220  19.971  24.093  1.00  0.00     0.001 C 
BRANCH   8  18
ATOM     18  C   UNL A   1      34.796  23.554  25.889  1.00  0.00     0.185 C 
ATOM     19  C   UNL A   1      35.346  20.388  24.932  1.00  0.00     0.008 C 
ATOM     20  C   UNL A   1      36.127  21.301  25.838  1.00  0.00    -0.008 C 
ATOM     21  C   UNL A   1      35.201  22.259  26.593  1.00  0.00     0.068 C 
ATOM     22  C   UNL A   1      37.267  21.975  25.062  1.00  0.00     0.007 C 
ATOM     23  C   UNL A   1      36.921  23.276  24.335  1.00  0.00    -0.008 C 
ATOM     24  C   UNL A   1      36.043  24.174  25.199  1.00  0.00     0.068 C 
ATOM     25  C   UNL A   1      36.371  23.140  22.918  1.00  0.00     0.008 C 
ENDBRANCH   8  18
ENDBRANCH   4   7
ENDBRANCH   2   3
ENDBRANCH   1   2
BRANCH   1  26
ATOM     26  C   UNL A   1      33.550  28.869  27.256  1.00  0.00     0.118 C 
BRANCH  26  27
ATOM     27  N   UNL A   1      33.645  30.267  27.674  1.00  0.00    -0.352 N 
ATOM     28  C   UNL A   1      34.620  30.924  28.385  1.00  0.00     0.251 C 
ATOM     29  H   UNL A   1      32.884  30.830  27.401  1.00  0.00     0.163 HD
ATOM     30  O   UNL A   1      34.377  32.028  28.861  1.00  0.00    -0.269 OA
BRANCH  28  31
ATOM     31  C   UNL A   1      35.953  30.312  28.589  1.00  0.00     0.039 A 
ATOM     32  C   UNL A   1      36.878  30.335  27.540  1.00  0.00     0.014 A 
ATOM     33  C   UNL A   1      36.282  29.678  29.789  1.00  0.00     0.014 A 
ATOM     34  C   UNL A   1      38.152  29.792  27.721  1.00  0.00     0.010 A 
ATOM     35  C   UNL A   1      37.577  29.214  29.999  1.00  0.00     0.010 A 
ATOM     36  C   UNL A   1      38.526  29.267  28.968  1.00  0.00    -0.014 A 
BRANCH  36  37
ATOM     37  C   UNL A   1      39.905  28.784  29.231  1.00  0.00     0.031 A 
ATOM     38  C   UNL A   1      40.933  29.711  29.824  1.00  0.00     0.074 A 
ATOM     39  C   UNL A   1      40.256  27.541  28.847  1.00  0.00     0.049 A 
ATOM     40  N   UNL A   1      42.213  29.512  30.011  1.00  0.00    -0.248 NA
ATOM     41  C   UNL A   1      40.467  31.046  30.236  1.00  0.00     0.031 C 
ATOM     42  C   UNL A   1      39.363  26.558  28.228  1.00  0.00     0.029 A 
ATOM     43  N   UNL A   1      41.467  26.897  28.902  1.00  0.00    -0.354 N 
ATOM     44  C   UNL A   1      42.707  30.699  30.537  1.00  0.00     0.074 A 
ATOM     45  C   UNL A   1      41.600  31.627  30.609  1.00  0.00     0.031 C 
ATOM     46  C   UNL A   1      40.053  25.434  27.974  1.00  0.00     0.029 A 
ATOM     47  C   UNL A   1      41.444  25.632  28.363  1.00  0.00     0.049 A 
ATOM     48  H   UNL A   1      42.276  27.302  29.292  1.00  0.00     0.167 HD
ATOM     49  C   UNL A   1      43.969  30.987  30.934  1.00  0.00     0.031 A 
ATOM     50  C   UNL A   1      42.437  24.741  28.181  1.00  0.00     0.031 A 
ATOM     51  C   UNL A   1      45.065  30.057  30.883  1.00  0.00     0.049 A 
ATOM     52  C   UNL A   1      43.831  25.099  28.615  1.00  0.00     0.074 A 
ATOM     53  C   UNL A   1      46.363  30.232  31.331  1.00  0.00     0.029 A 
ATOM     54  N   UNL A   1      44.995  28.781  30.347  1.00  0.00    -0.354 N 
ATOM     55  N   UNL A   1      44.264  26.198  29.184  1.00  0.00    -0.248 NA
ATOM     56  C   UNL A   1      44.874  24.089  28.385  1.00  0.00     0.031 C 
ATOM     57  C   UNL A   1      47.094  29.085  31.012  1.00  0.00     0.029 A 
ATOM     58  C   UNL A   1      46.235  28.172  30.422  1.00  0.00     0.049 A 
ATOM     59  H   UNL A   1      44.184  28.370  29.968  1.00  0.00     0.167 HD
ATOM     60  C   UNL A   1      45.621  25.999  29.406  1.00  0.00     0.074 A 
ATOM     61  C   UNL A   1      45.933  24.667  28.932  1.00  0.00     0.031 C 
ATOM     62  C   UNL A   1      46.528  26.844  29.951  1.00  0.00     0.031 A 
BRANCH  49  63
ATOM     63  C   UNL A   1      44.247  32.369  31.457  1.00  0.00    -0.014 A 
ATOM     64  C   UNL A   1      44.616  33.414  30.596  1.00  0.00     0.009 A 
ATOM     65  C   UNL A   1      44.051  32.646  32.819  1.00  0.00     0.009 A 
ATOM     66  C   UNL A   1      44.803  34.705  31.094  1.00  0.00     0.001 A 
ATOM     67  C   UNL A   1      44.213  33.944  33.309  1.00  0.00     0.001 A 
ATOM     68  C   UNL A   1      44.593  34.971  32.446  1.00  0.00     0.000 A 
ENDBRANCH  49  63
BRANCH  50  69
ATOM     69  C   UNL A   1      42.164  23.427  27.540  1.00  0.00    -0.014 A 
ATOM     70  C   UNL A   1      41.629  22.365  28.286  1.00  0.00     0.009 A 
ATOM     71  C   UNL A   1      42.479  23.212  26.189  1.00  0.00     0.009 A 
ATOM     72  C   UNL A   1      41.458  21.106  27.706  1.00  0.00     0.001 A 
ATOM     73  C   UNL A   1      42.273  21.962  25.601  1.00  0.00     0.001 A 
ATOM     74  C   UNL A   1      41.778  20.906  26.365  1.00  0.00     0.000 A 
ENDBRANCH  50  69
BRANCH  62  75
ATOM     75  C   UNL A   1      47.935  26.338  30.099  1.00  0.00    -0.014 A 
ATOM     76  C   UNL A   1      48.388  25.779  31.304  1.00  0.00     0.009 A 
ATOM     77  C   UNL A   1      48.809  26.390  29.000  1.00  0.00     0.009 A 
ATOM     78  C   UNL A   1      49.700  25.316  31.416  1.00  0.00     0.001 A 
ATOM     79  C   UNL A   1      50.109  25.896  29.107  1.00  0.00     0.001 A 
ATOM     80  C   UNL A   1      50.557  25.369  30.318  1.00  0.00     0.000 A 
ENDBRANCH  62  75
ENDBRANCH  36  37
ENDBRANCH  28  31
ENDBRANCH  26  27
ENDBRANCH   1  26
TORSDOF 11
ENDMDL
MODEL 3
REMARK VINA RESULT:     -11.8      2.494      7.665
REMARK SMILES C[C@@H]1C[C@H](C)C[C@H]([N@@H+]2[C@@H](C(=O)NCCCNC(=O)c3ccc(-c4c5nc(c(-c6ccccc6)c6ccc([nH]6)c(-c6ccccc6)c6nc(c(-c7ccccc7)c7ccc4[nH]7)C=C6)C=C5)cc3)CC[C@@H]3CCCC[C@@H]32)C1
REMARK SMILES IDX 14 1 13 2 12 3 10 4 11 5 9 7 8 8 74 9 67 11 69 12 73 13
REMARK SMILES IDX 68 14 70 15 72 16 71 17 7 18 5 19 4 20 6 21 3 22 2 23 75 24
REMARK SMILES IDX 1 25 15 26 16 27 17 28 18 30 19 31 20 32 66 33 21 34 65 35
REMARK SMILES IDX 22 36 23 37 24 38 59 39 25 40 64 41 58 42 60 43 26 44 63 45
REMARK SMILES IDX 57 46 56 47 27 49 49 50 34 51 48 52 35 53 38 54 47 55 61 56
REMARK SMILES IDX 36 57 37 58 46 60 62 61 39 62 28 63 29 64 33 65 30 66 32 67
REMARK SMILES IDX 31 68 50 69 51 70 55 71 52 72 54 73 53 74 40 75 41 76 45 77
REMARK SMILES IDX 42 78 44 79 43 80
REMARK H PARENT 12 6 8 10 16 29 60 48 38 59
REMARK Flexibility Score: inf
ROOT
ATOM      1  C   UNL A   1      36.012  23.528  26.312  1.00  0.00     0.042 C 
ENDROOT
BRANCH   1   2
ATOM      2  C   UNL A   1      34.822  22.615  26.020  1.00  0.00     0.118 C 
BRANCH   2   3
ATOM      3  N   UNL A   1      33.721  22.876  26.924  1.00  0.00    -0.351 N 
ATOM      4  C   UNL A   1      32.646  23.708  26.755  1.00  0.00     0.278 C 
ATOM      5  O   UNL A   1      31.843  23.778  27.687  1.00  0.00    -0.268 OA
ATOM      6  H   UNL A   1      33.749  22.389  27.779  1.00  0.00     0.163 HD
BRANCH   4   7
ATOM      7  C   UNL A   1      32.456  24.462  25.406  1.00  0.00     0.274 C 
ATOM      8  N   UNL A   1      33.450  25.596  25.240  1.00  0.00    -0.320 N 
ATOM      9  C   UNL A   1      33.068  26.701  26.184  1.00  0.00     0.188 C 
ATOM     10  H   UNL A   1      34.411  25.565  25.581  1.00  0.00     0.349 HD
ATOM     11  C   UNL A   1      31.016  24.944  25.175  1.00  0.00     0.076 C 
ATOM     12  C   UNL A   1      31.596  27.176  26.261  1.00  0.00     0.048 C 
ATOM     13  C   UNL A   1      33.990  27.882  26.564  1.00  0.00     0.065 C 
ATOM     14  C   UNL A   1      30.571  26.059  26.106  1.00  0.00     0.016 C 
ATOM     15  C   UNL A   1      31.312  28.368  25.362  1.00  0.00     0.010 C 
ATOM     16  C   UNL A   1      33.493  29.329  26.397  1.00  0.00     0.006 C 
ATOM     17  C   UNL A   1      32.122  29.590  25.777  1.00  0.00     0.001 C 
BRANCH   8  18
ATOM     18  C   UNL A   1      33.939  25.642  23.821  1.00  0.00     0.185 C 
ATOM     19  C   UNL A   1      32.115  23.245  22.349  1.00  0.00     0.008 C 
ATOM     20  C   UNL A   1      33.231  24.106  21.824  1.00  0.00    -0.008 C 
ATOM     21  C   UNL A   1      34.241  24.440  22.926  1.00  0.00     0.068 C 
ATOM     22  C   UNL A   1      32.662  25.318  21.075  1.00  0.00     0.007 C 
ATOM     23  C   UNL A   1      32.340  26.553  21.920  1.00  0.00    -0.008 C 
ATOM     24  C   UNL A   1      33.435  26.821  22.943  1.00  0.00     0.068 C 
ATOM     25  C   UNL A   1      30.951  26.604  22.549  1.00  0.00     0.008 C 
ENDBRANCH   8  18
ENDBRANCH   4   7
ENDBRANCH   2   3
ENDBRANCH   1   2
BRANCH   1  26
ATOM     26  C   UNL A   1      37.080  23.481  25.231  1.00  0.00     0.118 C 
BRANCH  26  27
ATOM     27  N   UNL A   1      38.189  22.618  25.631  1.00  0.00    -0.352 N 
ATOM     28  C   UNL A   1      39.392  22.923  26.222  1.00  0.00     0.251 C 
ATOM     29  H   UNL A   1      38.053  21.660  25.446  1.00  0.00     0.163 HD
ATOM     30  O   UNL A   1      40.290  22.088  26.224  1.00  0.00    -0.269 OA
BRANCH  28  31
ATOM     31  C   UNL A   1      39.617  24.247  26.845  1.00  0.00     0.039 A 
ATOM     32  C   UNL A   1      39.146  24.474  28.143  1.00  0.00     0.014 A 
ATOM     33  C   UNL A   1      40.249  25.278  26.147  1.00  0.00     0.014 A 
ATOM     34  C   UNL A   1      39.375  25.706  28.762  1.00  0.00     0.010 A 
ATOM     35  C   UNL A   1      40.552  26.472  26.793  1.00  0.00     0.010 A 
ATOM     36  C   UNL A   1      40.120  26.698  28.107  1.00  0.00    -0.014 A 
BRANCH  36  37
ATOM     37  C   UNL A   1      40.479  27.975  28.776  1.00  0.00     0.031 A 
ATOM     38  C   UNL A   1      41.804  28.116  29.476  1.00  0.00     0.074 A 
ATOM     39  C   UNL A   1      39.572  28.970  28.834  1.00  0.00     0.049 A 
ATOM     40  N   UNL A   1      42.245  29.102  30.216  1.00  0.00    -0.248 NA
ATOM     41  C   UNL A   1      42.748  26.994  29.349  1.00  0.00     0.031 C 
ATOM     42  C   UNL A   1      38.239  28.942  28.227  1.00  0.00     0.029 A 
ATOM     43  N   UNL A   1      39.628  30.195  29.451  1.00  0.00    -0.354 N 
ATOM     44  C   UNL A   1      43.500  28.709  30.662  1.00  0.00     0.074 A 
ATOM     45  C   UNL A   1      43.740  27.382  30.139  1.00  0.00     0.031 C 
ATOM     46  C   UNL A   1      37.610  30.099  28.492  1.00  0.00     0.029 A 
ATOM     47  C   UNL A   1      38.472  30.928  29.326  1.00  0.00     0.049 A 
ATOM     48  H   UNL A   1      40.421  30.518  29.938  1.00  0.00     0.167 HD
ATOM     49  C   UNL A   1      44.378  29.397  31.430  1.00  0.00     0.031 A 
ATOM     50  C   UNL A   1      38.133  32.124  29.845  1.00  0.00     0.031 A 
ATOM     51  C   UNL A   1      44.147  30.725  31.930  1.00  0.00     0.049 A 
ATOM     52  C   UNL A   1      39.124  32.853  30.710  1.00  0.00     0.074 A 
ATOM     53  C   UNL A   1      45.008  31.532  32.654  1.00  0.00     0.029 A 
ATOM     54  N   UNL A   1      42.971  31.438  31.766  1.00  0.00    -0.354 N 
ATOM     55  N   UNL A   1      40.339  32.499  31.055  1.00  0.00    -0.248 NA
ATOM     56  C   UNL A   1      38.698  34.150  31.253  1.00  0.00     0.031 C 
ATOM     57  C   UNL A   1      44.331  32.711  32.979  1.00  0.00     0.029 A 
ATOM     58  C   UNL A   1      43.071  32.662  32.404  1.00  0.00     0.049 A 
ATOM     59  H   UNL A   1      42.182  31.122  31.269  1.00  0.00     0.167 HD
ATOM     60  C   UNL A   1      40.830  33.543  31.830  1.00  0.00     0.074 A 
ATOM     61  C   UNL A   1      39.792  34.550  31.884  1.00  0.00     0.031 C 
ATOM     62  C   UNL A   1      42.032  33.656  32.443  1.00  0.00     0.031 A 
BRANCH  49  63
ATOM     63  C   UNL A   1      45.676  28.729  31.787  1.00  0.00    -0.014 A 
ATOM     64  C   UNL A   1      45.794  27.934  32.938  1.00  0.00     0.009 A 
ATOM     65  C   UNL A   1      46.770  28.827  30.913  1.00  0.00     0.009 A 
ATOM     66  C   UNL A   1      46.990  27.267  33.216  1.00  0.00     0.001 A 
ATOM     67  C   UNL A   1      47.956  28.139  31.181  1.00  0.00     0.001 A 
ATOM     68  C   UNL A   1      48.065  27.363  32.334  1.00  0.00     0.000 A 
ENDBRANCH  49  63
BRANCH  50  69
ATOM     69  C   UNL A   1      36.791  32.708  29.585  1.00  0.00    -0.014 A 
ATOM     70  C   UNL A   1      35.746  32.537  30.506  1.00  0.00     0.009 A 
ATOM     71  C   UNL A   1      36.534  33.404  28.392  1.00  0.00     0.009 A 
ATOM     72  C   UNL A   1      34.463  33.008  30.218  1.00  0.00     0.001 A 
ATOM     73  C   UNL A   1      35.259  33.906  28.124  1.00  0.00     0.001 A 
ATOM     74  C   UNL A   1      34.221  33.694  29.029  1.00  0.00     0.000 A 
ENDBRANCH  50  69
BRANCH  62  75
ATOM     75  C   UNL A   1      42.302  34.930  33.194  1.00  0.00    -0.014 A 
ATOM     76  C   UNL A   1      41.829  35.121  34.501  1.00  0.00     0.009 A 
ATOM     77  C   UNL A   1      43.074  35.937  32.594  1.00  0.00     0.009 A 
ATOM     78  C   UNL A   1      42.093  36.313  35.178  1.00  0.00     0.001 A 
ATOM     79  C   UNL A   1      43.363  37.114  33.286  1.00  0.00     0.001 A 
ATOM     80  C   UNL A   1      42.864  37.305  34.573  1.00  0.00     0.000 A 
ENDBRANCH  62  75
ENDBRANCH  36  37
ENDBRANCH  28  31
ENDBRANCH  26  27
ENDBRANCH   1  26
TORSDOF 11
ENDMDL
