MODEL 1
REMARK VINA RESULT:     -10.1      0.000      0.000
REMARK SMILES CCCCCCNC(=O)Oc1cccc(-c2ccc([C@@H](C)C(=O)NCCCNC(=O)c3ccc(-c4c5nc(c(-c6ccccc6)c6ccc([nH]6)c(-c6ccccc6)c6nc(c(-c7ccccc7)c7ccc4[nH]7)C=C6)C=C5)cc3)cc2F)c1
REMARK SMILES IDX 16 1 17 2 18 3 19 4 79 5 80 6 81 7 15 8 11 9 12 10 82 11
REMARK SMILES IDX 13 12 14 13 10 14 8 15 7 16 9 18 6 19 5 20 4 21 3 22 2 23
REMARK SMILES IDX 1 24 20 25 21 26 22 27 23 28 24 29 25 31 26 32 27 33 28 34
REMARK SMILES IDX 29 35 30 37 31 38 32 39 78 40 33 41 77 42 34 43 35 44 36 45
REMARK SMILES IDX 71 46 37 47 76 48 70 49 72 50 38 51 75 52 69 53 68 54 39 56
REMARK SMILES IDX 61 57 46 58 60 59 47 60 50 61 59 62 73 63 48 64 49 65 58 67
REMARK SMILES IDX 74 68 51 69 40 70 41 71 45 72 42 73 44 74 43 75 62 76 63 77
REMARK SMILES IDX 67 78 64 79 66 80 65 81 52 82 53 83 57 84 54 85 56 86 55 87
REMARK H PARENT 7 17 24 30 28 36 72 55 50 66
REMARK Flexibility Score: inf
ROOT
ATOM      1  C   UNL A   1      34.644  24.454  25.089  1.00  0.00     0.018 A 
ATOM      2  C   UNL A   1      34.478  25.332  24.005  1.00  0.00     0.012 A 
ATOM      3  C   UNL A   1      33.318  26.101  23.843  1.00  0.00     0.005 A 
ATOM      4  C   UNL A   1      32.240  25.976  24.721  1.00  0.00    -0.033 A 
ATOM      5  C   UNL A   1      32.396  25.115  25.817  1.00  0.00     0.044 A 
ATOM      6  C   UNL A   1      33.580  24.393  26.003  1.00  0.00     0.131 A 
ATOM      7  F   UNL A   1      33.668  23.632  27.106  1.00  0.00    -0.206 F 
ENDROOT
BRANCH   1   8
ATOM      8  C   UNL A   1      35.877  23.641  25.228  1.00  0.00    -0.012 A 
ATOM      9  C   UNL A   1      37.228  21.695  24.659  1.00  0.00     0.133 A 
ATOM     10  C   UNL A   1      38.259  22.119  25.489  1.00  0.00     0.047 A 
ATOM     11  C   UNL A   1      36.052  22.437  24.524  1.00  0.00     0.056 A 
ATOM     12  C   UNL A   1      38.116  23.309  26.190  1.00  0.00     0.004 A 
ATOM     13  C   UNL A   1      36.935  24.052  26.068  1.00  0.00     0.009 A 
BRANCH   9  14
ATOM     14  O   UNL A   1      37.362  20.421  24.085  1.00  0.00    -0.410 OA
BRANCH  14  15
ATOM     15  C   UNL A   1      37.413  19.312  24.916  1.00  0.00     0.412 C 
ATOM     16  N   UNL A   1      36.205  18.675  25.022  1.00  0.00    -0.321 N 
ATOM     17  H   UNL A   1      36.168  17.897  25.623  1.00  0.00     0.167 HD
ATOM     18  O   UNL A   1      38.397  18.911  25.524  1.00  0.00    -0.224 OA
BRANCH  16  19
ATOM     19  C   UNL A   1      34.978  19.032  24.339  1.00  0.00     0.119 C 
BRANCH  19  20
ATOM     20  C   UNL A   1      34.015  19.791  25.251  1.00  0.00     0.021 C 
BRANCH  20  21
ATOM     21  C   UNL A   1      32.644  20.088  24.633  1.00  0.00     0.002 C 
BRANCH  21  22
ATOM     22  C   UNL A   1      32.189  21.550  24.708  1.00  0.00    -0.000 C 
BRANCH  22  23
ATOM     23  C   UNL A   1      31.731  22.166  23.384  1.00  0.00    -0.003 C 
ATOM     24  C   UNL A   1      32.883  22.552  22.469  1.00  0.00     0.004 C 
ENDBRANCH  22  23
ENDBRANCH  21  22
ENDBRANCH  20  21
ENDBRANCH  19  20
ENDBRANCH  16  19
ENDBRANCH  14  15
ENDBRANCH   9  14
ENDBRANCH   1   8
BRANCH   4  25
ATOM     25  C   UNL A   1      30.919  26.699  24.520  1.00  0.00     0.105 C 
ATOM     26  C   UNL A   1      29.712  26.082  25.226  1.00  0.00     0.023 C 
BRANCH  25  27
ATOM     27  C   UNL A   1      31.028  28.225  24.655  1.00  0.00     0.227 C 
ATOM     28  O   UNL A   1      30.813  28.946  23.673  1.00  0.00    -0.274 OA
ATOM     29  N   UNL A   1      31.350  28.869  25.810  1.00  0.00    -0.356 N 
ATOM     30  H   UNL A   1      31.314  29.850  25.741  1.00  0.00     0.163 HD
BRANCH  29  31
ATOM     31  C   UNL A   1      31.735  28.385  27.121  1.00  0.00     0.117 C 
BRANCH  31  32
ATOM     32  C   UNL A   1      33.251  28.336  27.297  1.00  0.00     0.042 C 
BRANCH  32  33
ATOM     33  C   UNL A   1      33.979  29.533  26.697  1.00  0.00     0.118 C 
BRANCH  33  34
ATOM     34  N   UNL A   1      33.918  30.707  27.559  1.00  0.00    -0.352 N 
ATOM     35  C   UNL A   1      34.759  31.131  28.557  1.00  0.00     0.251 C 
ATOM     36  H   UNL A   1      33.143  31.293  27.398  1.00  0.00     0.163 HD
ATOM     37  O   UNL A   1      34.398  32.036  29.305  1.00  0.00    -0.269 OA
BRANCH  35  38
ATOM     38  C   UNL A   1      36.087  30.506  28.760  1.00  0.00     0.039 A 
ATOM     39  C   UNL A   1      37.038  30.597  27.738  1.00  0.00     0.014 A 
ATOM     40  C   UNL A   1      36.385  29.792  29.923  1.00  0.00     0.014 A 
ATOM     41  C   UNL A   1      38.309  30.038  27.913  1.00  0.00     0.010 A 
ATOM     42  C   UNL A   1      37.673  29.300  30.127  1.00  0.00     0.010 A 
ATOM     43  C   UNL A   1      38.649  29.420  29.127  1.00  0.00    -0.014 A 
BRANCH  43  44
ATOM     44  C   UNL A   1      40.018  28.906  29.382  1.00  0.00     0.031 A 
ATOM     45  C   UNL A   1      41.056  29.790  30.016  1.00  0.00     0.074 A 
ATOM     46  C   UNL A   1      40.352  27.669  28.966  1.00  0.00     0.049 A 
ATOM     47  N   UNL A   1      42.329  29.558  30.215  1.00  0.00    -0.248 NA
ATOM     48  C   UNL A   1      40.609  31.118  30.465  1.00  0.00     0.031 C 
ATOM     49  C   UNL A   1      39.448  26.721  28.313  1.00  0.00     0.029 A 
ATOM     50  N   UNL A   1      41.552  27.004  29.015  1.00  0.00    -0.354 N 
ATOM     51  C   UNL A   1      42.839  30.716  30.789  1.00  0.00     0.074 A 
ATOM     52  C   UNL A   1      41.746  31.662  30.873  1.00  0.00     0.031 C 
ATOM     53  C   UNL A   1      40.119  25.592  28.037  1.00  0.00     0.029 A 
ATOM     54  C   UNL A   1      41.510  25.753  28.450  1.00  0.00     0.049 A 
ATOM     55  H   UNL A   1      42.365  27.388  29.416  1.00  0.00     0.167 HD
ATOM     56  C   UNL A   1      44.098  30.966  31.222  1.00  0.00     0.031 A 
ATOM     57  C   UNL A   1      42.485  24.844  28.264  1.00  0.00     0.031 A 
ATOM     58  C   UNL A   1      45.183  30.024  31.143  1.00  0.00     0.049 A 
ATOM     59  C   UNL A   1      43.882  25.157  28.720  1.00  0.00     0.074 A 
ATOM     60  C   UNL A   1      46.481  30.164  31.604  1.00  0.00     0.029 A 
ATOM     61  N   UNL A   1      45.098  28.769  30.563  1.00  0.00    -0.354 N 
ATOM     62  N   UNL A   1      44.334  26.234  29.314  1.00  0.00    -0.248 NA
ATOM     63  C   UNL A   1      44.902  24.127  28.478  1.00  0.00     0.031 C 
ATOM     64  C   UNL A   1      47.195  29.012  31.258  1.00  0.00     0.029 A 
ATOM     65  C   UNL A   1      46.327  28.134  30.629  1.00  0.00     0.049 A 
ATOM     66  H   UNL A   1      44.284  28.385  30.162  1.00  0.00     0.167 HD
ATOM     67  C   UNL A   1      45.684  26.003  29.539  1.00  0.00     0.074 A 
ATOM     68  C   UNL A   1      45.975  24.678  29.030  1.00  0.00     0.031 C 
ATOM     69  C   UNL A   1      46.601  26.817  30.116  1.00  0.00     0.031 A 
BRANCH  56  70
ATOM     70  C   UNL A   1      44.371  32.323  31.808  1.00  0.00    -0.014 A 
ATOM     71  C   UNL A   1      44.227  32.561  33.184  1.00  0.00     0.009 A 
ATOM     72  C   UNL A   1      44.806  33.368  30.979  1.00  0.00     0.009 A 
ATOM     73  C   UNL A   1      44.476  33.831  33.712  1.00  0.00     0.001 A 
ATOM     74  C   UNL A   1      45.081  34.628  31.514  1.00  0.00     0.001 A 
ATOM     75  C   UNL A   1      44.905  34.861  32.877  1.00  0.00     0.000 A 
ENDBRANCH  56  70
BRANCH  57  76
ATOM     76  C   UNL A   1      42.171  23.542  27.621  1.00  0.00    -0.014 A 
ATOM     77  C   UNL A   1      42.441  23.342  26.258  1.00  0.00     0.009 A 
ATOM     78  C   UNL A   1      41.606  22.492  28.362  1.00  0.00     0.009 A 
ATOM     79  C   UNL A   1      42.133  22.126  25.646  1.00  0.00     0.001 A 
ATOM     80  C   UNL A   1      41.324  21.267  27.753  1.00  0.00     0.001 A 
ATOM     81  C   UNL A   1      41.580  21.088  26.395  1.00  0.00     0.000 A 
ENDBRANCH  57  76
BRANCH  69  82
ATOM     82  C   UNL A   1      47.999  26.287  30.255  1.00  0.00    -0.014 A 
ATOM     83  C   UNL A   1      48.439  25.702  31.452  1.00  0.00     0.009 A 
ATOM     84  C   UNL A   1      48.873  26.332  29.157  1.00  0.00     0.009 A 
ATOM     85  C   UNL A   1      49.735  25.195  31.555  1.00  0.00     0.001 A 
ATOM     86  C   UNL A   1      50.159  25.801  29.254  1.00  0.00     0.001 A 
ATOM     87  C   UNL A   1      50.592  25.239  30.455  1.00  0.00     0.000 A 
ENDBRANCH  69  82
ENDBRANCH  43  44
ENDBRANCH  35  38
ENDBRANCH  33  34
ENDBRANCH  32  33
ENDBRANCH  31  32
ENDBRANCH  29  31
ENDBRANCH  25  27
ENDBRANCH   4  25
TORSDOF 19
ENDMDL
MODEL 2
REMARK VINA RESULT:      -9.8      4.520      8.038
REMARK SMILES CCCCCCNC(=O)Oc1cccc(-c2ccc([C@@H](C)C(=O)NCCCNC(=O)c3ccc(-c4c5nc(c(-c6ccccc6)c6ccc([nH]6)c(-c6ccccc6)c6nc(c(-c7ccccc7)c7ccc4[nH]7)C=C6)C=C5)cc3)cc2F)c1
REMARK SMILES IDX 16 1 17 2 18 3 19 4 79 5 80 6 81 7 15 8 11 9 12 10 82 11
REMARK SMILES IDX 13 12 14 13 10 14 8 15 7 16 9 18 6 19 5 20 4 21 3 22 2 23
REMARK SMILES IDX 1 24 20 25 21 26 22 27 23 28 24 29 25 31 26 32 27 33 28 34
REMARK SMILES IDX 29 35 30 37 31 38 32 39 78 40 33 41 77 42 34 43 35 44 36 45
REMARK SMILES IDX 71 46 37 47 76 48 70 49 72 50 38 51 75 52 69 53 68 54 39 56
REMARK SMILES IDX 61 57 46 58 60 59 47 60 50 61 59 62 73 63 48 64 49 65 58 67
REMARK SMILES IDX 74 68 51 69 40 70 41 71 45 72 42 73 44 74 43 75 62 76 63 77
REMARK SMILES IDX 67 78 64 79 66 80 65 81 52 82 53 83 57 84 54 85 56 86 55 87
REMARK H PARENT 7 17 24 30 28 36 72 55 50 66
REMARK Flexibility Score: inf
ROOT
ATOM      1  C   UNL A   1      39.895  30.326  34.025  1.00  0.00     0.018 A 
ATOM      2  C   UNL A   1      38.742  30.028  33.279  1.00  0.00     0.012 A 
ATOM      3  C   UNL A   1      37.741  30.981  33.048  1.00  0.00     0.005 A 
ATOM      4  C   UNL A   1      37.813  32.256  33.613  1.00  0.00    -0.033 A 
ATOM      5  C   UNL A   1      38.964  32.572  34.348  1.00  0.00     0.044 A 
ATOM      6  C   UNL A   1      39.986  31.633  34.526  1.00  0.00     0.131 A 
ATOM      7  F   UNL A   1      41.078  32.035  35.198  1.00  0.00    -0.206 F 
ENDROOT
BRANCH   1   8
ATOM      8  C   UNL A   1      40.932  29.292  34.265  1.00  0.00    -0.012 A 
ATOM      9  C   UNL A   1      42.090  27.727  35.730  1.00  0.00     0.133 A 
ATOM     10  C   UNL A   1      42.906  27.297  34.691  1.00  0.00     0.047 A 
ATOM     11  C   UNL A   1      41.115  28.709  35.530  1.00  0.00     0.056 A 
ATOM     12  C   UNL A   1      42.742  27.852  33.429  1.00  0.00     0.004 A 
ATOM     13  C   UNL A   1      41.775  28.844  33.225  1.00  0.00     0.009 A 
BRANCH   9  14
ATOM     14  O   UNL A   1      42.388  27.240  37.012  1.00  0.00    -0.410 OA
BRANCH  14  15
ATOM     15  C   UNL A   1      41.805  26.053  37.432  1.00  0.00     0.412 C 
ATOM     16  N   UNL A   1      42.704  25.024  37.515  1.00  0.00    -0.321 N 
ATOM     17  H   UNL A   1      42.346  24.146  37.778  1.00  0.00     0.167 HD
ATOM     18  O   UNL A   1      40.622  25.885  37.698  1.00  0.00    -0.224 OA
BRANCH  16  19
ATOM     19  C   UNL A   1      44.128  25.096  37.253  1.00  0.00     0.119 C 
BRANCH  19  20
ATOM     20  C   UNL A   1      44.658  23.817  36.608  1.00  0.00     0.021 C 
BRANCH  20  21
ATOM     21  C   UNL A   1      44.417  23.711  35.098  1.00  0.00     0.002 C 
BRANCH  21  22
ATOM     22  C   UNL A   1      45.458  24.406  34.214  1.00  0.00    -0.000 C 
BRANCH  22  23
ATOM     23  C   UNL A   1      45.015  24.692  32.777  1.00  0.00    -0.003 C 
ATOM     24  C   UNL A   1      44.129  23.604  32.192  1.00  0.00     0.004 C 
ENDBRANCH  22  23
ENDBRANCH  21  22
ENDBRANCH  20  21
ENDBRANCH  19  20
ENDBRANCH  16  19
ENDBRANCH  14  15
ENDBRANCH   9  14
ENDBRANCH   1   8
BRANCH   4  25
ATOM     25  C   UNL A   1      36.698  33.280  33.490  1.00  0.00     0.105 C 
ATOM     26  C   UNL A   1      36.210  33.888  34.805  1.00  0.00     0.023 C 
BRANCH  25  27
ATOM     27  C   UNL A   1      36.920  34.297  32.360  1.00  0.00     0.227 C 
ATOM     28  O   UNL A   1      38.033  34.818  32.212  1.00  0.00    -0.274 OA
ATOM     29  N   UNL A   1      35.959  34.680  31.476  1.00  0.00    -0.356 N 
ATOM     30  H   UNL A   1      36.284  35.291  30.776  1.00  0.00     0.163 HD
BRANCH  29  31
ATOM     31  C   UNL A   1      34.549  34.359  31.370  1.00  0.00     0.117 C 
BRANCH  31  32
ATOM     32  C   UNL A   1      34.117  34.121  29.925  1.00  0.00     0.042 C 
BRANCH  32  33
ATOM     33  C   UNL A   1      34.974  33.099  29.186  1.00  0.00     0.118 C 
BRANCH  33  34
ATOM     34  N   UNL A   1      34.172  32.051  28.567  1.00  0.00    -0.352 N 
ATOM     35  C   UNL A   1      34.529  30.816  28.084  1.00  0.00     0.251 C 
ATOM     36  H   UNL A   1      33.214  32.264  28.481  1.00  0.00     0.163 HD
ATOM     37  O   UNL A   1      33.728  30.182  27.403  1.00  0.00    -0.269 OA
BRANCH  35  38
ATOM     38  C   UNL A   1      35.868  30.244  28.355  1.00  0.00     0.039 A 
ATOM     39  C   UNL A   1      36.820  30.239  27.329  1.00  0.00     0.014 A 
ATOM     40  C   UNL A   1      36.178  29.670  29.590  1.00  0.00     0.014 A 
ATOM     41  C   UNL A   1      38.101  29.728  27.565  1.00  0.00     0.010 A 
ATOM     42  C   UNL A   1      37.475  29.230  29.848  1.00  0.00     0.010 A 
ATOM     43  C   UNL A   1      38.450  29.257  28.840  1.00  0.00    -0.014 A 
BRANCH  43  44
ATOM     44  C   UNL A   1      39.829  28.802  29.151  1.00  0.00     0.031 A 
ATOM     45  C   UNL A   1      40.811  29.737  29.799  1.00  0.00     0.074 A 
ATOM     46  C   UNL A   1      40.224  27.570  28.773  1.00  0.00     0.049 A 
ATOM     47  N   UNL A   1      42.084  29.559  30.045  1.00  0.00    -0.248 NA
ATOM     48  C   UNL A   1      40.298  31.056  30.206  1.00  0.00     0.031 C 
ATOM     49  C   UNL A   1      39.378  26.574  28.111  1.00  0.00     0.029 A 
ATOM     50  N   UNL A   1      41.446  26.953  28.874  1.00  0.00    -0.354 N 
ATOM     51  C   UNL A   1      42.530  30.747  30.611  1.00  0.00     0.074 A 
ATOM     52  C   UNL A   1      41.400  31.651  30.638  1.00  0.00     0.031 C 
ATOM     53  C   UNL A   1      40.101  25.467  27.882  1.00  0.00     0.029 A 
ATOM     54  C   UNL A   1      41.470  25.690  28.335  1.00  0.00     0.049 A 
ATOM     55  H   UNL A   1      42.229  27.376  29.294  1.00  0.00     0.167 HD
ATOM     56  C   UNL A   1      43.764  31.054  31.078  1.00  0.00     0.031 A 
ATOM     57  C   UNL A   1      42.485  24.816  28.201  1.00  0.00     0.031 A 
ATOM     58  C   UNL A   1      44.886  30.154  31.056  1.00  0.00     0.049 A 
ATOM     59  C   UNL A   1      43.853  25.193  28.695  1.00  0.00     0.074 A 
ATOM     60  C   UNL A   1      46.161  30.354  31.556  1.00  0.00     0.029 A 
ATOM     61  N   UNL A   1      44.868  28.885  30.499  1.00  0.00    -0.354 N 
ATOM     62  N   UNL A   1      44.244  26.298  29.281  1.00  0.00    -0.248 NA
ATOM     63  C   UNL A   1      44.919  24.198  28.510  1.00  0.00     0.031 C 
ATOM     64  C   UNL A   1      46.930  29.223  31.258  1.00  0.00     0.029 A 
ATOM     65  C   UNL A   1      46.118  28.300  30.619  1.00  0.00     0.049 A 
ATOM     66  H   UNL A   1      44.084  28.462  30.081  1.00  0.00     0.167 HD
ATOM     67  C   UNL A   1      45.593  26.124  29.555  1.00  0.00     0.074 A 
ATOM     68  C   UNL A   1      45.951  24.802  29.084  1.00  0.00     0.031 C 
ATOM     69  C   UNL A   1      46.458  26.984  30.144  1.00  0.00     0.031 A 
BRANCH  56  70
ATOM     70  C   UNL A   1      43.965  32.432  31.644  1.00  0.00    -0.014 A 
ATOM     71  C   UNL A   1      43.848  32.676  33.023  1.00  0.00     0.009 A 
ATOM     72  C   UNL A   1      44.303  33.495  30.793  1.00  0.00     0.009 A 
ATOM     73  C   UNL A   1      44.030  33.964  33.531  1.00  0.00     0.001 A 
ATOM     74  C   UNL A   1      44.511  34.776  31.308  1.00  0.00     0.001 A 
ATOM     75  C   UNL A   1      44.364  35.012  32.674  1.00  0.00     0.000 A 
ENDBRANCH  56  70
BRANCH  57  76
ATOM     76  C   UNL A   1      42.242  23.490  27.576  1.00  0.00    -0.014 A 
ATOM     77  C   UNL A   1      41.741  22.427  28.343  1.00  0.00     0.009 A 
ATOM     78  C   UNL A   1      42.504  23.281  26.213  1.00  0.00     0.009 A 
ATOM     79  C   UNL A   1      41.527  21.175  27.763  1.00  0.00     0.001 A 
ATOM     80  C   UNL A   1      42.264  22.035  25.630  1.00  0.00     0.001 A 
ATOM     81  C   UNL A   1      41.783  20.982  26.406  1.00  0.00     0.000 A 
ENDBRANCH  57  76
BRANCH  69  82
ATOM     82  C   UNL A   1      47.871  26.512  30.340  1.00  0.00    -0.014 A 
ATOM     83  C   UNL A   1      48.856  26.746  29.369  1.00  0.00     0.009 A 
ATOM     84  C   UNL A   1      48.228  25.865  31.533  1.00  0.00     0.009 A 
ATOM     85  C   UNL A   1      50.169  26.318  29.580  1.00  0.00     0.001 A 
ATOM     86  C   UNL A   1      49.546  25.463  31.752  1.00  0.00     0.001 A 
ATOM     87  C   UNL A   1      50.513  25.682  30.773  1.00  0.00     0.000 A 
ENDBRANCH  69  82
ENDBRANCH  43  44
ENDBRANCH  35  38
ENDBRANCH  33  34
ENDBRANCH  32  33
ENDBRANCH  31  32
ENDBRANCH  29  31
ENDBRANCH  25  27
ENDBRANCH   4  25
TORSDOF 19
ENDMDL
MODEL 3
REMARK VINA RESULT:      -9.7      1.128      5.755
REMARK SMILES CCCCCCNC(=O)Oc1cccc(-c2ccc([C@@H](C)C(=O)NCCCNC(=O)c3ccc(-c4c5nc(c(-c6ccccc6)c6ccc([nH]6)c(-c6ccccc6)c6nc(c(-c7ccccc7)c7ccc4[nH]7)C=C6)C=C5)cc3)cc2F)c1
REMARK SMILES IDX 16 1 17 2 18 3 19 4 79 5 80 6 81 7 15 8 11 9 12 10 82 11
REMARK SMILES IDX 13 12 14 13 10 14 8 15 7 16 9 18 6 19 5 20 4 21 3 22 2 23
REMARK SMILES IDX 1 24 20 25 21 26 22 27 23 28 24 29 25 31 26 32 27 33 28 34
REMARK SMILES IDX 29 35 30 37 31 38 32 39 78 40 33 41 77 42 34 43 35 44 36 45
REMARK SMILES IDX 71 46 37 47 76 48 70 49 72 50 38 51 75 52 69 53 68 54 39 56
REMARK SMILES IDX 61 57 46 58 60 59 47 60 50 61 59 62 73 63 48 64 49 65 58 67
REMARK SMILES IDX 74 68 51 69 40 70 41 71 45 72 42 73 44 74 43 75 62 76 63 77
REMARK SMILES IDX 67 78 64 79 66 80 65 81 52 82 53 83 57 84 54 85 56 86 55 87
REMARK H PARENT 7 17 24 30 28 36 72 55 50 66
REMARK Flexibility Score: inf
ROOT
ATOM      1  C   UNL A   1      34.493  24.005  25.192  1.00  0.00     0.018 A 
ATOM      2  C   UNL A   1      34.215  24.867  24.118  1.00  0.00     0.012 A 
ATOM      3  C   UNL A   1      33.000  25.557  24.016  1.00  0.00     0.005 A 
ATOM      4  C   UNL A   1      31.978  25.363  24.948  1.00  0.00    -0.033 A 
ATOM      5  C   UNL A   1      32.246  24.517  26.033  1.00  0.00     0.044 A 
ATOM      6  C   UNL A   1      33.483  23.875  26.158  1.00  0.00     0.131 A 
ATOM      7  F   UNL A   1      33.677  23.125  27.255  1.00  0.00    -0.206 F 
ENDROOT
BRANCH   1   8
ATOM      8  C   UNL A   1      35.783  23.276  25.267  1.00  0.00    -0.012 A 
ATOM      9  C   UNL A   1      37.220  21.407  24.652  1.00  0.00     0.133 A 
ATOM     10  C   UNL A   1      38.271  21.915  25.405  1.00  0.00     0.047 A 
ATOM     11  C   UNL A   1      35.991  22.069  24.578  1.00  0.00     0.056 A 
ATOM     12  C   UNL A   1      38.094  23.110  26.090  1.00  0.00     0.004 A 
ATOM     13  C   UNL A   1      36.862  23.773  26.029  1.00  0.00     0.009 A 
BRANCH   9  14
ATOM     14  O   UNL A   1      37.400  20.131  24.095  1.00  0.00    -0.410 OA
BRANCH  14  15
ATOM     15  C   UNL A   1      37.526  19.040  24.944  1.00  0.00     0.412 C 
ATOM     16  N   UNL A   1      36.365  18.325  25.059  1.00  0.00    -0.321 N 
ATOM     17  H   UNL A   1      36.379  17.555  25.672  1.00  0.00     0.167 HD
ATOM     18  O   UNL A   1      38.534  18.717  25.557  1.00  0.00    -0.224 OA
BRANCH  16  19
ATOM     19  C   UNL A   1      35.116  18.587  24.372  1.00  0.00     0.119 C 
BRANCH  19  20
ATOM     20  C   UNL A   1      33.931  17.908  25.057  1.00  0.00     0.021 C 
BRANCH  20  21
ATOM     21  C   UNL A   1      32.557  18.303  24.504  1.00  0.00     0.002 C 
BRANCH  21  22
ATOM     22  C   UNL A   1      32.553  19.482  23.525  1.00  0.00    -0.000 C 
BRANCH  22  23
ATOM     23  C   UNL A   1      32.267  20.852  24.144  1.00  0.00    -0.003 C 
ATOM     24  C   UNL A   1      32.160  21.967  23.116  1.00  0.00     0.004 C 
ENDBRANCH  22  23
ENDBRANCH  21  22
ENDBRANCH  20  21
ENDBRANCH  19  20
ENDBRANCH  16  19
ENDBRANCH  14  15
ENDBRANCH   9  14
ENDBRANCH   1   8
BRANCH   4  25
ATOM     25  C   UNL A   1      30.604  25.996  24.813  1.00  0.00     0.105 C 
ATOM     26  C   UNL A   1      29.587  25.604  25.886  1.00  0.00     0.023 C 
BRANCH  25  27
ATOM     27  C   UNL A   1      30.648  27.498  24.493  1.00  0.00     0.227 C 
ATOM     28  O   UNL A   1      30.285  27.900  23.380  1.00  0.00    -0.274 OA
ATOM     29  N   UNL A   1      31.066  28.454  25.366  1.00  0.00    -0.356 N 
ATOM     30  H   UNL A   1      30.972  29.372  25.025  1.00  0.00     0.163 HD
BRANCH  29  31
ATOM     31  C   UNL A   1      31.623  28.377  26.703  1.00  0.00     0.117 C 
BRANCH  31  32
ATOM     32  C   UNL A   1      33.097  27.981  26.693  1.00  0.00     0.042 C 
BRANCH  32  33
ATOM     33  C   UNL A   1      34.019  29.053  26.123  1.00  0.00     0.118 C 
BRANCH  33  34
ATOM     34  N   UNL A   1      33.885  30.326  26.821  1.00  0.00    -0.352 N 
ATOM     35  C   UNL A   1      34.635  30.879  27.829  1.00  0.00     0.251 C 
ATOM     36  H   UNL A   1      33.129  30.881  26.520  1.00  0.00     0.163 HD
ATOM     37  O   UNL A   1      34.212  31.868  28.422  1.00  0.00    -0.269 OA
BRANCH  35  38
ATOM     38  C   UNL A   1      35.938  30.295  28.226  1.00  0.00     0.039 A 
ATOM     39  C   UNL A   1      36.993  30.313  27.308  1.00  0.00     0.014 A 
ATOM     40  C   UNL A   1      36.114  29.688  29.472  1.00  0.00     0.014 A 
ATOM     41  C   UNL A   1      38.241  29.791  27.665  1.00  0.00     0.010 A 
ATOM     42  C   UNL A   1      37.375  29.236  29.855  1.00  0.00     0.010 A 
ATOM     43  C   UNL A   1      38.452  29.286  28.958  1.00  0.00    -0.014 A 
BRANCH  43  44
ATOM     44  C   UNL A   1      39.789  28.818  29.401  1.00  0.00     0.031 A 
ATOM     45  C   UNL A   1      40.324  27.492  28.938  1.00  0.00     0.074 A 
ATOM     46  C   UNL A   1      40.488  29.550  30.292  1.00  0.00     0.049 A 
ATOM     47  N   UNL A   1      41.414  26.866  29.303  1.00  0.00    -0.248 NA
ATOM     48  C   UNL A   1      39.515  26.763  27.948  1.00  0.00     0.031 C 
ATOM     49  C   UNL A   1      40.070  30.840  30.843  1.00  0.00     0.029 A 
ATOM     50  N   UNL A   1      41.691  29.301  30.904  1.00  0.00    -0.354 N 
ATOM     51  C   UNL A   1      41.411  25.663  28.608  1.00  0.00     0.074 A 
ATOM     52  C   UNL A   1      40.192  25.630  27.828  1.00  0.00     0.031 C 
ATOM     53  C   UNL A   1      41.008  31.278  31.697  1.00  0.00     0.029 A 
ATOM     54  C   UNL A   1      42.068  30.279  31.791  1.00  0.00     0.049 A 
ATOM     55  H   UNL A   1      42.232  28.498  30.723  1.00  0.00     0.167 HD
ATOM     56  C   UNL A   1      42.343  24.680  28.608  1.00  0.00     0.031 A 
ATOM     57  C   UNL A   1      43.137  30.356  32.605  1.00  0.00     0.031 A 
ATOM     58  C   UNL A   1      43.557  24.715  29.379  1.00  0.00     0.049 A 
ATOM     59  C   UNL A   1      44.140  29.237  32.614  1.00  0.00     0.074 A 
ATOM     60  C   UNL A   1      44.590  23.793  29.404  1.00  0.00     0.029 A 
ATOM     61  N   UNL A   1      43.900  25.724  30.266  1.00  0.00    -0.354 N 
ATOM     62  N   UNL A   1      44.152  28.134  31.907  1.00  0.00    -0.248 NA
ATOM     63  C   UNL A   1      45.278  29.377  33.533  1.00  0.00     0.031 C 
ATOM     64  C   UNL A   1      45.535  24.220  30.343  1.00  0.00     0.029 A 
ATOM     65  C   UNL A   1      45.115  25.433  30.864  1.00  0.00     0.049 A 
ATOM     66  H   UNL A   1      43.359  26.526  30.445  1.00  0.00     0.167 HD
ATOM     67  C   UNL A   1      45.307  27.459  32.278  1.00  0.00     0.074 A 
ATOM     68  C   UNL A   1      45.978  28.284  33.262  1.00  0.00     0.031 C 
ATOM     69  C   UNL A   1      45.769  26.263  31.842  1.00  0.00     0.031 A 
BRANCH  56  70
ATOM     70  C   UNL A   1      42.076  23.475  27.751  1.00  0.00    -0.014 A 
ATOM     71  C   UNL A   1      42.494  23.429  26.411  1.00  0.00     0.009 A 
ATOM     72  C   UNL A   1      41.424  22.359  28.298  1.00  0.00     0.009 A 
ATOM     73  C   UNL A   1      42.229  22.304  25.626  1.00  0.00     0.001 A 
ATOM     74  C   UNL A   1      41.186  21.225  27.518  1.00  0.00     0.001 A 
ATOM     75  C   UNL A   1      41.579  21.202  26.181  1.00  0.00     0.000 A 
ENDBRANCH  56  70
BRANCH  57  76
ATOM     76  C   UNL A   1      43.319  31.544  33.479  1.00  0.00    -0.014 A 
ATOM     77  C   UNL A   1      44.035  32.660  33.017  1.00  0.00     0.009 A 
ATOM     78  C   UNL A   1      42.775  31.574  34.773  1.00  0.00     0.009 A 
ATOM     79  C   UNL A   1      44.221  33.772  33.840  1.00  0.00     0.001 A 
ATOM     80  C   UNL A   1      42.941  32.699  35.584  1.00  0.00     0.001 A 
ATOM     81  C   UNL A   1      43.670  33.793  35.121  1.00  0.00     0.000 A 
ENDBRANCH  57  76
BRANCH  69  82
ATOM     82  C   UNL A   1      47.078  25.786  32.404  1.00  0.00    -0.014 A 
ATOM     83  C   UNL A   1      47.129  25.014  33.574  1.00  0.00     0.009 A 
ATOM     84  C   UNL A   1      48.272  26.075  31.725  1.00  0.00     0.009 A 
ATOM     85  C   UNL A   1      48.354  24.562  34.068  1.00  0.00     0.001 A 
ATOM     86  C   UNL A   1      49.493  25.599  32.206  1.00  0.00     0.001 A 
ATOM     87  C   UNL A   1      49.534  24.850  33.381  1.00  0.00     0.000 A 
ENDBRANCH  69  82
ENDBRANCH  43  44
ENDBRANCH  35  38
ENDBRANCH  33  34
ENDBRANCH  32  33
ENDBRANCH  31  32
ENDBRANCH  29  31
ENDBRANCH  25  27
ENDBRANCH   4  25
TORSDOF 19
ENDMDL
