MODEL 1
REMARK VINA RESULT:     -11.0      0.000      0.000
REMARK SMILES C=CC[C@@H](Cc1ccc(C)cc1)C(=O)NCCCNC(=O)c1ccc(-c2c3nc(c(-c4ccccc4)c4ccc([nH]4)c(-c4ccccc4)c4nc(c(-c5ccccc5)c5ccc2[nH]5)C=C4)C=C3)cc1
REMARK SMILES IDX 17 1 16 2 15 3 13 4 14 5 4 7 3 8 2 9 1 10 5 11 6 12 7 13
REMARK SMILES IDX 12 14 8 15 11 16 9 17 10 18 18 19 19 20 20 21 21 23 22 24
REMARK SMILES IDX 23 25 69 26 24 27 68 28 25 29 26 30 27 31 62 32 28 33 67 34
REMARK SMILES IDX 61 35 63 36 29 37 66 38 60 39 59 40 30 42 52 43 37 44 51 45
REMARK SMILES IDX 38 46 41 47 50 48 64 49 39 50 40 51 49 53 65 54 42 55 31 56
REMARK SMILES IDX 32 57 36 58 33 59 35 60 34 61 53 62 54 63 58 64 55 65 57 66
REMARK SMILES IDX 56 67 43 68 44 69 48 70 45 71 47 72 46 73
REMARK H PARENT 15 6 19 22 63 41 41 52
REMARK Flexibility Score: inf
ROOT
ATOM      1  C   UNL A   1      32.616  30.188  27.339  1.00  0.00     0.042 C 
ENDROOT
BRANCH   1   2
ATOM      2  C   UNL A   1      32.101  29.311  26.204  1.00  0.00     0.117 C 
BRANCH   2   3
ATOM      3  N   UNL A   1      31.642  28.012  26.676  1.00  0.00    -0.356 N 
ATOM      4  C   UNL A   1      31.223  26.895  26.014  1.00  0.00     0.223 C 
ATOM      5  O   UNL A   1      30.872  25.938  26.711  1.00  0.00    -0.275 OA
ATOM      6  H   UNL A   1      31.631  27.923  27.657  1.00  0.00     0.163 HD
BRANCH   4   7
ATOM      7  C   UNL A   1      31.153  26.798  24.488  1.00  0.00     0.086 C 
BRANCH   7   8
ATOM      8  C   UNL A   1      31.912  25.548  24.010  1.00  0.00     0.040 C 
BRANCH   8   9
ATOM      9  C   UNL A   1      32.863  25.772  22.867  1.00  0.00    -0.034 C 
ATOM     10  C   UNL A   1      33.443  26.946  22.593  1.00  0.00     0.004 C 
ENDBRANCH   8   9
ENDBRANCH   7   8
BRANCH   7  11
ATOM     11  C   UNL A   1      29.698  26.887  23.991  1.00  0.00     0.049 C 
BRANCH  11  12
ATOM     12  C   UNL A   1      29.209  28.100  23.230  1.00  0.00    -0.047 A 
ATOM     13  C   UNL A   1      30.184  28.855  22.552  1.00  0.00     0.004 A 
ATOM     14  C   UNL A   1      27.876  28.509  23.137  1.00  0.00     0.004 A 
ATOM     15  C   UNL A   1      29.836  29.963  21.783  1.00  0.00     0.004 A 
ATOM     16  C   UNL A   1      27.525  29.620  22.361  1.00  0.00     0.004 A 
ATOM     17  C   UNL A   1      28.500  30.348  21.671  1.00  0.00    -0.051 A 
ATOM     18  C   UNL A   1      28.134  31.527  20.820  1.00  0.00     0.044 C 
ENDBRANCH  11  12
ENDBRANCH   7  11
ENDBRANCH   4   7
ENDBRANCH   2   3
ENDBRANCH   1   2
BRANCH   1  19
ATOM     19  C   UNL A   1      34.011  30.735  27.086  1.00  0.00     0.118 C 
BRANCH  19  20
ATOM     20  N   UNL A   1      34.519  31.597  28.149  1.00  0.00    -0.352 N 
ATOM     21  C   UNL A   1      35.610  31.373  28.979  1.00  0.00     0.251 C 
ATOM     22  H   UNL A   1      34.029  32.439  28.295  1.00  0.00     0.163 HD
ATOM     23  O   UNL A   1      35.953  32.196  29.808  1.00  0.00    -0.269 OA
BRANCH  21  24
ATOM     24  C   UNL A   1      36.420  30.158  28.737  1.00  0.00     0.039 A 
ATOM     25  C   UNL A   1      36.668  29.324  29.830  1.00  0.00     0.014 A 
ATOM     26  C   UNL A   1      37.161  30.042  27.563  1.00  0.00     0.014 A 
ATOM     27  C   UNL A   1      37.834  28.568  29.843  1.00  0.00     0.010 A 
ATOM     28  C   UNL A   1      38.367  29.370  27.615  1.00  0.00     0.010 A 
ATOM     29  C   UNL A   1      38.738  28.704  28.790  1.00  0.00    -0.014 A 
BRANCH  29  30
ATOM     30  C   UNL A   1      40.145  28.339  28.918  1.00  0.00     0.031 A 
ATOM     31  C   UNL A   1      40.645  27.056  28.389  1.00  0.00     0.074 A 
ATOM     32  C   UNL A   1      41.006  29.190  29.522  1.00  0.00     0.049 A 
ATOM     33  N   UNL A   1      41.726  26.484  28.807  1.00  0.00    -0.248 NA
ATOM     34  C   UNL A   1      39.911  26.255  27.414  1.00  0.00     0.031 C 
ATOM     35  C   UNL A   1      42.465  29.140  29.516  1.00  0.00     0.029 A 
ATOM     36  N   UNL A   1      40.699  30.155  30.482  1.00  0.00    -0.354 N 
ATOM     37  C   UNL A   1      41.986  25.437  27.961  1.00  0.00     0.074 A 
ATOM     38  C   UNL A   1      40.765  25.245  27.218  1.00  0.00     0.031 C 
ATOM     39  C   UNL A   1      42.929  29.830  30.570  1.00  0.00     0.029 A 
ATOM     40  C   UNL A   1      41.784  30.223  31.373  1.00  0.00     0.049 A 
ATOM     41  H   UNL A   1      39.874  30.690  30.527  1.00  0.00     0.167 HD
ATOM     42  C   UNL A   1      43.255  24.952  27.878  1.00  0.00     0.031 A 
ATOM     43  C   UNL A   1      41.631  29.949  32.700  1.00  0.00     0.031 A 
ATOM     44  C   UNL A   1      44.107  25.469  28.948  1.00  0.00     0.049 A 
ATOM     45  C   UNL A   1      42.460  28.782  33.192  1.00  0.00     0.074 A 
ATOM     46  C   UNL A   1      45.133  26.398  28.990  1.00  0.00     0.029 A 
ATOM     47  N   UNL A   1      43.771  25.193  30.269  1.00  0.00    -0.354 N 
ATOM     48  N   UNL A   1      43.055  27.929  32.406  1.00  0.00    -0.248 NA
ATOM     49  C   UNL A   1      42.632  28.445  34.604  1.00  0.00     0.031 C 
ATOM     50  C   UNL A   1      45.352  26.744  30.352  1.00  0.00     0.029 A 
ATOM     51  C   UNL A   1      44.492  25.991  31.133  1.00  0.00     0.049 A 
ATOM     52  H   UNL A   1      43.110  24.520  30.549  1.00  0.00     0.167 HD
ATOM     53  C   UNL A   1      43.642  26.942  33.154  1.00  0.00     0.074 A 
ATOM     54  C   UNL A   1      43.371  27.323  34.528  1.00  0.00     0.031 C 
ATOM     55  C   UNL A   1      44.274  25.883  32.571  1.00  0.00     0.031 A 
BRANCH  42  56
ATOM     56  C   UNL A   1      43.799  24.178  26.696  1.00  0.00    -0.014 A 
ATOM     57  C   UNL A   1      43.499  22.809  26.570  1.00  0.00     0.009 A 
ATOM     58  C   UNL A   1      44.700  24.693  25.746  1.00  0.00     0.009 A 
ATOM     59  C   UNL A   1      44.082  22.006  25.576  1.00  0.00     0.001 A 
ATOM     60  C   UNL A   1      45.266  23.905  24.734  1.00  0.00     0.001 A 
ATOM     61  C   UNL A   1      44.965  22.556  24.657  1.00  0.00     0.000 A 
ENDBRANCH  42  56
BRANCH  43  62
ATOM     62  C   UNL A   1      40.292  30.322  33.236  1.00  0.00    -0.014 A 
ATOM     63  C   UNL A   1      39.982  31.691  33.363  1.00  0.00     0.009 A 
ATOM     64  C   UNL A   1      39.243  29.393  33.267  1.00  0.00     0.009 A 
ATOM     65  C   UNL A   1      38.655  32.126  33.402  1.00  0.00     0.001 A 
ATOM     66  C   UNL A   1      37.914  29.832  33.318  1.00  0.00     0.001 A 
ATOM     67  C   UNL A   1      37.620  31.195  33.350  1.00  0.00     0.000 A 
ENDBRANCH  43  62
BRANCH  55  68
ATOM     68  C   UNL A   1      44.783  24.646  33.272  1.00  0.00    -0.014 A 
ATOM     69  C   UNL A   1      46.098  24.469  33.721  1.00  0.00     0.009 A 
ATOM     70  C   UNL A   1      43.853  23.643  33.630  1.00  0.00     0.009 A 
ATOM     71  C   UNL A   1      46.470  23.333  34.456  1.00  0.00     0.001 A 
ATOM     72  C   UNL A   1      44.209  22.532  34.399  1.00  0.00     0.001 A 
ATOM     73  C   UNL A   1      45.525  22.372  34.804  1.00  0.00     0.000 A 
ENDBRANCH  55  68
ENDBRANCH  29  30
ENDBRANCH  21  24
ENDBRANCH  19  20
ENDBRANCH   1  19
TORSDOF 14
ENDMDL
MODEL 2
REMARK VINA RESULT:     -11.0      1.509      3.178
REMARK SMILES C=CC[C@@H](Cc1ccc(C)cc1)C(=O)NCCCNC(=O)c1ccc(-c2c3nc(c(-c4ccccc4)c4ccc([nH]4)c(-c4ccccc4)c4nc(c(-c5ccccc5)c5ccc2[nH]5)C=C4)C=C3)cc1
REMARK SMILES IDX 17 1 16 2 15 3 13 4 14 5 4 7 3 8 2 9 1 10 5 11 6 12 7 13
REMARK SMILES IDX 12 14 8 15 11 16 9 17 10 18 18 19 19 20 20 21 21 23 22 24
REMARK SMILES IDX 23 25 69 26 24 27 68 28 25 29 26 30 27 31 62 32 28 33 67 34
REMARK SMILES IDX 61 35 63 36 29 37 66 38 60 39 59 40 30 42 52 43 37 44 51 45
REMARK SMILES IDX 38 46 41 47 50 48 64 49 39 50 40 51 49 53 65 54 42 55 31 56
REMARK SMILES IDX 32 57 36 58 33 59 35 60 34 61 53 62 54 63 58 64 55 65 57 66
REMARK SMILES IDX 56 67 43 68 44 69 48 70 45 71 47 72 46 73
REMARK H PARENT 15 6 19 22 63 41 41 52
REMARK Flexibility Score: inf
ROOT
ATOM      1  C   UNL A   1      32.523  30.916  26.877  1.00  0.00     0.042 C 
ENDROOT
BRANCH   1   2
ATOM      2  C   UNL A   1      31.766  29.796  26.174  1.00  0.00     0.117 C 
BRANCH   2   3
ATOM      3  N   UNL A   1      31.902  29.863  24.726  1.00  0.00    -0.356 N 
ATOM      4  C   UNL A   1      32.071  28.896  23.778  1.00  0.00     0.223 C 
ATOM      5  O   UNL A   1      32.174  29.278  22.609  1.00  0.00    -0.275 OA
ATOM      6  H   UNL A   1      31.865  30.777  24.362  1.00  0.00     0.163 HD
BRANCH   4   7
ATOM      7  C   UNL A   1      32.159  27.403  24.107  1.00  0.00     0.086 C 
BRANCH   7   8
ATOM      8  C   UNL A   1      30.963  26.662  23.483  1.00  0.00     0.040 C 
BRANCH   8   9
ATOM      9  C   UNL A   1      30.105  25.897  24.452  1.00  0.00    -0.034 C 
ATOM     10  C   UNL A   1      30.362  25.791  25.761  1.00  0.00     0.004 C 
ENDBRANCH   8   9
ENDBRANCH   7   8
BRANCH   7  11
ATOM     11  C   UNL A   1      33.534  26.828  23.722  1.00  0.00     0.049 C 
BRANCH  11  12
ATOM     12  C   UNL A   1      33.858  25.367  23.945  1.00  0.00    -0.047 A 
ATOM     13  C   UNL A   1      34.166  24.984  25.263  1.00  0.00     0.004 A 
ATOM     14  C   UNL A   1      33.854  24.381  22.955  1.00  0.00     0.004 A 
ATOM     15  C   UNL A   1      34.433  23.656  25.587  1.00  0.00     0.004 A 
ATOM     16  C   UNL A   1      34.117  23.045  23.281  1.00  0.00     0.004 A 
ATOM     17  C   UNL A   1      34.398  22.671  24.599  1.00  0.00    -0.051 A 
ATOM     18  C   UNL A   1      34.662  21.241  24.964  1.00  0.00     0.044 C 
ENDBRANCH  11  12
ENDBRANCH   7  11
ENDBRANCH   4   7
ENDBRANCH   2   3
ENDBRANCH   1   2
BRANCH   1  19
ATOM     19  C   UNL A   1      33.728  30.424  27.661  1.00  0.00     0.118 C 
BRANCH  19  20
ATOM     20  N   UNL A   1      34.445  31.471  28.381  1.00  0.00    -0.352 N 
ATOM     21  C   UNL A   1      35.727  31.417  28.912  1.00  0.00     0.251 C 
ATOM     22  H   UNL A   1      33.961  32.320  28.506  1.00  0.00     0.163 HD
ATOM     23  O   UNL A   1      36.226  32.381  29.463  1.00  0.00    -0.269 OA
BRANCH  21  24
ATOM     24  C   UNL A   1      36.517  30.187  28.674  1.00  0.00     0.039 A 
ATOM     25  C   UNL A   1      36.705  29.326  29.758  1.00  0.00     0.014 A 
ATOM     26  C   UNL A   1      37.299  30.077  27.526  1.00  0.00     0.014 A 
ATOM     27  C   UNL A   1      37.851  28.542  29.798  1.00  0.00     0.010 A 
ATOM     28  C   UNL A   1      38.486  29.376  27.609  1.00  0.00     0.010 A 
ATOM     29  C   UNL A   1      38.797  28.677  28.782  1.00  0.00    -0.014 A 
BRANCH  29  30
ATOM     30  C   UNL A   1      40.190  28.275  28.954  1.00  0.00     0.031 A 
ATOM     31  C   UNL A   1      40.666  26.967  28.468  1.00  0.00     0.074 A 
ATOM     32  C   UNL A   1      41.059  29.116  29.561  1.00  0.00     0.049 A 
ATOM     33  N   UNL A   1      41.718  26.375  28.926  1.00  0.00    -0.248 NA
ATOM     34  C   UNL A   1      39.933  26.164  27.492  1.00  0.00     0.031 C 
ATOM     35  C   UNL A   1      42.516  29.024  29.593  1.00  0.00     0.029 A 
ATOM     36  N   UNL A   1      40.756  30.111  30.491  1.00  0.00    -0.354 N 
ATOM     37  C   UNL A   1      41.970  25.301  28.111  1.00  0.00     0.074 A 
ATOM     38  C   UNL A   1      40.762  25.126  27.341  1.00  0.00     0.031 C 
ATOM     39  C   UNL A   1      42.973  29.726  30.643  1.00  0.00     0.029 A 
ATOM     40  C   UNL A   1      41.820  30.169  31.407  1.00  0.00     0.049 A 
ATOM     41  H   UNL A   1      39.946  30.670  30.503  1.00  0.00     0.167 HD
ATOM     42  C   UNL A   1      43.226  24.778  28.071  1.00  0.00     0.031 A 
ATOM     43  C   UNL A   1      41.626  29.931  32.736  1.00  0.00     0.031 A 
ATOM     44  C   UNL A   1      44.065  25.297  29.151  1.00  0.00     0.049 A 
ATOM     45  C   UNL A   1      42.408  28.753  33.275  1.00  0.00     0.074 A 
ATOM     46  C   UNL A   1      45.116  26.197  29.199  1.00  0.00     0.029 A 
ATOM     47  N   UNL A   1      43.689  25.061  30.468  1.00  0.00    -0.354 N 
ATOM     48  N   UNL A   1      42.998  27.865  32.524  1.00  0.00    -0.248 NA
ATOM     49  C   UNL A   1      42.535  28.445  34.699  1.00  0.00     0.031 C 
ATOM     50  C   UNL A   1      45.311  26.568  30.557  1.00  0.00     0.029 A 
ATOM     51  C   UNL A   1      44.410  25.859  31.332  1.00  0.00     0.049 A 
ATOM     52  H   UNL A   1      43.002  24.414  30.747  1.00  0.00     0.167 HD
ATOM     53  C   UNL A   1      43.537  26.880  33.309  1.00  0.00     0.074 A 
ATOM     54  C   UNL A   1      43.244  27.301  34.667  1.00  0.00     0.031 C 
ATOM     55  C   UNL A   1      44.154  25.790  32.766  1.00  0.00     0.031 A 
BRANCH  42  56
ATOM     56  C   UNL A   1      43.776  23.962  26.922  1.00  0.00    -0.014 A 
ATOM     57  C   UNL A   1      44.368  24.621  25.827  1.00  0.00     0.009 A 
ATOM     58  C   UNL A   1      43.640  22.567  26.791  1.00  0.00     0.009 A 
ATOM     59  C   UNL A   1      44.772  23.932  24.673  1.00  0.00     0.001 A 
ATOM     60  C   UNL A   1      44.065  21.869  25.652  1.00  0.00     0.001 A 
ATOM     61  C   UNL A   1      44.622  22.554  24.587  1.00  0.00     0.000 A 
ENDBRANCH  42  56
BRANCH  43  62
ATOM     62  C   UNL A   1      40.285  30.354  33.228  1.00  0.00    -0.014 A 
ATOM     63  C   UNL A   1      40.016  31.734  33.327  1.00  0.00     0.009 A 
ATOM     64  C   UNL A   1      39.207  29.459  33.244  1.00  0.00     0.009 A 
ATOM     65  C   UNL A   1      38.702  32.210  33.322  1.00  0.00     0.001 A 
ATOM     66  C   UNL A   1      37.892  29.939  33.252  1.00  0.00     0.001 A 
ATOM     67  C   UNL A   1      37.641  31.312  33.255  1.00  0.00     0.000 A 
ENDBRANCH  43  62
BRANCH  55  68
ATOM     68  C   UNL A   1      44.609  24.556  33.508  1.00  0.00    -0.014 A 
ATOM     69  C   UNL A   1      43.794  23.454  33.795  1.00  0.00     0.009 A 
ATOM     70  C   UNL A   1      45.982  24.425  33.823  1.00  0.00     0.009 A 
ATOM     71  C   UNL A   1      44.315  22.299  34.399  1.00  0.00     0.001 A 
ATOM     72  C   UNL A   1      46.513  23.261  34.383  1.00  0.00     0.001 A 
ATOM     73  C   UNL A   1      45.674  22.199  34.681  1.00  0.00     0.000 A 
ENDBRANCH  55  68
ENDBRANCH  29  30
ENDBRANCH  21  24
ENDBRANCH  19  20
ENDBRANCH   1  19
TORSDOF 14
ENDMDL
MODEL 3
REMARK VINA RESULT:     -10.9      3.768      8.741
REMARK SMILES C=CC[C@@H](Cc1ccc(C)cc1)C(=O)NCCCNC(=O)c1ccc(-c2c3nc(c(-c4ccccc4)c4ccc([nH]4)c(-c4ccccc4)c4nc(c(-c5ccccc5)c5ccc2[nH]5)C=C4)C=C3)cc1
REMARK SMILES IDX 17 1 16 2 15 3 13 4 14 5 4 7 3 8 2 9 1 10 5 11 6 12 7 13
REMARK SMILES IDX 12 14 8 15 11 16 9 17 10 18 18 19 19 20 20 21 21 23 22 24
REMARK SMILES IDX 23 25 69 26 24 27 68 28 25 29 26 30 27 31 62 32 28 33 67 34
REMARK SMILES IDX 61 35 63 36 29 37 66 38 60 39 59 40 30 42 52 43 37 44 51 45
REMARK SMILES IDX 38 46 41 47 50 48 64 49 39 50 40 51 49 53 65 54 42 55 31 56
REMARK SMILES IDX 32 57 36 58 33 59 35 60 34 61 53 62 54 63 58 64 55 65 57 66
REMARK SMILES IDX 56 67 43 68 44 69 48 70 45 71 47 72 46 73
REMARK H PARENT 15 6 19 22 63 41 41 52
REMARK Flexibility Score: inf
ROOT
ATOM      1  C   UNL A   1      38.060  21.182  25.091  1.00  0.00     0.042 C 
ENDROOT
BRANCH   1   2
ATOM      2  C   UNL A   1      36.558  21.190  24.834  1.00  0.00     0.117 C 
BRANCH   2   3
ATOM      3  N   UNL A   1      35.787  21.102  26.067  1.00  0.00    -0.356 N 
ATOM      4  C   UNL A   1      34.651  21.733  26.481  1.00  0.00     0.223 C 
ATOM      5  O   UNL A   1      34.243  21.453  27.612  1.00  0.00    -0.275 OA
ATOM      6  H   UNL A   1      36.154  20.467  26.724  1.00  0.00     0.163 HD
BRANCH   4   7
ATOM      7  C   UNL A   1      33.903  22.763  25.630  1.00  0.00     0.086 C 
BRANCH   7   8
ATOM      8  C   UNL A   1      32.979  22.041  24.633  1.00  0.00     0.040 C 
BRANCH   8   9
ATOM      9  C   UNL A   1      33.126  22.466  23.198  1.00  0.00    -0.034 C 
ATOM     10  C   UNL A   1      34.025  23.358  22.768  1.00  0.00     0.004 C 
ENDBRANCH   8   9
ENDBRANCH   7   8
BRANCH   7  11
ATOM     11  C   UNL A   1      33.194  23.806  26.513  1.00  0.00     0.049 C 
BRANCH  11  12
ATOM     12  C   UNL A   1      32.497  25.001  25.900  1.00  0.00    -0.047 A 
ATOM     13  C   UNL A   1      33.319  26.063  25.481  1.00  0.00     0.004 A 
ATOM     14  C   UNL A   1      31.118  25.117  25.705  1.00  0.00     0.004 A 
ATOM     15  C   UNL A   1      32.785  27.191  24.861  1.00  0.00     0.004 A 
ATOM     16  C   UNL A   1      30.581  26.248  25.078  1.00  0.00     0.004 A 
ATOM     17  C   UNL A   1      31.410  27.287  24.642  1.00  0.00    -0.051 A 
ATOM     18  C   UNL A   1      30.849  28.493  23.951  1.00  0.00     0.044 C 
ENDBRANCH  11  12
ENDBRANCH   7  11
ENDBRANCH   4   7
ENDBRANCH   2   3
ENDBRANCH   1   2
BRANCH   1  19
ATOM     19  C   UNL A   1      38.524  22.335  25.963  1.00  0.00     0.118 C 
BRANCH  19  20
ATOM     20  N   UNL A   1      39.960  22.351  26.224  1.00  0.00    -0.352 N 
ATOM     21  C   UNL A   1      40.739  23.421  26.645  1.00  0.00     0.251 C 
ATOM     22  H   UNL A   1      40.436  21.499  26.083  1.00  0.00     0.163 HD
ATOM     23  O   UNL A   1      41.930  23.290  26.863  1.00  0.00    -0.269 OA
BRANCH  21  24
ATOM     24  C   UNL A   1      40.049  24.696  26.946  1.00  0.00     0.039 A 
ATOM     25  C   UNL A   1      40.482  25.835  26.263  1.00  0.00     0.014 A 
ATOM     26  C   UNL A   1      39.249  24.800  28.082  1.00  0.00     0.014 A 
ATOM     27  C   UNL A   1      40.343  27.074  26.876  1.00  0.00     0.010 A 
ATOM     28  C   UNL A   1      39.199  26.015  28.737  1.00  0.00     0.010 A 
ATOM     29  C   UNL A   1      39.822  27.133  28.169  1.00  0.00    -0.014 A 
BRANCH  29  30
ATOM     30  C   UNL A   1      40.057  28.271  29.053  1.00  0.00     0.031 A 
ATOM     31  C   UNL A   1      39.039  29.323  29.219  1.00  0.00     0.074 A 
ATOM     32  C   UNL A   1      41.222  28.357  29.737  1.00  0.00     0.049 A 
ATOM     33  N   UNL A   1      39.308  30.520  29.626  1.00  0.00    -0.248 NA
ATOM     34  C   UNL A   1      37.639  29.146  28.841  1.00  0.00     0.031 C 
ATOM     35  C   UNL A   1      41.540  29.248  30.849  1.00  0.00     0.029 A 
ATOM     36  N   UNL A   1      42.450  27.799  29.381  1.00  0.00    -0.354 N 
ATOM     37  C   UNL A   1      38.112  31.151  29.857  1.00  0.00     0.074 A 
ATOM     38  C   UNL A   1      37.122  30.321  29.216  1.00  0.00     0.031 C 
ATOM     39  C   UNL A   1      42.874  29.375  30.937  1.00  0.00     0.029 A 
ATOM     40  C   UNL A   1      43.454  28.691  29.794  1.00  0.00     0.049 A 
ATOM     41  H   UNL A   1      42.587  26.939  28.923  1.00  0.00     0.167 HD
ATOM     42  C   UNL A   1      38.079  32.222  30.696  1.00  0.00     0.031 A 
ATOM     43  C   UNL A   1      44.313  29.258  28.899  1.00  0.00     0.031 A 
ATOM     44  C   UNL A   1      39.423  32.709  31.009  1.00  0.00     0.049 A 
ATOM     45  C   UNL A   1      44.245  30.769  28.846  1.00  0.00     0.074 A 
ATOM     46  C   UNL A   1      40.225  32.643  32.135  1.00  0.00     0.029 A 
ATOM     47  N   UNL A   1      40.230  33.168  29.975  1.00  0.00    -0.354 N 
ATOM     48  N   UNL A   1      43.287  31.474  29.380  1.00  0.00    -0.248 NA
ATOM     49  C   UNL A   1      45.214  31.602  28.136  1.00  0.00     0.031 C 
ATOM     50  C   UNL A   1      41.550  32.986  31.746  1.00  0.00     0.029 A 
ATOM     51  C   UNL A   1      41.537  33.301  30.399  1.00  0.00     0.049 A 
ATOM     52  H   UNL A   1      39.914  33.371  29.066  1.00  0.00     0.167 HD
ATOM     53  C   UNL A   1      43.465  32.799  29.079  1.00  0.00     0.074 A 
ATOM     54  C   UNL A   1      44.701  32.832  28.319  1.00  0.00     0.031 C 
ATOM     55  C   UNL A   1      42.560  33.747  29.461  1.00  0.00     0.031 A 
BRANCH  42  56
ATOM     56  C   UNL A   1      36.841  32.703  31.420  1.00  0.00    -0.014 A 
ATOM     57  C   UNL A   1      35.926  33.535  30.748  1.00  0.00     0.009 A 
ATOM     58  C   UNL A   1      36.572  32.482  32.784  1.00  0.00     0.009 A 
ATOM     59  C   UNL A   1      34.833  34.124  31.403  1.00  0.00     0.001 A 
ATOM     60  C   UNL A   1      35.468  33.045  33.439  1.00  0.00     0.001 A 
ATOM     61  C   UNL A   1      34.603  33.876  32.750  1.00  0.00     0.000 A 
ENDBRANCH  42  56
BRANCH  43  62
ATOM     62  C   UNL A   1      44.623  28.383  27.734  1.00  0.00    -0.014 A 
ATOM     63  C   UNL A   1      45.390  27.222  27.957  1.00  0.00     0.009 A 
ATOM     64  C   UNL A   1      43.894  28.485  26.541  1.00  0.00     0.009 A 
ATOM     65  C   UNL A   1      45.335  26.144  27.069  1.00  0.00     0.001 A 
ATOM     66  C   UNL A   1      43.852  27.408  25.647  1.00  0.00     0.001 A 
ATOM     67  C   UNL A   1      44.542  26.228  25.928  1.00  0.00     0.000 A 
ENDBRANCH  43  62
BRANCH  55  68
ATOM     68  C   UNL A   1      42.542  35.193  29.028  1.00  0.00    -0.014 A 
ATOM     69  C   UNL A   1      43.266  36.220  29.648  1.00  0.00     0.009 A 
ATOM     70  C   UNL A   1      41.861  35.533  27.836  1.00  0.00     0.009 A 
ATOM     71  C   UNL A   1      43.278  37.522  29.125  1.00  0.00     0.001 A 
ATOM     72  C   UNL A   1      41.906  36.817  27.287  1.00  0.00     0.001 A 
ATOM     73  C   UNL A   1      42.608  37.817  27.941  1.00  0.00     0.000 A 
ENDBRANCH  55  68
ENDBRANCH  29  30
ENDBRANCH  21  24
ENDBRANCH  19  20
ENDBRANCH   1  19
TORSDOF 14
ENDMDL
