MODEL 1
REMARK VINA RESULT:     -11.3      0.000      0.000
REMARK SMILES Cc1cc(Cl)ccc1Oc1cc(C)c(N)c(C(=O)NCCCNC(=O)c2ccc(-c3c4nc(c(-c5ccccc5)c5ccc([nH]5)c(-c5ccccc5)c5nc(c(-c6ccccc6)c6ccc3[nH]6)C=C5)C=C4)cc2)c1
REMARK SMILES IDX 21 1 20 2 19 3 17 4 18 5 16 7 10 8 11 9 74 10 12 11 13 12
REMARK SMILES IDX 14 13 9 14 8 15 1 16 2 17 3 18 4 19 7 20 5 21 6 22 15 23
REMARK SMILES IDX 22 26 23 27 24 28 25 30 26 31 27 32 73 33 28 34 72 35 29 36
REMARK SMILES IDX 30 37 31 38 66 39 32 40 71 41 65 42 67 43 33 44 70 45 64 46
REMARK SMILES IDX 63 47 34 49 56 50 41 51 55 52 42 53 45 54 54 55 68 56 43 57
REMARK SMILES IDX 44 58 53 60 69 61 46 62 35 63 36 64 40 65 37 66 39 67 38 68
REMARK SMILES IDX 57 69 58 70 62 71 59 72 61 73 60 74 47 75 48 76 52 77 49 78
REMARK SMILES IDX 51 79 50 80
REMARK H PARENT 19 6 15 24 15 25 23 29 67 48 45 59
REMARK Flexibility Score: inf
ROOT
ATOM      1  C   UNL A   1      37.146  19.836  24.954  1.00  0.00     0.042 C 
ENDROOT
BRANCH   1   2
ATOM      2  C   UNL A   1      35.964  20.802  24.838  1.00  0.00     0.118 C 
BRANCH   2   3
ATOM      3  N   UNL A   1      35.163  20.785  26.048  1.00  0.00    -0.352 N 
ATOM      4  C   UNL A   1      34.184  21.603  26.557  1.00  0.00     0.253 C 
ATOM      5  O   UNL A   1      33.720  21.264  27.649  1.00  0.00    -0.269 OA
ATOM      6  H   UNL A   1      35.366  20.020  26.633  1.00  0.00     0.163 HD
BRANCH   4   7
ATOM      7  C   UNL A   1      33.649  22.823  25.863  1.00  0.00     0.066 A 
ATOM      8  C   UNL A   1      33.738  25.191  25.358  1.00  0.00     0.128 A 
ATOM      9  C   UNL A   1      32.681  25.071  24.467  1.00  0.00     0.052 A 
ATOM     10  C   UNL A   1      34.220  24.084  26.051  1.00  0.00     0.063 A 
ATOM     11  C   UNL A   1      32.015  23.846  24.340  1.00  0.00    -0.024 A 
ATOM     12  C   UNL A   1      30.767  23.789  23.499  1.00  0.00     0.047 C 
ATOM     13  C   UNL A   1      32.491  22.709  25.039  1.00  0.00     0.048 A 
BRANCH   8  14
ATOM     14  O   UNL A   1      34.410  26.372  25.489  1.00  0.00    -0.457 OA
BRANCH  14  15
ATOM     15  C   UNL A   1      33.745  27.578  25.548  1.00  0.00     0.130 A 
ATOM     16  C   UNL A   1      33.904  28.408  23.099  1.00  0.00     0.048 C 
ATOM     17  C   UNL A   1      33.484  28.521  24.537  1.00  0.00    -0.007 A 
ATOM     18  C   UNL A   1      32.788  29.700  24.889  1.00  0.00     0.027 A 
ATOM     19  C   UNL A   1      32.335  29.922  26.187  1.00  0.00     0.041 A 
ATOM     20  C   UNL A   1      33.273  27.820  26.855  1.00  0.00     0.049 A 
ATOM     21  Cl  UNL A   1      31.481  31.366  26.563  1.00  0.00    -0.084 Cl
ATOM     22  C   UNL A   1      32.568  28.979  27.176  1.00  0.00     0.024 A 
ENDBRANCH  14  15
ENDBRANCH   8  14
BRANCH  13  23
ATOM     23  N   UNL A   1      31.872  21.476  24.835  1.00  0.00    -0.398 N 
ATOM     24  H   UNL A   1      31.047  21.252  25.323  1.00  0.00     0.156 HD
ATOM     25  H   UNL A   1      32.258  20.830  24.201  1.00  0.00     0.156 HD
ENDBRANCH  13  23
ENDBRANCH   4   7
ENDBRANCH   2   3
ENDBRANCH   1   2
BRANCH   1  26
ATOM     26  C   UNL A   1      38.449  20.518  25.374  1.00  0.00     0.118 C 
BRANCH  26  27
ATOM     27  N   UNL A   1      39.521  19.557  25.587  1.00  0.00    -0.352 N 
ATOM     28  C   UNL A   1      40.818  19.749  25.986  1.00  0.00     0.251 C 
ATOM     29  H   UNL A   1      39.275  18.619  25.418  1.00  0.00     0.163 HD
ATOM     30  O   UNL A   1      41.622  18.828  25.882  1.00  0.00    -0.269 OA
BRANCH  28  31
ATOM     31  C   UNL A   1      41.264  21.048  26.539  1.00  0.00     0.039 A 
ATOM     32  C   UNL A   1      41.122  21.271  27.914  1.00  0.00     0.014 A 
ATOM     33  C   UNL A   1      41.740  22.069  25.713  1.00  0.00     0.014 A 
ATOM     34  C   UNL A   1      41.487  22.502  28.462  1.00  0.00     0.010 A 
ATOM     35  C   UNL A   1      42.163  23.275  26.270  1.00  0.00     0.010 A 
ATOM     36  C   UNL A   1      42.028  23.509  27.647  1.00  0.00    -0.014 A 
BRANCH  36  37
ATOM     37  C   UNL A   1      42.435  24.817  28.218  1.00  0.00     0.031 A 
ATOM     38  C   UNL A   1      41.417  25.907  28.424  1.00  0.00     0.074 A 
ATOM     39  C   UNL A   1      43.730  25.043  28.508  1.00  0.00     0.049 A 
ATOM     40  N   UNL A   1      41.590  27.126  28.868  1.00  0.00    -0.248 NA
ATOM     41  C   UNL A   1      40.026  25.591  28.060  1.00  0.00     0.031 C 
ATOM     42  C   UNL A   1      44.820  24.082  28.325  1.00  0.00     0.029 A 
ATOM     43  N   UNL A   1      44.350  26.156  29.017  1.00  0.00    -0.354 N 
ATOM     44  C   UNL A   1      40.339  27.728  28.818  1.00  0.00     0.074 A 
ATOM     45  C   UNL A   1      39.424  26.754  28.261  1.00  0.00     0.031 C 
ATOM     46  C   UNL A   1      45.969  24.639  28.739  1.00  0.00     0.029 A 
ATOM     47  C   UNL A   1      45.705  26.004  29.184  1.00  0.00     0.049 A 
ATOM     48  H   UNL A   1      43.869  26.986  29.242  1.00  0.00     0.167 HD
ATOM     49  C   UNL A   1      39.978  28.972  29.215  1.00  0.00     0.031 A 
ATOM     50  C   UNL A   1      46.631  26.866  29.642  1.00  0.00     0.031 A 
ATOM     51  C   UNL A   1      40.883  29.935  29.783  1.00  0.00     0.049 A 
ATOM     52  C   UNL A   1      46.205  28.240  30.078  1.00  0.00     0.074 A 
ATOM     53  C   UNL A   1      40.604  31.202  30.264  1.00  0.00     0.029 A 
ATOM     54  N   UNL A   1      42.245  29.736  29.946  1.00  0.00    -0.354 N 
ATOM     55  N   UNL A   1      45.007  28.772  30.080  1.00  0.00    -0.248 NA
ATOM     56  C   UNL A   1      47.261  29.125  30.590  1.00  0.00     0.031 C 
ATOM     57  C   UNL A   1      41.805  31.785  30.681  1.00  0.00     0.029 A 
ATOM     58  C   UNL A   1      42.824  30.863  30.505  1.00  0.00     0.049 A 
ATOM     59  H   UNL A   1      42.729  28.915  29.701  1.00  0.00     0.167 HD
ATOM     60  C   UNL A   1      45.160  30.043  30.616  1.00  0.00     0.074 A 
ATOM     61  C   UNL A   1      46.563  30.196  30.942  1.00  0.00     0.031 C 
ATOM     62  C   UNL A   1      44.221  30.999  30.822  1.00  0.00     0.031 A 
BRANCH  49  63
ATOM     63  C   UNL A   1      38.536  29.362  29.038  1.00  0.00    -0.014 A 
ATOM     64  C   UNL A   1      37.628  29.293  30.107  1.00  0.00     0.009 A 
ATOM     65  C   UNL A   1      38.085  29.828  27.794  1.00  0.00     0.009 A 
ATOM     66  C   UNL A   1      36.289  29.646  29.921  1.00  0.00     0.001 A 
ATOM     67  C   UNL A   1      36.752  30.206  27.619  1.00  0.00     0.001 A 
ATOM     68  C   UNL A   1      35.854  30.105  28.679  1.00  0.00     0.000 A 
ENDBRANCH  49  63
BRANCH  50  69
ATOM     69  C   UNL A   1      48.053  26.446  29.736  1.00  0.00    -0.014 A 
ATOM     70  C   UNL A   1      48.932  26.679  28.667  1.00  0.00     0.009 A 
ATOM     71  C   UNL A   1      48.538  25.816  30.891  1.00  0.00     0.009 A 
ATOM     72  C   UNL A   1      50.264  26.265  28.746  1.00  0.00     0.001 A 
ATOM     73  C   UNL A   1      49.876  25.427  30.976  1.00  0.00     0.001 A 
ATOM     74  C   UNL A   1      50.736  25.644  29.900  1.00  0.00     0.000 A 
ENDBRANCH  50  69
BRANCH  62  75
ATOM     75  C   UNL A   1      44.677  32.278  31.462  1.00  0.00    -0.014 A 
ATOM     76  C   UNL A   1      44.699  32.429  32.857  1.00  0.00     0.009 A 
ATOM     77  C   UNL A   1      45.125  33.336  30.655  1.00  0.00     0.009 A 
ATOM     78  C   UNL A   1      45.126  33.629  33.430  1.00  0.00     0.001 A 
ATOM     79  C   UNL A   1      45.578  34.523  31.232  1.00  0.00     0.001 A 
ATOM     80  C   UNL A   1      45.569  34.672  32.617  1.00  0.00     0.000 A 
ENDBRANCH  62  75
ENDBRANCH  36  37
ENDBRANCH  28  31
ENDBRANCH  26  27
ENDBRANCH   1  26
TORSDOF 13
ENDMDL
MODEL 2
REMARK VINA RESULT:     -11.2      1.276      1.863
REMARK SMILES Cc1cc(Cl)ccc1Oc1cc(C)c(N)c(C(=O)NCCCNC(=O)c2ccc(-c3c4nc(c(-c5ccccc5)c5ccc([nH]5)c(-c5ccccc5)c5nc(c(-c6ccccc6)c6ccc3[nH]6)C=C5)C=C4)cc2)c1
REMARK SMILES IDX 21 1 20 2 19 3 17 4 18 5 16 7 10 8 11 9 74 10 12 11 13 12
REMARK SMILES IDX 14 13 9 14 8 15 1 16 2 17 3 18 4 19 7 20 5 21 6 22 15 23
REMARK SMILES IDX 22 26 23 27 24 28 25 30 26 31 27 32 73 33 28 34 72 35 29 36
REMARK SMILES IDX 30 37 31 38 66 39 32 40 71 41 65 42 67 43 33 44 70 45 64 46
REMARK SMILES IDX 63 47 34 49 56 50 41 51 55 52 42 53 45 54 54 55 68 56 43 57
REMARK SMILES IDX 44 58 53 60 69 61 46 62 35 63 36 64 40 65 37 66 39 67 38 68
REMARK SMILES IDX 57 69 58 70 62 71 59 72 61 73 60 74 47 75 48 76 52 77 49 78
REMARK SMILES IDX 51 79 50 80
REMARK H PARENT 19 6 15 24 15 25 23 29 67 48 45 59
REMARK Flexibility Score: inf
ROOT
ATOM      1  C   UNL A   1      37.962  19.952  24.810  1.00  0.00     0.042 C 
ENDROOT
BRANCH   1   2
ATOM      2  C   UNL A   1      37.025  21.143  24.598  1.00  0.00     0.118 C 
BRANCH   2   3
ATOM      3  N   UNL A   1      37.483  22.300  25.345  1.00  0.00    -0.352 N 
ATOM      4  C   UNL A   1      36.880  23.452  25.789  1.00  0.00     0.253 C 
ATOM      5  O   UNL A   1      37.609  24.233  26.407  1.00  0.00    -0.269 OA
ATOM      6  H   UNL A   1      38.436  22.250  25.587  1.00  0.00     0.163 HD
BRANCH   4   7
ATOM      7  C   UNL A   1      35.427  23.779  25.596  1.00  0.00     0.066 A 
ATOM      8  C   UNL A   1      33.643  24.910  24.408  1.00  0.00     0.128 A 
ATOM      9  C   UNL A   1      32.684  24.291  25.199  1.00  0.00     0.052 A 
ATOM     10  C   UNL A   1      34.999  24.662  24.601  1.00  0.00     0.063 A 
ATOM     11  C   UNL A   1      33.084  23.491  26.276  1.00  0.00    -0.024 A 
ATOM     12  C   UNL A   1      32.028  22.974  27.218  1.00  0.00     0.047 C 
ATOM     13  C   UNL A   1      34.460  23.228  26.487  1.00  0.00     0.048 A 
BRANCH   8  14
ATOM     14  O   UNL A   1      33.278  25.685  23.346  1.00  0.00    -0.457 OA
BRANCH  14  15
ATOM     15  C   UNL A   1      32.476  26.795  23.504  1.00  0.00     0.130 A 
ATOM     16  C   UNL A   1      33.756  28.138  25.314  1.00  0.00     0.048 C 
ATOM     17  C   UNL A   1      32.628  27.911  24.348  1.00  0.00    -0.007 A 
ATOM     18  C   UNL A   1      31.627  28.909  24.319  1.00  0.00     0.027 A 
ATOM     19  C   UNL A   1      30.533  28.824  23.460  1.00  0.00     0.041 A 
ATOM     20  C   UNL A   1      31.364  26.731  22.639  1.00  0.00     0.049 A 
ATOM     21  Cl  UNL A   1      29.349  30.070  23.453  1.00  0.00    -0.084 Cl
ATOM     22  C   UNL A   1      30.400  27.738  22.610  1.00  0.00     0.024 A 
ENDBRANCH  14  15
ENDBRANCH   8  14
BRANCH  13  23
ATOM     23  N   UNL A   1      34.837  22.358  27.510  1.00  0.00    -0.398 N 
ATOM     24  H   UNL A   1      35.440  22.669  28.224  1.00  0.00     0.156 HD
ATOM     25  H   UNL A   1      34.500  21.433  27.519  1.00  0.00     0.156 HD
ENDBRANCH  13  23
ENDBRANCH   4   7
ENDBRANCH   2   3
ENDBRANCH   1   2
BRANCH   1  26
ATOM     26  C   UNL A   1      38.892  20.116  26.013  1.00  0.00     0.118 C 
BRANCH  26  27
ATOM     27  N   UNL A   1      40.093  19.304  25.886  1.00  0.00    -0.352 N 
ATOM     28  C   UNL A   1      41.415  19.656  25.977  1.00  0.00     0.251 C 
ATOM     29  H   UNL A   1      39.930  18.350  25.708  1.00  0.00     0.163 HD
ATOM     30  O   UNL A   1      42.275  18.861  25.610  1.00  0.00    -0.269 OA
BRANCH  28  31
ATOM     31  C   UNL A   1      41.821  20.977  26.508  1.00  0.00     0.039 A 
ATOM     32  C   UNL A   1      41.789  21.177  27.893  1.00  0.00     0.014 A 
ATOM     33  C   UNL A   1      42.150  22.036  25.658  1.00  0.00     0.014 A 
ATOM     34  C   UNL A   1      42.119  22.425  28.425  1.00  0.00     0.010 A 
ATOM     35  C   UNL A   1      42.540  23.263  26.193  1.00  0.00     0.010 A 
ATOM     36  C   UNL A   1      42.515  23.474  27.581  1.00  0.00    -0.014 A 
BRANCH  36  37
ATOM     37  C   UNL A   1      42.883  24.802  28.133  1.00  0.00     0.031 A 
ATOM     38  C   UNL A   1      41.827  25.849  28.362  1.00  0.00     0.074 A 
ATOM     39  C   UNL A   1      44.176  25.083  28.384  1.00  0.00     0.049 A 
ATOM     40  N   UNL A   1      41.961  27.077  28.795  1.00  0.00    -0.248 NA
ATOM     41  C   UNL A   1      40.440  25.474  28.040  1.00  0.00     0.031 C 
ATOM     42  C   UNL A   1      45.299  24.167  28.175  1.00  0.00     0.029 A 
ATOM     43  N   UNL A   1      44.762  26.224  28.869  1.00  0.00    -0.354 N 
ATOM     44  C   UNL A   1      40.686  27.627  28.777  1.00  0.00     0.074 A 
ATOM     45  C   UNL A   1      39.797  26.612  28.252  1.00  0.00     0.031 C 
ATOM     46  C   UNL A   1      46.435  24.773  28.553  1.00  0.00     0.029 A 
ATOM     47  C   UNL A   1      46.127  26.129  28.999  1.00  0.00     0.049 A 
ATOM     48  H   UNL A   1      44.254  27.034  29.104  1.00  0.00     0.167 HD
ATOM     49  C   UNL A   1      40.284  28.857  29.178  1.00  0.00     0.031 A 
ATOM     50  C   UNL A   1      47.029  27.032  29.426  1.00  0.00     0.031 A 
ATOM     51  C   UNL A   1      41.164  29.861  29.715  1.00  0.00     0.049 A 
ATOM     52  C   UNL A   1      46.559  28.389  29.866  1.00  0.00     0.074 A 
ATOM     53  C   UNL A   1      40.847  31.118  30.197  1.00  0.00     0.029 A 
ATOM     54  N   UNL A   1      42.537  29.719  29.839  1.00  0.00    -0.354 N 
ATOM     55  N   UNL A   1      45.340  28.871  29.899  1.00  0.00    -0.248 NA
ATOM     56  C   UNL A   1      47.591  29.321  30.344  1.00  0.00     0.031 C 
ATOM     57  C   UNL A   1      42.034  31.753  30.577  1.00  0.00     0.029 A 
ATOM     58  C   UNL A   1      43.084  30.872  30.376  1.00  0.00     0.049 A 
ATOM     59  H   UNL A   1      43.048  28.917  29.585  1.00  0.00     0.167 HD
ATOM     60  C   UNL A   1      45.455  30.151  30.424  1.00  0.00     0.074 A 
ATOM     61  C   UNL A   1      46.859  30.364  30.710  1.00  0.00     0.031 C 
ATOM     62  C   UNL A   1      44.483  31.069  30.653  1.00  0.00     0.031 A 
BRANCH  49  63
ATOM     63  C   UNL A   1      38.824  29.186  29.040  1.00  0.00    -0.014 A 
ATOM     64  C   UNL A   1      37.940  29.040  30.122  1.00  0.00     0.009 A 
ATOM     65  C   UNL A   1      38.327  29.671  27.820  1.00  0.00     0.009 A 
ATOM     66  C   UNL A   1      36.583  29.337  29.973  1.00  0.00     0.001 A 
ATOM     67  C   UNL A   1      36.975  29.993  27.683  1.00  0.00     0.001 A 
ATOM     68  C   UNL A   1      36.103  29.816  28.755  1.00  0.00     0.000 A 
ENDBRANCH  49  63
BRANCH  50  69
ATOM     69  C   UNL A   1      48.469  26.672  29.481  1.00  0.00    -0.014 A 
ATOM     70  C   UNL A   1      49.000  26.051  30.622  1.00  0.00     0.009 A 
ATOM     71  C   UNL A   1      49.316  26.943  28.397  1.00  0.00     0.009 A 
ATOM     72  C   UNL A   1      50.359  25.732  30.684  1.00  0.00     0.001 A 
ATOM     73  C   UNL A   1      50.669  26.598  28.452  1.00  0.00     0.001 A 
ATOM     74  C   UNL A   1      51.190  26.001  29.599  1.00  0.00     0.000 A 
ENDBRANCH  50  69
BRANCH  62  75
ATOM     75  C   UNL A   1      44.904  32.370  31.272  1.00  0.00    -0.014 A 
ATOM     76  C   UNL A   1      45.258  33.473  30.481  1.00  0.00     0.009 A 
ATOM     77  C   UNL A   1      44.912  32.502  32.669  1.00  0.00     0.009 A 
ATOM     78  C   UNL A   1      45.648  34.674  31.079  1.00  0.00     0.001 A 
ATOM     79  C   UNL A   1      45.275  33.712  33.263  1.00  0.00     0.001 A 
ATOM     80  C   UNL A   1      45.652  34.792  32.468  1.00  0.00     0.000 A 
ENDBRANCH  62  75
ENDBRANCH  36  37
ENDBRANCH  28  31
ENDBRANCH  26  27
ENDBRANCH   1  26
TORSDOF 13
ENDMDL
MODEL 3
REMARK VINA RESULT:     -11.2      3.781      8.811
REMARK SMILES Cc1cc(Cl)ccc1Oc1cc(C)c(N)c(C(=O)NCCCNC(=O)c2ccc(-c3c4nc(c(-c5ccccc5)c5ccc([nH]5)c(-c5ccccc5)c5nc(c(-c6ccccc6)c6ccc3[nH]6)C=C5)C=C4)cc2)c1
REMARK SMILES IDX 21 1 20 2 19 3 17 4 18 5 16 7 10 8 11 9 74 10 12 11 13 12
REMARK SMILES IDX 14 13 9 14 8 15 1 16 2 17 3 18 4 19 7 20 5 21 6 22 15 23
REMARK SMILES IDX 22 26 23 27 24 28 25 30 26 31 27 32 73 33 28 34 72 35 29 36
REMARK SMILES IDX 30 37 31 38 66 39 32 40 71 41 65 42 67 43 33 44 70 45 64 46
REMARK SMILES IDX 63 47 34 49 56 50 41 51 55 52 42 53 45 54 54 55 68 56 43 57
REMARK SMILES IDX 44 58 53 60 69 61 46 62 35 63 36 64 40 65 37 66 39 67 38 68
REMARK SMILES IDX 57 69 58 70 62 71 59 72 61 73 60 74 47 75 48 76 52 77 49 78
REMARK SMILES IDX 51 79 50 80
REMARK H PARENT 19 6 15 24 15 25 23 29 67 48 45 59
REMARK Flexibility Score: inf
ROOT
ATOM      1  C   UNL A   1      31.535  31.825  26.727  1.00  0.00     0.042 C 
ENDROOT
BRANCH   1   2
ATOM      2  C   UNL A   1      31.798  30.329  26.539  1.00  0.00     0.118 C 
BRANCH   2   3
ATOM      3  N   UNL A   1      33.162  29.994  26.906  1.00  0.00    -0.352 N 
ATOM      4  C   UNL A   1      33.994  28.936  26.630  1.00  0.00     0.253 C 
ATOM      5  O   UNL A   1      35.119  28.996  27.135  1.00  0.00    -0.269 OA
ATOM      6  H   UNL A   1      33.584  30.674  27.480  1.00  0.00     0.163 HD
BRANCH   4   7
ATOM      7  C   UNL A   1      33.628  27.773  25.753  1.00  0.00     0.066 A 
ATOM      8  C   UNL A   1      32.894  25.483  25.456  1.00  0.00     0.128 A 
ATOM      9  C   UNL A   1      32.852  25.644  24.078  1.00  0.00     0.052 A 
ATOM     10  C   UNL A   1      33.279  26.531  26.288  1.00  0.00     0.063 A 
ATOM     11  C   UNL A   1      33.304  26.839  23.504  1.00  0.00    -0.024 A 
ATOM     12  C   UNL A   1      33.408  26.921  22.004  1.00  0.00     0.047 C 
ATOM     13  C   UNL A   1      33.699  27.915  24.336  1.00  0.00     0.048 A 
BRANCH   8  14
ATOM     14  O   UNL A   1      32.449  24.332  26.039  1.00  0.00    -0.457 OA
BRANCH  14  15
ATOM     15  C   UNL A   1      32.977  23.103  25.707  1.00  0.00     0.130 A 
ATOM     16  C   UNL A   1      35.509  23.469  26.122  1.00  0.00     0.048 C 
ATOM     17  C   UNL A   1      34.311  22.654  25.724  1.00  0.00    -0.007 A 
ATOM     18  C   UNL A   1      34.573  21.329  25.307  1.00  0.00     0.027 A 
ATOM     19  C   UNL A   1      33.549  20.468  24.921  1.00  0.00     0.041 A 
ATOM     20  C   UNL A   1      31.955  22.213  25.319  1.00  0.00     0.049 A 
ATOM     21  Cl  UNL A   1      33.917  18.860  24.434  1.00  0.00    -0.084 Cl
ATOM     22  C   UNL A   1      32.233  20.902  24.933  1.00  0.00     0.024 A 
ENDBRANCH  14  15
ENDBRANCH   8  14
BRANCH  13  23
ATOM     23  N   UNL A   1      34.062  29.129  23.751  1.00  0.00    -0.398 N 
ATOM     24  H   UNL A   1      35.005  29.412  23.749  1.00  0.00     0.156 HD
ATOM     25  H   UNL A   1      33.376  29.702  23.339  1.00  0.00     0.156 HD
ENDBRANCH  13  23
ENDBRANCH   4   7
ENDBRANCH   2   3
ENDBRANCH   1   2
BRANCH   1  26
ATOM     26  C   UNL A   1      32.809  32.646  26.926  1.00  0.00     0.118 C 
BRANCH  26  27
ATOM     27  N   UNL A   1      32.557  33.869  27.673  1.00  0.00    -0.352 N 
ATOM     28  C   UNL A   1      33.184  34.378  28.780  1.00  0.00     0.251 C 
ATOM     29  H   UNL A   1      31.818  34.419  27.327  1.00  0.00     0.163 HD
ATOM     30  O   UNL A   1      32.667  35.309  29.389  1.00  0.00    -0.269 OA
BRANCH  28  31
ATOM     31  C   UNL A   1      34.473  33.824  29.252  1.00  0.00     0.039 A 
ATOM     32  C   UNL A   1      35.646  34.207  28.591  1.00  0.00     0.014 A 
ATOM     33  C   UNL A   1      34.529  32.875  30.276  1.00  0.00     0.014 A 
ATOM     34  C   UNL A   1      36.873  33.666  28.979  1.00  0.00     0.010 A 
ATOM     35  C   UNL A   1      35.761  32.383  30.704  1.00  0.00     0.010 A 
ATOM     36  C   UNL A   1      36.944  32.763  30.050  1.00  0.00    -0.014 A 
BRANCH  36  37
ATOM     37  C   UNL A   1      38.243  32.191  30.484  1.00  0.00     0.031 A 
ATOM     38  C   UNL A   1      38.735  30.894  29.900  1.00  0.00     0.074 A 
ATOM     39  C   UNL A   1      38.961  32.816  31.437  1.00  0.00     0.049 A 
ATOM     40  N   UNL A   1      39.820  30.219  30.185  1.00  0.00    -0.248 NA
ATOM     41  C   UNL A   1      37.883  30.260  28.881  1.00  0.00     0.031 C 
ATOM     42  C   UNL A   1      38.580  34.061  32.106  1.00  0.00     0.029 A 
ATOM     43  N   UNL A   1      40.161  32.483  32.012  1.00  0.00    -0.354 N 
ATOM     44  C   UNL A   1      39.772  29.075  29.399  1.00  0.00     0.074 A 
ATOM     45  C   UNL A   1      38.530  29.126  28.656  1.00  0.00     0.031 C 
ATOM     46  C   UNL A   1      39.539  34.401  32.980  1.00  0.00     0.029 A 
ATOM     47  C   UNL A   1      40.585  33.382  32.960  1.00  0.00     0.049 A 
ATOM     48  H   UNL A   1      40.671  31.677  31.768  1.00  0.00     0.167 HD
ATOM     49  C   UNL A   1      40.684  28.080  29.289  1.00  0.00     0.031 A 
ATOM     50  C   UNL A   1      41.690  33.386  33.728  1.00  0.00     0.031 A 
ATOM     51  C   UNL A   1      41.926  28.035  30.014  1.00  0.00     0.049 A 
ATOM     52  C   UNL A   1      42.688  32.272  33.586  1.00  0.00     0.074 A 
ATOM     53  C   UNL A   1      42.940  27.097  29.933  1.00  0.00     0.029 A 
ATOM     54  N   UNL A   1      42.321  28.972  30.955  1.00  0.00    -0.354 N 
ATOM     55  N   UNL A   1      42.654  31.228  32.794  1.00  0.00    -0.248 NA
ATOM     56  C   UNL A   1      43.884  32.347  34.437  1.00  0.00     0.031 C 
ATOM     57  C   UNL A   1      43.931  27.445  30.856  1.00  0.00     0.029 A 
ATOM     58  C   UNL A   1      43.557  28.627  31.476  1.00  0.00     0.049 A 
ATOM     59  H   UNL A   1      41.802  29.767  31.215  1.00  0.00     0.167 HD
ATOM     60  C   UNL A   1      43.835  30.537  33.031  1.00  0.00     0.074 A 
ATOM     61  C   UNL A   1      44.569  31.287  34.029  1.00  0.00     0.031 C 
ATOM     62  C   UNL A   1      44.273  29.383  32.469  1.00  0.00     0.031 A 
BRANCH  49  63
ATOM     63  C   UNL A   1      40.363  26.950  28.350  1.00  0.00    -0.014 A 
ATOM     64  C   UNL A   1      39.554  25.875  28.753  1.00  0.00     0.009 A 
ATOM     65  C   UNL A   1      40.857  26.971  27.036  1.00  0.00     0.009 A 
ATOM     66  C   UNL A   1      39.278  24.828  27.872  1.00  0.00     0.001 A 
ATOM     67  C   UNL A   1      40.556  25.935  26.149  1.00  0.00     0.001 A 
ATOM     68  C   UNL A   1      39.776  24.860  26.570  1.00  0.00     0.000 A 
ENDBRANCH  49  63
BRANCH  50  69
ATOM     69  C   UNL A   1      41.924  34.498  34.685  1.00  0.00    -0.014 A 
ATOM     70  C   UNL A   1      41.445  34.412  36.001  1.00  0.00     0.009 A 
ATOM     71  C   UNL A   1      42.627  35.646  34.290  1.00  0.00     0.009 A 
ATOM     72  C   UNL A   1      41.646  35.466  36.896  1.00  0.00     0.001 A 
ATOM     73  C   UNL A   1      42.848  36.686  35.195  1.00  0.00     0.001 A 
ATOM     74  C   UNL A   1      42.350  36.600  36.494  1.00  0.00     0.000 A 
ENDBRANCH  50  69
BRANCH  62  75
ATOM     75  C   UNL A   1      45.623  28.885  32.897  1.00  0.00    -0.014 A 
ATOM     76  C   UNL A   1      46.794  29.299  32.243  1.00  0.00     0.009 A 
ATOM     77  C   UNL A   1      45.726  28.016  33.994  1.00  0.00     0.009 A 
ATOM     78  C   UNL A   1      48.039  28.822  32.658  1.00  0.00     0.001 A 
ATOM     79  C   UNL A   1      46.974  27.562  34.423  1.00  0.00     0.001 A 
ATOM     80  C   UNL A   1      48.128  27.958  33.749  1.00  0.00     0.000 A 
ENDBRANCH  62  75
ENDBRANCH  36  37
ENDBRANCH  28  31
ENDBRANCH  26  27
ENDBRANCH   1  26
TORSDOF 13
ENDMDL
