MODEL 1
REMARK VINA RESULT:     -10.2      0.000      0.000
REMARK SMILES CC(C)(O)CCOc1ccc(C(=O)NCCCNC(=O)c2ccc(-c3c4nc(c(-c5ccccc5)c5ccc([nH]5)c(-c5ccccc5)c5nc(c(-c6ccccc6)c6ccc3[nH]6)C=C5)C=C4)cc2)cc1
REMARK SMILES IDX 12 1 13 2 14 3 11 5 8 6 9 7 70 8 10 9 69 10 7 11 6 12 5 13
REMARK SMILES IDX 2 14 1 15 3 16 4 17 15 19 16 20 17 21 18 22 19 23 20 25
REMARK SMILES IDX 21 26 22 27 68 28 23 29 67 30 24 31 25 32 26 33 61 34 27 35
REMARK SMILES IDX 66 36 60 37 62 38 28 39 65 40 59 41 58 42 29 44 51 45 36 46
REMARK SMILES IDX 50 47 37 48 40 49 49 50 63 51 38 52 39 53 48 55 64 56 41 57
REMARK SMILES IDX 30 58 31 59 35 60 32 61 34 62 33 63 52 64 53 65 57 66 54 67
REMARK SMILES IDX 56 68 55 69 42 70 43 71 47 72 44 73 46 74 45 75
REMARK H PARENT 14 4 4 18 18 24 62 43 40 54
REMARK Flexibility Score: inf
ROOT
ATOM      1  C   UNL A   1      33.917  29.234  27.280  1.00  0.00     0.251 C 
ATOM      2  O   UNL A   1      35.011  29.137  27.828  1.00  0.00    -0.269 OA
ATOM      3  N   UNL A   1      33.151  30.363  27.479  1.00  0.00    -0.352 N 
ATOM      4  H   UNL A   1      33.594  31.080  27.986  1.00  0.00     0.163 HD
ENDROOT
BRANCH   1   5
ATOM      5  C   UNL A   1      33.407  28.116  26.456  1.00  0.00     0.040 A 
ATOM      6  C   UNL A   1      32.130  26.336  24.732  1.00  0.00     0.119 A 
ATOM      7  C   UNL A   1      31.652  26.515  26.034  1.00  0.00     0.047 A 
ATOM      8  C   UNL A   1      33.364  26.878  24.384  1.00  0.00     0.047 A 
ATOM      9  C   UNL A   1      32.290  27.406  26.901  1.00  0.00     0.017 A 
ATOM     10  C   UNL A   1      33.999  27.783  25.239  1.00  0.00     0.017 A 
BRANCH   6  11
ATOM     11  O   UNL A   1      31.260  25.714  23.880  1.00  0.00    -0.493 OA
BRANCH  11  12
ATOM     12  C   UNL A   1      30.183  26.469  23.316  1.00  0.00     0.232 C 
BRANCH  12  13
ATOM     13  C   UNL A   1      30.581  27.567  22.306  1.00  0.00     0.076 C 
BRANCH  13  14
ATOM     14  C   UNL A   1      30.133  29.026  22.566  1.00  0.00     0.062 C 
ATOM     15  C   UNL A   1      30.585  29.540  23.937  1.00  0.00     0.042 C 
ATOM     16  C   UNL A   1      28.601  29.138  22.509  1.00  0.00     0.042 C 
BRANCH  14  17
ATOM     17  O   UNL A   1      30.618  29.870  21.525  1.00  0.00    -0.390 OA
ATOM     18  H   UNL A   1      29.921  29.999  20.862  1.00  0.00     0.211 HD
ENDBRANCH  14  17
ENDBRANCH  13  14
ENDBRANCH  12  13
ENDBRANCH  11  12
ENDBRANCH   6  11
ENDBRANCH   1   5
BRANCH   3  19
ATOM     19  C   UNL A   1      31.788  30.662  27.057  1.00  0.00     0.118 C 
BRANCH  19  20
ATOM     20  C   UNL A   1      31.515  32.158  26.911  1.00  0.00     0.042 C 
BRANCH  20  21
ATOM     21  C   UNL A   1      32.736  33.061  27.056  1.00  0.00     0.118 C 
BRANCH  21  22
ATOM     22  N   UNL A   1      32.437  34.332  27.701  1.00  0.00    -0.352 N 
ATOM     23  C   UNL A   1      33.053  34.972  28.751  1.00  0.00     0.251 C 
ATOM     24  H   UNL A   1      31.665  34.812  27.323  1.00  0.00     0.163 HD
ATOM     25  O   UNL A   1      32.535  35.982  29.221  1.00  0.00    -0.269 OA
BRANCH  23  26
ATOM     26  C   UNL A   1      34.311  34.458  29.345  1.00  0.00     0.039 A 
ATOM     27  C   UNL A   1      34.256  33.852  30.607  1.00  0.00     0.014 A 
ATOM     28  C   UNL A   1      35.545  34.600  28.707  1.00  0.00     0.014 A 
ATOM     29  C   UNL A   1      35.416  33.329  31.188  1.00  0.00     0.010 A 
ATOM     30  C   UNL A   1      36.688  34.015  29.253  1.00  0.00     0.010 A 
ATOM     31  C   UNL A   1      36.638  33.369  30.498  1.00  0.00    -0.014 A 
BRANCH  31  32
ATOM     32  C   UNL A   1      37.863  32.732  31.054  1.00  0.00     0.031 A 
ATOM     33  C   UNL A   1      38.447  31.503  30.408  1.00  0.00     0.074 A 
ATOM     34  C   UNL A   1      38.411  33.215  32.188  1.00  0.00     0.049 A 
ATOM     35  N   UNL A   1      39.457  30.767  30.799  1.00  0.00    -0.248 NA
ATOM     36  C   UNL A   1      37.800  31.026  29.175  1.00  0.00     0.031 C 
ATOM     37  C   UNL A   1      37.923  34.373  32.941  1.00  0.00     0.029 A 
ATOM     38  N   UNL A   1      39.491  32.781  32.917  1.00  0.00    -0.354 N 
ATOM     39  C   UNL A   1      39.549  29.729  29.878  1.00  0.00     0.074 A 
ATOM     40  C   UNL A   1      38.473  29.911  28.928  1.00  0.00     0.031 C 
ATOM     41  C   UNL A   1      38.708  34.566  34.013  1.00  0.00     0.029 A 
ATOM     42  C   UNL A   1      39.729  33.523  34.050  1.00  0.00     0.049 A 
ATOM     43  H   UNL A   1      40.045  32.011  32.652  1.00  0.00     0.167 HD
ATOM     44  C   UNL A   1      40.455  28.724  29.819  1.00  0.00     0.031 A 
ATOM     45  C   UNL A   1      40.651  33.374  35.019  1.00  0.00     0.031 A 
ATOM     46  C   UNL A   1      41.542  28.553  30.747  1.00  0.00     0.049 A 
ATOM     47  C   UNL A   1      41.643  32.248  34.927  1.00  0.00     0.074 A 
ATOM     48  C   UNL A   1      42.551  27.606  30.723  1.00  0.00     0.029 A 
ATOM     49  N   UNL A   1      41.760  29.342  31.864  1.00  0.00    -0.354 N 
ATOM     50  N   UNL A   1      41.763  31.325  34.004  1.00  0.00    -0.248 NA
ATOM     51  C   UNL A   1      42.636  32.150  36.008  1.00  0.00     0.031 C 
ATOM     52  C   UNL A   1      43.351  27.789  31.855  1.00  0.00     0.029 A 
ATOM     53  C   UNL A   1      42.872  28.887  32.552  1.00  0.00     0.049 A 
ATOM     54  H   UNL A   1      41.207  30.112  32.130  1.00  0.00     0.167 HD
ATOM     55  C   UNL A   1      42.861  30.559  34.375  1.00  0.00     0.074 A 
ATOM     56  C   UNL A   1      43.382  31.135  35.596  1.00  0.00     0.031 C 
ATOM     57  C   UNL A   1      43.388  29.474  33.760  1.00  0.00     0.031 A 
BRANCH  44  58
ATOM     58  C   UNL A   1      40.315  27.715  28.713  1.00  0.00    -0.014 A 
ATOM     59  C   UNL A   1      40.957  27.893  27.478  1.00  0.00     0.009 A 
ATOM     60  C   UNL A   1      39.594  26.531  28.939  1.00  0.00     0.009 A 
ATOM     61  C   UNL A   1      40.861  26.918  26.484  1.00  0.00     0.001 A 
ATOM     62  C   UNL A   1      39.521  25.545  27.952  1.00  0.00     0.001 A 
ATOM     63  C   UNL A   1      40.149  25.743  26.724  1.00  0.00     0.000 A 
ENDBRANCH  44  58
BRANCH  45  64
ATOM     64  C   UNL A   1      40.685  34.310  36.176  1.00  0.00    -0.014 A 
ATOM     65  C   UNL A   1      39.951  34.035  37.340  1.00  0.00     0.009 A 
ATOM     66  C   UNL A   1      41.420  35.504  36.105  1.00  0.00     0.009 A 
ATOM     67  C   UNL A   1      39.921  34.953  38.392  1.00  0.00     0.001 A 
ATOM     68  C   UNL A   1      41.415  36.404  37.172  1.00  0.00     0.001 A 
ATOM     69  C   UNL A   1      40.656  36.136  38.309  1.00  0.00     0.000 A 
ENDBRANCH  45  64
BRANCH  57  70
ATOM     70  C   UNL A   1      44.617  28.862  34.372  1.00  0.00    -0.014 A 
ATOM     71  C   UNL A   1      45.903  29.302  34.023  1.00  0.00     0.009 A 
ATOM     72  C   UNL A   1      44.480  27.856  35.341  1.00  0.00     0.009 A 
ATOM     73  C   UNL A   1      47.029  28.721  34.611  1.00  0.00     0.001 A 
ATOM     74  C   UNL A   1      45.606  27.300  35.949  1.00  0.00     0.001 A 
ATOM     75  C   UNL A   1      46.880  27.725  35.576  1.00  0.00     0.000 A 
ENDBRANCH  57  70
ENDBRANCH  31  32
ENDBRANCH  23  26
ENDBRANCH  21  22
ENDBRANCH  20  21
ENDBRANCH  19  20
ENDBRANCH   3  19
TORSDOF 15
ENDMDL
MODEL 2
REMARK VINA RESULT:     -10.1      4.130      8.341
REMARK SMILES CC(C)(O)CCOc1ccc(C(=O)NCCCNC(=O)c2ccc(-c3c4nc(c(-c5ccccc5)c5ccc([nH]5)c(-c5ccccc5)c5nc(c(-c6ccccc6)c6ccc3[nH]6)C=C5)C=C4)cc2)cc1
REMARK SMILES IDX 12 1 13 2 14 3 11 5 8 6 9 7 70 8 10 9 69 10 7 11 6 12 5 13
REMARK SMILES IDX 2 14 1 15 3 16 4 17 15 19 16 20 17 21 18 22 19 23 20 25
REMARK SMILES IDX 21 26 22 27 68 28 23 29 67 30 24 31 25 32 26 33 61 34 27 35
REMARK SMILES IDX 66 36 60 37 62 38 28 39 65 40 59 41 58 42 29 44 51 45 36 46
REMARK SMILES IDX 50 47 37 48 40 49 49 50 63 51 38 52 39 53 48 55 64 56 41 57
REMARK SMILES IDX 30 58 31 59 35 60 32 61 34 62 33 63 52 64 53 65 57 66 54 67
REMARK SMILES IDX 56 68 55 69 42 70 43 71 47 72 44 73 46 74 45 75
REMARK H PARENT 14 4 4 18 18 24 62 43 40 54
REMARK Flexibility Score: inf
ROOT
ATOM      1  C   UNL A   1      31.061  24.713  26.482  1.00  0.00     0.251 C 
ATOM      2  O   UNL A   1      30.133  24.010  26.867  1.00  0.00    -0.269 OA
ATOM      3  N   UNL A   1      30.998  26.080  26.646  1.00  0.00    -0.352 N 
ATOM      4  H   UNL A   1      30.226  26.399  27.168  1.00  0.00     0.163 HD
ENDROOT
BRANCH   1   5
ATOM      5  C   UNL A   1      32.216  24.092  25.795  1.00  0.00     0.040 A 
ATOM      6  C   UNL A   1      34.266  22.522  24.745  1.00  0.00     0.119 A 
ATOM      7  C   UNL A   1      34.461  23.220  25.941  1.00  0.00     0.047 A 
ATOM      8  C   UNL A   1      33.134  22.793  23.980  1.00  0.00     0.047 A 
ATOM      9  C   UNL A   1      33.435  24.009  26.470  1.00  0.00     0.017 A 
ATOM     10  C   UNL A   1      32.098  23.567  24.509  1.00  0.00     0.017 A 
BRANCH   6  11
ATOM     11  O   UNL A   1      35.185  21.541  24.495  1.00  0.00    -0.493 OA
BRANCH  11  12
ATOM     12  C   UNL A   1      35.144  20.340  25.271  1.00  0.00     0.232 C 
BRANCH  12  13
ATOM     13  C   UNL A   1      34.551  19.098  24.569  1.00  0.00     0.076 C 
BRANCH  13  14
ATOM     14  C   UNL A   1      33.035  18.814  24.698  1.00  0.00     0.062 C 
ATOM     15  C   UNL A   1      32.741  17.341  25.002  1.00  0.00     0.042 C 
ATOM     16  C   UNL A   1      32.304  19.175  23.395  1.00  0.00     0.042 C 
BRANCH  14  17
ATOM     17  O   UNL A   1      32.473  19.659  25.700  1.00  0.00    -0.390 OA
ATOM     18  H   UNL A   1      31.609  19.308  25.971  1.00  0.00     0.211 HD
ENDBRANCH  14  17
ENDBRANCH  13  14
ENDBRANCH  12  13
ENDBRANCH  11  12
ENDBRANCH   6  11
ENDBRANCH   1   5
BRANCH   3  19
ATOM     19  C   UNL A   1      31.890  27.129  26.169  1.00  0.00     0.118 C 
BRANCH  19  20
ATOM     20  C   UNL A   1      32.145  28.224  27.203  1.00  0.00     0.042 C 
BRANCH  20  21
ATOM     21  C   UNL A   1      33.550  28.820  27.188  1.00  0.00     0.118 C 
BRANCH  21  22
ATOM     22  N   UNL A   1      33.601  30.183  27.695  1.00  0.00    -0.352 N 
ATOM     23  C   UNL A   1      34.597  30.855  28.364  1.00  0.00     0.251 C 
ATOM     24  H   UNL A   1      32.787  30.712  27.533  1.00  0.00     0.163 HD
ATOM     25  O   UNL A   1      34.361  31.970  28.823  1.00  0.00    -0.269 OA
BRANCH  23  26
ATOM     26  C   UNL A   1      35.938  30.256  28.568  1.00  0.00     0.039 A 
ATOM     27  C   UNL A   1      36.844  30.260  27.499  1.00  0.00     0.014 A 
ATOM     28  C   UNL A   1      36.305  29.652  29.774  1.00  0.00     0.014 A 
ATOM     29  C   UNL A   1      38.128  29.730  27.662  1.00  0.00     0.010 A 
ATOM     30  C   UNL A   1      37.608  29.189  29.958  1.00  0.00     0.010 A 
ATOM     31  C   UNL A   1      38.537  29.225  28.906  1.00  0.00    -0.014 A 
BRANCH  31  32
ATOM     32  C   UNL A   1      39.929  28.747  29.128  1.00  0.00     0.031 A 
ATOM     33  C   UNL A   1      40.981  29.680  29.668  1.00  0.00     0.074 A 
ATOM     34  C   UNL A   1      40.268  27.490  28.773  1.00  0.00     0.049 A 
ATOM     35  N   UNL A   1      42.261  29.464  29.849  1.00  0.00    -0.248 NA
ATOM     36  C   UNL A   1      40.546  31.037  30.033  1.00  0.00     0.031 C 
ATOM     37  C   UNL A   1      39.359  26.495  28.200  1.00  0.00     0.029 A 
ATOM     38  N   UNL A   1      41.476  26.839  28.828  1.00  0.00    -0.354 N 
ATOM     39  C   UNL A   1      42.785  30.662  30.321  1.00  0.00     0.074 A 
ATOM     40  C   UNL A   1      41.693  31.610  30.368  1.00  0.00     0.031 C 
ATOM     41  C   UNL A   1      40.036  25.359  27.971  1.00  0.00     0.029 A 
ATOM     42  C   UNL A   1      41.435  25.554  28.340  1.00  0.00     0.049 A 
ATOM     43  H   UNL A   1      42.295  27.253  29.185  1.00  0.00     0.167 HD
ATOM     44  C   UNL A   1      44.056  30.943  30.695  1.00  0.00     0.031 A 
ATOM     45  C   UNL A   1      42.413  24.641  28.188  1.00  0.00     0.031 A 
ATOM     46  C   UNL A   1      45.139  29.996  30.674  1.00  0.00     0.049 A 
ATOM     47  C   UNL A   1      43.814  24.984  28.612  1.00  0.00     0.074 A 
ATOM     48  C   UNL A   1      46.443  30.172  31.104  1.00  0.00     0.029 A 
ATOM     49  N   UNL A   1      45.046  28.700  30.196  1.00  0.00    -0.354 N 
ATOM     50  N   UNL A   1      44.272  26.096  29.132  1.00  0.00    -0.248 NA
ATOM     51  C   UNL A   1      44.833  23.937  28.437  1.00  0.00     0.031 C 
ATOM     52  C   UNL A   1      47.155  28.999  30.838  1.00  0.00     0.029 A 
ATOM     53  C   UNL A   1      46.278  28.073  30.295  1.00  0.00     0.049 A 
ATOM     54  H   UNL A   1      44.228  28.285  29.839  1.00  0.00     0.167 HD
ATOM     55  C   UNL A   1      45.621  25.872  29.375  1.00  0.00     0.074 A 
ATOM     56  C   UNL A   1      45.903  24.513  28.963  1.00  0.00     0.031 C 
ATOM     57  C   UNL A   1      46.545  26.718  29.891  1.00  0.00     0.031 A 
BRANCH  44  58
ATOM     58  C   UNL A   1      44.359  32.341  31.161  1.00  0.00    -0.014 A 
ATOM     59  C   UNL A   1      44.161  32.723  32.496  1.00  0.00     0.009 A 
ATOM     60  C   UNL A   1      44.924  33.265  30.266  1.00  0.00     0.009 A 
ATOM     61  C   UNL A   1      44.501  34.009  32.921  1.00  0.00     0.001 A 
ATOM     62  C   UNL A   1      45.287  34.541  30.700  1.00  0.00     0.001 A 
ATOM     63  C   UNL A   1      45.069  34.914  32.026  1.00  0.00     0.000 A 
ENDBRANCH  44  58
BRANCH  45  64
ATOM     64  C   UNL A   1      42.111  23.307  27.600  1.00  0.00    -0.014 A 
ATOM     65  C   UNL A   1      42.245  23.088  26.220  1.00  0.00     0.009 A 
ATOM     66  C   UNL A   1      41.650  22.259  28.410  1.00  0.00     0.009 A 
ATOM     67  C   UNL A   1      41.886  21.860  25.660  1.00  0.00     0.001 A 
ATOM     68  C   UNL A   1      41.324  21.021  27.852  1.00  0.00     0.001 A 
ATOM     69  C   UNL A   1      41.429  20.826  26.477  1.00  0.00     0.000 A 
ENDBRANCH  45  64
BRANCH  57  70
ATOM     70  C   UNL A   1      47.937  26.187  30.082  1.00  0.00    -0.014 A 
ATOM     71  C   UNL A   1      48.857  26.148  29.023  1.00  0.00     0.009 A 
ATOM     72  C   UNL A   1      48.345  25.755  31.355  1.00  0.00     0.009 A 
ATOM     73  C   UNL A   1      50.148  25.657  29.228  1.00  0.00     0.001 A 
ATOM     74  C   UNL A   1      49.645  25.294  31.563  1.00  0.00     0.001 A 
ATOM     75  C   UNL A   1      50.542  25.235  30.498  1.00  0.00     0.000 A 
ENDBRANCH  57  70
ENDBRANCH  31  32
ENDBRANCH  23  26
ENDBRANCH  21  22
ENDBRANCH  20  21
ENDBRANCH  19  20
ENDBRANCH   3  19
TORSDOF 15
ENDMDL
MODEL 3
REMARK VINA RESULT:     -10.0      0.834      6.121
REMARK SMILES CC(C)(O)CCOc1ccc(C(=O)NCCCNC(=O)c2ccc(-c3c4nc(c(-c5ccccc5)c5ccc([nH]5)c(-c5ccccc5)c5nc(c(-c6ccccc6)c6ccc3[nH]6)C=C5)C=C4)cc2)cc1
REMARK SMILES IDX 12 1 13 2 14 3 11 5 8 6 9 7 70 8 10 9 69 10 7 11 6 12 5 13
REMARK SMILES IDX 2 14 1 15 3 16 4 17 15 19 16 20 17 21 18 22 19 23 20 25
REMARK SMILES IDX 21 26 22 27 68 28 23 29 67 30 24 31 25 32 26 33 61 34 27 35
REMARK SMILES IDX 66 36 60 37 62 38 28 39 65 40 59 41 58 42 29 44 51 45 36 46
REMARK SMILES IDX 50 47 37 48 40 49 49 50 63 51 38 52 39 53 48 55 64 56 41 57
REMARK SMILES IDX 30 58 31 59 35 60 32 61 34 62 33 63 52 64 53 65 57 66 54 67
REMARK SMILES IDX 56 68 55 69 42 70 43 71 47 72 44 73 46 74 45 75
REMARK H PARENT 14 4 4 18 18 24 62 43 40 54
REMARK Flexibility Score: inf
ROOT
ATOM      1  C   UNL A   1      33.882  29.043  26.953  1.00  0.00     0.251 C 
ATOM      2  O   UNL A   1      35.055  28.963  27.302  1.00  0.00    -0.269 OA
ATOM      3  N   UNL A   1      33.213  30.243  27.075  1.00  0.00    -0.352 N 
ATOM      4  H   UNL A   1      33.773  31.002  27.354  1.00  0.00     0.163 HD
ENDROOT
BRANCH   1   5
ATOM      5  C   UNL A   1      33.179  27.840  26.455  1.00  0.00     0.040 A 
ATOM      6  C   UNL A   1      31.579  25.888  25.273  1.00  0.00     0.119 A 
ATOM      7  C   UNL A   1      31.202  26.458  26.494  1.00  0.00     0.047 A 
ATOM      8  C   UNL A   1      32.854  26.139  24.773  1.00  0.00     0.047 A 
ATOM      9  C   UNL A   1      32.002  27.436  27.089  1.00  0.00     0.017 A 
ATOM     10  C   UNL A   1      33.652  27.127  25.354  1.00  0.00     0.017 A 
BRANCH   6  11
ATOM     11  O   UNL A   1      30.586  25.204  24.627  1.00  0.00    -0.493 OA
BRANCH  11  12
ATOM     12  C   UNL A   1      29.967  25.799  23.482  1.00  0.00     0.232 C 
BRANCH  12  13
ATOM     13  C   UNL A   1      29.407  27.226  23.678  1.00  0.00     0.076 C 
BRANCH  13  14
ATOM     14  C   UNL A   1      30.013  28.390  22.858  1.00  0.00     0.062 C 
ATOM     15  C   UNL A   1      30.985  29.241  23.683  1.00  0.00     0.042 C 
ATOM     16  C   UNL A   1      28.905  29.320  22.340  1.00  0.00     0.042 C 
BRANCH  14  17
ATOM     17  O   UNL A   1      30.655  27.873  21.695  1.00  0.00    -0.390 OA
ATOM     18  H   UNL A   1      30.016  27.360  21.174  1.00  0.00     0.211 HD
ENDBRANCH  14  17
ENDBRANCH  13  14
ENDBRANCH  12  13
ENDBRANCH  11  12
ENDBRANCH   6  11
ENDBRANCH   1   5
BRANCH   3  19
ATOM     19  C   UNL A   1      31.808  30.564  26.859  1.00  0.00     0.118 C 
BRANCH  19  20
ATOM     20  C   UNL A   1      31.521  32.064  26.876  1.00  0.00     0.042 C 
BRANCH  20  21
ATOM     21  C   UNL A   1      32.752  32.963  26.948  1.00  0.00     0.118 C 
BRANCH  21  22
ATOM     22  N   UNL A   1      32.516  34.204  27.672  1.00  0.00    -0.352 N 
ATOM     23  C   UNL A   1      33.169  34.750  28.752  1.00  0.00     0.251 C 
ATOM     24  H   UNL A   1      31.763  34.740  27.333  1.00  0.00     0.163 HD
ATOM     25  O   UNL A   1      32.701  35.752  29.288  1.00  0.00    -0.269 OA
BRANCH  23  26
ATOM     26  C   UNL A   1      34.407  34.145  29.300  1.00  0.00     0.039 A 
ATOM     27  C   UNL A   1      34.306  33.322  30.429  1.00  0.00     0.014 A 
ATOM     28  C   UNL A   1      35.665  34.406  28.753  1.00  0.00     0.014 A 
ATOM     29  C   UNL A   1      35.448  32.710  30.958  1.00  0.00     0.010 A 
ATOM     30  C   UNL A   1      36.792  33.739  29.236  1.00  0.00     0.010 A 
ATOM     31  C   UNL A   1      36.698  32.881  30.342  1.00  0.00    -0.014 A 
BRANCH  31  32
ATOM     32  C   UNL A   1      37.906  32.161  30.828  1.00  0.00     0.031 A 
ATOM     33  C   UNL A   1      38.732  32.725  31.954  1.00  0.00     0.074 A 
ATOM     34  C   UNL A   1      38.306  31.032  30.206  1.00  0.00     0.049 A 
ATOM     35  N   UNL A   1      39.859  32.281  32.453  1.00  0.00    -0.248 NA
ATOM     36  C   UNL A   1      38.243  33.960  32.587  1.00  0.00     0.031 C 
ATOM     37  C   UNL A   1      37.623  30.398  29.076  1.00  0.00     0.029 A 
ATOM     38  N   UNL A   1      39.396  30.225  30.427  1.00  0.00    -0.354 N 
ATOM     39  C   UNL A   1      40.224  33.193  33.437  1.00  0.00     0.074 A 
ATOM     40  C   UNL A   1      39.218  34.233  33.442  1.00  0.00     0.031 C 
ATOM     41  C   UNL A   1      38.299  29.295  28.714  1.00  0.00     0.029 A 
ATOM     42  C   UNL A   1      39.485  29.166  29.555  1.00  0.00     0.049 A 
ATOM     43  H   UNL A   1      40.050  30.390  31.144  1.00  0.00     0.167 HD
ATOM     44  C   UNL A   1      41.291  33.161  34.270  1.00  0.00     0.031 A 
ATOM     45  C   UNL A   1      40.422  28.207  29.432  1.00  0.00     0.031 A 
ATOM     46  C   UNL A   1      42.280  32.116  34.286  1.00  0.00     0.049 A 
ATOM     47  C   UNL A   1      41.597  28.199  30.372  1.00  0.00     0.074 A 
ATOM     48  C   UNL A   1      43.356  31.963  35.144  1.00  0.00     0.029 A 
ATOM     49  N   UNL A   1      42.318  31.050  33.403  1.00  0.00    -0.354 N 
ATOM     50  N   UNL A   1      41.880  29.026  31.348  1.00  0.00    -0.248 NA
ATOM     51  C   UNL A   1      42.576  27.115  30.197  1.00  0.00     0.031 C 
ATOM     52  C   UNL A   1      44.076  30.832  34.748  1.00  0.00     0.029 A 
ATOM     53  C   UNL A   1      43.415  30.249  33.679  1.00  0.00     0.049 A 
ATOM     54  H   UNL A   1      41.664  30.884  32.686  1.00  0.00     0.167 HD
ATOM     55  C   UNL A   1      43.050  28.544  31.923  1.00  0.00     0.074 A 
ATOM     56  C   UNL A   1      43.413  27.346  31.198  1.00  0.00     0.031 C 
ATOM     57  C   UNL A   1      43.760  29.053  32.958  1.00  0.00     0.031 A 
BRANCH  44  58
ATOM     58  C   UNL A   1      41.458  34.296  35.243  1.00  0.00    -0.014 A 
ATOM     59  C   UNL A   1      42.159  35.460  34.893  1.00  0.00     0.009 A 
ATOM     60  C   UNL A   1      40.838  34.230  36.501  1.00  0.00     0.009 A 
ATOM     61  C   UNL A   1      42.255  36.524  35.790  1.00  0.00     0.001 A 
ATOM     62  C   UNL A   1      40.913  35.306  37.387  1.00  0.00     0.001 A 
ATOM     63  C   UNL A   1      41.627  36.450  37.033  1.00  0.00     0.000 A 
ENDBRANCH  44  58
BRANCH  45  64
ATOM     64  C   UNL A   1      40.302  27.169  28.372  1.00  0.00    -0.014 A 
ATOM     65  C   UNL A   1      39.652  25.952  28.633  1.00  0.00     0.009 A 
ATOM     66  C   UNL A   1      40.873  27.374  27.107  1.00  0.00     0.009 A 
ATOM     67  C   UNL A   1      39.611  24.950  27.661  1.00  0.00     0.001 A 
ATOM     68  C   UNL A   1      40.801  26.382  26.127  1.00  0.00     0.001 A 
ATOM     69  C   UNL A   1      40.182  25.167  26.408  1.00  0.00     0.000 A 
ENDBRANCH  45  64
BRANCH  57  70
ATOM     70  C   UNL A   1      44.979  28.292  33.399  1.00  0.00    -0.014 A 
ATOM     71  C   UNL A   1      46.249  28.580  32.877  1.00  0.00     0.009 A 
ATOM     72  C   UNL A   1      44.855  27.297  34.382  1.00  0.00     0.009 A 
ATOM     73  C   UNL A   1      47.367  27.863  33.309  1.00  0.00     0.001 A 
ATOM     74  C   UNL A   1      45.979  26.604  34.833  1.00  0.00     0.001 A 
ATOM     75  C   UNL A   1      47.232  26.880  34.289  1.00  0.00     0.000 A 
ENDBRANCH  57  70
ENDBRANCH  31  32
ENDBRANCH  23  26
ENDBRANCH  21  22
ENDBRANCH  20  21
ENDBRANCH  19  20
ENDBRANCH   3  19
TORSDOF 15
ENDMDL
