MODEL 1
REMARK VINA RESULT:     -10.0      0.000      0.000
REMARK SMILES CCC(CC)C[N@H+]1[C@@H]2CC[C@H]1C[C@H](CC(=O)NCCCNC(=O)c1ccc(-c3c4nc(c(-c5ccccc5)c5ccc([nH]5)c(-c5ccccc5)c5nc(c(-c6ccccc6)c6ccc3[nH]6)C=C5)C=C4)cc1)C2
REMARK SMILES IDX 18 1 17 2 15 3 16 4 14 6 13 7 7 8 8 9 11 10 9 12 72 13 10 14
REMARK SMILES IDX 12 15 6 16 3 17 2 18 1 19 4 20 5 21 19 22 20 23 21 24 22 25
REMARK SMILES IDX 23 27 24 28 25 29 71 30 26 31 70 32 27 33 28 34 29 35 64 36
REMARK SMILES IDX 30 37 69 38 63 39 65 40 31 41 68 42 62 43 61 44 32 46 54 47
REMARK SMILES IDX 39 48 53 49 40 50 43 51 52 52 66 53 41 54 42 55 51 57 67 58
REMARK SMILES IDX 44 59 33 60 34 61 38 62 35 63 37 64 36 65 55 66 56 67 60 68
REMARK SMILES IDX 57 69 59 70 58 71 45 72 46 73 50 74 47 75 49 76 48 77
REMARK H PARENT 17 5 7 11 21 26 65 45 43 56
REMARK Flexibility Score: inf
ROOT
ATOM      1  C   UNL A   1      32.302  27.421  25.326  1.00  0.00     0.117 C 
ENDROOT
BRANCH   1   2
ATOM      2  N   UNL A   1      32.865  27.378  23.981  1.00  0.00    -0.356 N 
ATOM      3  C   UNL A   1      33.341  26.360  23.212  1.00  0.00     0.220 C 
ATOM      4  O   UNL A   1      33.757  26.642  22.087  1.00  0.00    -0.275 OA
ATOM      5  H   UNL A   1      32.909  28.258  23.543  1.00  0.00     0.163 HD
BRANCH   3   6
ATOM      6  C   UNL A   1      33.366  24.929  23.705  1.00  0.00     0.104 C 
BRANCH   6   7
ATOM      7  C   UNL A   1      34.747  24.482  24.236  1.00  0.00     0.010 C 
ATOM      8  N   UNL A   1      35.594  21.925  25.502  1.00  0.00    -0.330 N 
ATOM      9  C   UNL A   1      36.156  22.284  24.205  1.00  0.00     0.184 C 
ATOM     10  C   UNL A   1      35.675  23.166  26.270  1.00  0.00     0.184 C 
ATOM     11  H   UNL A   1      36.148  21.145  25.860  1.00  0.00     0.348 HD
ATOM     12  C   UNL A   1      37.463  22.945  24.668  1.00  0.00     0.071 C 
ATOM     13  C   UNL A   1      35.307  23.299  23.408  1.00  0.00     0.069 C 
ATOM     14  C   UNL A   1      37.112  23.610  25.997  1.00  0.00     0.071 C 
ATOM     15  C   UNL A   1      34.668  24.182  25.740  1.00  0.00     0.069 C 
BRANCH   8  16
ATOM     16  C   UNL A   1      34.392  21.105  25.676  1.00  0.00     0.266 C 
BRANCH  16  17
ATOM     17  C   UNL A   1      33.682  20.435  24.468  1.00  0.00     0.044 C 
BRANCH  17  18
ATOM     18  C   UNL A   1      33.745  18.894  24.542  1.00  0.00     0.006 C 
ATOM     19  C   UNL A   1      32.749  18.307  25.534  1.00  0.00     0.004 C 
ENDBRANCH  17  18
BRANCH  17  20
ATOM     20  C   UNL A   1      32.238  20.963  24.278  1.00  0.00     0.006 C 
ATOM     21  C   UNL A   1      31.751  21.956  25.322  1.00  0.00     0.004 C 
ENDBRANCH  17  20
ENDBRANCH  16  17
ENDBRANCH   8  16
ENDBRANCH   6   7
ENDBRANCH   3   6
ENDBRANCH   1   2
BRANCH   1  22
ATOM     22  C   UNL A   1      32.426  28.795  25.993  1.00  0.00     0.042 C 
BRANCH  22  23
ATOM     23  C   UNL A   1      33.536  28.910  27.033  1.00  0.00     0.118 C 
BRANCH  23  24
ATOM     24  N   UNL A   1      33.619  30.252  27.577  1.00  0.00    -0.352 N 
ATOM     25  C   UNL A   1      34.614  30.839  28.315  1.00  0.00     0.251 C 
ATOM     26  H   UNL A   1      32.842  30.828  27.389  1.00  0.00     0.163 HD
ATOM     27  O   UNL A   1      34.379  31.903  28.891  1.00  0.00    -0.269 OA
BRANCH  25  28
ATOM     28  C   UNL A   1      35.964  30.231  28.436  1.00  0.00     0.039 A 
ATOM     29  C   UNL A   1      36.335  29.678  29.669  1.00  0.00     0.014 A 
ATOM     30  C   UNL A   1      36.904  30.291  27.403  1.00  0.00     0.014 A 
ATOM     31  C   UNL A   1      37.632  29.194  29.865  1.00  0.00     0.010 A 
ATOM     32  C   UNL A   1      38.179  29.743  27.576  1.00  0.00     0.010 A 
ATOM     33  C   UNL A   1      38.569  29.225  28.820  1.00  0.00    -0.014 A 
BRANCH  33  34
ATOM     34  C   UNL A   1      39.980  28.810  29.046  1.00  0.00     0.031 A 
ATOM     35  C   UNL A   1      40.430  27.432  28.632  1.00  0.00     0.074 A 
ATOM     36  C   UNL A   1      40.855  29.649  29.633  1.00  0.00     0.049 A 
ATOM     37  N   UNL A   1      41.605  26.868  28.772  1.00  0.00    -0.248 NA
ATOM     38  C   UNL A   1      39.424  26.566  27.998  1.00  0.00     0.031 C 
ATOM     39  C   UNL A   1      40.553  31.001  30.101  1.00  0.00     0.029 A 
ATOM     40  N   UNL A   1      42.185  29.480  29.933  1.00  0.00    -0.354 N 
ATOM     41  C   UNL A   1      41.468  25.578  28.271  1.00  0.00     0.074 A 
ATOM     42  C   UNL A   1      40.089  25.429  27.861  1.00  0.00     0.031 C 
ATOM     43  C   UNL A   1      41.670  31.549  30.607  1.00  0.00     0.029 A 
ATOM     44  C   UNL A   1      42.759  30.579  30.525  1.00  0.00     0.049 A 
ATOM     45  H   UNL A   1      42.679  28.651  29.742  1.00  0.00     0.167 HD
ATOM     46  C   UNL A   1      42.404  24.609  28.142  1.00  0.00     0.031 A 
ATOM     47  C   UNL A   1      44.019  30.783  30.952  1.00  0.00     0.031 A 
ATOM     48  C   UNL A   1      43.785  24.757  28.514  1.00  0.00     0.049 A 
ATOM     49  C   UNL A   1      45.046  29.698  30.787  1.00  0.00     0.074 A 
ATOM     50  C   UNL A   1      44.820  23.849  28.372  1.00  0.00     0.029 A 
ATOM     51  N   UNL A   1      44.325  25.892  29.096  1.00  0.00    -0.354 N 
ATOM     52  N   UNL A   1      44.909  28.503  30.266  1.00  0.00    -0.248 NA
ATOM     53  C   UNL A   1      46.407  29.996  31.257  1.00  0.00     0.031 C 
ATOM     54  C   UNL A   1      45.982  24.423  28.899  1.00  0.00     0.029 A 
ATOM     55  C   UNL A   1      45.676  25.703  29.330  1.00  0.00     0.049 A 
ATOM     56  H   UNL A   1      43.822  26.711  29.313  1.00  0.00     0.167 HD
ATOM     57  C   UNL A   1      46.167  27.919  30.321  1.00  0.00     0.074 A 
ATOM     58  C   UNL A   1      47.058  28.894  30.914  1.00  0.00     0.031 C 
ATOM     59  C   UNL A   1      46.551  26.684  29.915  1.00  0.00     0.031 A 
BRANCH  46  60
ATOM     60  C   UNL A   1      41.958  23.291  27.573  1.00  0.00    -0.014 A 
ATOM     61  C   UNL A   1      42.045  23.028  26.197  1.00  0.00     0.009 A 
ATOM     62  C   UNL A   1      41.467  22.292  28.427  1.00  0.00     0.009 A 
ATOM     63  C   UNL A   1      41.612  21.804  25.682  1.00  0.00     0.001 A 
ATOM     64  C   UNL A   1      41.059  21.059  27.913  1.00  0.00     0.001 A 
ATOM     65  C   UNL A   1      41.123  20.819  26.541  1.00  0.00     0.000 A 
ENDBRANCH  46  60
BRANCH  47  66
ATOM     66  C   UNL A   1      44.395  32.086  31.558  1.00  0.00    -0.014 A 
ATOM     67  C   UNL A   1      44.189  32.318  32.927  1.00  0.00     0.009 A 
ATOM     68  C   UNL A   1      44.951  33.106  30.772  1.00  0.00     0.009 A 
ATOM     69  C   UNL A   1      44.513  33.554  33.491  1.00  0.00     0.001 A 
ATOM     70  C   UNL A   1      45.296  34.333  31.343  1.00  0.00     0.001 A 
ATOM     71  C   UNL A   1      45.069  34.558  32.700  1.00  0.00     0.000 A 
ENDBRANCH  47  66
BRANCH  59  72
ATOM     72  C   UNL A   1      48.003  26.332  30.063  1.00  0.00    -0.014 A 
ATOM     73  C   UNL A   1      48.491  25.738  31.237  1.00  0.00     0.009 A 
ATOM     74  C   UNL A   1      48.885  26.559  28.995  1.00  0.00     0.009 A 
ATOM     75  C   UNL A   1      49.841  25.404  31.348  1.00  0.00     0.001 A 
ATOM     76  C   UNL A   1      50.230  26.205  29.101  1.00  0.00     0.001 A 
ATOM     77  C   UNL A   1      50.709  25.635  30.279  1.00  0.00     0.000 A 
ENDBRANCH  59  72
ENDBRANCH  33  34
ENDBRANCH  25  28
ENDBRANCH  23  24
ENDBRANCH  22  23
ENDBRANCH   1  22
TORSDOF 15
ENDMDL
MODEL 2
REMARK VINA RESULT:      -9.9      2.212      7.744
REMARK SMILES CCC(CC)C[N@H+]1[C@@H]2CC[C@H]1C[C@H](CC(=O)NCCCNC(=O)c1ccc(-c3c4nc(c(-c5ccccc5)c5ccc([nH]5)c(-c5ccccc5)c5nc(c(-c6ccccc6)c6ccc3[nH]6)C=C5)C=C4)cc1)C2
REMARK SMILES IDX 18 1 17 2 15 3 16 4 14 6 13 7 7 8 8 9 11 10 9 12 72 13 10 14
REMARK SMILES IDX 12 15 6 16 3 17 2 18 1 19 4 20 5 21 19 22 20 23 21 24 22 25
REMARK SMILES IDX 23 27 24 28 25 29 71 30 26 31 70 32 27 33 28 34 29 35 64 36
REMARK SMILES IDX 30 37 69 38 63 39 65 40 31 41 68 42 62 43 61 44 32 46 54 47
REMARK SMILES IDX 39 48 53 49 40 50 43 51 52 52 66 53 41 54 42 55 51 57 67 58
REMARK SMILES IDX 44 59 33 60 34 61 38 62 35 63 37 64 36 65 55 66 56 67 60 68
REMARK SMILES IDX 57 69 59 70 58 71 45 72 46 73 50 74 47 75 49 76 48 77
REMARK H PARENT 17 5 7 11 21 26 65 45 43 56
REMARK Flexibility Score: inf
ROOT
ATOM      1  C   UNL A   1      36.240  20.606  25.031  1.00  0.00     0.117 C 
ENDROOT
BRANCH   1   2
ATOM      2  N   UNL A   1      34.980  19.876  25.094  1.00  0.00    -0.356 N 
ATOM      3  C   UNL A   1      33.721  20.237  25.467  1.00  0.00     0.220 C 
ATOM      4  O   UNL A   1      32.839  19.378  25.407  1.00  0.00    -0.275 OA
ATOM      5  H   UNL A   1      35.053  18.937  24.810  1.00  0.00     0.163 HD
BRANCH   3   6
ATOM      6  C   UNL A   1      33.398  21.638  25.942  1.00  0.00     0.104 C 
BRANCH   6   7
ATOM      7  C   UNL A   1      32.609  22.474  24.909  1.00  0.00     0.010 C 
ATOM      8  N   UNL A   1      32.185  25.414  24.721  1.00  0.00    -0.330 N 
ATOM      9  C   UNL A   1      32.947  24.747  23.671  1.00  0.00     0.184 C 
ATOM     10  C   UNL A   1      31.035  24.537  24.925  1.00  0.00     0.184 C 
ATOM     11  H   UNL A   1      31.972  26.353  24.382  1.00  0.00     0.348 HD
ATOM     12  C   UNL A   1      31.823  24.522  22.647  1.00  0.00     0.071 C 
ATOM     13  C   UNL A   1      33.553  23.391  24.094  1.00  0.00     0.069 C 
ATOM     14  C   UNL A   1      30.571  24.288  23.489  1.00  0.00     0.071 C 
ATOM     15  C   UNL A   1      31.472  23.241  25.601  1.00  0.00     0.069 C 
BRANCH   8  16
ATOM     16  C   UNL A   1      32.788  26.018  25.912  1.00  0.00     0.266 C 
BRANCH  16  17
ATOM     17  C   UNL A   1      33.373  27.456  25.888  1.00  0.00     0.044 C 
BRANCH  17  18
ATOM     18  C   UNL A   1      32.934  28.238  24.631  1.00  0.00     0.006 C 
ATOM     19  C   UNL A   1      34.033  28.340  23.581  1.00  0.00     0.004 C 
ENDBRANCH  17  18
BRANCH  17  20
ATOM     20  C   UNL A   1      33.078  28.225  27.200  1.00  0.00     0.006 C 
ATOM     21  C   UNL A   1      31.620  28.268  27.632  1.00  0.00     0.004 C 
ENDBRANCH  17  20
ENDBRANCH  16  17
ENDBRANCH   8  16
ENDBRANCH   6   7
ENDBRANCH   3   6
ENDBRANCH   1   2
BRANCH   1  22
ATOM     22  C   UNL A   1      37.472  19.694  25.022  1.00  0.00     0.042 C 
BRANCH  22  23
ATOM     23  C   UNL A   1      38.774  20.362  25.452  1.00  0.00     0.118 C 
BRANCH  23  24
ATOM     24  N   UNL A   1      39.821  19.386  25.687  1.00  0.00    -0.352 N 
ATOM     25  C   UNL A   1      41.127  19.575  26.059  1.00  0.00     0.251 C 
ATOM     26  H   UNL A   1      39.554  18.447  25.558  1.00  0.00     0.163 HD
ATOM     27  O   UNL A   1      41.915  18.632  25.961  1.00  0.00    -0.269 OA
BRANCH  25  28
ATOM     28  C   UNL A   1      41.615  20.878  26.579  1.00  0.00     0.039 A 
ATOM     29  C   UNL A   1      41.537  21.113  27.958  1.00  0.00     0.014 A 
ATOM     30  C   UNL A   1      42.043  21.906  25.734  1.00  0.00     0.014 A 
ATOM     31  C   UNL A   1      41.881  22.363  28.483  1.00  0.00     0.010 A 
ATOM     32  C   UNL A   1      42.454  23.132  26.265  1.00  0.00     0.010 A 
ATOM     33  C   UNL A   1      42.340  23.387  27.639  1.00  0.00    -0.014 A 
BRANCH  33  34
ATOM     34  C   UNL A   1      42.610  24.750  28.170  1.00  0.00     0.031 A 
ATOM     35  C   UNL A   1      44.012  25.137  28.566  1.00  0.00     0.074 A 
ATOM     36  C   UNL A   1      41.608  25.639  28.316  1.00  0.00     0.049 A 
ATOM     37  N   UNL A   1      44.448  26.261  29.080  1.00  0.00    -0.248 NA
ATOM     38  C   UNL A   1      45.059  24.119  28.382  1.00  0.00     0.031 C 
ATOM     39  C   UNL A   1      40.202  25.395  27.993  1.00  0.00     0.029 A 
ATOM     40  N   UNL A   1      41.626  26.933  28.776  1.00  0.00    -0.354 N 
ATOM     41  C   UNL A   1      45.807  26.073  29.304  1.00  0.00     0.074 A 
ATOM     42  C   UNL A   1      46.116  24.716  28.909  1.00  0.00     0.031 C 
ATOM     43  C   UNL A   1      39.496  26.512  28.241  1.00  0.00     0.029 A 
ATOM     44  C   UNL A   1      40.393  27.538  28.766  1.00  0.00     0.049 A 
ATOM     45  H   UNL A   1      42.445  27.384  29.083  1.00  0.00     0.167 HD
ATOM     46  C   UNL A   1      46.724  26.951  29.775  1.00  0.00     0.031 A 
ATOM     47  C   UNL A   1      40.025  28.779  29.136  1.00  0.00     0.031 A 
ATOM     48  C   UNL A   1      46.435  28.312  30.138  1.00  0.00     0.049 A 
ATOM     49  C   UNL A   1      41.061  29.742  29.644  1.00  0.00     0.074 A 
ATOM     50  C   UNL A   1      47.309  29.293  30.575  1.00  0.00     0.029 A 
ATOM     51  N   UNL A   1      45.175  28.886  30.097  1.00  0.00    -0.354 N 
ATOM     52  N   UNL A   1      42.350  29.561  29.803  1.00  0.00    -0.248 NA
ATOM     53  C   UNL A   1      40.593  31.087  30.011  1.00  0.00     0.031 C 
ATOM     54  C   UNL A   1      46.570  30.453  30.831  1.00  0.00     0.029 A 
ATOM     55  C   UNL A   1      45.245  30.204  30.513  1.00  0.00     0.049 A 
ATOM     56  H   UNL A   1      44.352  28.424  29.816  1.00  0.00     0.167 HD
ATOM     57  C   UNL A   1      42.849  30.774  30.261  1.00  0.00     0.074 A 
ATOM     58  C   UNL A   1      41.727  31.686  30.344  1.00  0.00     0.031 C 
ATOM     59  C   UNL A   1      44.123  31.102  30.584  1.00  0.00     0.031 A 
BRANCH  46  60
ATOM     60  C   UNL A   1      48.135  26.458  29.928  1.00  0.00    -0.014 A 
ATOM     61  C   UNL A   1      48.559  25.822  31.106  1.00  0.00     0.009 A 
ATOM     62  C   UNL A   1      49.047  26.611  28.872  1.00  0.00     0.009 A 
ATOM     63  C   UNL A   1      49.878  25.383  31.238  1.00  0.00     0.001 A 
ATOM     64  C   UNL A   1      50.358  26.148  28.996  1.00  0.00     0.001 A 
ATOM     65  C   UNL A   1      50.775  25.543  30.182  1.00  0.00     0.000 A 
ENDBRANCH  46  60
BRANCH  47  66
ATOM     66  C   UNL A   1      38.605  29.199  29.015  1.00  0.00    -0.014 A 
ATOM     67  C   UNL A   1      38.107  29.675  27.792  1.00  0.00     0.009 A 
ATOM     68  C   UNL A   1      37.744  29.134  30.121  1.00  0.00     0.009 A 
ATOM     69  C   UNL A   1      36.781  30.099  27.686  1.00  0.00     0.001 A 
ATOM     70  C   UNL A   1      36.412  29.537  30.006  1.00  0.00     0.001 A 
ATOM     71  C   UNL A   1      35.934  30.027  28.791  1.00  0.00     0.000 A 
ENDBRANCH  47  66
BRANCH  59  72
ATOM     72  C   UNL A   1      44.380  32.515  31.019  1.00  0.00    -0.014 A 
ATOM     73  C   UNL A   1      44.678  33.520  30.087  1.00  0.00     0.009 A 
ATOM     74  C   UNL A   1      44.282  32.852  32.378  1.00  0.00     0.009 A 
ATOM     75  C   UNL A   1      44.900  34.831  30.511  1.00  0.00     0.001 A 
ATOM     76  C   UNL A   1      44.482  34.168  32.797  1.00  0.00     0.001 A 
ATOM     77  C   UNL A   1      44.799  35.155  31.865  1.00  0.00     0.000 A 
ENDBRANCH  59  72
ENDBRANCH  33  34
ENDBRANCH  25  28
ENDBRANCH  23  24
ENDBRANCH  22  23
ENDBRANCH   1  22
TORSDOF 15
ENDMDL
MODEL 3
REMARK VINA RESULT:      -9.7      2.091      7.424
REMARK SMILES CCC(CC)C[N@H+]1[C@@H]2CC[C@H]1C[C@H](CC(=O)NCCCNC(=O)c1ccc(-c3c4nc(c(-c5ccccc5)c5ccc([nH]5)c(-c5ccccc5)c5nc(c(-c6ccccc6)c6ccc3[nH]6)C=C5)C=C4)cc1)C2
REMARK SMILES IDX 18 1 17 2 15 3 16 4 14 6 13 7 7 8 8 9 11 10 9 12 72 13 10 14
REMARK SMILES IDX 12 15 6 16 3 17 2 18 1 19 4 20 5 21 19 22 20 23 21 24 22 25
REMARK SMILES IDX 23 27 24 28 25 29 71 30 26 31 70 32 27 33 28 34 29 35 64 36
REMARK SMILES IDX 30 37 69 38 63 39 65 40 31 41 68 42 62 43 61 44 32 46 54 47
REMARK SMILES IDX 39 48 53 49 40 50 43 51 52 52 66 53 41 54 42 55 51 57 67 58
REMARK SMILES IDX 44 59 33 60 34 61 38 62 35 63 37 64 36 65 55 66 56 67 60 68
REMARK SMILES IDX 57 69 59 70 58 71 45 72 46 73 50 74 47 75 49 76 48 77
REMARK H PARENT 17 5 7 11 21 26 65 45 43 56
REMARK Flexibility Score: inf
ROOT
ATOM      1  C   UNL A   1      37.418  21.097  24.561  1.00  0.00     0.117 C 
ENDROOT
BRANCH   1   2
ATOM      2  N   UNL A   1      37.959  22.350  25.076  1.00  0.00    -0.356 N 
ATOM      3  C   UNL A   1      37.390  23.404  25.723  1.00  0.00     0.220 C 
ATOM      4  O   UNL A   1      38.125  24.340  26.045  1.00  0.00    -0.275 OA
ATOM      5  H   UNL A   1      38.926  22.453  24.927  1.00  0.00     0.163 HD
BRANCH   3   6
ATOM      6  C   UNL A   1      35.911  23.443  26.044  1.00  0.00     0.104 C 
BRANCH   6   7
ATOM      7  C   UNL A   1      35.095  24.342  25.087  1.00  0.00     0.010 C 
ATOM      8  N   UNL A   1      32.395  23.946  23.897  1.00  0.00    -0.330 N 
ATOM      9  C   UNL A   1      32.593  25.043  24.837  1.00  0.00     0.184 C 
ATOM     10  C   UNL A   1      33.560  24.028  23.018  1.00  0.00     0.184 C 
ATOM     11  H   UNL A   1      31.491  24.097  23.450  1.00  0.00     0.348 HD
ATOM     12  C   UNL A   1      32.862  26.184  23.842  1.00  0.00     0.071 C 
ATOM     13  C   UNL A   1      33.809  24.864  25.773  1.00  0.00     0.069 C 
ATOM     14  C   UNL A   1      33.590  25.518  22.677  1.00  0.00     0.071 C 
ATOM     15  C   UNL A   1      34.819  23.604  23.768  1.00  0.00     0.069 C 
BRANCH   8  16
ATOM     16  C   UNL A   1      31.940  22.607  24.285  1.00  0.00     0.266 C 
BRANCH  16  17
ATOM     17  C   UNL A   1      32.873  21.371  24.187  1.00  0.00     0.044 C 
BRANCH  17  18
ATOM     18  C   UNL A   1      33.155  20.747  25.571  1.00  0.00     0.006 C 
ATOM     19  C   UNL A   1      32.921  19.242  25.602  1.00  0.00     0.004 C 
ENDBRANCH  17  18
BRANCH  17  20
ATOM     20  C   UNL A   1      32.354  20.332  23.161  1.00  0.00     0.006 C 
ATOM     21  C   UNL A   1      31.879  20.892  21.830  1.00  0.00     0.004 C 
ENDBRANCH  17  20
ENDBRANCH  16  17
ENDBRANCH   8  16
ENDBRANCH   6   7
ENDBRANCH   3   6
ENDBRANCH   1   2
BRANCH   1  22
ATOM     22  C   UNL A   1      38.245  19.869  24.956  1.00  0.00     0.042 C 
BRANCH  22  23
ATOM     23  C   UNL A   1      39.219  20.090  26.109  1.00  0.00     0.118 C 
BRANCH  23  24
ATOM     24  N   UNL A   1      40.393  19.246  25.984  1.00  0.00    -0.352 N 
ATOM     25  C   UNL A   1      41.721  19.582  26.023  1.00  0.00     0.251 C 
ATOM     26  H   UNL A   1      40.207  18.289  25.848  1.00  0.00     0.163 HD
ATOM     27  O   UNL A   1      42.555  18.756  25.647  1.00  0.00    -0.269 OA
BRANCH  25  28
ATOM     28  C   UNL A   1      42.183  20.907  26.511  1.00  0.00     0.039 A 
ATOM     29  C   UNL A   1      42.211  21.132  27.894  1.00  0.00     0.014 A 
ATOM     30  C   UNL A   1      42.482  21.959  25.641  1.00  0.00     0.014 A 
ATOM     31  C   UNL A   1      42.532  22.397  28.397  1.00  0.00     0.010 A 
ATOM     32  C   UNL A   1      42.870  23.204  26.145  1.00  0.00     0.010 A 
ATOM     33  C   UNL A   1      42.861  23.447  27.527  1.00  0.00    -0.014 A 
BRANCH  33  34
ATOM     34  C   UNL A   1      43.103  24.821  28.044  1.00  0.00     0.031 A 
ATOM     35  C   UNL A   1      44.508  25.268  28.355  1.00  0.00     0.074 A 
ATOM     36  C   UNL A   1      42.074  25.665  28.253  1.00  0.00     0.049 A 
ATOM     37  N   UNL A   1      44.925  26.411  28.844  1.00  0.00    -0.248 NA
ATOM     38  C   UNL A   1      45.586  24.297  28.105  1.00  0.00     0.031 C 
ATOM     39  C   UNL A   1      40.663  25.360  28.014  1.00  0.00     0.029 A 
ATOM     40  N   UNL A   1      42.064  26.958  28.714  1.00  0.00    -0.354 N 
ATOM     41  C   UNL A   1      46.302  26.282  28.985  1.00  0.00     0.074 A 
ATOM     42  C   UNL A   1      46.646  24.941  28.568  1.00  0.00     0.031 C 
ATOM     43  C   UNL A   1      39.926  26.444  28.308  1.00  0.00     0.029 A 
ATOM     44  C   UNL A   1      40.807  27.509  28.781  1.00  0.00     0.049 A 
ATOM     45  H   UNL A   1      42.879  27.445  28.972  1.00  0.00     0.167 HD
ATOM     46  C   UNL A   1      47.207  27.200  29.402  1.00  0.00     0.031 A 
ATOM     47  C   UNL A   1      40.408  28.732  29.176  1.00  0.00     0.031 A 
ATOM     48  C   UNL A   1      46.881  28.547  29.786  1.00  0.00     0.049 A 
ATOM     49  C   UNL A   1      41.430  29.740  29.623  1.00  0.00     0.074 A 
ATOM     50  C   UNL A   1      47.736  29.565  30.171  1.00  0.00     0.029 A 
ATOM     51  N   UNL A   1      45.597  29.065  29.823  1.00  0.00    -0.354 N 
ATOM     52  N   UNL A   1      42.733  29.616  29.702  1.00  0.00    -0.248 NA
ATOM     53  C   UNL A   1      40.926  31.063  30.021  1.00  0.00     0.031 C 
ATOM     54  C   UNL A   1      46.964  30.692  30.475  1.00  0.00     0.029 A 
ATOM     55  C   UNL A   1      45.635  30.385  30.237  1.00  0.00     0.049 A 
ATOM     56  H   UNL A   1      44.780  28.567  29.591  1.00  0.00     0.167 HD
ATOM     57  C   UNL A   1      43.205  30.849  30.133  1.00  0.00     0.074 A 
ATOM     58  C   UNL A   1      42.051  31.711  30.286  1.00  0.00     0.031 C 
ATOM     59  C   UNL A   1      44.481  31.232  30.379  1.00  0.00     0.031 A 
BRANCH  46  60
ATOM     60  C   UNL A   1      48.645  26.769  29.468  1.00  0.00    -0.014 A 
ATOM     61  C   UNL A   1      49.175  26.180  30.627  1.00  0.00     0.009 A 
ATOM     62  C   UNL A   1      49.476  26.933  28.348  1.00  0.00     0.009 A 
ATOM     63  C   UNL A   1      50.518  25.800  30.676  1.00  0.00     0.001 A 
ATOM     64  C   UNL A   1      50.811  26.528  28.391  1.00  0.00     0.001 A 
ATOM     65  C   UNL A   1      51.333  25.970  29.558  1.00  0.00     0.000 A 
ENDBRANCH  46  60
BRANCH  47  66
ATOM     66  C   UNL A   1      38.966  29.089  29.143  1.00  0.00    -0.014 A 
ATOM     67  C   UNL A   1      38.170  28.937  30.289  1.00  0.00     0.009 A 
ATOM     68  C   UNL A   1      38.378  29.575  27.965  1.00  0.00     0.009 A 
ATOM     69  C   UNL A   1      36.808  29.242  30.249  1.00  0.00     0.001 A 
ATOM     70  C   UNL A   1      37.020  29.902  27.936  1.00  0.00     0.001 A 
ATOM     71  C   UNL A   1      36.235  29.728  29.075  1.00  0.00     0.000 A 
ENDBRANCH  47  66
BRANCH  59  72
ATOM     72  C   UNL A   1      44.702  32.655  30.802  1.00  0.00    -0.014 A 
ATOM     73  C   UNL A   1      44.871  33.677  29.855  1.00  0.00     0.009 A 
ATOM     74  C   UNL A   1      44.700  32.983  32.166  1.00  0.00     0.009 A 
ATOM     75  C   UNL A   1      45.061  34.997  30.269  1.00  0.00     0.001 A 
ATOM     76  C   UNL A   1      44.868  34.306  32.576  1.00  0.00     0.001 A 
ATOM     77  C   UNL A   1      45.056  35.310  31.629  1.00  0.00     0.000 A 
ENDBRANCH  59  72
ENDBRANCH  33  34
ENDBRANCH  25  28
ENDBRANCH  23  24
ENDBRANCH  22  23
ENDBRANCH   1  22
TORSDOF 15
ENDMDL
