MODEL 1
REMARK VINA RESULT:     -11.9      0.000      0.000
REMARK SMILES Cc1ccnc(C(=O)c2[nH]c3ccc(C(C)(C)C)cc3c2CC(=O)NCCCNC(=O)c2ccc(-c3c4nc(c(-c5ccccc5)c5ccc([nH]5)c(-c5ccccc5)c5nc(c(-c6ccccc6)c6ccc3[nH]6)C=C5)C=C4)cc2)c1
REMARK SMILES IDX 26 1 25 2 23 3 24 4 22 6 21 7 9 8 10 9 11 10 20 12 12 13
REMARK SMILES IDX 19 14 13 15 14 16 7 17 8 18 6 19 1 20 2 21 3 22 80 23 4 24
REMARK SMILES IDX 5 25 15 26 16 27 17 28 18 29 27 30 28 31 29 32 30 33 31 35
REMARK SMILES IDX 32 36 33 37 79 38 34 39 78 40 35 41 36 42 37 43 72 44 38 45
REMARK SMILES IDX 77 46 71 47 73 48 39 49 76 50 70 51 69 52 40 54 62 55 47 56
REMARK SMILES IDX 61 57 48 58 51 59 60 60 74 61 49 62 50 63 59 65 75 66 52 67
REMARK SMILES IDX 41 68 42 69 46 70 43 71 45 72 44 73 63 74 64 75 68 76 65 77
REMARK SMILES IDX 67 78 66 79 53 80 54 81 58 82 55 83 57 84 56 85
REMARK H PARENT 25 5 10 11 29 34 73 53 51 64
REMARK Flexibility Score: inf
ROOT
ATOM      1  C   UNL A   1      37.411  21.376  24.242  1.00  0.00     0.117 C 
ENDROOT
BRANCH   1   2
ATOM      2  N   UNL A   1      37.645  22.460  25.176  1.00  0.00    -0.356 N 
ATOM      3  C   UNL A   1      36.959  23.628  25.345  1.00  0.00     0.224 C 
ATOM      4  O   UNL A   1      37.271  24.359  26.289  1.00  0.00    -0.275 OA
ATOM      5  H   UNL A   1      38.414  22.336  25.778  1.00  0.00     0.163 HD
BRANCH   3   6
ATOM      6  C   UNL A   1      35.785  23.976  24.449  1.00  0.00     0.138 C 
BRANCH   6   7
ATOM      7  C   UNL A   1      34.446  23.923  25.125  1.00  0.00    -0.002 A 
ATOM      8  C   UNL A   1      33.795  22.806  25.639  1.00  0.00     0.093 A 
ATOM      9  N   UNL A   1      32.610  23.232  26.191  1.00  0.00    -0.352 N 
ATOM     10  C   UNL A   1      32.447  24.581  26.009  1.00  0.00     0.046 A 
ATOM     11  H   UNL A   1      31.966  22.649  26.655  1.00  0.00     0.167 HD
ATOM     12  C   UNL A   1      33.574  25.045  25.341  1.00  0.00     0.004 A 
ATOM     13  C   UNL A   1      31.403  25.420  26.400  1.00  0.00     0.027 A 
ATOM     14  C   UNL A   1      33.657  26.425  25.056  1.00  0.00     0.015 A 
ATOM     15  C   UNL A   1      31.520  26.787  26.109  1.00  0.00     0.006 A 
ATOM     16  C   UNL A   1      32.635  27.320  25.445  1.00  0.00    -0.042 A 
BRANCH   8  17
ATOM     17  C   UNL A   1      34.223  21.421  25.714  1.00  0.00     0.227 C 
ATOM     18  O   UNL A   1      34.995  21.052  26.595  1.00  0.00    -0.285 OA
BRANCH  17  19
ATOM     19  C   UNL A   1      33.606  20.433  24.752  1.00  0.00     0.113 A 
ATOM     20  C   UNL A   1      33.865  16.813  23.642  1.00  0.00     0.044 C 
ATOM     21  C   UNL A   1      33.454  18.252  23.742  1.00  0.00    -0.047 A 
ATOM     22  C   UNL A   1      32.476  18.763  22.888  1.00  0.00     0.023 A 
ATOM     23  C   UNL A   1      34.014  19.098  24.704  1.00  0.00     0.036 A 
ATOM     24  C   UNL A   1      32.119  20.095  23.012  1.00  0.00     0.112 A 
ATOM     25  N   UNL A   1      32.669  20.940  23.909  1.00  0.00    -0.253 NA
ENDBRANCH  17  19
ENDBRANCH   8  17
BRANCH  16  26
ATOM     26  C   UNL A   1      32.786  28.824  25.156  1.00  0.00    -0.013 C 
ATOM     27  C   UNL A   1      33.703  29.458  26.227  1.00  0.00     0.016 C 
ATOM     28  C   UNL A   1      33.413  29.033  23.761  1.00  0.00     0.016 C 
ATOM     29  C   UNL A   1      31.452  29.603  25.177  1.00  0.00     0.016 C 
ENDBRANCH  16  26
ENDBRANCH   6   7
ENDBRANCH   3   6
ENDBRANCH   1   2
BRANCH   1  30
ATOM     30  C   UNL A   1      37.913  20.021  24.738  1.00  0.00     0.042 C 
BRANCH  30  31
ATOM     31  C   UNL A   1      38.812  20.078  25.971  1.00  0.00     0.118 C 
BRANCH  31  32
ATOM     32  N   UNL A   1      40.021  19.284  25.819  1.00  0.00    -0.352 N 
ATOM     33  C   UNL A   1      41.335  19.631  26.011  1.00  0.00     0.251 C 
ATOM     34  H   UNL A   1      39.874  18.353  25.537  1.00  0.00     0.163 HD
ATOM     35  O   UNL A   1      42.222  18.851  25.674  1.00  0.00    -0.269 OA
BRANCH  33  36
ATOM     36  C   UNL A   1      41.705  20.937  26.603  1.00  0.00     0.039 A 
ATOM     37  C   UNL A   1      42.026  21.990  25.737  1.00  0.00     0.014 A 
ATOM     38  C   UNL A   1      41.815  21.116  27.985  1.00  0.00     0.014 A 
ATOM     39  C   UNL A   1      42.407  23.231  26.254  1.00  0.00     0.010 A 
ATOM     40  C   UNL A   1      42.171  22.364  28.503  1.00  0.00     0.010 A 
ATOM     41  C   UNL A   1      42.468  23.430  27.641  1.00  0.00    -0.014 A 
BRANCH  41  42
ATOM     42  C   UNL A   1      42.856  24.744  28.203  1.00  0.00     0.031 A 
ATOM     43  C   UNL A   1      41.812  25.787  28.478  1.00  0.00     0.074 A 
ATOM     44  C   UNL A   1      44.151  25.019  28.440  1.00  0.00     0.049 A 
ATOM     45  N   UNL A   1      41.971  27.036  28.835  1.00  0.00    -0.248 NA
ATOM     46  C   UNL A   1      40.409  25.373  28.325  1.00  0.00     0.031 C 
ATOM     47  C   UNL A   1      45.269  24.099  28.223  1.00  0.00     0.029 A 
ATOM     48  N   UNL A   1      44.742  26.163  28.913  1.00  0.00    -0.354 N 
ATOM     49  C   UNL A   1      40.693  27.571  28.911  1.00  0.00     0.074 A 
ATOM     50  C   UNL A   1      39.768  26.503  28.588  1.00  0.00     0.031 C 
ATOM     51  C   UNL A   1      46.412  24.713  28.576  1.00  0.00     0.029 A 
ATOM     52  C   UNL A   1      46.107  26.070  29.017  1.00  0.00     0.049 A 
ATOM     53  H   UNL A   1      44.236  26.971  29.156  1.00  0.00     0.167 HD
ATOM     54  C   UNL A   1      40.321  28.838  29.210  1.00  0.00     0.031 A 
ATOM     55  C   UNL A   1      47.014  26.983  29.411  1.00  0.00     0.031 A 
ATOM     56  C   UNL A   1      41.223  29.899  29.562  1.00  0.00     0.049 A 
ATOM     57  C   UNL A   1      46.573  28.365  29.791  1.00  0.00     0.074 A 
ATOM     58  C   UNL A   1      40.933  31.222  29.848  1.00  0.00     0.029 A 
ATOM     59  N   UNL A   1      42.592  29.751  29.695  1.00  0.00    -0.354 N 
ATOM     60  N   UNL A   1      45.365  28.872  29.790  1.00  0.00    -0.248 NA
ATOM     61  C   UNL A   1      47.625  29.300  30.213  1.00  0.00     0.031 C 
ATOM     62  C   UNL A   1      42.131  31.873  30.169  1.00  0.00     0.029 A 
ATOM     63  C   UNL A   1      43.162  30.953  30.078  1.00  0.00     0.049 A 
ATOM     64  H   UNL A   1      43.089  28.914  29.541  1.00  0.00     0.167 HD
ATOM     65  C   UNL A   1      45.514  30.192  30.193  1.00  0.00     0.074 A 
ATOM     66  C   UNL A   1      46.924  30.402  30.446  1.00  0.00     0.031 C 
ATOM     67  C   UNL A   1      44.563  31.146  30.327  1.00  0.00     0.031 A 
BRANCH  54  68
ATOM     68  C   UNL A   1      38.857  29.142  29.144  1.00  0.00    -0.014 A 
ATOM     69  C   UNL A   1      38.259  29.513  27.932  1.00  0.00     0.009 A 
ATOM     70  C   UNL A   1      38.069  29.044  30.301  1.00  0.00     0.009 A 
ATOM     71  C   UNL A   1      36.894  29.797  27.883  1.00  0.00     0.001 A 
ATOM     72  C   UNL A   1      36.705  29.328  30.247  1.00  0.00     0.001 A 
ATOM     73  C   UNL A   1      36.118  29.707  29.039  1.00  0.00     0.000 A 
ENDBRANCH  54  68
BRANCH  55  74
ATOM     74  C   UNL A   1      48.448  26.622  29.443  1.00  0.00    -0.014 A 
ATOM     75  C   UNL A   1      49.013  26.080  30.606  1.00  0.00     0.009 A 
ATOM     76  C   UNL A   1      49.254  26.818  28.313  1.00  0.00     0.009 A 
ATOM     77  C   UNL A   1      50.367  25.746  30.640  1.00  0.00     0.001 A 
ATOM     78  C   UNL A   1      50.607  26.483  28.349  1.00  0.00     0.001 A 
ATOM     79  C   UNL A   1      51.163  25.948  29.512  1.00  0.00     0.000 A 
ENDBRANCH  55  74
BRANCH  67  80
ATOM     80  C   UNL A   1      45.026  32.503  30.756  1.00  0.00    -0.014 A 
ATOM     81  C   UNL A   1      45.088  32.828  32.119  1.00  0.00     0.009 A 
ATOM     82  C   UNL A   1      45.416  33.455  29.803  1.00  0.00     0.009 A 
ATOM     83  C   UNL A   1      45.521  34.091  32.522  1.00  0.00     0.001 A 
ATOM     84  C   UNL A   1      45.848  34.718  30.210  1.00  0.00     0.001 A 
ATOM     85  C   UNL A   1      45.898  35.036  31.567  1.00  0.00     0.000 A 
ENDBRANCH  67  80
ENDBRANCH  41  42
ENDBRANCH  33  36
ENDBRANCH  31  32
ENDBRANCH  30  31
ENDBRANCH   1  30
TORSDOF 14
ENDMDL
MODEL 2
REMARK VINA RESULT:     -11.7      0.851      5.823
REMARK SMILES Cc1ccnc(C(=O)c2[nH]c3ccc(C(C)(C)C)cc3c2CC(=O)NCCCNC(=O)c2ccc(-c3c4nc(c(-c5ccccc5)c5ccc([nH]5)c(-c5ccccc5)c5nc(c(-c6ccccc6)c6ccc3[nH]6)C=C5)C=C4)cc2)c1
REMARK SMILES IDX 26 1 25 2 23 3 24 4 22 6 21 7 9 8 10 9 11 10 20 12 12 13
REMARK SMILES IDX 19 14 13 15 14 16 7 17 8 18 6 19 1 20 2 21 3 22 80 23 4 24
REMARK SMILES IDX 5 25 15 26 16 27 17 28 18 29 27 30 28 31 29 32 30 33 31 35
REMARK SMILES IDX 32 36 33 37 79 38 34 39 78 40 35 41 36 42 37 43 72 44 38 45
REMARK SMILES IDX 77 46 71 47 73 48 39 49 76 50 70 51 69 52 40 54 62 55 47 56
REMARK SMILES IDX 61 57 48 58 51 59 60 60 74 61 49 62 50 63 59 65 75 66 52 67
REMARK SMILES IDX 41 68 42 69 46 70 43 71 45 72 44 73 63 74 64 75 68 76 65 77
REMARK SMILES IDX 67 78 66 79 53 80 54 81 58 82 55 83 57 84 56 85
REMARK H PARENT 25 5 10 11 29 34 73 53 51 64
REMARK Flexibility Score: inf
ROOT
ATOM      1  C   UNL A   1      37.443  21.393  25.229  1.00  0.00     0.117 C 
ENDROOT
BRANCH   1   2
ATOM      2  N   UNL A   1      36.770  21.885  24.042  1.00  0.00    -0.356 N 
ATOM      3  C   UNL A   1      35.975  22.982  23.883  1.00  0.00     0.224 C 
ATOM      4  O   UNL A   1      35.599  23.274  22.745  1.00  0.00    -0.275 OA
ATOM      5  H   UNL A   1      36.906  21.346  23.229  1.00  0.00     0.163 HD
BRANCH   3   6
ATOM      6  C   UNL A   1      35.635  23.873  25.065  1.00  0.00     0.138 C 
BRANCH   6   7
ATOM      7  C   UNL A   1      34.184  23.873  25.450  1.00  0.00    -0.002 A 
ATOM      8  C   UNL A   1      33.404  22.786  25.831  1.00  0.00     0.093 A 
ATOM      9  N   UNL A   1      32.146  23.258  26.123  1.00  0.00    -0.352 N 
ATOM     10  C   UNL A   1      32.070  24.608  25.897  1.00  0.00     0.046 A 
ATOM     11  H   UNL A   1      31.402  22.703  26.450  1.00  0.00     0.167 HD
ATOM     12  C   UNL A   1      33.326  25.025  25.470  1.00  0.00     0.004 A 
ATOM     13  C   UNL A   1      30.997  25.485  26.055  1.00  0.00     0.027 A 
ATOM     14  C   UNL A   1      33.512  26.397  25.194  1.00  0.00     0.015 A 
ATOM     15  C   UNL A   1      31.217  26.842  25.780  1.00  0.00     0.006 A 
ATOM     16  C   UNL A   1      32.462  27.329  25.354  1.00  0.00    -0.042 A 
BRANCH   8  17
ATOM     17  C   UNL A   1      33.761  21.390  26.008  1.00  0.00     0.227 C 
ATOM     18  O   UNL A   1      34.307  21.010  27.040  1.00  0.00    -0.285 OA
BRANCH  17  19
ATOM     19  C   UNL A   1      33.341  20.408  24.938  1.00  0.00     0.113 A 
ATOM     20  C   UNL A   1      34.063  16.901  23.680  1.00  0.00     0.044 C 
ATOM     21  C   UNL A   1      33.505  18.287  23.809  1.00  0.00    -0.047 A 
ATOM     22  C   UNL A   1      32.570  18.756  22.886  1.00  0.00     0.023 A 
ATOM     23  C   UNL A   1      33.882  19.122  24.865  1.00  0.00     0.036 A 
ATOM     24  C   UNL A   1      32.072  20.039  23.039  1.00  0.00     0.112 A 
ATOM     25  N   UNL A   1      32.446  20.876  24.030  1.00  0.00    -0.253 NA
ENDBRANCH  17  19
ENDBRANCH   8  17
BRANCH  16  26
ATOM     26  C   UNL A   1      32.720  28.823  25.087  1.00  0.00    -0.013 C 
ATOM     27  C   UNL A   1      33.532  28.974  23.782  1.00  0.00     0.016 C 
ATOM     28  C   UNL A   1      31.378  29.572  24.941  1.00  0.00     0.016 C 
ATOM     29  C   UNL A   1      33.516  29.531  26.207  1.00  0.00     0.016 C 
ENDBRANCH  16  26
ENDBRANCH   6   7
ENDBRANCH   3   6
ENDBRANCH   1   2
BRANCH   1  30
ATOM     30  C   UNL A   1      38.466  20.296  24.942  1.00  0.00     0.042 C 
BRANCH  30  31
ATOM     31  C   UNL A   1      39.222  19.781  26.164  1.00  0.00     0.118 C 
BRANCH  31  32
ATOM     32  N   UNL A   1      40.488  19.156  25.818  1.00  0.00    -0.352 N 
ATOM     33  C   UNL A   1      41.759  19.674  25.823  1.00  0.00     0.251 C 
ATOM     34  H   UNL A   1      40.424  18.214  25.538  1.00  0.00     0.163 HD
ATOM     35  O   UNL A   1      42.680  19.020  25.341  1.00  0.00    -0.269 OA
BRANCH  33  36
ATOM     36  C   UNL A   1      42.039  21.015  26.385  1.00  0.00     0.039 A 
ATOM     37  C   UNL A   1      41.921  21.191  27.770  1.00  0.00     0.014 A 
ATOM     38  C   UNL A   1      42.340  22.109  25.568  1.00  0.00     0.014 A 
ATOM     39  C   UNL A   1      42.151  22.446  28.338  1.00  0.00     0.010 A 
ATOM     40  C   UNL A   1      42.595  23.359  26.139  1.00  0.00     0.010 A 
ATOM     41  C   UNL A   1      42.503  23.535  27.527  1.00  0.00    -0.014 A 
BRANCH  41  42
ATOM     42  C   UNL A   1      42.764  24.868  28.119  1.00  0.00     0.031 A 
ATOM     43  C   UNL A   1      44.147  25.238  28.570  1.00  0.00     0.074 A 
ATOM     44  C   UNL A   1      41.755  25.742  28.280  1.00  0.00     0.049 A 
ATOM     45  N   UNL A   1      44.541  26.295  29.233  1.00  0.00    -0.248 NA
ATOM     46  C   UNL A   1      45.224  24.292  28.240  1.00  0.00     0.031 C 
ATOM     47  C   UNL A   1      40.363  25.517  27.883  1.00  0.00     0.029 A 
ATOM     48  N   UNL A   1      41.749  26.998  28.831  1.00  0.00    -0.354 N 
ATOM     49  C   UNL A   1      45.903  26.126  29.436  1.00  0.00     0.074 A 
ATOM     50  C   UNL A   1      46.273  24.876  28.803  1.00  0.00     0.031 C 
ATOM     51  C   UNL A   1      39.641  26.608  28.193  1.00  0.00     0.029 A 
ATOM     52  C   UNL A   1      40.512  27.591  28.829  1.00  0.00     0.049 A 
ATOM     53  H   UNL A   1      42.556  27.433  29.191  1.00  0.00     0.167 HD
ATOM     54  C   UNL A   1      46.767  26.930  30.099  1.00  0.00     0.031 A 
ATOM     55  C   UNL A   1      40.120  28.789  29.300  1.00  0.00     0.031 A 
ATOM     56  C   UNL A   1      46.422  28.186  30.705  1.00  0.00     0.049 A 
ATOM     57  C   UNL A   1      41.108  29.688  29.982  1.00  0.00     0.074 A 
ATOM     58  C   UNL A   1      47.230  29.050  31.425  1.00  0.00     0.029 A 
ATOM     59  N   UNL A   1      45.168  28.767  30.644  1.00  0.00    -0.354 N 
ATOM     60  N   UNL A   1      42.378  29.480  30.226  1.00  0.00    -0.248 NA
ATOM     61  C   UNL A   1      40.600  30.980  30.465  1.00  0.00     0.031 C 
ATOM     62  C   UNL A   1      46.464  30.164  31.789  1.00  0.00     0.029 A 
ATOM     63  C   UNL A   1      45.182  29.988  31.296  1.00  0.00     0.049 A 
ATOM     64  H   UNL A   1      44.382  28.372  30.200  1.00  0.00     0.167 HD
ATOM     65  C   UNL A   1      42.817  30.606  30.906  1.00  0.00     0.074 A 
ATOM     66  C   UNL A   1      41.685  31.501  31.023  1.00  0.00     0.031 C 
ATOM     67  C   UNL A   1      44.050  30.866  31.402  1.00  0.00     0.031 A 
BRANCH  54  68
ATOM     68  C   UNL A   1      48.179  26.448  30.217  1.00  0.00    -0.014 A 
ATOM     69  C   UNL A   1      49.124  26.763  29.231  1.00  0.00     0.009 A 
ATOM     70  C   UNL A   1      48.568  25.686  31.328  1.00  0.00     0.009 A 
ATOM     71  C   UNL A   1      50.438  26.306  29.350  1.00  0.00     0.001 A 
ATOM     72  C   UNL A   1      49.882  25.233  31.444  1.00  0.00     0.001 A 
ATOM     73  C   UNL A   1      50.815  25.540  30.454  1.00  0.00     0.000 A 
ENDBRANCH  54  68
BRANCH  55  74
ATOM     74  C   UNL A   1      38.706  29.202  29.162  1.00  0.00    -0.014 A 
ATOM     75  C   UNL A   1      38.245  29.748  27.956  1.00  0.00     0.009 A 
ATOM     76  C   UNL A   1      37.816  29.051  30.235  1.00  0.00     0.009 A 
ATOM     77  C   UNL A   1      36.914  30.144  27.828  1.00  0.00     0.001 A 
ATOM     78  C   UNL A   1      36.485  29.448  30.103  1.00  0.00     0.001 A 
ATOM     79  C   UNL A   1      36.035  29.995  28.902  1.00  0.00     0.000 A 
ENDBRANCH  55  74
BRANCH  67  80
ATOM     80  C   UNL A   1      44.226  32.166  32.122  1.00  0.00    -0.014 A 
ATOM     81  C   UNL A   1      44.618  33.314  31.418  1.00  0.00     0.009 A 
ATOM     82  C   UNL A   1      43.988  32.252  33.501  1.00  0.00     0.009 A 
ATOM     83  C   UNL A   1      44.781  34.528  32.087  1.00  0.00     0.001 A 
ATOM     84  C   UNL A   1      44.153  33.467  34.168  1.00  0.00     0.001 A 
ATOM     85  C   UNL A   1      44.551  34.602  33.461  1.00  0.00     0.000 A 
ENDBRANCH  67  80
ENDBRANCH  41  42
ENDBRANCH  33  36
ENDBRANCH  31  32
ENDBRANCH  30  31
ENDBRANCH   1  30
TORSDOF 14
ENDMDL
MODEL 3
REMARK VINA RESULT:     -11.6      3.780      9.074
REMARK SMILES Cc1ccnc(C(=O)c2[nH]c3ccc(C(C)(C)C)cc3c2CC(=O)NCCCNC(=O)c2ccc(-c3c4nc(c(-c5ccccc5)c5ccc([nH]5)c(-c5ccccc5)c5nc(c(-c6ccccc6)c6ccc3[nH]6)C=C5)C=C4)cc2)c1
REMARK SMILES IDX 26 1 25 2 23 3 24 4 22 6 21 7 9 8 10 9 11 10 20 12 12 13
REMARK SMILES IDX 19 14 13 15 14 16 7 17 8 18 6 19 1 20 2 21 3 22 80 23 4 24
REMARK SMILES IDX 5 25 15 26 16 27 17 28 18 29 27 30 28 31 29 32 30 33 31 35
REMARK SMILES IDX 32 36 33 37 79 38 34 39 78 40 35 41 36 42 37 43 72 44 38 45
REMARK SMILES IDX 77 46 71 47 73 48 39 49 76 50 70 51 69 52 40 54 62 55 47 56
REMARK SMILES IDX 61 57 48 58 51 59 60 60 74 61 49 62 50 63 59 65 75 66 52 67
REMARK SMILES IDX 41 68 42 69 46 70 43 71 45 72 44 73 63 74 64 75 68 76 65 77
REMARK SMILES IDX 67 78 66 79 53 80 54 81 58 82 55 83 57 84 56 85
REMARK H PARENT 25 5 10 11 29 34 73 53 51 64
REMARK Flexibility Score: inf
ROOT
ATOM      1  C   UNL A   1      32.110  30.320  26.050  1.00  0.00     0.117 C 
ENDROOT
BRANCH   1   2
ATOM      2  N   UNL A   1      31.656  29.073  26.635  1.00  0.00    -0.356 N 
ATOM      3  C   UNL A   1      32.212  27.828  26.573  1.00  0.00     0.224 C 
ATOM      4  O   UNL A   1      31.710  26.927  27.250  1.00  0.00    -0.275 OA
ATOM      5  H   UNL A   1      30.822  29.132  27.155  1.00  0.00     0.163 HD
BRANCH   3   6
ATOM      6  C   UNL A   1      33.469  27.578  25.760  1.00  0.00     0.138 C 
BRANCH   6   7
ATOM      7  C   UNL A   1      33.262  26.749  24.526  1.00  0.00    -0.002 A 
ATOM      8  C   UNL A   1      32.613  27.117  23.352  1.00  0.00     0.093 A 
ATOM      9  N   UNL A   1      32.690  26.054  22.483  1.00  0.00    -0.352 N 
ATOM     10  C   UNL A   1      33.325  24.991  23.072  1.00  0.00     0.046 A 
ATOM     11  H   UNL A   1      32.338  26.056  21.564  1.00  0.00     0.167 HD
ATOM     12  C   UNL A   1      33.692  25.389  24.352  1.00  0.00     0.004 A 
ATOM     13  C   UNL A   1      33.615  23.725  22.563  1.00  0.00     0.027 A 
ATOM     14  C   UNL A   1      34.392  24.466  25.160  1.00  0.00     0.015 A 
ATOM     15  C   UNL A   1      34.318  22.835  23.387  1.00  0.00     0.006 A 
ATOM     16  C   UNL A   1      34.724  23.177  24.685  1.00  0.00    -0.042 A 
BRANCH   8  17
ATOM     17  C   UNL A   1      32.008  28.380  22.969  1.00  0.00     0.227 C 
ATOM     18  O   UNL A   1      32.705  29.317  22.590  1.00  0.00    -0.285 OA
BRANCH  17  19
ATOM     19  C   UNL A   1      30.500  28.467  22.946  1.00  0.00     0.113 A 
ATOM     20  C   UNL A   1      27.678  30.883  22.166  1.00  0.00     0.044 C 
ATOM     21  C   UNL A   1      28.439  29.664  22.596  1.00  0.00    -0.047 A 
ATOM     22  C   UNL A   1      27.757  28.534  23.047  1.00  0.00     0.023 A 
ATOM     23  C   UNL A   1      29.835  29.622  22.526  1.00  0.00     0.036 A 
ATOM     24  C   UNL A   1      28.492  27.425  23.431  1.00  0.00     0.112 A 
ATOM     25  N   UNL A   1      29.840  27.373  23.405  1.00  0.00    -0.253 NA
ENDBRANCH  17  19
ENDBRANCH   8  17
BRANCH  16  26
ATOM     26  C   UNL A   1      35.529  22.218  25.581  1.00  0.00    -0.013 C 
ATOM     27  C   UNL A   1      36.849  22.902  26.001  1.00  0.00     0.016 C 
ATOM     28  C   UNL A   1      34.713  21.867  26.844  1.00  0.00     0.016 C 
ATOM     29  C   UNL A   1      35.902  20.885  24.895  1.00  0.00     0.016 C 
ENDBRANCH  16  26
ENDBRANCH   6   7
ENDBRANCH   3   6
ENDBRANCH   1   2
BRANCH   1  30
ATOM     30  C   UNL A   1      31.800  31.546  26.907  1.00  0.00     0.042 C 
BRANCH  30  31
ATOM     31  C   UNL A   1      32.824  32.675  26.814  1.00  0.00     0.118 C 
BRANCH  31  32
ATOM     32  N   UNL A   1      32.507  33.792  27.688  1.00  0.00    -0.352 N 
ATOM     33  C   UNL A   1      33.176  34.271  28.786  1.00  0.00     0.251 C 
ATOM     34  H   UNL A   1      31.685  34.282  27.455  1.00  0.00     0.163 HD
ATOM     35  O   UNL A   1      32.652  35.136  29.484  1.00  0.00    -0.269 OA
BRANCH  33  36
ATOM     36  C   UNL A   1      34.514  33.755  29.156  1.00  0.00     0.039 A 
ATOM     37  C   UNL A   1      34.602  32.835  30.208  1.00  0.00     0.014 A 
ATOM     38  C   UNL A   1      35.679  34.218  28.538  1.00  0.00     0.014 A 
ATOM     39  C   UNL A   1      35.847  32.343  30.606  1.00  0.00     0.010 A 
ATOM     40  C   UNL A   1      36.923  33.707  28.919  1.00  0.00     0.010 A 
ATOM     41  C   UNL A   1      37.015  32.766  29.955  1.00  0.00    -0.014 A 
BRANCH  41  42
ATOM     42  C   UNL A   1      38.340  32.241  30.357  1.00  0.00     0.031 A 
ATOM     43  C   UNL A   1      38.864  30.969  29.757  1.00  0.00     0.074 A 
ATOM     44  C   UNL A   1      39.067  32.889  31.285  1.00  0.00     0.049 A 
ATOM     45  N   UNL A   1      39.930  30.284  30.084  1.00  0.00    -0.248 NA
ATOM     46  C   UNL A   1      38.083  30.388  28.655  1.00  0.00     0.031 C 
ATOM     47  C   UNL A   1      38.683  34.138  31.946  1.00  0.00     0.029 A 
ATOM     48  N   UNL A   1      40.284  32.577  31.834  1.00  0.00    -0.354 N 
ATOM     49  C   UNL A   1      39.930  29.171  29.255  1.00  0.00     0.074 A 
ATOM     50  C   UNL A   1      38.770  29.285  28.394  1.00  0.00     0.031 C 
ATOM     51  C   UNL A   1      39.655  34.491  32.805  1.00  0.00     0.029 A 
ATOM     52  C   UNL A   1      40.711  33.485  32.770  1.00  0.00     0.049 A 
ATOM     53  H   UNL A   1      40.802  31.779  31.581  1.00  0.00     0.167 HD
ATOM     54  C   UNL A   1      40.807  28.140  29.221  1.00  0.00     0.031 A 
ATOM     55  C   UNL A   1      41.824  33.498  33.526  1.00  0.00     0.031 A 
ATOM     56  C   UNL A   1      41.977  28.027  30.047  1.00  0.00     0.049 A 
ATOM     57  C   UNL A   1      42.809  32.372  33.432  1.00  0.00     0.074 A 
ATOM     58  C   UNL A   1      42.903  26.999  30.100  1.00  0.00     0.029 A 
ATOM     59  N   UNL A   1      42.393  28.988  30.951  1.00  0.00    -0.354 N 
ATOM     60  N   UNL A   1      42.756  31.292  32.692  1.00  0.00    -0.248 NA
ATOM     61  C   UNL A   1      44.000  32.463  34.289  1.00  0.00     0.031 C 
ATOM     62  C   UNL A   1      43.890  27.346  31.031  1.00  0.00     0.029 A 
ATOM     63  C   UNL A   1      43.573  28.588  31.556  1.00  0.00     0.049 A 
ATOM     64  H   UNL A   1      41.921  29.833  31.137  1.00  0.00     0.167 HD
ATOM     65  C   UNL A   1      43.896  30.566  33.007  1.00  0.00     0.074 A 
ATOM     66  C   UNL A   1      44.630  31.335  33.991  1.00  0.00     0.031 C 
ATOM     67  C   UNL A   1      44.290  29.362  32.530  1.00  0.00     0.031 A 
BRANCH  54  68
ATOM     68  C   UNL A   1      40.507  27.034  28.260  1.00  0.00    -0.014 A 
ATOM     69  C   UNL A   1      41.032  27.056  26.960  1.00  0.00     0.009 A 
ATOM     70  C   UNL A   1      39.705  25.955  28.661  1.00  0.00     0.009 A 
ATOM     71  C   UNL A   1      40.744  26.020  26.071  1.00  0.00     0.001 A 
ATOM     72  C   UNL A   1      39.421  24.921  27.770  1.00  0.00     0.001 A 
ATOM     73  C   UNL A   1      39.938  24.955  26.474  1.00  0.00     0.000 A 
ENDBRANCH  54  68
BRANCH  55  74
ATOM     74  C   UNL A   1      42.056  34.616  34.467  1.00  0.00    -0.014 A 
ATOM     75  C   UNL A   1      42.711  35.777  34.034  1.00  0.00     0.009 A 
ATOM     76  C   UNL A   1      41.623  34.524  35.797  1.00  0.00     0.009 A 
ATOM     77  C   UNL A   1      42.937  36.828  34.923  1.00  0.00     0.001 A 
ATOM     78  C   UNL A   1      41.850  35.578  36.683  1.00  0.00     0.001 A 
ATOM     79  C   UNL A   1      42.507  36.728  36.247  1.00  0.00     0.000 A 
ENDBRANCH  55  74
BRANCH  67  80
ATOM     80  C   UNL A   1      45.566  28.804  33.078  1.00  0.00    -0.014 A 
ATOM     81  C   UNL A   1      45.546  27.992  34.221  1.00  0.00     0.009 A 
ATOM     82  C   UNL A   1      46.789  29.077  32.448  1.00  0.00     0.009 A 
ATOM     83  C   UNL A   1      46.734  27.469  34.733  1.00  0.00     0.001 A 
ATOM     84  C   UNL A   1      47.975  28.552  32.962  1.00  0.00     0.001 A 
ATOM     85  C   UNL A   1      47.947  27.752  34.105  1.00  0.00     0.000 A 
ENDBRANCH  67  80
ENDBRANCH  41  42
ENDBRANCH  33  36
ENDBRANCH  31  32
ENDBRANCH  30  31
ENDBRANCH   1  30
TORSDOF 14
ENDMDL
