MODEL 1
REMARK VINA RESULT:     -10.5      0.000      0.000
REMARK SMILES CC(C)[C@@H](NC(=O)[C@@](C)([NH3+])C(F)(F)F)C(=O)NCCCNC(=O)c1ccc(-c2c3nc(c(-c4ccccc4)c4ccc([nH]4)c(-c4ccccc4)c4nc(c(-c5ccccc5)c5ccc2[nH]5)C=C4)C=C3)cc1
REMARK SMILES IDX 18 1 17 2 15 3 16 4 4 6 2 7 1 8 3 9 5 10 6 11 7 13 8 14 9 15
REMARK SMILES IDX 10 16 11 20 12 21 13 22 14 23 19 24 20 25 21 26 22 27 23 29
REMARK SMILES IDX 24 30 25 31 71 32 26 33 70 34 27 35 28 36 29 37 64 38 30 39
REMARK SMILES IDX 69 40 63 41 65 42 31 43 68 44 62 45 61 46 32 48 54 49 39 50
REMARK SMILES IDX 53 51 40 52 43 53 52 54 66 55 41 56 42 57 51 59 67 60 44 61
REMARK SMILES IDX 33 62 34 63 38 64 35 65 37 66 36 67 55 68 56 69 60 70 57 71
REMARK SMILES IDX 59 72 58 73 45 74 46 75 50 76 47 77 49 78 48 79
REMARK H PARENT 17 5 5 12 10 17 10 18 10 19 21 28 65 47 43 58
REMARK Flexibility Score: inf
ROOT
ATOM      1  C   UNL A   1      36.822  21.712  25.405  1.00  0.00     0.117 C 
ENDROOT
BRANCH   1   2
ATOM      2  N   UNL A   1      36.083  22.201  24.252  1.00  0.00    -0.354 N 
ATOM      3  C   UNL A   1      34.734  22.190  24.048  1.00  0.00     0.242 C 
ATOM      4  O   UNL A   1      34.276  22.907  23.155  1.00  0.00    -0.273 OA
ATOM      5  H   UNL A   1      36.623  22.590  23.527  1.00  0.00     0.163 HD
BRANCH   3   6
ATOM      6  C   UNL A   1      33.834  21.238  24.843  1.00  0.00     0.174 C 
BRANCH   6   7
ATOM      7  C   UNL A   1      32.962  22.105  25.814  1.00  0.00     0.015 C 
ATOM      8  C   UNL A   1      31.458  21.903  25.617  1.00  0.00     0.010 C 
ATOM      9  C   UNL A   1      33.302  21.873  27.295  1.00  0.00     0.010 C 
ENDBRANCH   6   7
BRANCH   6  10
ATOM     10  N   UNL A   1      33.008  20.422  23.936  1.00  0.00    -0.338 N 
ATOM     11  C   UNL A   1      32.815  19.076  23.791  1.00  0.00     0.291 C 
ATOM     12  H   UNL A   1      32.484  20.959  23.301  1.00  0.00     0.164 HD
ATOM     13  O   UNL A   1      31.824  18.801  23.102  1.00  0.00    -0.267 OA
BRANCH  11  14
ATOM     14  C   UNL A   1      33.784  17.965  24.283  1.00  0.00     0.267 C 
ATOM     15  C   UNL A   1      34.042  16.901  23.201  1.00  0.00     0.100 C 
BRANCH  14  16
ATOM     16  N   UNL A   1      35.098  18.551  24.711  1.00  0.00    -0.337 N 
ATOM     17  H   UNL A   1      35.030  18.867  25.679  1.00  0.00     0.345 HD
ATOM     18  H   UNL A   1      35.329  19.342  24.110  1.00  0.00     0.345 HD
ATOM     19  H   UNL A   1      35.827  17.842  24.635  1.00  0.00     0.345 HD
ENDBRANCH  14  16
BRANCH  14  20
ATOM     20  C   UNL A   1      33.034  17.211  25.430  1.00  0.00     0.453 C 
ATOM     21  F   UNL A   1      32.453  18.036  26.325  1.00  0.00    -0.164 F 
ATOM     22  F   UNL A   1      32.103  16.344  24.969  1.00  0.00    -0.164 F 
ATOM     23  F   UNL A   1      33.931  16.457  26.132  1.00  0.00    -0.164 F 
ENDBRANCH  14  20
ENDBRANCH  11  14
ENDBRANCH   6  10
ENDBRANCH   3   6
ENDBRANCH   1   2
BRANCH   1  24
ATOM     24  C   UNL A   1      37.942  20.778  25.006  1.00  0.00     0.042 C 
BRANCH  24  25
ATOM     25  C   UNL A   1      39.128  20.843  25.954  1.00  0.00     0.118 C 
BRANCH  25  26
ATOM     26  N   UNL A   1      40.070  19.744  25.794  1.00  0.00    -0.352 N 
ATOM     27  C   UNL A   1      41.428  19.737  26.035  1.00  0.00     0.251 C 
ATOM     28  H   UNL A   1      39.688  18.896  25.473  1.00  0.00     0.163 HD
ATOM     29  O   UNL A   1      42.112  18.760  25.776  1.00  0.00    -0.269 OA
BRANCH  27  30
ATOM     30  C   UNL A   1      42.046  20.970  26.562  1.00  0.00     0.039 A 
ATOM     31  C   UNL A   1      42.452  21.956  25.663  1.00  0.00     0.014 A 
ATOM     32  C   UNL A   1      42.078  21.198  27.939  1.00  0.00     0.014 A 
ATOM     33  C   UNL A   1      42.795  23.219  26.148  1.00  0.00     0.010 A 
ATOM     34  C   UNL A   1      42.298  22.486  28.405  1.00  0.00     0.010 A 
ATOM     35  C   UNL A   1      42.661  23.510  27.516  1.00  0.00    -0.014 A 
BRANCH  35  36
ATOM     36  C   UNL A   1      42.901  24.876  28.045  1.00  0.00     0.031 A 
ATOM     37  C   UNL A   1      44.293  25.287  28.440  1.00  0.00     0.074 A 
ATOM     38  C   UNL A   1      41.866  25.715  28.247  1.00  0.00     0.049 A 
ATOM     39  N   UNL A   1      44.699  26.400  28.995  1.00  0.00    -0.248 NA
ATOM     40  C   UNL A   1      45.364  24.300  28.221  1.00  0.00     0.031 C 
ATOM     41  C   UNL A   1      40.458  25.419  27.966  1.00  0.00     0.029 A 
ATOM     42  N   UNL A   1      41.840  26.997  28.739  1.00  0.00    -0.354 N 
ATOM     43  C   UNL A   1      46.059  26.230  29.220  1.00  0.00     0.074 A 
ATOM     44  C   UNL A   1      46.395  24.887  28.806  1.00  0.00     0.031 C 
ATOM     45  C   UNL A   1      39.716  26.503  28.244  1.00  0.00     0.029 A 
ATOM     46  C   UNL A   1      40.585  27.555  28.760  1.00  0.00     0.049 A 
ATOM     47  H   UNL A   1      42.646  27.470  29.048  1.00  0.00     0.167 HD
ATOM     48  C   UNL A   1      46.959  27.120  29.701  1.00  0.00     0.031 A 
ATOM     49  C   UNL A   1      40.181  28.780  29.145  1.00  0.00     0.031 A 
ATOM     50  C   UNL A   1      46.635  28.467  30.076  1.00  0.00     0.049 A 
ATOM     51  C   UNL A   1      41.201  29.762  29.649  1.00  0.00     0.074 A 
ATOM     52  C   UNL A   1      47.484  29.471  30.505  1.00  0.00     0.029 A 
ATOM     53  N   UNL A   1      45.355  29.001  30.057  1.00  0.00    -0.354 N 
ATOM     54  N   UNL A   1      42.495  29.608  29.794  1.00  0.00    -0.248 NA
ATOM     55  C   UNL A   1      40.704  31.091  30.033  1.00  0.00     0.031 C 
ATOM     56  C   UNL A   1      46.711  30.605  30.782  1.00  0.00     0.029 A 
ATOM     57  C   UNL A   1      45.388  30.317  30.481  1.00  0.00     0.049 A 
ATOM     58  H   UNL A   1      44.545  28.516  29.783  1.00  0.00     0.167 HD
ATOM     59  C   UNL A   1      42.971  30.827  30.259  1.00  0.00     0.074 A 
ATOM     60  C   UNL A   1      41.829  31.713  30.360  1.00  0.00     0.031 C 
ATOM     61  C   UNL A   1      44.240  31.181  30.573  1.00  0.00     0.031 A 
BRANCH  48  62
ATOM     62  C   UNL A   1      48.379  26.648  29.838  1.00  0.00    -0.014 A 
ATOM     63  C   UNL A   1      48.822  26.003  31.006  1.00  0.00     0.009 A 
ATOM     64  C   UNL A   1      49.288  26.854  28.790  1.00  0.00     0.009 A 
ATOM     65  C   UNL A   1      50.158  25.621  31.140  1.00  0.00     0.001 A 
ATOM     66  C   UNL A   1      50.616  26.443  28.915  1.00  0.00     0.001 A 
ATOM     67  C   UNL A   1      51.053  25.839  30.093  1.00  0.00     0.000 A 
ENDBRANCH  48  62
BRANCH  49  68
ATOM     68  C   UNL A   1      38.750  29.163  29.029  1.00  0.00    -0.014 A 
ATOM     69  C   UNL A   1      37.893  29.034  30.133  1.00  0.00     0.009 A 
ATOM     70  C   UNL A   1      38.233  29.662  27.824  1.00  0.00     0.009 A 
ATOM     71  C   UNL A   1      36.543  29.375  30.026  1.00  0.00     0.001 A 
ATOM     72  C   UNL A   1      36.889  30.025  27.727  1.00  0.00     0.001 A 
ATOM     73  C   UNL A   1      36.042  29.874  28.825  1.00  0.00     0.000 A 
ENDBRANCH  49  68
BRANCH  61  74
ATOM     74  C   UNL A   1      44.465  32.595  31.025  1.00  0.00    -0.014 A 
ATOM     75  C   UNL A   1      44.429  32.939  32.384  1.00  0.00     0.009 A 
ATOM     76  C   UNL A   1      44.762  33.587  30.075  1.00  0.00     0.009 A 
ATOM     77  C   UNL A   1      44.657  34.257  32.782  1.00  0.00     0.001 A 
ATOM     78  C   UNL A   1      45.016  34.897  30.480  1.00  0.00     0.001 A 
ATOM     79  C   UNL A   1      44.955  35.234  31.831  1.00  0.00     0.000 A 
ENDBRANCH  61  74
ENDBRANCH  35  36
ENDBRANCH  27  30
ENDBRANCH  25  26
ENDBRANCH  24  25
ENDBRANCH   1  24
TORSDOF 15
ENDMDL
MODEL 2
REMARK VINA RESULT:     -10.3      0.812      6.146
REMARK SMILES CC(C)[C@@H](NC(=O)[C@@](C)([NH3+])C(F)(F)F)C(=O)NCCCNC(=O)c1ccc(-c2c3nc(c(-c4ccccc4)c4ccc([nH]4)c(-c4ccccc4)c4nc(c(-c5ccccc5)c5ccc2[nH]5)C=C4)C=C3)cc1
REMARK SMILES IDX 18 1 17 2 15 3 16 4 4 6 2 7 1 8 3 9 5 10 6 11 7 13 8 14 9 15
REMARK SMILES IDX 10 16 11 20 12 21 13 22 14 23 19 24 20 25 21 26 22 27 23 29
REMARK SMILES IDX 24 30 25 31 71 32 26 33 70 34 27 35 28 36 29 37 64 38 30 39
REMARK SMILES IDX 69 40 63 41 65 42 31 43 68 44 62 45 61 46 32 48 54 49 39 50
REMARK SMILES IDX 53 51 40 52 43 53 52 54 66 55 41 56 42 57 51 59 67 60 44 61
REMARK SMILES IDX 33 62 34 63 38 64 35 65 37 66 36 67 55 68 56 69 60 70 57 71
REMARK SMILES IDX 59 72 58 73 45 74 46 75 50 76 47 77 49 78 48 79
REMARK H PARENT 17 5 5 12 10 17 10 18 10 19 21 28 65 47 43 58
REMARK Flexibility Score: inf
ROOT
ATOM      1  C   UNL A   1      37.015  22.231  25.396  1.00  0.00     0.117 C 
ENDROOT
BRANCH   1   2
ATOM      2  N   UNL A   1      36.229  22.609  24.233  1.00  0.00    -0.354 N 
ATOM      3  C   UNL A   1      34.899  22.400  24.009  1.00  0.00     0.242 C 
ATOM      4  O   UNL A   1      34.354  23.045  23.110  1.00  0.00    -0.273 OA
ATOM      5  H   UNL A   1      36.716  23.076  23.516  1.00  0.00     0.163 HD
BRANCH   3   6
ATOM      6  C   UNL A   1      34.138  21.323  24.789  1.00  0.00     0.174 C 
BRANCH   6   7
ATOM      7  C   UNL A   1      33.347  22.037  25.938  1.00  0.00     0.015 C 
ATOM      8  C   UNL A   1      31.829  21.963  25.761  1.00  0.00     0.010 C 
ATOM      9  C   UNL A   1      33.707  21.505  27.335  1.00  0.00     0.010 C 
ENDBRANCH   6   7
BRANCH   6  10
ATOM     10  N   UNL A   1      33.249  20.561  23.895  1.00  0.00    -0.338 N 
ATOM     11  C   UNL A   1      32.941  19.234  23.778  1.00  0.00     0.291 C 
ATOM     12  H   UNL A   1      32.776  21.128  23.245  1.00  0.00     0.164 HD
ATOM     13  O   UNL A   1      31.934  19.030  23.089  1.00  0.00    -0.267 OA
BRANCH  11  14
ATOM     14  C   UNL A   1      33.809  18.055  24.300  1.00  0.00     0.267 C 
ATOM     15  C   UNL A   1      33.971  16.945  23.247  1.00  0.00     0.100 C 
BRANCH  14  16
ATOM     16  N   UNL A   1      35.170  18.535  24.715  1.00  0.00    -0.337 N 
ATOM     17  H   UNL A   1      35.722  17.745  25.049  1.00  0.00     0.345 HD
ATOM     18  H   UNL A   1      35.075  19.224  25.461  1.00  0.00     0.345 HD
ATOM     19  H   UNL A   1      35.638  18.962  23.915  1.00  0.00     0.345 HD
ENDBRANCH  14  16
BRANCH  14  20
ATOM     20  C   UNL A   1      32.997  17.400  25.466  1.00  0.00     0.453 C 
ATOM     21  F   UNL A   1      31.840  16.836  25.063  1.00  0.00    -0.164 F 
ATOM     22  F   UNL A   1      33.713  16.481  26.154  1.00  0.00    -0.164 F 
ATOM     23  F   UNL A   1      32.658  18.364  26.372  1.00  0.00    -0.164 F 
ENDBRANCH  14  20
ENDBRANCH  11  14
ENDBRANCH   6  10
ENDBRANCH   3   6
ENDBRANCH   1   2
BRANCH   1  24
ATOM     24  C   UNL A   1      37.934  21.066  25.105  1.00  0.00     0.042 C 
BRANCH  24  25
ATOM     25  C   UNL A   1      39.184  21.072  25.969  1.00  0.00     0.118 C 
BRANCH  25  26
ATOM     26  N   UNL A   1      39.990  19.866  25.846  1.00  0.00    -0.352 N 
ATOM     27  C   UNL A   1      41.343  19.712  26.068  1.00  0.00     0.251 C 
ATOM     28  H   UNL A   1      39.506  19.053  25.571  1.00  0.00     0.163 HD
ATOM     29  O   UNL A   1      41.904  18.651  25.845  1.00  0.00    -0.269 OA
BRANCH  27  30
ATOM     30  C   UNL A   1      42.108  20.887  26.528  1.00  0.00     0.039 A 
ATOM     31  C   UNL A   1      42.616  21.773  25.578  1.00  0.00     0.014 A 
ATOM     32  C   UNL A   1      42.185  21.176  27.892  1.00  0.00     0.014 A 
ATOM     33  C   UNL A   1      43.112  23.008  25.998  1.00  0.00     0.010 A 
ATOM     34  C   UNL A   1      42.561  22.451  28.291  1.00  0.00     0.010 A 
ATOM     35  C   UNL A   1      43.031  23.379  27.350  1.00  0.00    -0.014 A 
BRANCH  35  36
ATOM     36  C   UNL A   1      43.437  24.732  27.809  1.00  0.00     0.031 A 
ATOM     37  C   UNL A   1      42.384  25.759  28.122  1.00  0.00     0.074 A 
ATOM     38  C   UNL A   1      44.742  25.063  27.868  1.00  0.00     0.049 A 
ATOM     39  N   UNL A   1      42.529  27.015  28.458  1.00  0.00    -0.248 NA
ATOM     40  C   UNL A   1      40.980  25.330  27.998  1.00  0.00     0.031 C 
ATOM     41  C   UNL A   1      45.864  24.181  27.532  1.00  0.00     0.029 A 
ATOM     42  N   UNL A   1      45.347  26.239  28.235  1.00  0.00    -0.354 N 
ATOM     43  C   UNL A   1      41.242  27.528  28.551  1.00  0.00     0.074 A 
ATOM     44  C   UNL A   1      40.333  26.470  28.172  1.00  0.00     0.031 C 
ATOM     45  C   UNL A   1      47.018  24.831  27.755  1.00  0.00     0.029 A 
ATOM     46  C   UNL A   1      46.720  26.184  28.209  1.00  0.00     0.049 A 
ATOM     47  H   UNL A   1      44.845  27.045  28.492  1.00  0.00     0.167 HD
ATOM     48  C   UNL A   1      40.844  28.761  28.945  1.00  0.00     0.031 A 
ATOM     49  C   UNL A   1      47.636  27.119  28.523  1.00  0.00     0.031 A 
ATOM     50  C   UNL A   1      41.743  29.800  29.359  1.00  0.00     0.049 A 
ATOM     51  C   UNL A   1      47.174  28.472  28.986  1.00  0.00     0.074 A 
ATOM     52  C   UNL A   1      41.441  31.058  29.847  1.00  0.00     0.029 A 
ATOM     53  N   UNL A   1      43.126  29.695  29.343  1.00  0.00    -0.354 N 
ATOM     54  N   UNL A   1      45.950  28.921  29.133  1.00  0.00    -0.248 NA
ATOM     55  C   UNL A   1      48.219  29.443  29.337  1.00  0.00     0.031 C 
ATOM     56  C   UNL A   1      42.644  31.731  30.092  1.00  0.00     0.029 A 
ATOM     57  C   UNL A   1      43.692  30.872  29.798  1.00  0.00     0.049 A 
ATOM     58  H   UNL A   1      43.629  28.902  29.052  1.00  0.00     0.167 HD
ATOM     59  C   UNL A   1      46.078  30.216  29.618  1.00  0.00     0.074 A 
ATOM     60  C   UNL A   1      47.497  30.475  29.753  1.00  0.00     0.031 C 
ATOM     61  C   UNL A   1      45.107  31.109  29.926  1.00  0.00     0.031 A 
BRANCH  48  62
ATOM     62  C   UNL A   1      39.366  29.034  28.945  1.00  0.00    -0.014 A 
ATOM     63  C   UNL A   1      38.582  28.790  30.085  1.00  0.00     0.009 A 
ATOM     64  C   UNL A   1      38.749  29.536  27.790  1.00  0.00     0.009 A 
ATOM     65  C   UNL A   1      37.202  28.996  30.050  1.00  0.00     0.001 A 
ATOM     66  C   UNL A   1      37.373  29.770  27.769  1.00  0.00     0.001 A 
ATOM     67  C   UNL A   1      36.599  29.488  28.893  1.00  0.00     0.000 A 
ENDBRANCH  48  62
BRANCH  49  68
ATOM     68  C   UNL A   1      49.085  26.796  28.453  1.00  0.00    -0.014 A 
ATOM     69  C   UNL A   1      49.786  26.955  27.247  1.00  0.00     0.009 A 
ATOM     70  C   UNL A   1      49.776  26.332  29.583  1.00  0.00     0.009 A 
ATOM     71  C   UNL A   1      51.143  26.636  27.168  1.00  0.00     0.001 A 
ATOM     72  C   UNL A   1      51.138  26.037  29.508  1.00  0.00     0.001 A 
ATOM     73  C   UNL A   1      51.820  26.181  28.299  1.00  0.00     0.000 A 
ENDBRANCH  49  68
BRANCH  61  74
ATOM     74  C   UNL A   1      45.547  32.438  30.468  1.00  0.00    -0.014 A 
ATOM     75  C   UNL A   1      45.782  33.529  29.619  1.00  0.00     0.009 A 
ATOM     76  C   UNL A   1      45.682  32.610  31.855  1.00  0.00     0.009 A 
ATOM     77  C   UNL A   1      46.174  34.760  30.146  1.00  0.00     0.001 A 
ATOM     78  C   UNL A   1      46.047  33.849  32.381  1.00  0.00     0.001 A 
ATOM     79  C   UNL A   1      46.301  34.921  31.526  1.00  0.00     0.000 A 
ENDBRANCH  61  74
ENDBRANCH  35  36
ENDBRANCH  27  30
ENDBRANCH  25  26
ENDBRANCH  24  25
ENDBRANCH   1  24
TORSDOF 15
ENDMDL
MODEL 3
REMARK VINA RESULT:     -10.3      2.067      6.779
REMARK SMILES CC(C)[C@@H](NC(=O)[C@@](C)([NH3+])C(F)(F)F)C(=O)NCCCNC(=O)c1ccc(-c2c3nc(c(-c4ccccc4)c4ccc([nH]4)c(-c4ccccc4)c4nc(c(-c5ccccc5)c5ccc2[nH]5)C=C4)C=C3)cc1
REMARK SMILES IDX 18 1 17 2 15 3 16 4 4 6 2 7 1 8 3 9 5 10 6 11 7 13 8 14 9 15
REMARK SMILES IDX 10 16 11 20 12 21 13 22 14 23 19 24 20 25 21 26 22 27 23 29
REMARK SMILES IDX 24 30 25 31 71 32 26 33 70 34 27 35 28 36 29 37 64 38 30 39
REMARK SMILES IDX 69 40 63 41 65 42 31 43 68 44 62 45 61 46 32 48 54 49 39 50
REMARK SMILES IDX 53 51 40 52 43 53 52 54 66 55 41 56 42 57 51 59 67 60 44 61
REMARK SMILES IDX 33 62 34 63 38 64 35 65 37 66 36 67 55 68 56 69 60 70 57 71
REMARK SMILES IDX 59 72 58 73 45 74 46 75 50 76 47 77 49 78 48 79
REMARK H PARENT 17 5 5 12 10 17 10 18 10 19 21 28 65 47 43 58
REMARK Flexibility Score: inf
ROOT
ATOM      1  C   UNL A   1      36.351  22.453  25.241  1.00  0.00     0.117 C 
ENDROOT
BRANCH   1   2
ATOM      2  N   UNL A   1      35.693  22.235  26.520  1.00  0.00    -0.354 N 
ATOM      3  C   UNL A   1      34.408  21.840  26.750  1.00  0.00     0.242 C 
ATOM      4  O   UNL A   1      34.121  21.426  27.877  1.00  0.00    -0.273 OA
ATOM      5  H   UNL A   1      36.244  22.392  27.320  1.00  0.00     0.163 HD
BRANCH   3   6
ATOM      6  C   UNL A   1      33.337  22.000  25.666  1.00  0.00     0.174 C 
BRANCH   6   7
ATOM      7  C   UNL A   1      33.433  20.759  24.713  1.00  0.00     0.015 C 
ATOM      8  C   UNL A   1      32.975  19.457  25.372  1.00  0.00     0.010 C 
ATOM      9  C   UNL A   1      32.655  20.949  23.400  1.00  0.00     0.010 C 
ENDBRANCH   6   7
BRANCH   6  10
ATOM     10  N   UNL A   1      31.999  22.133  26.269  1.00  0.00    -0.338 N 
ATOM     11  C   UNL A   1      30.998  23.056  26.149  1.00  0.00     0.291 C 
ATOM     12  H   UNL A   1      31.780  21.401  26.889  1.00  0.00     0.164 HD
ATOM     13  O   UNL A   1      29.918  22.660  26.605  1.00  0.00    -0.267 OA
BRANCH  11  14
ATOM     14  C   UNL A   1      31.170  24.516  25.645  1.00  0.00     0.267 C 
ATOM     15  C   UNL A   1      29.992  25.415  26.062  1.00  0.00     0.100 C 
BRANCH  14  16
ATOM     16  N   UNL A   1      32.445  25.115  26.162  1.00  0.00    -0.337 N 
ATOM     17  H   UNL A   1      33.181  24.408  26.153  1.00  0.00     0.345 HD
ATOM     18  H   UNL A   1      32.303  25.446  27.116  1.00  0.00     0.345 HD
ATOM     19  H   UNL A   1      32.719  25.898  25.568  1.00  0.00     0.345 HD
ENDBRANCH  14  16
BRANCH  14  20
ATOM     20  C   UNL A   1      31.101  24.448  24.084  1.00  0.00     0.453 C 
ATOM     21  F   UNL A   1      30.462  23.355  23.622  1.00  0.00    -0.164 F 
ATOM     22  F   UNL A   1      30.536  25.548  23.534  1.00  0.00    -0.164 F 
ATOM     23  F   UNL A   1      32.370  24.390  23.582  1.00  0.00    -0.164 F 
ENDBRANCH  14  20
ENDBRANCH  11  14
ENDBRANCH   6  10
ENDBRANCH   3   6
ENDBRANCH   1   2
BRANCH   1  24
ATOM     24  C   UNL A   1      37.296  21.327  24.889  1.00  0.00     0.042 C 
BRANCH  24  25
ATOM     25  C   UNL A   1      38.569  21.346  25.717  1.00  0.00     0.118 C 
BRANCH  25  26
ATOM     26  N   UNL A   1      39.344  20.116  25.635  1.00  0.00    -0.352 N 
ATOM     27  C   UNL A   1      40.659  19.904  25.992  1.00  0.00     0.251 C 
ATOM     28  H   UNL A   1      38.866  19.332  25.278  1.00  0.00     0.163 HD
ATOM     29  O   UNL A   1      41.205  18.832  25.790  1.00  0.00    -0.269 OA
BRANCH  27  30
ATOM     30  C   UNL A   1      41.409  21.033  26.576  1.00  0.00     0.039 A 
ATOM     31  C   UNL A   1      42.013  21.954  25.720  1.00  0.00     0.014 A 
ATOM     32  C   UNL A   1      41.379  21.250  27.955  1.00  0.00     0.014 A 
ATOM     33  C   UNL A   1      42.499  23.153  26.245  1.00  0.00     0.010 A 
ATOM     34  C   UNL A   1      41.748  22.491  28.452  1.00  0.00     0.010 A 
ATOM     35  C   UNL A   1      42.314  23.455  27.604  1.00  0.00    -0.014 A 
BRANCH  35  36
ATOM     36  C   UNL A   1      42.710  24.771  28.167  1.00  0.00     0.031 A 
ATOM     37  C   UNL A   1      41.666  25.831  28.386  1.00  0.00     0.074 A 
ATOM     38  C   UNL A   1      44.008  25.042  28.405  1.00  0.00     0.049 A 
ATOM     39  N   UNL A   1      41.815  27.067  28.790  1.00  0.00    -0.248 NA
ATOM     40  C   UNL A   1      40.274  25.468  28.068  1.00  0.00     0.031 C 
ATOM     41  C   UNL A   1      45.129  24.125  28.177  1.00  0.00     0.029 A 
ATOM     42  N   UNL A   1      44.607  26.177  28.894  1.00  0.00    -0.354 N 
ATOM     43  C   UNL A   1      40.548  27.632  28.740  1.00  0.00     0.074 A 
ATOM     44  C   UNL A   1      39.655  26.629  28.205  1.00  0.00     0.031 C 
ATOM     45  C   UNL A   1      46.269  24.715  28.571  1.00  0.00     0.029 A 
ATOM     46  C   UNL A   1      45.968  26.063  29.040  1.00  0.00     0.049 A 
ATOM     47  H   UNL A   1      44.107  26.994  29.119  1.00  0.00     0.167 HD
ATOM     48  C   UNL A   1      40.151  28.865  29.131  1.00  0.00     0.031 A 
ATOM     49  C   UNL A   1      46.872  26.945  29.507  1.00  0.00     0.031 A 
ATOM     50  C   UNL A   1      41.029  29.849  29.700  1.00  0.00     0.049 A 
ATOM     51  C   UNL A   1      46.407  28.299  29.963  1.00  0.00     0.074 A 
ATOM     52  C   UNL A   1      40.715  31.100  30.198  1.00  0.00     0.029 A 
ATOM     53  N   UNL A   1      42.397  29.684  29.855  1.00  0.00    -0.354 N 
ATOM     54  N   UNL A   1      45.193  28.795  29.972  1.00  0.00    -0.248 NA
ATOM     55  C   UNL A   1      47.435  29.210  30.484  1.00  0.00     0.031 C 
ATOM     56  C   UNL A   1      41.902  31.710  30.620  1.00  0.00     0.029 A 
ATOM     57  C   UNL A   1      42.945  30.818  30.427  1.00  0.00     0.049 A 
ATOM     58  H   UNL A   1      42.902  28.880  29.596  1.00  0.00     0.167 HD
ATOM     59  C   UNL A   1      45.307  30.065  30.523  1.00  0.00     0.074 A 
ATOM     60  C   UNL A   1      46.706  30.257  30.847  1.00  0.00     0.031 C 
ATOM     61  C   UNL A   1      44.340  30.988  30.742  1.00  0.00     0.031 A 
BRANCH  48  62
ATOM     62  C   UNL A   1      38.697  29.203  28.955  1.00  0.00    -0.014 A 
ATOM     63  C   UNL A   1      38.208  29.699  27.735  1.00  0.00     0.009 A 
ATOM     64  C   UNL A   1      37.805  29.027  30.023  1.00  0.00     0.009 A 
ATOM     65  C   UNL A   1      36.866  30.061  27.605  1.00  0.00     0.001 A 
ATOM     66  C   UNL A   1      36.457  29.360  29.880  1.00  0.00     0.001 A 
ATOM     67  C   UNL A   1      35.991  29.888  28.677  1.00  0.00     0.000 A 
ENDBRANCH  48  62
BRANCH  49  68
ATOM     68  C   UNL A   1      48.304  26.562  29.607  1.00  0.00    -0.014 A 
ATOM     69  C   UNL A   1      49.190  26.860  28.560  1.00  0.00     0.009 A 
ATOM     70  C   UNL A   1      48.796  25.901  30.743  1.00  0.00     0.009 A 
ATOM     71  C   UNL A   1      50.533  26.487  28.639  1.00  0.00     0.001 A 
ATOM     72  C   UNL A   1      50.144  25.551  30.830  1.00  0.00     0.001 A 
ATOM     73  C   UNL A   1      51.011  25.836  29.775  1.00  0.00     0.000 A 
ENDBRANCH  49  68
BRANCH  61  74
ATOM     74  C   UNL A   1      44.757  32.276  31.391  1.00  0.00    -0.014 A 
ATOM     75  C   UNL A   1      45.139  33.386  30.624  1.00  0.00     0.009 A 
ATOM     76  C   UNL A   1      44.723  32.389  32.790  1.00  0.00     0.009 A 
ATOM     77  C   UNL A   1      45.507  34.579  31.248  1.00  0.00     0.001 A 
ATOM     78  C   UNL A   1      45.066  33.591  33.409  1.00  0.00     0.001 A 
ATOM     79  C   UNL A   1      45.466  34.683  32.639  1.00  0.00     0.000 A 
ENDBRANCH  61  74
ENDBRANCH  35  36
ENDBRANCH  27  30
ENDBRANCH  25  26
ENDBRANCH  24  25
ENDBRANCH   1  24
TORSDOF 15
ENDMDL
