MODEL 1
REMARK VINA RESULT:     -11.4      0.000      0.000
REMARK SMILES COc1cc(OC(F)(F)F)cc2c1O[C@@H](C(F)(F)F)C(C(=O)NCCCNC(=O)c1ccc(-c3c4nc(c(-c5ccccc5)c5ccc([nH]5)c(-c5ccccc5)c5nc(c(-c6ccccc6)c6ccc3[nH]6)C=C5)C=C4)cc1)=C2
REMARK SMILES IDX 25 1 24 2 23 3 21 4 22 5 20 7 3 8 4 9 13 10 5 11 12 12 14 13
REMARK SMILES IDX 11 14 78 15 15 16 2 17 1 18 6 19 7 20 8 21 9 22 10 23 16 24
REMARK SMILES IDX 17 25 18 26 19 27 26 28 27 29 28 30 29 32 30 33 31 34 77 35
REMARK SMILES IDX 32 36 76 37 33 38 34 39 35 40 70 41 36 42 75 43 69 44 71 45
REMARK SMILES IDX 37 46 74 47 68 48 67 49 38 51 60 52 45 53 59 54 46 55 49 56
REMARK SMILES IDX 58 57 72 58 47 59 48 60 57 62 73 63 50 64 39 65 40 66 44 67
REMARK SMILES IDX 41 68 43 69 42 70 61 71 62 72 66 73 63 74 65 75 64 76 51 77
REMARK SMILES IDX 52 78 56 79 53 80 55 81 54 82
REMARK H PARENT 23 6 27 31 71 50 49 61
REMARK Flexibility Score: inf
ROOT
ATOM      1  C   UNL A   1      38.282  21.002  26.175  1.00  0.00     0.042 C 
ENDROOT
BRANCH   1   2
ATOM      2  C   UNL A   1      38.087  22.475  25.803  1.00  0.00     0.118 C 
BRANCH   2   3
ATOM      3  N   UNL A   1      37.671  22.600  24.415  1.00  0.00    -0.352 N 
ATOM      4  C   UNL A   1      36.475  22.863  23.830  1.00  0.00     0.251 C 
ATOM      5  O   UNL A   1      36.393  22.751  22.609  1.00  0.00    -0.270 OA
ATOM      6  H   UNL A   1      38.404  22.467  23.772  1.00  0.00     0.163 HD
BRANCH   4   7
ATOM      7  C   UNL A   1      35.290  23.341  24.588  1.00  0.00     0.067 C 
ATOM      8  C   UNL A   1      31.820  24.414  26.704  1.00  0.00     0.165 A 
ATOM      9  C   UNL A   1      31.404  25.752  26.718  1.00  0.00     0.097 A 
ATOM     10  C   UNL A   1      32.979  24.037  26.015  1.00  0.00     0.170 A 
ATOM     11  C   UNL A   1      32.168  26.731  26.086  1.00  0.00     0.134 A 
ATOM     12  C   UNL A   1      33.751  25.014  25.391  1.00  0.00     0.025 A 
ATOM     13  O   UNL A   1      33.260  22.709  25.892  1.00  0.00    -0.471 OA
ATOM     14  C   UNL A   1      33.347  26.355  25.437  1.00  0.00     0.059 A 
ATOM     15  C   UNL A   1      34.929  24.631  24.629  1.00  0.00     0.026 C 
ATOM     16  C   UNL A   1      34.594  22.309  25.466  1.00  0.00     0.314 C 
BRANCH   8  17
ATOM     17  O   UNL A   1      30.979  23.533  27.337  1.00  0.00    -0.493 OA
ATOM     18  C   UNL A   1      30.201  22.753  26.429  1.00  0.00     0.278 C 
ENDBRANCH   8  17
BRANCH  11  19
ATOM     19  O   UNL A   1      31.886  28.064  26.010  1.00  0.00    -0.406 OA
BRANCH  19  20
ATOM     20  C   UNL A   1      31.959  28.827  27.203  1.00  0.00     0.573 C 
ATOM     21  F   UNL A   1      31.838  30.146  26.949  1.00  0.00    -0.132 F 
ATOM     22  F   UNL A   1      31.007  28.443  28.079  1.00  0.00    -0.132 F 
ATOM     23  F   UNL A   1      33.166  28.617  27.773  1.00  0.00    -0.132 F 
ENDBRANCH  19  20
ENDBRANCH  11  19
BRANCH  16  24
ATOM     24  C   UNL A   1      34.471  20.882  24.882  1.00  0.00     0.429 C 
ATOM     25  F   UNL A   1      35.669  20.277  24.725  1.00  0.00    -0.167 F 
ATOM     26  F   UNL A   1      33.766  20.074  25.719  1.00  0.00    -0.167 F 
ATOM     27  F   UNL A   1      33.831  20.866  23.691  1.00  0.00    -0.167 F 
ENDBRANCH  16  24
ENDBRANCH   4   7
ENDBRANCH   2   3
ENDBRANCH   1   2
BRANCH   1  28
ATOM     28  C   UNL A   1      38.885  20.167  25.047  1.00  0.00     0.118 C 
BRANCH  28  29
ATOM     29  N   UNL A   1      39.892  19.241  25.540  1.00  0.00    -0.352 N 
ATOM     30  C   UNL A   1      41.101  19.495  26.138  1.00  0.00     0.251 C 
ATOM     31  H   UNL A   1      39.673  18.288  25.428  1.00  0.00     0.163 HD
ATOM     32  O   UNL A   1      41.909  18.582  26.275  1.00  0.00    -0.269 OA
BRANCH  30  33
ATOM     33  C   UNL A   1      41.444  20.855  26.611  1.00  0.00     0.039 A 
ATOM     34  C   UNL A   1      41.264  21.157  27.965  1.00  0.00     0.014 A 
ATOM     35  C   UNL A   1      41.875  21.847  25.725  1.00  0.00     0.014 A 
ATOM     36  C   UNL A   1      41.554  22.439  28.437  1.00  0.00     0.010 A 
ATOM     37  C   UNL A   1      42.224  23.107  26.208  1.00  0.00     0.010 A 
ATOM     38  C   UNL A   1      42.057  23.419  27.567  1.00  0.00    -0.014 A 
BRANCH  38  39
ATOM     39  C   UNL A   1      42.402  24.777  28.057  1.00  0.00     0.031 A 
ATOM     40  C   UNL A   1      43.818  25.108  28.441  1.00  0.00     0.074 A 
ATOM     41  C   UNL A   1      41.429  25.696  28.211  1.00  0.00     0.049 A 
ATOM     42  N   UNL A   1      44.299  26.217  28.946  1.00  0.00    -0.248 NA
ATOM     43  C   UNL A   1      44.822  24.049  28.254  1.00  0.00     0.031 C 
ATOM     44  C   UNL A   1      40.012  25.489  27.906  1.00  0.00     0.029 A 
ATOM     45  N   UNL A   1      41.486  26.987  28.672  1.00  0.00    -0.354 N 
ATOM     46  C   UNL A   1      45.652  25.981  29.155  1.00  0.00     0.074 A 
ATOM     47  C   UNL A   1      45.908  24.612  28.762  1.00  0.00     0.031 C 
ATOM     48  C   UNL A   1      39.338  26.621  28.168  1.00  0.00     0.029 A 
ATOM     49  C   UNL A   1      40.267  27.618  28.693  1.00  0.00     0.049 A 
ATOM     50  H   UNL A   1      42.323  27.419  28.962  1.00  0.00     0.167 HD
ATOM     51  C   UNL A   1      46.600  26.830  29.619  1.00  0.00     0.031 A 
ATOM     52  C   UNL A   1      39.931  28.858  29.094  1.00  0.00     0.031 A 
ATOM     53  C   UNL A   1      46.351  28.195  29.997  1.00  0.00     0.049 A 
ATOM     54  C   UNL A   1      41.000  29.779  29.609  1.00  0.00     0.074 A 
ATOM     55  C   UNL A   1      47.254  29.151  30.426  1.00  0.00     0.029 A 
ATOM     56  N   UNL A   1      45.102  28.799  29.992  1.00  0.00    -0.354 N 
ATOM     57  N   UNL A   1      42.284  29.559  29.745  1.00  0.00    -0.248 NA
ATOM     58  C   UNL A   1      40.572  31.126  30.015  1.00  0.00     0.031 C 
ATOM     59  C   UNL A   1      46.547  30.322  30.722  1.00  0.00     0.029 A 
ATOM     60  C   UNL A   1      45.210  30.108  30.429  1.00  0.00     0.049 A 
ATOM     61  H   UNL A   1      44.264  28.361  29.718  1.00  0.00     0.167 HD
ATOM     62  C   UNL A   1      42.823  30.745  30.227  1.00  0.00     0.074 A 
ATOM     63  C   UNL A   1      41.727  31.685  30.346  1.00  0.00     0.031 C 
ATOM     64  C   UNL A   1      44.110  31.030  30.541  1.00  0.00     0.031 A 
BRANCH  51  65
ATOM     65  C   UNL A   1      48.001  26.298  29.751  1.00  0.00    -0.014 A 
ATOM     66  C   UNL A   1      48.472  25.783  30.970  1.00  0.00     0.009 A 
ATOM     67  C   UNL A   1      48.850  26.283  28.634  1.00  0.00     0.009 A 
ATOM     68  C   UNL A   1      49.777  25.299  31.076  1.00  0.00     0.001 A 
ATOM     69  C   UNL A   1      50.146  25.772  28.735  1.00  0.00     0.001 A 
ATOM     70  C   UNL A   1      50.612  25.290  29.958  1.00  0.00     0.000 A 
ENDBRANCH  51  65
BRANCH  52  71
ATOM     71  C   UNL A   1      38.519  29.309  29.008  1.00  0.00    -0.014 A 
ATOM     72  C   UNL A   1      38.009  29.824  27.806  1.00  0.00     0.009 A 
ATOM     73  C   UNL A   1      37.672  29.226  30.124  1.00  0.00     0.009 A 
ATOM     74  C   UNL A   1      36.689  30.269  27.730  1.00  0.00     0.001 A 
ATOM     75  C   UNL A   1      36.344  29.648  30.038  1.00  0.00     0.001 A 
ATOM     76  C   UNL A   1      35.856  30.177  28.844  1.00  0.00     0.000 A 
ENDBRANCH  52  71
BRANCH  64  77
ATOM     77  C   UNL A   1      44.407  32.425  31.012  1.00  0.00    -0.014 A 
ATOM     78  C   UNL A   1      44.725  33.448  30.106  1.00  0.00     0.009 A 
ATOM     79  C   UNL A   1      44.329  32.725  32.381  1.00  0.00     0.009 A 
ATOM     80  C   UNL A   1      44.990  34.739  30.566  1.00  0.00     0.001 A 
ATOM     81  C   UNL A   1      44.568  34.024  32.835  1.00  0.00     0.001 A 
ATOM     82  C   UNL A   1      44.906  35.027  31.928  1.00  0.00     0.000 A 
ENDBRANCH  64  77
ENDBRANCH  38  39
ENDBRANCH  30  33
ENDBRANCH  28  29
ENDBRANCH   1  28
TORSDOF 14
ENDMDL
MODEL 2
REMARK VINA RESULT:     -11.3      0.608      5.803
REMARK SMILES COc1cc(OC(F)(F)F)cc2c1O[C@@H](C(F)(F)F)C(C(=O)NCCCNC(=O)c1ccc(-c3c4nc(c(-c5ccccc5)c5ccc([nH]5)c(-c5ccccc5)c5nc(c(-c6ccccc6)c6ccc3[nH]6)C=C5)C=C4)cc1)=C2
REMARK SMILES IDX 25 1 24 2 23 3 21 4 22 5 20 7 3 8 4 9 13 10 5 11 12 12 14 13
REMARK SMILES IDX 11 14 78 15 15 16 2 17 1 18 6 19 7 20 8 21 9 22 10 23 16 24
REMARK SMILES IDX 17 25 18 26 19 27 26 28 27 29 28 30 29 32 30 33 31 34 77 35
REMARK SMILES IDX 32 36 76 37 33 38 34 39 35 40 70 41 36 42 75 43 69 44 71 45
REMARK SMILES IDX 37 46 74 47 68 48 67 49 38 51 60 52 45 53 59 54 46 55 49 56
REMARK SMILES IDX 58 57 72 58 47 59 48 60 57 62 73 63 50 64 39 65 40 66 44 67
REMARK SMILES IDX 41 68 43 69 42 70 61 71 62 72 66 73 63 74 65 75 64 76 51 77
REMARK SMILES IDX 52 78 56 79 53 80 55 81 54 82
REMARK H PARENT 23 6 27 31 71 50 49 61
REMARK Flexibility Score: inf
ROOT
ATOM      1  C   UNL A   1      38.260  21.108  26.126  1.00  0.00     0.042 C 
ENDROOT
BRANCH   1   2
ATOM      2  C   UNL A   1      38.035  22.575  25.750  1.00  0.00     0.118 C 
BRANCH   2   3
ATOM      3  N   UNL A   1      37.622  22.688  24.359  1.00  0.00    -0.352 N 
ATOM      4  C   UNL A   1      36.427  22.945  23.770  1.00  0.00     0.251 C 
ATOM      5  O   UNL A   1      36.347  22.821  22.550  1.00  0.00    -0.270 OA
ATOM      6  H   UNL A   1      38.356  22.549  23.719  1.00  0.00     0.163 HD
BRANCH   4   7
ATOM      7  C   UNL A   1      35.240  23.429  24.521  1.00  0.00     0.067 C 
ATOM      8  C   UNL A   1      31.764  24.521  26.618  1.00  0.00     0.165 A 
ATOM      9  C   UNL A   1      31.352  25.860  26.625  1.00  0.00     0.097 A 
ATOM     10  C   UNL A   1      32.925  24.137  25.935  1.00  0.00     0.170 A 
ATOM     11  C   UNL A   1      32.121  26.834  25.992  1.00  0.00     0.134 A 
ATOM     12  C   UNL A   1      33.702  25.110  25.311  1.00  0.00     0.025 A 
ATOM     13  O   UNL A   1      33.204  22.808  25.820  1.00  0.00    -0.471 OA
ATOM     14  C   UNL A   1      33.302  26.452  25.349  1.00  0.00     0.059 A 
ATOM     15  C   UNL A   1      34.883  24.720  24.555  1.00  0.00     0.026 C 
ATOM     16  C   UNL A   1      34.537  22.403  25.401  1.00  0.00     0.314 C 
BRANCH   8  17
ATOM     17  O   UNL A   1      30.919  23.645  27.252  1.00  0.00    -0.493 OA
ATOM     18  C   UNL A   1      30.105  22.901  26.346  1.00  0.00     0.278 C 
ENDBRANCH   8  17
BRANCH  11  19
ATOM     19  O   UNL A   1      31.844  28.167  25.908  1.00  0.00    -0.406 OA
BRANCH  19  20
ATOM     20  C   UNL A   1      31.955  28.944  27.091  1.00  0.00     0.573 C 
ATOM     21  F   UNL A   1      31.028  28.583  28.001  1.00  0.00    -0.132 F 
ATOM     22  F   UNL A   1      33.189  28.830  27.627  1.00  0.00    -0.132 F 
ATOM     23  F   UNL A   1      31.751  30.241  26.772  1.00  0.00    -0.132 F 
ENDBRANCH  19  20
ENDBRANCH  11  19
BRANCH  16  24
ATOM     24  C   UNL A   1      34.414  20.973  24.822  1.00  0.00     0.429 C 
ATOM     25  F   UNL A   1      33.669  20.157  25.600  1.00  0.00    -0.167 F 
ATOM     26  F   UNL A   1      33.787  20.992  23.614  1.00  0.00    -0.167 F 
ATOM     27  F   UNL A   1      35.618  20.390  24.629  1.00  0.00    -0.167 F 
ENDBRANCH  16  24
ENDBRANCH   4   7
ENDBRANCH   2   3
ENDBRANCH   1   2
BRANCH   1  28
ATOM     28  C   UNL A   1      38.900  20.287  25.009  1.00  0.00     0.118 C 
BRANCH  28  29
ATOM     29  N   UNL A   1      39.845  19.312  25.529  1.00  0.00    -0.352 N 
ATOM     30  C   UNL A   1      41.067  19.503  26.126  1.00  0.00     0.251 C 
ATOM     31  H   UNL A   1      39.566  18.372  25.441  1.00  0.00     0.163 HD
ATOM     32  O   UNL A   1      41.814  18.544  26.289  1.00  0.00    -0.269 OA
BRANCH  30  33
ATOM     33  C   UNL A   1      41.494  20.850  26.565  1.00  0.00     0.039 A 
ATOM     34  C   UNL A   1      41.426  21.162  27.927  1.00  0.00     0.014 A 
ATOM     35  C   UNL A   1      41.897  21.823  25.645  1.00  0.00     0.014 A 
ATOM     36  C   UNL A   1      41.799  22.433  28.370  1.00  0.00     0.010 A 
ATOM     37  C   UNL A   1      42.328  23.070  26.095  1.00  0.00     0.010 A 
ATOM     38  C   UNL A   1      42.273  23.391  27.460  1.00  0.00    -0.014 A 
BRANCH  38  39
ATOM     39  C   UNL A   1      42.704  24.736  27.917  1.00  0.00     0.031 A 
ATOM     40  C   UNL A   1      41.682  25.799  28.216  1.00  0.00     0.074 A 
ATOM     41  C   UNL A   1      44.017  25.019  28.009  1.00  0.00     0.049 A 
ATOM     42  N   UNL A   1      41.868  27.047  28.566  1.00  0.00    -0.248 NA
ATOM     43  C   UNL A   1      40.268  25.417  28.083  1.00  0.00     0.031 C 
ATOM     44  C   UNL A   1      45.108  24.087  27.716  1.00  0.00     0.029 A 
ATOM     45  N   UNL A   1      44.658  26.179  28.368  1.00  0.00    -0.354 N 
ATOM     46  C   UNL A   1      40.598  27.602  28.673  1.00  0.00     0.074 A 
ATOM     47  C   UNL A   1      39.653  26.567  28.312  1.00  0.00     0.031 C 
ATOM     48  C   UNL A   1      46.281  24.704  27.929  1.00  0.00     0.029 A 
ATOM     49  C   UNL A   1      46.027  26.083  28.335  1.00  0.00     0.049 A 
ATOM     50  H   UNL A   1      44.180  27.001  28.624  1.00  0.00     0.167 HD
ATOM     51  C   UNL A   1      40.248  28.854  29.052  1.00  0.00     0.031 A 
ATOM     52  C   UNL A   1      46.974  27.003  28.597  1.00  0.00     0.031 A 
ATOM     53  C   UNL A   1      41.186  29.880  29.426  1.00  0.00     0.049 A 
ATOM     54  C   UNL A   1      46.560  28.387  29.011  1.00  0.00     0.074 A 
ATOM     55  C   UNL A   1      40.928  31.162  29.879  1.00  0.00     0.029 A 
ATOM     56  N   UNL A   1      42.565  29.738  29.390  1.00  0.00    -0.354 N 
ATOM     57  N   UNL A   1      45.355  28.877  29.164  1.00  0.00    -0.248 NA
ATOM     58  C   UNL A   1      47.641  29.341  29.299  1.00  0.00     0.031 C 
ATOM     59  C   UNL A   1      42.151  31.811  30.075  1.00  0.00     0.029 A 
ATOM     60  C   UNL A   1      43.170  30.916  29.793  1.00  0.00     0.049 A 
ATOM     61  H   UNL A   1      43.042  28.921  29.119  1.00  0.00     0.167 HD
ATOM     62  C   UNL A   1      45.530  30.187  29.592  1.00  0.00     0.074 A 
ATOM     63  C   UNL A   1      46.959  30.409  29.687  1.00  0.00     0.031 C 
ATOM     64  C   UNL A   1      44.592  31.121  29.882  1.00  0.00     0.031 A 
BRANCH  51  65
ATOM     65  C   UNL A   1      38.782  29.186  29.074  1.00  0.00    -0.014 A 
ATOM     66  C   UNL A   1      38.015  29.019  30.239  1.00  0.00     0.009 A 
ATOM     67  C   UNL A   1      38.166  29.703  27.923  1.00  0.00     0.009 A 
ATOM     68  C   UNL A   1      36.653  29.328  30.239  1.00  0.00     0.001 A 
ATOM     69  C   UNL A   1      36.810  30.037  27.935  1.00  0.00     0.001 A 
ATOM     70  C   UNL A   1      36.053  29.839  29.088  1.00  0.00     0.000 A 
ENDBRANCH  51  65
BRANCH  52  71
ATOM     71  C   UNL A   1      48.410  26.641  28.492  1.00  0.00    -0.014 A 
ATOM     72  C   UNL A   1      49.105  26.831  27.288  1.00  0.00     0.009 A 
ATOM     73  C   UNL A   1      49.095  26.104  29.593  1.00  0.00     0.009 A 
ATOM     74  C   UNL A   1      50.449  26.470  27.181  1.00  0.00     0.001 A 
ATOM     75  C   UNL A   1      50.446  25.767  29.491  1.00  0.00     0.001 A 
ATOM     76  C   UNL A   1      51.120  25.942  28.283  1.00  0.00     0.000 A 
ENDBRANCH  52  71
BRANCH  64  77
ATOM     77  C   UNL A   1      45.082  32.458  30.361  1.00  0.00    -0.014 A 
ATOM     78  C   UNL A   1      45.382  33.489  29.458  1.00  0.00     0.009 A 
ATOM     79  C   UNL A   1      45.206  32.697  31.738  1.00  0.00     0.009 A 
ATOM     80  C   UNL A   1      45.829  34.726  29.927  1.00  0.00     0.001 A 
ATOM     81  C   UNL A   1      45.626  33.944  32.203  1.00  0.00     0.001 A 
ATOM     82  C   UNL A   1      45.946  34.954  31.298  1.00  0.00     0.000 A 
ENDBRANCH  64  77
ENDBRANCH  38  39
ENDBRANCH  30  33
ENDBRANCH  28  29
ENDBRANCH   1  28
TORSDOF 14
ENDMDL
MODEL 3
REMARK VINA RESULT:     -11.1      3.280      7.093
REMARK SMILES COc1cc(OC(F)(F)F)cc2c1O[C@@H](C(F)(F)F)C(C(=O)NCCCNC(=O)c1ccc(-c3c4nc(c(-c5ccccc5)c5ccc([nH]5)c(-c5ccccc5)c5nc(c(-c6ccccc6)c6ccc3[nH]6)C=C5)C=C4)cc1)=C2
REMARK SMILES IDX 25 1 24 2 23 3 21 4 22 5 20 7 3 8 4 9 13 10 5 11 12 12 14 13
REMARK SMILES IDX 11 14 78 15 15 16 2 17 1 18 6 19 7 20 8 21 9 22 10 23 16 24
REMARK SMILES IDX 17 25 18 26 19 27 26 28 27 29 28 30 29 32 30 33 31 34 77 35
REMARK SMILES IDX 32 36 76 37 33 38 34 39 35 40 70 41 36 42 75 43 69 44 71 45
REMARK SMILES IDX 37 46 74 47 68 48 67 49 38 51 60 52 45 53 59 54 46 55 49 56
REMARK SMILES IDX 58 57 72 58 47 59 48 60 57 62 73 63 50 64 39 65 40 66 44 67
REMARK SMILES IDX 41 68 43 69 42 70 61 71 62 72 66 73 63 74 65 75 64 76 51 77
REMARK SMILES IDX 52 78 56 79 53 80 55 81 54 82
REMARK H PARENT 23 6 27 31 71 50 49 61
REMARK Flexibility Score: inf
ROOT
ATOM      1  C   UNL A   1      39.284  21.772  26.207  1.00  0.00     0.042 C 
ENDROOT
BRANCH   1   2
ATOM      2  C   UNL A   1      38.159  22.790  26.002  1.00  0.00     0.118 C 
BRANCH   2   3
ATOM      3  N   UNL A   1      37.743  22.816  24.608  1.00  0.00    -0.352 N 
ATOM      4  C   UNL A   1      36.536  22.982  24.008  1.00  0.00     0.251 C 
ATOM      5  O   UNL A   1      36.466  22.798  22.795  1.00  0.00    -0.270 OA
ATOM      6  H   UNL A   1      38.484  22.688  23.975  1.00  0.00     0.163 HD
BRANCH   4   7
ATOM      7  C   UNL A   1      35.324  23.436  24.737  1.00  0.00     0.067 C 
ATOM      8  C   UNL A   1      31.787  24.437  26.776  1.00  0.00     0.165 A 
ATOM      9  C   UNL A   1      31.324  25.759  26.749  1.00  0.00     0.097 A 
ATOM     10  C   UNL A   1      32.969  24.084  26.113  1.00  0.00     0.170 A 
ATOM     11  C   UNL A   1      32.061  26.748  26.101  1.00  0.00     0.134 A 
ATOM     12  C   UNL A   1      33.715  25.072  25.474  1.00  0.00     0.025 A 
ATOM     13  O   UNL A   1      33.300  22.764  26.029  1.00  0.00    -0.471 OA
ATOM     14  C   UNL A   1      33.262  26.398  25.478  1.00  0.00     0.059 A 
ATOM     15  C   UNL A   1      34.917  24.712  24.738  1.00  0.00     0.026 C 
ATOM     16  C   UNL A   1      34.653  22.402  25.633  1.00  0.00     0.314 C 
BRANCH   8  17
ATOM     17  O   UNL A   1      30.970  23.543  27.421  1.00  0.00    -0.493 OA
ATOM     18  C   UNL A   1      30.005  22.944  26.555  1.00  0.00     0.278 C 
ENDBRANCH   8  17
BRANCH  11  19
ATOM     19  O   UNL A   1      31.733  28.068  25.986  1.00  0.00    -0.406 OA
BRANCH  19  20
ATOM     20  C   UNL A   1      31.823  28.878  27.147  1.00  0.00     0.573 C 
ATOM     21  F   UNL A   1      30.920  28.504  28.075  1.00  0.00    -0.132 F 
ATOM     22  F   UNL A   1      33.065  28.829  27.673  1.00  0.00    -0.132 F 
ATOM     23  F   UNL A   1      31.563  30.157  26.797  1.00  0.00    -0.132 F 
ENDBRANCH  19  20
ENDBRANCH  11  19
BRANCH  16  24
ATOM     24  C   UNL A   1      34.591  20.957  25.085  1.00  0.00     0.429 C 
ATOM     25  F   UNL A   1      33.740  20.170  25.780  1.00  0.00    -0.167 F 
ATOM     26  F   UNL A   1      34.129  20.944  23.804  1.00  0.00    -0.167 F 
ATOM     27  F   UNL A   1      35.803  20.359  25.070  1.00  0.00    -0.167 F 
ENDBRANCH  16  24
ENDBRANCH   4   7
ENDBRANCH   2   3
ENDBRANCH   1   2
BRANCH   1  28
ATOM     28  C   UNL A   1      40.492  22.344  26.947  1.00  0.00     0.118 C 
BRANCH  28  29
ATOM     29  N   UNL A   1      41.494  22.860  26.028  1.00  0.00    -0.352 N 
ATOM     30  C   UNL A   1      42.023  24.121  25.922  1.00  0.00     0.251 C 
ATOM     31  H   UNL A   1      41.847  22.203  25.384  1.00  0.00     0.163 HD
ATOM     32  O   UNL A   1      42.689  24.415  24.935  1.00  0.00    -0.269 OA
BRANCH  30  33
ATOM     33  C   UNL A   1      41.792  25.132  26.978  1.00  0.00     0.039 A 
ATOM     34  C   UNL A   1      42.678  26.210  27.078  1.00  0.00     0.014 A 
ATOM     35  C   UNL A   1      40.755  24.993  27.905  1.00  0.00     0.014 A 
ATOM     36  C   UNL A   1      42.501  27.167  28.080  1.00  0.00     0.010 A 
ATOM     37  C   UNL A   1      40.542  25.981  28.865  1.00  0.00     0.010 A 
ATOM     38  C   UNL A   1      41.419  27.072  28.969  1.00  0.00    -0.014 A 
BRANCH  38  39
ATOM     39  C   UNL A   1      41.197  28.097  30.019  1.00  0.00     0.031 A 
ATOM     40  C   UNL A   1      40.072  29.087  29.887  1.00  0.00     0.074 A 
ATOM     41  C   UNL A   1      42.043  28.173  31.065  1.00  0.00     0.049 A 
ATOM     42  N   UNL A   1      39.760  30.091  30.669  1.00  0.00    -0.248 NA
ATOM     43  C   UNL A   1      39.197  28.946  28.713  1.00  0.00     0.031 C 
ATOM     44  C   UNL A   1      43.191  27.294  31.291  1.00  0.00     0.029 A 
ATOM     45  N   UNL A   1      42.071  29.039  32.129  1.00  0.00    -0.354 N 
ATOM     46  C   UNL A   1      38.669  30.710  30.071  1.00  0.00     0.074 A 
ATOM     47  C   UNL A   1      38.400  29.995  28.842  1.00  0.00     0.031 C 
ATOM     48  C   UNL A   1      43.798  27.651  32.435  1.00  0.00     0.029 A 
ATOM     49  C   UNL A   1      43.106  28.805  33.001  1.00  0.00     0.049 A 
ATOM     50  H   UNL A   1      41.412  29.760  32.255  1.00  0.00     0.167 HD
ATOM     51  C   UNL A   1      37.947  31.768  30.511  1.00  0.00     0.031 A 
ATOM     52  C   UNL A   1      43.462  29.450  34.127  1.00  0.00     0.031 A 
ATOM     53  C   UNL A   1      38.204  32.470  31.740  1.00  0.00     0.049 A 
ATOM     54  C   UNL A   1      42.647  30.624  34.592  1.00  0.00     0.074 A 
ATOM     55  C   UNL A   1      37.495  33.518  32.300  1.00  0.00     0.029 A 
ATOM     56  N   UNL A   1      39.256  32.193  32.601  1.00  0.00    -0.354 N 
ATOM     57  N   UNL A   1      41.584  31.159  34.045  1.00  0.00    -0.248 NA
ATOM     58  C   UNL A   1      43.078  31.274  35.838  1.00  0.00     0.031 C 
ATOM     59  C   UNL A   1      38.143  33.905  33.478  1.00  0.00     0.029 A 
ATOM     60  C   UNL A   1      39.226  33.064  33.676  1.00  0.00     0.049 A 
ATOM     61  H   UNL A   1      39.924  31.483  32.466  1.00  0.00     0.167 HD
ATOM     62  C   UNL A   1      41.202  32.192  34.892  1.00  0.00     0.074 A 
ATOM     63  C   UNL A   1      42.140  32.197  35.996  1.00  0.00     0.031 C 
ATOM     64  C   UNL A   1      40.166  33.056  34.766  1.00  0.00     0.031 A 
BRANCH  51  65
ATOM     65  C   UNL A   1      36.809  32.236  29.647  1.00  0.00    -0.014 A 
ATOM     66  C   UNL A   1      36.988  33.254  28.696  1.00  0.00     0.009 A 
ATOM     67  C   UNL A   1      35.548  31.629  29.764  1.00  0.00     0.009 A 
ATOM     68  C   UNL A   1      35.918  33.680  27.906  1.00  0.00     0.001 A 
ATOM     69  C   UNL A   1      34.487  32.039  28.953  1.00  0.00     0.001 A 
ATOM     70  C   UNL A   1      34.670  33.070  28.033  1.00  0.00     0.000 A 
ENDBRANCH  51  65
BRANCH  52  71
ATOM     71  C   UNL A   1      44.639  28.988  34.906  1.00  0.00    -0.014 A 
ATOM     72  C   UNL A   1      44.488  28.032  35.922  1.00  0.00     0.009 A 
ATOM     73  C   UNL A   1      45.918  29.498  34.639  1.00  0.00     0.009 A 
ATOM     74  C   UNL A   1      45.590  27.613  36.670  1.00  0.00     0.001 A 
ATOM     75  C   UNL A   1      47.023  29.059  35.371  1.00  0.00     0.001 A 
ATOM     76  C   UNL A   1      46.857  28.124  36.392  1.00  0.00     0.000 A 
ENDBRANCH  52  71
BRANCH  64  77
ATOM     77  C   UNL A   1      39.974  34.059  35.868  1.00  0.00    -0.014 A 
ATOM     78  C   UNL A   1      40.607  35.311  35.831  1.00  0.00     0.009 A 
ATOM     79  C   UNL A   1      39.117  33.758  36.937  1.00  0.00     0.009 A 
ATOM     80  C   UNL A   1      40.407  36.231  36.863  1.00  0.00     0.001 A 
ATOM     81  C   UNL A   1      38.899  34.690  37.953  1.00  0.00     0.001 A 
ATOM     82  C   UNL A   1      39.551  35.922  37.919  1.00  0.00     0.000 A 
ENDBRANCH  64  77
ENDBRANCH  38  39
ENDBRANCH  30  33
ENDBRANCH  28  29
ENDBRANCH   1  28
TORSDOF 14
ENDMDL
