MODEL 1
REMARK VINA RESULT:     -10.8      0.000      0.000
REMARK SMILES Cc1c(I)c(C(=O)NCCCNC(=O)c2ccc(-c3c4nc(c(-c5ccccc5)c5ccc([nH]5)c(-c5ccccc5)c5nc(c(-c6ccccc6)c6ccc3[nH]6)C=C5)C=C4)cc2)nn1C(F)F
REMARK SMILES IDX 10 1 9 2 8 3 6 4 7 5 5 7 1 8 2 9 3 10 64 11 4 12 63 13 65 14
REMARK SMILES IDX 66 15 67 16 11 17 12 18 13 19 14 21 15 22 16 23 62 24 17 25
REMARK SMILES IDX 61 26 18 27 19 28 20 29 55 30 21 31 60 32 54 33 56 34 22 35
REMARK SMILES IDX 59 36 53 37 52 38 23 40 45 41 30 42 44 43 31 44 34 45 43 46
REMARK SMILES IDX 57 47 32 48 33 49 42 51 58 52 35 53 24 54 25 55 29 56 26 57
REMARK SMILES IDX 28 58 27 59 46 60 47 61 51 62 48 63 50 64 49 65 36 66 37 67
REMARK SMILES IDX 41 68 38 69 40 70 39 71
REMARK H PARENT 8 6 12 20 56 39 34 50
REMARK Flexibility Score: inf
ROOT
ATOM      1  C   UNL A   1      37.422  34.165  33.539  1.00  0.00     0.042 C 
ENDROOT
BRANCH   1   2
ATOM      2  C   UNL A   1      36.747  32.797  33.400  1.00  0.00     0.118 C 
BRANCH   2   3
ATOM      3  N   UNL A   1      35.311  32.866  33.623  1.00  0.00    -0.351 N 
ATOM      4  C   UNL A   1      34.268  33.121  32.755  1.00  0.00     0.272 C 
ATOM      5  O   UNL A   1      33.137  33.076  33.245  1.00  0.00    -0.267 OA
ATOM      6  H   UNL A   1      35.034  32.703  34.554  1.00  0.00     0.163 HD
BRANCH   4   7
ATOM      7  C   UNL A   1      34.506  33.409  31.324  1.00  0.00     0.163 A 
ATOM      8  C   UNL A   1      34.407  35.189  28.046  1.00  0.00     0.068 C 
ATOM      9  C   UNL A   1      34.531  34.349  29.268  1.00  0.00     0.056 A 
ATOM     10  C   UNL A   1      34.170  34.577  30.584  1.00  0.00     0.067 A 
ATOM     11  N   UNL A   1      35.084  33.086  29.274  1.00  0.00    -0.207 N 
ATOM     12  I   UNL A   1      33.283  36.285  31.254  1.00  0.00    -0.040 I 
ATOM     13  N   UNL A   1      35.130  32.538  30.509  1.00  0.00    -0.161 NA
BRANCH  11  14
ATOM     14  C   UNL A   1      35.567  32.303  28.135  1.00  0.00     0.465 C 
ATOM     15  F   UNL A   1      36.195  31.164  28.534  1.00  0.00    -0.184 F 
ATOM     16  F   UNL A   1      34.540  31.926  27.325  1.00  0.00    -0.184 F 
ENDBRANCH  11  14
ENDBRANCH   4   7
ENDBRANCH   2   3
ENDBRANCH   1   2
BRANCH   1  17
ATOM     17  C   UNL A   1      38.630  34.295  32.617  1.00  0.00     0.118 C 
BRANCH  17  18
ATOM     18  N   UNL A   1      38.247  34.470  31.218  1.00  0.00    -0.352 N 
ATOM     19  C   UNL A   1      38.651  33.761  30.105  1.00  0.00     0.251 C 
ATOM     20  H   UNL A   1      37.610  35.200  31.044  1.00  0.00     0.163 HD
ATOM     21  O   UNL A   1      38.475  34.218  28.988  1.00  0.00    -0.269 OA
BRANCH  19  22
ATOM     22  C   UNL A   1      39.318  32.454  30.272  1.00  0.00     0.039 A 
ATOM     23  C   UNL A   1      38.548  31.313  30.508  1.00  0.00     0.014 A 
ATOM     24  C   UNL A   1      40.709  32.362  30.199  1.00  0.00     0.014 A 
ATOM     25  C   UNL A   1      39.176  30.072  30.572  1.00  0.00     0.010 A 
ATOM     26  C   UNL A   1      41.322  31.126  30.166  1.00  0.00     0.010 A 
ATOM     27  C   UNL A   1      40.563  29.976  30.364  1.00  0.00    -0.014 A 
BRANCH  27  28
ATOM     28  C   UNL A   1      41.166  28.660  30.146  1.00  0.00     0.031 A 
ATOM     29  C   UNL A   1      41.961  28.173  31.307  1.00  0.00     0.074 A 
ATOM     30  C   UNL A   1      40.894  27.836  29.111  1.00  0.00     0.049 A 
ATOM     31  N   UNL A   1      43.240  28.015  31.365  1.00  0.00    -0.248 NA
ATOM     32  C   UNL A   1      41.274  27.977  32.595  1.00  0.00     0.031 C 
ATOM     33  C   UNL A   1      39.905  28.035  28.047  1.00  0.00     0.029 A 
ATOM     34  N   UNL A   1      41.367  26.579  28.854  1.00  0.00    -0.354 N 
ATOM     35  C   UNL A   1      43.499  27.485  32.624  1.00  0.00     0.074 A 
ATOM     36  C   UNL A   1      42.295  27.662  33.394  1.00  0.00     0.031 C 
ATOM     37  C   UNL A   1      39.682  26.861  27.414  1.00  0.00     0.029 A 
ATOM     38  C   UNL A   1      40.622  25.874  27.912  1.00  0.00     0.049 A 
ATOM     39  H   UNL A   1      42.163  26.206  29.296  1.00  0.00     0.167 HD
ATOM     40  C   UNL A   1      44.573  26.672  32.827  1.00  0.00     0.031 A 
ATOM     41  C   UNL A   1      40.749  24.568  27.576  1.00  0.00     0.031 A 
ATOM     42  C   UNL A   1      45.518  26.766  31.740  1.00  0.00     0.049 A 
ATOM     43  C   UNL A   1      42.099  24.132  27.982  1.00  0.00     0.074 A 
ATOM     44  C   UNL A   1      46.268  27.767  31.160  1.00  0.00     0.029 A 
ATOM     45  N   UNL A   1      45.480  25.734  30.836  1.00  0.00    -0.354 N 
ATOM     46  N   UNL A   1      43.190  24.533  27.399  1.00  0.00    -0.248 NA
ATOM     47  C   UNL A   1      42.280  23.502  29.279  1.00  0.00     0.031 C 
ATOM     48  C   UNL A   1      46.309  27.446  29.770  1.00  0.00     0.029 A 
ATOM     49  C   UNL A   1      45.645  26.233  29.576  1.00  0.00     0.049 A 
ATOM     50  H   UNL A   1      45.352  24.784  31.061  1.00  0.00     0.167 HD
ATOM     51  C   UNL A   1      44.106  24.649  28.430  1.00  0.00     0.074 A 
ATOM     52  C   UNL A   1      43.548  23.845  29.514  1.00  0.00     0.031 C 
ATOM     53  C   UNL A   1      45.060  25.625  28.401  1.00  0.00     0.031 A 
BRANCH  40  54
ATOM     54  C   UNL A   1      44.511  25.430  33.697  1.00  0.00    -0.014 A 
ATOM     55  C   UNL A   1      43.903  24.275  33.169  1.00  0.00     0.009 A 
ATOM     56  C   UNL A   1      44.710  25.451  35.091  1.00  0.00     0.009 A 
ATOM     57  C   UNL A   1      43.425  23.254  34.000  1.00  0.00     0.001 A 
ATOM     58  C   UNL A   1      44.274  24.414  35.920  1.00  0.00     0.001 A 
ATOM     59  C   UNL A   1      43.600  23.331  35.377  1.00  0.00     0.000 A 
ENDBRANCH  40  54
BRANCH  41  60
ATOM     60  C   UNL A   1      39.750  23.598  27.078  1.00  0.00    -0.014 A 
ATOM     61  C   UNL A   1      38.549  24.046  26.498  1.00  0.00     0.009 A 
ATOM     62  C   UNL A   1      40.098  22.249  26.899  1.00  0.00     0.009 A 
ATOM     63  C   UNL A   1      37.761  23.191  25.718  1.00  0.00     0.001 A 
ATOM     64  C   UNL A   1      39.306  21.393  26.125  1.00  0.00     0.001 A 
ATOM     65  C   UNL A   1      38.149  21.869  25.517  1.00  0.00     0.000 A 
ENDBRANCH  41  60
BRANCH  53  66
ATOM     66  C   UNL A   1      45.368  26.269  27.073  1.00  0.00    -0.014 A 
ATOM     67  C   UNL A   1      44.759  27.448  26.608  1.00  0.00     0.009 A 
ATOM     68  C   UNL A   1      46.393  25.702  26.300  1.00  0.00     0.009 A 
ATOM     69  C   UNL A   1      45.136  28.011  25.384  1.00  0.00     0.001 A 
ATOM     70  C   UNL A   1      46.789  26.279  25.093  1.00  0.00     0.001 A 
ATOM     71  C   UNL A   1      46.152  27.428  24.630  1.00  0.00     0.000 A 
ENDBRANCH  53  66
ENDBRANCH  27  28
ENDBRANCH  19  22
ENDBRANCH  17  18
ENDBRANCH   1  17
TORSDOF 11
ENDMDL
MODEL 2
REMARK VINA RESULT:     -10.8      2.474      6.409
REMARK SMILES Cc1c(I)c(C(=O)NCCCNC(=O)c2ccc(-c3c4nc(c(-c5ccccc5)c5ccc([nH]5)c(-c5ccccc5)c5nc(c(-c6ccccc6)c6ccc3[nH]6)C=C5)C=C4)cc2)nn1C(F)F
REMARK SMILES IDX 10 1 9 2 8 3 6 4 7 5 5 7 1 8 2 9 3 10 64 11 4 12 63 13 65 14
REMARK SMILES IDX 66 15 67 16 11 17 12 18 13 19 14 21 15 22 16 23 62 24 17 25
REMARK SMILES IDX 61 26 18 27 19 28 20 29 55 30 21 31 60 32 54 33 56 34 22 35
REMARK SMILES IDX 59 36 53 37 52 38 23 40 45 41 30 42 44 43 31 44 34 45 43 46
REMARK SMILES IDX 57 47 32 48 33 49 42 51 58 52 35 53 24 54 25 55 29 56 26 57
REMARK SMILES IDX 28 58 27 59 46 60 47 61 51 62 48 63 50 64 49 65 36 66 37 67
REMARK SMILES IDX 41 68 38 69 40 70 39 71
REMARK H PARENT 8 6 12 20 56 39 34 50
REMARK Flexibility Score: inf
ROOT
ATOM      1  C   UNL A   1      37.496  31.880  32.070  1.00  0.00     0.042 C 
ENDROOT
BRANCH   1   2
ATOM      2  C   UNL A   1      36.883  33.173  32.618  1.00  0.00     0.118 C 
BRANCH   2   3
ATOM      3  N   UNL A   1      35.561  32.958  33.187  1.00  0.00    -0.351 N 
ATOM      4  C   UNL A   1      34.304  33.266  32.705  1.00  0.00     0.272 C 
ATOM      5  O   UNL A   1      33.357  32.920  33.414  1.00  0.00    -0.267 OA
ATOM      6  H   UNL A   1      35.563  32.517  34.067  1.00  0.00     0.163 HD
BRANCH   4   7
ATOM      7  C   UNL A   1      34.121  33.952  31.407  1.00  0.00     0.163 A 
ATOM      8  C   UNL A   1      33.349  36.653  28.952  1.00  0.00     0.068 C 
ATOM      9  C   UNL A   1      33.679  35.469  29.791  1.00  0.00     0.056 A 
ATOM     10  C   UNL A   1      33.825  35.321  31.159  1.00  0.00     0.067 A 
ATOM     11  N   UNL A   1      33.915  34.211  29.279  1.00  0.00    -0.207 N 
ATOM     12  I   UNL A   1      33.598  36.830  32.510  1.00  0.00    -0.040 I 
ATOM     13  N   UNL A   1      34.240  33.309  30.231  1.00  0.00    -0.161 NA
BRANCH  11  14
ATOM     14  C   UNL A   1      33.818  33.766  27.887  1.00  0.00     0.465 C 
ATOM     15  F   UNL A   1      34.621  32.696  27.640  1.00  0.00    -0.184 F 
ATOM     16  F   UNL A   1      32.547  33.389  27.578  1.00  0.00    -0.184 F 
ENDBRANCH  11  14
ENDBRANCH   4   7
ENDBRANCH   2   3
ENDBRANCH   1   2
BRANCH   1  17
ATOM     17  C   UNL A   1      37.507  31.863  30.545  1.00  0.00     0.118 C 
BRANCH  17  18
ATOM     18  N   UNL A   1      36.403  31.084  29.988  1.00  0.00    -0.352 N 
ATOM     19  C   UNL A   1      36.438  30.034  29.093  1.00  0.00     0.251 C 
ATOM     20  H   UNL A   1      35.506  31.346  30.295  1.00  0.00     0.163 HD
ATOM     21  O   UNL A   1      35.424  29.694  28.505  1.00  0.00    -0.269 OA
BRANCH  19  22
ATOM     22  C   UNL A   1      37.712  29.335  28.831  1.00  0.00     0.039 A 
ATOM     23  C   UNL A   1      38.426  29.620  27.664  1.00  0.00     0.014 A 
ATOM     24  C   UNL A   1      38.196  28.394  29.740  1.00  0.00     0.014 A 
ATOM     25  C   UNL A   1      39.669  29.026  27.468  1.00  0.00     0.010 A 
ATOM     26  C   UNL A   1      39.468  27.879  29.595  1.00  0.00     0.010 A 
ATOM     27  C   UNL A   1      40.207  28.182  28.455  1.00  0.00    -0.014 A 
BRANCH  27  28
ATOM     28  C   UNL A   1      41.618  27.797  28.378  1.00  0.00     0.031 A 
ATOM     29  C   UNL A   1      41.845  26.522  27.644  1.00  0.00     0.074 A 
ATOM     30  C   UNL A   1      42.662  28.577  28.731  1.00  0.00     0.049 A 
ATOM     31  N   UNL A   1      42.251  25.400  28.135  1.00  0.00    -0.248 NA
ATOM     32  C   UNL A   1      41.437  26.444  26.230  1.00  0.00     0.031 C 
ATOM     33  C   UNL A   1      42.623  29.971  29.183  1.00  0.00     0.029 A 
ATOM     34  N   UNL A   1      44.003  28.323  28.649  1.00  0.00    -0.354 N 
ATOM     35  C   UNL A   1      42.367  24.533  27.054  1.00  0.00     0.074 A 
ATOM     36  C   UNL A   1      41.679  25.161  25.955  1.00  0.00     0.031 C 
ATOM     37  C   UNL A   1      43.862  30.507  29.101  1.00  0.00     0.029 A 
ATOM     38  C   UNL A   1      44.803  29.457  28.754  1.00  0.00     0.049 A 
ATOM     39  H   UNL A   1      44.369  27.418  28.525  1.00  0.00     0.167 HD
ATOM     40  C   UNL A   1      43.278  23.521  27.071  1.00  0.00     0.031 A 
ATOM     41  C   UNL A   1      46.140  29.541  28.551  1.00  0.00     0.031 A 
ATOM     42  C   UNL A   1      43.767  23.276  28.407  1.00  0.00     0.049 A 
ATOM     43  C   UNL A   1      46.697  28.182  28.690  1.00  0.00     0.074 A 
ATOM     44  C   UNL A   1      43.212  22.921  29.618  1.00  0.00     0.029 A 
ATOM     45  N   UNL A   1      45.009  23.790  28.683  1.00  0.00    -0.354 N 
ATOM     46  N   UNL A   1      46.768  27.546  29.823  1.00  0.00    -0.248 NA
ATOM     47  C   UNL A   1      46.875  27.364  27.502  1.00  0.00     0.031 C 
ATOM     48  C   UNL A   1      43.985  23.611  30.600  1.00  0.00     0.029 A 
ATOM     49  C   UNL A   1      45.015  24.295  29.951  1.00  0.00     0.049 A 
ATOM     50  H   UNL A   1      45.774  23.796  28.064  1.00  0.00     0.167 HD
ATOM     51  C   UNL A   1      46.514  26.228  29.489  1.00  0.00     0.074 A 
ATOM     52  C   UNL A   1      46.761  26.153  28.052  1.00  0.00     0.031 C 
ATOM     53  C   UNL A   1      45.841  25.413  30.354  1.00  0.00     0.031 A 
BRANCH  40  54
ATOM     54  C   UNL A   1      44.106  23.139  25.858  1.00  0.00    -0.014 A 
ATOM     55  C   UNL A   1      44.217  21.775  25.529  1.00  0.00     0.009 A 
ATOM     56  C   UNL A   1      45.034  24.008  25.251  1.00  0.00     0.009 A 
ATOM     57  C   UNL A   1      45.261  21.299  24.727  1.00  0.00     0.001 A 
ATOM     58  C   UNL A   1      46.051  23.541  24.414  1.00  0.00     0.001 A 
ATOM     59  C   UNL A   1      46.185  22.182  24.180  1.00  0.00     0.000 A 
ENDBRANCH  40  54
BRANCH  41  60
ATOM     60  C   UNL A   1      46.975  30.667  28.081  1.00  0.00    -0.014 A 
ATOM     61  C   UNL A   1      46.604  31.404  26.943  1.00  0.00     0.009 A 
ATOM     62  C   UNL A   1      47.971  31.207  28.914  1.00  0.00     0.009 A 
ATOM     63  C   UNL A   1      47.164  32.662  26.683  1.00  0.00     0.001 A 
ATOM     64  C   UNL A   1      48.534  32.460  28.649  1.00  0.00     0.001 A 
ATOM     65  C   UNL A   1      48.116  33.197  27.546  1.00  0.00     0.000 A 
ENDBRANCH  41  60
BRANCH  53  66
ATOM     66  C   UNL A   1      45.768  25.829  31.802  1.00  0.00    -0.014 A 
ATOM     67  C   UNL A   1      46.757  25.535  32.757  1.00  0.00     0.009 A 
ATOM     68  C   UNL A   1      44.690  26.639  32.189  1.00  0.00     0.009 A 
ATOM     69  C   UNL A   1      46.640  26.000  34.071  1.00  0.00     0.001 A 
ATOM     70  C   UNL A   1      44.588  27.127  33.493  1.00  0.00     0.001 A 
ATOM     71  C   UNL A   1      45.558  26.798  34.437  1.00  0.00     0.000 A 
ENDBRANCH  53  66
ENDBRANCH  27  28
ENDBRANCH  19  22
ENDBRANCH  17  18
ENDBRANCH   1  17
TORSDOF 11
ENDMDL
MODEL 3
REMARK VINA RESULT:     -10.4      4.870     11.435
REMARK SMILES Cc1c(I)c(C(=O)NCCCNC(=O)c2ccc(-c3c4nc(c(-c5ccccc5)c5ccc([nH]5)c(-c5ccccc5)c5nc(c(-c6ccccc6)c6ccc3[nH]6)C=C5)C=C4)cc2)nn1C(F)F
REMARK SMILES IDX 10 1 9 2 8 3 6 4 7 5 5 7 1 8 2 9 3 10 64 11 4 12 63 13 65 14
REMARK SMILES IDX 66 15 67 16 11 17 12 18 13 19 14 21 15 22 16 23 62 24 17 25
REMARK SMILES IDX 61 26 18 27 19 28 20 29 55 30 21 31 60 32 54 33 56 34 22 35
REMARK SMILES IDX 59 36 53 37 52 38 23 40 45 41 30 42 44 43 31 44 34 45 43 46
REMARK SMILES IDX 57 47 32 48 33 49 42 51 58 52 35 53 24 54 25 55 29 56 26 57
REMARK SMILES IDX 28 58 27 59 46 60 47 61 51 62 48 63 50 64 49 65 36 66 37 67
REMARK SMILES IDX 41 68 38 69 40 70 39 71
REMARK H PARENT 8 6 12 20 56 39 34 50
REMARK Flexibility Score: inf
ROOT
ATOM      1  C   UNL A   1      43.426  24.928  27.425  1.00  0.00     0.042 C 
ENDROOT
BRANCH   1   2
ATOM      2  C   UNL A   1      44.675  24.113  27.073  1.00  0.00     0.118 C 
BRANCH   2   3
ATOM      3  N   UNL A   1      44.839  23.950  25.637  1.00  0.00    -0.351 N 
ATOM      4  C   UNL A   1      44.437  22.941  24.785  1.00  0.00     0.272 C 
ATOM      5  O   UNL A   1      44.697  23.108  23.591  1.00  0.00    -0.267 OA
ATOM      6  H   UNL A   1      45.320  24.687  25.195  1.00  0.00     0.163 HD
BRANCH   4   7
ATOM      7  C   UNL A   1      43.722  21.746  25.286  1.00  0.00     0.163 A 
ATOM      8  C   UNL A   1      43.013  18.175  26.101  1.00  0.00     0.068 C 
ATOM      9  C   UNL A   1      43.133  19.634  25.836  1.00  0.00     0.056 A 
ATOM     10  C   UNL A   1      44.183  20.402  25.366  1.00  0.00     0.067 A 
ATOM     11  N   UNL A   1      42.109  20.534  26.041  1.00  0.00    -0.207 N 
ATOM     12  I   UNL A   1      46.013  19.662  24.861  1.00  0.00    -0.040 I 
ATOM     13  N   UNL A   1      42.469  21.809  25.773  1.00  0.00    -0.161 NA
BRANCH  11  14
ATOM     14  C   UNL A   1      40.732  20.262  26.461  1.00  0.00     0.465 C 
ATOM     15  F   UNL A   1      40.190  19.219  25.777  1.00  0.00    -0.184 F 
ATOM     16  F   UNL A   1      40.676  19.942  27.783  1.00  0.00    -0.184 F 
ENDBRANCH  11  14
ENDBRANCH   4   7
ENDBRANCH   2   3
ENDBRANCH   1   2
BRANCH   1  17
ATOM     17  C   UNL A   1      42.735  25.470  26.178  1.00  0.00     0.118 C 
BRANCH  17  18
ATOM     18  N   UNL A   1      41.479  24.779  25.893  1.00  0.00    -0.352 N 
ATOM     19  C   UNL A   1      40.252  24.903  26.513  1.00  0.00     0.251 C 
ATOM     20  H   UNL A   1      41.513  24.132  25.152  1.00  0.00     0.163 HD
ATOM     21  O   UNL A   1      39.395  24.048  26.356  1.00  0.00    -0.269 OA
BRANCH  19  22
ATOM     22  C   UNL A   1      39.986  26.063  27.388  1.00  0.00     0.039 A 
ATOM     23  C   UNL A   1      39.545  25.852  28.696  1.00  0.00     0.014 A 
ATOM     24  C   UNL A   1      40.170  27.360  26.907  1.00  0.00     0.014 A 
ATOM     25  C   UNL A   1      39.384  26.945  29.542  1.00  0.00     0.010 A 
ATOM     26  C   UNL A   1      40.104  28.436  27.769  1.00  0.00     0.010 A 
ATOM     27  C   UNL A   1      39.701  28.236  29.087  1.00  0.00    -0.014 A 
BRANCH  27  28
ATOM     28  C   UNL A   1      39.808  29.331  30.053  1.00  0.00     0.031 A 
ATOM     29  C   UNL A   1      38.545  30.103  30.216  1.00  0.00     0.074 A 
ATOM     30  C   UNL A   1      40.846  29.536  30.892  1.00  0.00     0.049 A 
ATOM     31  N   UNL A   1      38.324  31.324  29.859  1.00  0.00    -0.248 NA
ATOM     32  C   UNL A   1      37.346  29.395  30.698  1.00  0.00     0.031 C 
ATOM     33  C   UNL A   1      42.029  28.690  31.072  1.00  0.00     0.029 A 
ATOM     34  N   UNL A   1      41.010  30.494  31.854  1.00  0.00    -0.354 N 
ATOM     35  C   UNL A   1      37.030  31.612  30.275  1.00  0.00     0.074 A 
ATOM     36  C   UNL A   1      36.419  30.350  30.605  1.00  0.00     0.031 C 
ATOM     37  C   UNL A   1      42.654  29.027  32.224  1.00  0.00     0.029 A 
ATOM     38  C   UNL A   1      42.017  30.210  32.772  1.00  0.00     0.049 A 
ATOM     39  H   UNL A   1      40.463  31.311  31.894  1.00  0.00     0.167 HD
ATOM     40  C   UNL A   1      36.675  32.885  30.603  1.00  0.00     0.031 A 
ATOM     41  C   UNL A   1      42.300  30.883  33.914  1.00  0.00     0.031 A 
ATOM     42  C   UNL A   1      37.639  33.843  30.118  1.00  0.00     0.049 A 
ATOM     43  C   UNL A   1      41.719  32.233  33.792  1.00  0.00     0.074 A 
ATOM     44  C   UNL A   1      38.147  34.204  28.888  1.00  0.00     0.029 A 
ATOM     45  N   UNL A   1      38.512  34.327  31.058  1.00  0.00    -0.354 N 
ATOM     46  N   UNL A   1      42.173  33.141  32.979  1.00  0.00    -0.248 NA
ATOM     47  C   UNL A   1      40.393  32.485  34.332  1.00  0.00     0.031 C 
ATOM     48  C   UNL A   1      39.513  34.540  29.132  1.00  0.00     0.029 A 
ATOM     49  C   UNL A   1      39.755  34.438  30.503  1.00  0.00     0.049 A 
ATOM     50  H   UNL A   1      38.280  34.558  31.987  1.00  0.00     0.167 HD
ATOM     51  C   UNL A   1      41.041  33.801  32.538  1.00  0.00     0.074 A 
ATOM     52  C   UNL A   1      40.012  33.476  33.523  1.00  0.00     0.031 C 
ATOM     53  C   UNL A   1      40.977  34.290  31.264  1.00  0.00     0.031 A 
BRANCH  40  54
ATOM     54  C   UNL A   1      35.786  33.211  31.790  1.00  0.00    -0.014 A 
ATOM     55  C   UNL A   1      34.761  34.160  31.615  1.00  0.00     0.009 A 
ATOM     56  C   UNL A   1      36.123  32.890  33.119  1.00  0.00     0.009 A 
ATOM     57  C   UNL A   1      34.187  34.826  32.705  1.00  0.00     0.001 A 
ATOM     58  C   UNL A   1      35.521  33.521  34.211  1.00  0.00     0.001 A 
ATOM     59  C   UNL A   1      34.577  34.514  34.003  1.00  0.00     0.000 A 
ENDBRANCH  40  54
BRANCH  41  60
ATOM     60  C   UNL A   1      42.892  30.416  35.186  1.00  0.00    -0.014 A 
ATOM     61  C   UNL A   1      42.676  29.099  35.632  1.00  0.00     0.009 A 
ATOM     62  C   UNL A   1      43.907  31.160  35.811  1.00  0.00     0.009 A 
ATOM     63  C   UNL A   1      43.486  28.531  36.623  1.00  0.00     0.001 A 
ATOM     64  C   UNL A   1      44.712  30.593  36.806  1.00  0.00     0.001 A 
ATOM     65  C   UNL A   1      44.516  29.272  37.197  1.00  0.00     0.000 A 
ENDBRANCH  41  60
BRANCH  53  66
ATOM     66  C   UNL A   1      42.274  34.481  30.518  1.00  0.00    -0.014 A 
ATOM     67  C   UNL A   1      43.061  35.644  30.591  1.00  0.00     0.009 A 
ATOM     68  C   UNL A   1      42.764  33.392  29.782  1.00  0.00     0.009 A 
ATOM     69  C   UNL A   1      44.278  35.725  29.906  1.00  0.00     0.001 A 
ATOM     70  C   UNL A   1      43.992  33.463  29.123  1.00  0.00     0.001 A 
ATOM     71  C   UNL A   1      44.743  34.634  29.176  1.00  0.00     0.000 A 
ENDBRANCH  53  66
ENDBRANCH  27  28
ENDBRANCH  19  22
ENDBRANCH  17  18
ENDBRANCH   1  17
TORSDOF 11
ENDMDL
