MODEL 1
REMARK VINA RESULT:     -11.7      0.000      0.000
REMARK SMILES Nc1oc(-c2ccccc2)cc1C(=O)NCCCNC(=O)c1ccc(-c2c3nc(c(-c4ccccc4)c4ccc([nH]4)c(-c4ccccc4)c4nc(c(-c5ccccc5)c5ccc2[nH]5)C=C4)C=C3)cc1
REMARK SMILES IDX 17 1 16 2 15 3 13 4 14 5 12 7 2 8 3 9 4 10 11 11 1 12 5 15
REMARK SMILES IDX 6 16 10 17 7 18 9 19 8 20 18 21 19 22 20 23 21 25 22 26
REMARK SMILES IDX 23 27 69 28 24 29 68 30 25 31 26 32 27 33 62 34 28 35 67 36
REMARK SMILES IDX 61 37 63 38 29 39 66 40 60 41 59 42 30 44 52 45 37 46 51 47
REMARK SMILES IDX 38 48 41 49 50 50 64 51 39 52 40 53 49 55 65 56 42 57 31 58
REMARK SMILES IDX 32 59 36 60 33 61 35 62 34 63 53 64 54 65 58 66 55 67 57 68
REMARK SMILES IDX 56 69 43 70 44 71 48 72 45 73 47 74 46 75
REMARK H PARENT 15 6 1 13 1 14 19 24 63 43 41 54
REMARK Flexibility Score: inf
ROOT
ATOM      1  C   UNL A   1      34.414  35.279  28.048  1.00  0.00     0.042 C 
ENDROOT
BRANCH   1   2
ATOM      2  C   UNL A   1      33.149  35.138  28.910  1.00  0.00     0.118 C 
BRANCH   2   3
ATOM      3  N   UNL A   1      32.863  36.338  29.684  1.00  0.00    -0.352 N 
ATOM      4  C   UNL A   1      33.162  36.668  30.988  1.00  0.00     0.256 C 
ATOM      5  O   UNL A   1      32.894  37.815  31.350  1.00  0.00    -0.269 OA
ATOM      6  H   UNL A   1      32.370  37.032  29.190  1.00  0.00     0.163 HD
BRANCH   4   7
ATOM      7  C   UNL A   1      33.797  35.702  31.869  1.00  0.00     0.103 A 
ATOM      8  C   UNL A   1      33.989  35.880  33.233  1.00  0.00     0.203 A 
ATOM      9  O   UNL A   1      34.695  34.849  33.774  1.00  0.00    -0.440 OA
ATOM     10  C   UNL A   1      34.945  33.983  32.759  1.00  0.00     0.137 A 
ATOM     11  C   UNL A   1      34.340  34.419  31.608  1.00  0.00     0.067 A 
BRANCH   8  12
ATOM     12  N   UNL A   1      33.643  36.855  34.078  1.00  0.00    -0.369 N 
ATOM     13  H   UNL A   1      32.715  36.923  34.399  1.00  0.00     0.159 HD
ATOM     14  H   UNL A   1      34.318  37.506  34.380  1.00  0.00     0.159 HD
ENDBRANCH   8  12
BRANCH  10  15
ATOM     15  C   UNL A   1      35.789  32.835  33.005  1.00  0.00     0.017 A 
ATOM     16  C   UNL A   1      35.679  31.675  32.236  1.00  0.00     0.012 A 
ATOM     17  C   UNL A   1      36.833  32.950  33.936  1.00  0.00     0.012 A 
ATOM     18  C   UNL A   1      36.621  30.654  32.380  1.00  0.00     0.001 A 
ATOM     19  C   UNL A   1      37.768  31.928  34.085  1.00  0.00     0.001 A 
ATOM     20  C   UNL A   1      37.666  30.783  33.298  1.00  0.00     0.000 A 
ENDBRANCH  10  15
ENDBRANCH   4   7
ENDBRANCH   2   3
ENDBRANCH   1   2
BRANCH   1  21
ATOM     21  C   UNL A   1      35.206  33.988  28.000  1.00  0.00     0.118 C 
BRANCH  21  22
ATOM     22  N   UNL A   1      34.346  32.792  28.047  1.00  0.00    -0.352 N 
ATOM     23  C   UNL A   1      34.699  31.450  27.963  1.00  0.00     0.251 C 
ATOM     24  H   UNL A   1      33.384  32.969  28.152  1.00  0.00     0.163 HD
ATOM     25  O   UNL A   1      33.875  30.596  27.694  1.00  0.00    -0.269 OA
BRANCH  23  26
ATOM     26  C   UNL A   1      36.101  31.086  28.226  1.00  0.00     0.039 A 
ATOM     27  C   UNL A   1      36.994  31.891  28.938  1.00  0.00     0.014 A 
ATOM     28  C   UNL A   1      36.489  29.836  27.776  1.00  0.00     0.014 A 
ATOM     29  C   UNL A   1      38.264  31.380  29.208  1.00  0.00     0.010 A 
ATOM     30  C   UNL A   1      37.541  29.223  28.372  1.00  0.00     0.010 A 
ATOM     31  C   UNL A   1      38.517  30.034  28.908  1.00  0.00    -0.014 A 
BRANCH  31  32
ATOM     32  C   UNL A   1      39.781  29.368  29.151  1.00  0.00     0.031 A 
ATOM     33  C   UNL A   1      40.000  29.009  30.565  1.00  0.00     0.074 A 
ATOM     34  C   UNL A   1      40.533  28.872  28.143  1.00  0.00     0.049 A 
ATOM     35  N   UNL A   1      40.802  29.582  31.393  1.00  0.00    -0.248 NA
ATOM     36  C   UNL A   1      39.102  28.018  31.182  1.00  0.00     0.031 C 
ATOM     37  C   UNL A   1      40.246  28.825  26.698  1.00  0.00     0.029 A 
ATOM     38  N   UNL A   1      41.693  28.178  28.223  1.00  0.00    -0.354 N 
ATOM     39  C   UNL A   1      40.680  28.879  32.583  1.00  0.00     0.074 A 
ATOM     40  C   UNL A   1      39.479  28.091  32.461  1.00  0.00     0.031 C 
ATOM     41  C   UNL A   1      41.078  27.945  26.094  1.00  0.00     0.029 A 
ATOM     42  C   UNL A   1      42.062  27.505  27.065  1.00  0.00     0.049 A 
ATOM     43  H   UNL A   1      42.236  28.151  29.044  1.00  0.00     0.167 HD
ATOM     44  C   UNL A   1      41.723  28.792  33.453  1.00  0.00     0.031 A 
ATOM     45  C   UNL A   1      43.089  26.628  26.937  1.00  0.00     0.031 A 
ATOM     46  C   UNL A   1      42.783  29.703  33.089  1.00  0.00     0.049 A 
ATOM     47  C   UNL A   1      44.007  26.871  28.078  1.00  0.00     0.074 A 
ATOM     48  C   UNL A   1      42.881  31.073  32.949  1.00  0.00     0.029 A 
ATOM     49  N   UNL A   1      43.833  29.171  32.376  1.00  0.00    -0.354 N 
ATOM     50  N   UNL A   1      44.671  27.983  28.231  1.00  0.00    -0.248 NA
ATOM     51  C   UNL A   1      43.791  26.102  29.296  1.00  0.00     0.031 C 
ATOM     52  C   UNL A   1      43.673  31.261  31.777  1.00  0.00     0.029 A 
ATOM     53  C   UNL A   1      44.088  30.008  31.321  1.00  0.00     0.049 A 
ATOM     54  H   UNL A   1      44.314  28.338  32.585  1.00  0.00     0.167 HD
ATOM     55  C   UNL A   1      44.569  28.275  29.585  1.00  0.00     0.074 A 
ATOM     56  C   UNL A   1      44.093  27.036  30.204  1.00  0.00     0.031 C 
ATOM     57  C   UNL A   1      44.583  29.566  30.034  1.00  0.00     0.031 A 
BRANCH  44  58
ATOM     58  C   UNL A   1      41.987  27.603  34.341  1.00  0.00    -0.014 A 
ATOM     59  C   UNL A   1      41.717  27.732  35.716  1.00  0.00     0.009 A 
ATOM     60  C   UNL A   1      42.741  26.483  33.947  1.00  0.00     0.009 A 
ATOM     61  C   UNL A   1      42.254  26.841  36.651  1.00  0.00     0.001 A 
ATOM     62  C   UNL A   1      43.245  25.569  34.874  1.00  0.00     0.001 A 
ATOM     63  C   UNL A   1      43.029  25.767  36.229  1.00  0.00     0.000 A 
ENDBRANCH  44  58
BRANCH  45  64
ATOM     64  C   UNL A   1      43.159  25.407  26.101  1.00  0.00    -0.014 A 
ATOM     65  C   UNL A   1      44.232  25.182  25.223  1.00  0.00     0.009 A 
ATOM     66  C   UNL A   1      42.303  24.323  26.372  1.00  0.00     0.009 A 
ATOM     67  C   UNL A   1      44.455  23.913  24.665  1.00  0.00     0.001 A 
ATOM     68  C   UNL A   1      42.526  23.057  25.819  1.00  0.00     0.001 A 
ATOM     69  C   UNL A   1      43.611  22.848  24.974  1.00  0.00     0.000 A 
ENDBRANCH  45  64
BRANCH  57  70
ATOM     70  C   UNL A   1      44.911  30.661  29.044  1.00  0.00    -0.014 A 
ATOM     71  C   UNL A   1      46.209  31.173  28.862  1.00  0.00     0.009 A 
ATOM     72  C   UNL A   1      43.915  31.042  28.135  1.00  0.00     0.009 A 
ATOM     73  C   UNL A   1      46.493  32.051  27.809  1.00  0.00     0.001 A 
ATOM     74  C   UNL A   1      44.202  31.902  27.073  1.00  0.00     0.001 A 
ATOM     75  C   UNL A   1      45.490  32.408  26.910  1.00  0.00     0.000 A 
ENDBRANCH  57  70
ENDBRANCH  31  32
ENDBRANCH  23  26
ENDBRANCH  21  22
ENDBRANCH   1  21
TORSDOF 12
ENDMDL
MODEL 2
REMARK VINA RESULT:     -11.3      3.963     11.410
REMARK SMILES Nc1oc(-c2ccccc2)cc1C(=O)NCCCNC(=O)c1ccc(-c2c3nc(c(-c4ccccc4)c4ccc([nH]4)c(-c4ccccc4)c4nc(c(-c5ccccc5)c5ccc2[nH]5)C=C4)C=C3)cc1
REMARK SMILES IDX 17 1 16 2 15 3 13 4 14 5 12 7 2 8 3 9 4 10 11 11 1 12 5 15
REMARK SMILES IDX 6 16 10 17 7 18 9 19 8 20 18 21 19 22 20 23 21 25 22 26
REMARK SMILES IDX 23 27 69 28 24 29 68 30 25 31 26 32 27 33 62 34 28 35 67 36
REMARK SMILES IDX 61 37 63 38 29 39 66 40 60 41 59 42 30 44 52 45 37 46 51 47
REMARK SMILES IDX 38 48 41 49 50 50 64 51 39 52 40 53 49 55 65 56 42 57 31 58
REMARK SMILES IDX 32 59 36 60 33 61 35 62 34 63 53 64 54 65 58 66 55 67 57 68
REMARK SMILES IDX 56 69 43 70 44 71 48 72 45 73 47 74 46 75
REMARK H PARENT 15 6 1 13 1 14 19 24 63 43 41 54
REMARK Flexibility Score: inf
ROOT
ATOM      1  C   UNL A   1      41.708  19.730  27.537  1.00  0.00     0.042 C 
ENDROOT
BRANCH   1   2
ATOM      2  C   UNL A   1      41.864  19.413  26.041  1.00  0.00     0.118 C 
BRANCH   2   3
ATOM      3  N   UNL A   1      43.053  18.622  25.759  1.00  0.00    -0.352 N 
ATOM      4  C   UNL A   1      44.325  18.998  25.386  1.00  0.00     0.256 C 
ATOM      5  O   UNL A   1      45.176  18.110  25.324  1.00  0.00    -0.269 OA
ATOM      6  H   UNL A   1      42.925  17.650  25.848  1.00  0.00     0.163 HD
BRANCH   4   7
ATOM      7  C   UNL A   1      44.635  20.393  25.116  1.00  0.00     0.103 A 
ATOM      8  C   UNL A   1      45.821  20.846  24.555  1.00  0.00     0.203 A 
ATOM      9  O   UNL A   1      45.861  22.207  24.512  1.00  0.00    -0.440 OA
ATOM     10  C   UNL A   1      44.683  22.641  25.026  1.00  0.00     0.137 A 
ATOM     11  C   UNL A   1      43.875  21.572  25.320  1.00  0.00     0.067 A 
BRANCH   8  12
ATOM     12  N   UNL A   1      46.904  20.218  24.092  1.00  0.00    -0.369 N 
ATOM     13  H   UNL A   1      47.603  19.914  24.715  1.00  0.00     0.159 HD
ATOM     14  H   UNL A   1      47.005  20.058  23.125  1.00  0.00     0.159 HD
ENDBRANCH   8  12
BRANCH  10  15
ATOM     15  C   UNL A   1      44.479  24.059  25.222  1.00  0.00     0.017 A 
ATOM     16  C   UNL A   1      43.273  24.673  24.883  1.00  0.00     0.012 A 
ATOM     17  C   UNL A   1      45.463  24.796  25.900  1.00  0.00     0.012 A 
ATOM     18  C   UNL A   1      43.043  26.002  25.245  1.00  0.00     0.001 A 
ATOM     19  C   UNL A   1      45.237  26.125  26.254  1.00  0.00     0.001 A 
ATOM     20  C   UNL A   1      44.021  26.724  25.934  1.00  0.00     0.000 A 
ENDBRANCH  10  15
ENDBRANCH   4   7
ENDBRANCH   2   3
ENDBRANCH   1   2
BRANCH   1  21
ATOM     21  C   UNL A   1      41.146  21.120  27.759  1.00  0.00     0.118 C 
BRANCH  21  22
ATOM     22  N   UNL A   1      40.239  21.546  26.679  1.00  0.00    -0.352 N 
ATOM     23  C   UNL A   1      39.507  22.720  26.555  1.00  0.00     0.251 C 
ATOM     24  H   UNL A   1      40.136  20.904  25.939  1.00  0.00     0.163 HD
ATOM     25  O   UNL A   1      38.566  22.801  25.788  1.00  0.00    -0.269 OA
BRANCH  23  26
ATOM     26  C   UNL A   1      39.913  23.877  27.371  1.00  0.00     0.039 A 
ATOM     27  C   UNL A   1      41.211  24.076  27.848  1.00  0.00     0.014 A 
ATOM     28  C   UNL A   1      38.930  24.825  27.596  1.00  0.00     0.014 A 
ATOM     29  C   UNL A   1      41.486  25.267  28.519  1.00  0.00     0.010 A 
ATOM     30  C   UNL A   1      39.300  26.097  27.882  1.00  0.00     0.010 A 
ATOM     31  C   UNL A   1      40.505  26.269  28.528  1.00  0.00    -0.014 A 
BRANCH  31  32
ATOM     32  C   UNL A   1      40.661  27.558  29.169  1.00  0.00     0.031 A 
ATOM     33  C   UNL A   1      41.576  28.469  28.455  1.00  0.00     0.074 A 
ATOM     34  C   UNL A   1      39.827  27.976  30.148  1.00  0.00     0.049 A 
ATOM     35  N   UNL A   1      42.771  28.796  28.805  1.00  0.00    -0.248 NA
ATOM     36  C   UNL A   1      41.194  28.932  27.110  1.00  0.00     0.031 C 
ATOM     37  C   UNL A   1      38.630  27.318  30.700  1.00  0.00     0.029 A 
ATOM     38  N   UNL A   1      39.815  29.169  30.789  1.00  0.00    -0.354 N 
ATOM     39  C   UNL A   1      43.215  29.689  27.840  1.00  0.00     0.074 A 
ATOM     40  C   UNL A   1      42.308  29.560  26.728  1.00  0.00     0.031 C 
ATOM     41  C   UNL A   1      37.897  28.214  31.401  1.00  0.00     0.029 A 
ATOM     42  C   UNL A   1      38.653  29.448  31.497  1.00  0.00     0.049 A 
ATOM     43  H   UNL A   1      40.575  29.795  30.755  1.00  0.00     0.167 HD
ATOM     44  C   UNL A   1      44.122  30.657  28.149  1.00  0.00     0.031 A 
ATOM     45  C   UNL A   1      38.337  30.626  32.092  1.00  0.00     0.031 A 
ATOM     46  C   UNL A   1      44.694  30.436  29.457  1.00  0.00     0.049 A 
ATOM     47  C   UNL A   1      39.606  31.378  32.258  1.00  0.00     0.074 A 
ATOM     48  C   UNL A   1      45.427  29.422  30.039  1.00  0.00     0.029 A 
ATOM     49  N   UNL A   1      44.148  31.156  30.496  1.00  0.00    -0.354 N 
ATOM     50  N   UNL A   1      40.571  30.979  33.038  1.00  0.00    -0.248 NA
ATOM     51  C   UNL A   1      40.004  32.278  31.185  1.00  0.00     0.031 C 
ATOM     52  C   UNL A   1      44.886  29.292  31.352  1.00  0.00     0.029 A 
ATOM     53  C   UNL A   1      43.923  30.287  31.532  1.00  0.00     0.049 A 
ATOM     54  H   UNL A   1      43.953  32.120  30.495  1.00  0.00     0.167 HD
ATOM     55  C   UNL A   1      41.732  31.204  32.311  1.00  0.00     0.074 A 
ATOM     56  C   UNL A   1      41.328  32.088  31.216  1.00  0.00     0.031 C 
ATOM     57  C   UNL A   1      42.838  30.418  32.481  1.00  0.00     0.031 A 
BRANCH  44  58
ATOM     58  C   UNL A   1      44.164  32.015  27.498  1.00  0.00    -0.014 A 
ATOM     59  C   UNL A   1      44.920  32.160  26.320  1.00  0.00     0.009 A 
ATOM     60  C   UNL A   1      43.740  33.199  28.127  1.00  0.00     0.009 A 
ATOM     61  C   UNL A   1      45.309  33.420  25.855  1.00  0.00     0.001 A 
ATOM     62  C   UNL A   1      44.094  34.460  27.643  1.00  0.00     0.001 A 
ATOM     63  C   UNL A   1      44.906  34.569  26.525  1.00  0.00     0.000 A 
ENDBRANCH  44  58
BRANCH  45  64
ATOM     64  C   UNL A   1      37.006  31.265  32.220  1.00  0.00    -0.014 A 
ATOM     65  C   UNL A   1      36.627  31.936  33.394  1.00  0.00     0.009 A 
ATOM     66  C   UNL A   1      36.206  31.454  31.077  1.00  0.00     0.009 A 
ATOM     67  C   UNL A   1      35.510  32.786  33.412  1.00  0.00     0.001 A 
ATOM     68  C   UNL A   1      35.095  32.305  31.093  1.00  0.00     0.001 A 
ATOM     69  C   UNL A   1      34.754  32.982  32.258  1.00  0.00     0.000 A 
ENDBRANCH  45  64
BRANCH  57  70
ATOM     70  C   UNL A   1      42.836  29.422  33.619  1.00  0.00    -0.014 A 
ATOM     71  C   UNL A   1      43.210  29.753  34.934  1.00  0.00     0.009 A 
ATOM     72  C   UNL A   1      42.250  28.170  33.392  1.00  0.00     0.009 A 
ATOM     73  C   UNL A   1      43.015  28.848  35.985  1.00  0.00     0.001 A 
ATOM     74  C   UNL A   1      42.037  27.274  34.443  1.00  0.00     0.001 A 
ATOM     75  C   UNL A   1      42.421  27.612  35.739  1.00  0.00     0.000 A 
ENDBRANCH  57  70
ENDBRANCH  31  32
ENDBRANCH  23  26
ENDBRANCH  21  22
ENDBRANCH   1  21
TORSDOF 12
ENDMDL
MODEL 3
REMARK VINA RESULT:     -11.3      1.709      3.131
REMARK SMILES Nc1oc(-c2ccccc2)cc1C(=O)NCCCNC(=O)c1ccc(-c2c3nc(c(-c4ccccc4)c4ccc([nH]4)c(-c4ccccc4)c4nc(c(-c5ccccc5)c5ccc2[nH]5)C=C4)C=C3)cc1
REMARK SMILES IDX 17 1 16 2 15 3 13 4 14 5 12 7 2 8 3 9 4 10 11 11 1 12 5 15
REMARK SMILES IDX 6 16 10 17 7 18 9 19 8 20 18 21 19 22 20 23 21 25 22 26
REMARK SMILES IDX 23 27 69 28 24 29 68 30 25 31 26 32 27 33 62 34 28 35 67 36
REMARK SMILES IDX 61 37 63 38 29 39 66 40 60 41 59 42 30 44 52 45 37 46 51 47
REMARK SMILES IDX 38 48 41 49 50 50 64 51 39 52 40 53 49 55 65 56 42 57 31 58
REMARK SMILES IDX 32 59 36 60 33 61 35 62 34 63 53 64 54 65 58 66 55 67 57 68
REMARK SMILES IDX 56 69 43 70 44 71 48 72 45 73 47 74 46 75
REMARK H PARENT 15 6 1 13 1 14 19 24 63 43 41 54
REMARK Flexibility Score: inf
ROOT
ATOM      1  C   UNL A   1      33.978  33.832  32.677  1.00  0.00     0.042 C 
ENDROOT
BRANCH   1   2
ATOM      2  C   UNL A   1      34.915  34.786  33.434  1.00  0.00     0.118 C 
BRANCH   2   3
ATOM      3  N   UNL A   1      35.295  34.274  34.744  1.00  0.00    -0.352 N 
ATOM      4  C   UNL A   1      36.463  33.693  35.186  1.00  0.00     0.256 C 
ATOM      5  O   UNL A   1      36.549  33.455  36.392  1.00  0.00    -0.269 OA
ATOM      6  H   UNL A   1      34.595  34.356  35.431  1.00  0.00     0.163 HD
BRANCH   4   7
ATOM      7  C   UNL A   1      37.548  33.413  34.259  1.00  0.00     0.103 A 
ATOM      8  C   UNL A   1      37.910  32.146  33.823  1.00  0.00     0.203 A 
ATOM      9  O   UNL A   1      39.021  32.190  33.035  1.00  0.00    -0.440 OA
ATOM     10  C   UNL A   1      39.370  33.498  32.939  1.00  0.00     0.137 A 
ATOM     11  C   UNL A   1      38.450  34.280  33.592  1.00  0.00     0.067 A 
BRANCH   8  12
ATOM     12  N   UNL A   1      37.405  30.930  34.047  1.00  0.00    -0.369 N 
ATOM     13  H   UNL A   1      36.430  30.799  34.074  1.00  0.00     0.159 HD
ATOM     14  H   UNL A   1      38.009  30.164  34.187  1.00  0.00     0.159 HD
ENDBRANCH   8  12
BRANCH  10  15
ATOM     15  C   UNL A   1      40.594  33.853  32.256  1.00  0.00     0.017 A 
ATOM     16  C   UNL A   1      40.760  33.610  30.893  1.00  0.00     0.012 A 
ATOM     17  C   UNL A   1      41.568  34.585  32.952  1.00  0.00     0.012 A 
ATOM     18  C   UNL A   1      41.877  34.121  30.227  1.00  0.00     0.001 A 
ATOM     19  C   UNL A   1      42.686  35.088  32.290  1.00  0.00     0.001 A 
ATOM     20  C   UNL A   1      42.834  34.863  30.923  1.00  0.00     0.000 A 
ENDBRANCH  10  15
ENDBRANCH   4   7
ENDBRANCH   2   3
ENDBRANCH   1   2
BRANCH   1  21
ATOM     21  C   UNL A   1      34.751  32.863  31.806  1.00  0.00     0.118 C 
BRANCH  21  22
ATOM     22  N   UNL A   1      34.347  32.923  30.390  1.00  0.00    -0.352 N 
ATOM     23  C   UNL A   1      35.043  32.520  29.258  1.00  0.00     0.251 C 
ATOM     24  H   UNL A   1      33.455  33.305  30.224  1.00  0.00     0.163 HD
ATOM     25  O   UNL A   1      34.733  32.918  28.150  1.00  0.00    -0.269 OA
BRANCH  23  26
ATOM     26  C   UNL A   1      36.163  31.579  29.432  1.00  0.00     0.039 A 
ATOM     27  C   UNL A   1      36.114  30.233  29.061  1.00  0.00     0.014 A 
ATOM     28  C   UNL A   1      37.329  32.126  29.939  1.00  0.00     0.014 A 
ATOM     29  C   UNL A   1      37.280  29.478  29.182  1.00  0.00     0.010 A 
ATOM     30  C   UNL A   1      38.508  31.508  29.679  1.00  0.00     0.010 A 
ATOM     31  C   UNL A   1      38.473  30.142  29.501  1.00  0.00    -0.014 A 
BRANCH  31  32
ATOM     32  C   UNL A   1      39.758  29.488  29.642  1.00  0.00     0.031 A 
ATOM     33  C   UNL A   1      40.094  29.130  31.033  1.00  0.00     0.074 A 
ATOM     34  C   UNL A   1      40.433  29.000  28.576  1.00  0.00     0.049 A 
ATOM     35  N   UNL A   1      40.953  29.712  31.795  1.00  0.00    -0.248 NA
ATOM     36  C   UNL A   1      39.258  28.130  31.718  1.00  0.00     0.031 C 
ATOM     37  C   UNL A   1      40.032  28.951  27.159  1.00  0.00     0.029 A 
ATOM     38  N   UNL A   1      41.603  28.317  28.563  1.00  0.00    -0.354 N 
ATOM     39  C   UNL A   1      40.933  29.007  32.990  1.00  0.00     0.074 A 
ATOM     40  C   UNL A   1      39.735  28.206  32.963  1.00  0.00     0.031 C 
ATOM     41  C   UNL A   1      40.822  28.080  26.489  1.00  0.00     0.029 A 
ATOM     42  C   UNL A   1      41.885  27.649  27.378  1.00  0.00     0.049 A 
ATOM     43  H   UNL A   1      42.210  28.296  29.338  1.00  0.00     0.167 HD
ATOM     44  C   UNL A   1      42.044  28.930  33.774  1.00  0.00     0.031 A 
ATOM     45  C   UNL A   1      42.908  26.783  27.167  1.00  0.00     0.031 A 
ATOM     46  C   UNL A   1      43.061  29.852  33.328  1.00  0.00     0.049 A 
ATOM     47  C   UNL A   1      43.910  27.035  28.232  1.00  0.00     0.074 A 
ATOM     48  C   UNL A   1      43.135  31.223  33.182  1.00  0.00     0.029 A 
ATOM     49  N   UNL A   1      44.057  29.330  32.532  1.00  0.00    -0.354 N 
ATOM     50  N   UNL A   1      44.574  28.153  28.333  1.00  0.00    -0.248 NA
ATOM     51  C   UNL A   1      43.801  26.263  29.462  1.00  0.00     0.031 C 
ATOM     52  C   UNL A   1      43.828  31.419  31.951  1.00  0.00     0.029 A 
ATOM     53  C   UNL A   1      44.219  30.171  31.461  1.00  0.00     0.049 A 
ATOM     54  H   UNL A   1      44.561  28.502  32.702  1.00  0.00     0.167 HD
ATOM     55  C   UNL A   1      44.577  28.443  29.691  1.00  0.00     0.074 A 
ATOM     56  C   UNL A   1      44.165  27.199  30.344  1.00  0.00     0.031 C 
ATOM     57  C   UNL A   1      44.614  29.734  30.139  1.00  0.00     0.031 A 
BRANCH  44  58
ATOM     58  C   UNL A   1      42.390  27.743  34.637  1.00  0.00    -0.014 A 
ATOM     59  C   UNL A   1      43.001  26.635  34.023  1.00  0.00     0.009 A 
ATOM     60  C   UNL A   1      41.894  27.552  35.940  1.00  0.00     0.009 A 
ATOM     61  C   UNL A   1      43.028  25.382  34.643  1.00  0.00     0.001 A 
ATOM     62  C   UNL A   1      41.956  26.311  36.578  1.00  0.00     0.001 A 
ATOM     63  C   UNL A   1      42.494  25.218  35.916  1.00  0.00     0.000 A 
ENDBRANCH  44  58
BRANCH  45  64
ATOM     64  C   UNL A   1      42.922  25.563  26.327  1.00  0.00    -0.014 A 
ATOM     65  C   UNL A   1      43.937  25.338  25.382  1.00  0.00     0.009 A 
ATOM     66  C   UNL A   1      42.084  24.479  26.650  1.00  0.00     0.009 A 
ATOM     67  C   UNL A   1      44.122  24.070  24.809  1.00  0.00     0.001 A 
ATOM     68  C   UNL A   1      42.271  23.213  26.082  1.00  0.00     0.001 A 
ATOM     69  C   UNL A   1      43.300  23.005  25.170  1.00  0.00     0.000 A 
ENDBRANCH  45  64
BRANCH  57  70
ATOM     70  C   UNL A   1      44.851  30.833  29.128  1.00  0.00    -0.014 A 
ATOM     71  C   UNL A   1      43.817  31.445  28.396  1.00  0.00     0.009 A 
ATOM     72  C   UNL A   1      46.132  31.396  29.061  1.00  0.00     0.009 A 
ATOM     73  C   UNL A   1      44.065  32.579  27.613  1.00  0.00     0.001 A 
ATOM     74  C   UNL A   1      46.377  32.538  28.296  1.00  0.00     0.001 A 
ATOM     75  C   UNL A   1      45.345  33.129  27.570  1.00  0.00     0.000 A 
ENDBRANCH  57  70
ENDBRANCH  31  32
ENDBRANCH  23  26
ENDBRANCH  21  22
ENDBRANCH   1  21
TORSDOF 12
ENDMDL
