MODEL 1
REMARK VINA RESULT:     -10.9      0.000      0.000
REMARK SMILES C[C@H](NC(=O)N(CC(=O)NCCCNC(=O)c1ccc(-c2c3nc(c(-c4ccccc4)c4ccc([nH]4)c(-c4ccccc4)c4nc(c(-c5ccccc5)c5ccc2[nH]5)C=C4)C=C3)cc1)C(C)(C)C)c1nncn1C
REMARK SMILES IDX 11 1 10 2 8 3 9 4 7 6 6 7 4 8 3 9 5 11 2 12 1 13 69 14 70 15
REMARK SMILES IDX 73 16 71 17 72 18 74 19 65 20 66 21 67 22 68 23 12 24 13 25
REMARK SMILES IDX 14 26 15 27 16 29 17 30 18 31 64 32 19 33 63 34 20 35 21 36
REMARK SMILES IDX 22 37 57 38 23 39 62 40 56 41 58 42 24 43 61 44 55 45 54 46
REMARK SMILES IDX 25 48 47 49 32 50 46 51 33 52 36 53 45 54 59 55 34 56 35 57
REMARK SMILES IDX 44 59 60 60 37 61 26 62 27 63 31 64 28 65 30 66 29 67 48 68
REMARK SMILES IDX 49 69 53 70 50 71 52 72 51 73 38 74 39 75 43 76 40 77 42 78
REMARK SMILES IDX 41 79
REMARK H PARENT 10 5 3 10 14 28 58 47 36 58
REMARK Flexibility Score: inf
ROOT
ATOM      1  C   UNL A   1      36.575  20.488  24.968  1.00  0.00     0.117 C 
ENDROOT
BRANCH   1   2
ATOM      2  N   UNL A   1      35.363  19.698  25.021  1.00  0.00    -0.354 N 
ATOM      3  C   UNL A   1      34.057  20.051  24.887  1.00  0.00     0.239 C 
ATOM      4  O   UNL A   1      33.232  19.132  24.880  1.00  0.00    -0.273 OA
ATOM      5  H   UNL A   1      35.510  18.738  25.184  1.00  0.00     0.163 HD
BRANCH   3   6
ATOM      6  C   UNL A   1      33.620  21.490  24.583  1.00  0.00     0.221 C 
BRANCH   6   7
ATOM      7  N   UNL A   1      33.758  22.506  25.642  1.00  0.00    -0.311 N 
BRANCH   7   8
ATOM      8  C   UNL A   1      33.204  22.441  26.902  1.00  0.00     0.318 C 
ATOM      9  N   UNL A   1      31.905  22.664  27.193  1.00  0.00    -0.328 N 
ATOM     10  H   UNL A   1      31.742  22.670  28.164  1.00  0.00     0.166 HD
ATOM     11  O   UNL A   1      33.863  22.133  27.901  1.00  0.00    -0.249 OA
BRANCH   9  12
ATOM     12  C   UNL A   1      30.682  22.896  26.438  1.00  0.00     0.149 C 
ATOM     13  C   UNL A   1      29.464  22.675  27.335  1.00  0.00     0.040 C 
BRANCH  12  14
ATOM     14  C   UNL A   1      30.566  24.229  25.734  1.00  0.00     0.154 A 
ATOM     15  N   UNL A   1      30.274  25.333  26.409  1.00  0.00    -0.133 NA
ATOM     16  N   UNL A   1      30.616  24.563  24.401  1.00  0.00    -0.319 N 
ATOM     17  N   UNL A   1      30.147  26.376  25.538  1.00  0.00    -0.139 NA
ATOM     18  C   UNL A   1      30.353  25.903  24.335  1.00  0.00     0.225 A 
ATOM     19  C   UNL A   1      30.867  23.750  23.243  1.00  0.00     0.152 C 
ENDBRANCH  12  14
ENDBRANCH   9  12
ENDBRANCH   7   8
BRANCH   7  20
ATOM     20  C   UNL A   1      34.540  23.766  25.268  1.00  0.00     0.037 C 
ATOM     21  C   UNL A   1      33.826  25.047  25.747  1.00  0.00     0.034 C 
ATOM     22  C   UNL A   1      35.969  23.714  25.863  1.00  0.00     0.034 C 
ATOM     23  C   UNL A   1      34.755  23.953  23.738  1.00  0.00     0.034 C 
ENDBRANCH   7  20
ENDBRANCH   6   7
ENDBRANCH   3   6
ENDBRANCH   1   2
BRANCH   1  24
ATOM     24  C   UNL A   1      37.828  19.629  24.867  1.00  0.00     0.042 C 
BRANCH  24  25
ATOM     25  C   UNL A   1      39.006  20.176  25.663  1.00  0.00     0.118 C 
BRANCH  25  26
ATOM     26  N   UNL A   1      40.075  19.198  25.805  1.00  0.00    -0.352 N 
ATOM     27  C   UNL A   1      41.401  19.395  26.094  1.00  0.00     0.251 C 
ATOM     28  H   UNL A   1      39.806  18.260  25.676  1.00  0.00     0.163 HD
ATOM     29  O   UNL A   1      42.199  18.473  25.965  1.00  0.00    -0.269 OA
BRANCH  27  30
ATOM     30  C   UNL A   1      41.870  20.720  26.548  1.00  0.00     0.039 A 
ATOM     31  C   UNL A   1      42.317  21.638  25.594  1.00  0.00     0.014 A 
ATOM     32  C   UNL A   1      41.894  21.050  27.906  1.00  0.00     0.014 A 
ATOM     33  C   UNL A   1      42.743  22.903  25.999  1.00  0.00     0.010 A 
ATOM     34  C   UNL A   1      42.248  22.336  28.302  1.00  0.00     0.010 A 
ATOM     35  C   UNL A   1      42.687  23.272  27.353  1.00  0.00    -0.014 A 
BRANCH  35  36
ATOM     36  C   UNL A   1      43.096  24.628  27.793  1.00  0.00     0.031 A 
ATOM     37  C   UNL A   1      42.057  25.677  28.080  1.00  0.00     0.074 A 
ATOM     38  C   UNL A   1      44.405  24.930  27.890  1.00  0.00     0.049 A 
ATOM     39  N   UNL A   1      42.221  26.923  28.447  1.00  0.00    -0.248 NA
ATOM     40  C   UNL A   1      40.649  25.283  27.909  1.00  0.00     0.031 C 
ATOM     41  C   UNL A   1      45.511  24.015  27.596  1.00  0.00     0.029 A 
ATOM     42  N   UNL A   1      45.028  26.095  28.260  1.00  0.00    -0.354 N 
ATOM     43  C   UNL A   1      40.944  27.463  28.533  1.00  0.00     0.074 A 
ATOM     44  C   UNL A   1      40.018  26.426  28.132  1.00  0.00     0.031 C 
ATOM     45  C   UNL A   1      46.674  24.642  27.828  1.00  0.00     0.029 A 
ATOM     46  C   UNL A   1      46.400  26.013  28.249  1.00  0.00     0.049 A 
ATOM     47  H   UNL A   1      44.540  26.911  28.510  1.00  0.00     0.167 HD
ATOM     48  C   UNL A   1      40.573  28.703  28.930  1.00  0.00     0.031 A 
ATOM     49  C   UNL A   1      47.332  26.939  28.543  1.00  0.00     0.031 A 
ATOM     50  C   UNL A   1      41.493  29.727  29.344  1.00  0.00     0.049 A 
ATOM     51  C   UNL A   1      46.893  28.309  28.977  1.00  0.00     0.074 A 
ATOM     52  C   UNL A   1      41.212  30.996  29.821  1.00  0.00     0.029 A 
ATOM     53  N   UNL A   1      42.872  29.602  29.326  1.00  0.00    -0.354 N 
ATOM     54  N   UNL A   1      45.678  28.778  29.126  1.00  0.00    -0.248 NA
ATOM     55  C   UNL A   1      47.956  29.271  29.298  1.00  0.00     0.031 C 
ATOM     56  C   UNL A   1      42.424  31.655  30.046  1.00  0.00     0.029 A 
ATOM     57  C   UNL A   1      43.458  30.778  29.762  1.00  0.00     0.049 A 
ATOM     58  H   UNL A   1      43.363  28.795  29.046  1.00  0.00     0.167 HD
ATOM     59  C   UNL A   1      45.830  30.081  29.583  1.00  0.00     0.074 A 
ATOM     60  C   UNL A   1      47.253  30.321  29.704  1.00  0.00     0.031 C 
ATOM     61  C   UNL A   1      44.877  30.998  29.876  1.00  0.00     0.031 A 
BRANCH  48  62
ATOM     62  C   UNL A   1      39.103  29.019  28.932  1.00  0.00    -0.014 A 
ATOM     63  C   UNL A   1      38.305  28.765  30.060  1.00  0.00     0.009 A 
ATOM     64  C   UNL A   1      38.515  29.615  27.806  1.00  0.00     0.009 A 
ATOM     65  C   UNL A   1      36.943  29.068  30.047  1.00  0.00     0.001 A 
ATOM     66  C   UNL A   1      37.157  29.944  27.806  1.00  0.00     0.001 A 
ATOM     67  C   UNL A   1      36.371  29.662  28.922  1.00  0.00     0.000 A 
ENDBRANCH  48  62
BRANCH  49  68
ATOM     68  C   UNL A   1      48.776  26.597  28.453  1.00  0.00    -0.014 A 
ATOM     69  C   UNL A   1      49.485  26.808  27.259  1.00  0.00     0.009 A 
ATOM     70  C   UNL A   1      49.451  26.050  29.554  1.00  0.00     0.009 A 
ATOM     71  C   UNL A   1      50.831  26.450  27.163  1.00  0.00     0.001 A 
ATOM     72  C   UNL A   1      50.804  25.719  29.464  1.00  0.00     0.001 A 
ATOM     73  C   UNL A   1      51.490  25.910  28.266  1.00  0.00     0.000 A 
ENDBRANCH  49  68
BRANCH  61  74
ATOM     74  C   UNL A   1      45.341  32.331  30.389  1.00  0.00    -0.014 A 
ATOM     75  C   UNL A   1      45.554  32.551  31.759  1.00  0.00     0.009 A 
ATOM     76  C   UNL A   1      45.608  33.369  29.482  1.00  0.00     0.009 A 
ATOM     77  C   UNL A   1      45.994  33.796  32.212  1.00  0.00     0.001 A 
ATOM     78  C   UNL A   1      46.076  34.603  29.936  1.00  0.00     0.001 A 
ATOM     79  C   UNL A   1      46.259  34.818  31.301  1.00  0.00     0.000 A 
ENDBRANCH  61  74
ENDBRANCH  35  36
ENDBRANCH  27  30
ENDBRANCH  25  26
ENDBRANCH  24  25
ENDBRANCH   1  24
TORSDOF 15
ENDMDL
MODEL 2
REMARK VINA RESULT:     -10.7      1.388      6.337
REMARK SMILES C[C@H](NC(=O)N(CC(=O)NCCCNC(=O)c1ccc(-c2c3nc(c(-c4ccccc4)c4ccc([nH]4)c(-c4ccccc4)c4nc(c(-c5ccccc5)c5ccc2[nH]5)C=C4)C=C3)cc1)C(C)(C)C)c1nncn1C
REMARK SMILES IDX 11 1 10 2 8 3 9 4 7 6 6 7 4 8 3 9 5 11 2 12 1 13 69 14 70 15
REMARK SMILES IDX 73 16 71 17 72 18 74 19 65 20 66 21 67 22 68 23 12 24 13 25
REMARK SMILES IDX 14 26 15 27 16 29 17 30 18 31 64 32 19 33 63 34 20 35 21 36
REMARK SMILES IDX 22 37 57 38 23 39 62 40 56 41 58 42 24 43 61 44 55 45 54 46
REMARK SMILES IDX 25 48 47 49 32 50 46 51 33 52 36 53 45 54 59 55 34 56 35 57
REMARK SMILES IDX 44 59 60 60 37 61 26 62 27 63 31 64 28 65 30 66 29 67 48 68
REMARK SMILES IDX 49 69 53 70 50 71 52 72 51 73 38 74 39 75 43 76 40 77 42 78
REMARK SMILES IDX 41 79
REMARK H PARENT 10 5 3 10 14 28 58 47 36 58
REMARK Flexibility Score: inf
ROOT
ATOM      1  C   UNL A   1      36.386  20.440  25.000  1.00  0.00     0.117 C 
ENDROOT
BRANCH   1   2
ATOM      2  N   UNL A   1      36.678  21.826  25.296  1.00  0.00    -0.354 N 
ATOM      3  C   UNL A   1      35.858  22.883  25.535  1.00  0.00     0.239 C 
ATOM      4  O   UNL A   1      36.401  23.943  25.862  1.00  0.00    -0.273 OA
ATOM      5  H   UNL A   1      37.638  22.040  25.330  1.00  0.00     0.163 HD
BRANCH   3   6
ATOM      6  C   UNL A   1      34.330  22.749  25.572  1.00  0.00     0.221 C 
BRANCH   6   7
ATOM      7  N   UNL A   1      33.569  23.027  24.341  1.00  0.00    -0.311 N 
BRANCH   7   8
ATOM      8  C   UNL A   1      33.939  23.901  23.342  1.00  0.00     0.318 C 
ATOM      9  N   UNL A   1      33.882  25.247  23.425  1.00  0.00    -0.328 N 
ATOM     10  H   UNL A   1      34.092  25.678  22.565  1.00  0.00     0.166 HD
ATOM     11  O   UNL A   1      34.397  23.517  22.261  1.00  0.00    -0.249 OA
BRANCH   9  12
ATOM     12  C   UNL A   1      33.592  26.226  24.464  1.00  0.00     0.149 C 
ATOM     13  C   UNL A   1      33.798  27.640  23.920  1.00  0.00     0.040 C 
BRANCH  12  14
ATOM     14  C   UNL A   1      32.239  26.123  25.129  1.00  0.00     0.154 A 
ATOM     15  N   UNL A   1      32.123  25.688  26.377  1.00  0.00    -0.133 NA
ATOM     16  N   UNL A   1      30.968  26.318  24.642  1.00  0.00    -0.319 N 
ATOM     17  N   UNL A   1      30.802  25.612  26.708  1.00  0.00    -0.139 NA
ATOM     18  C   UNL A   1      30.116  25.991  25.660  1.00  0.00     0.225 A 
ATOM     19  C   UNL A   1      30.520  26.755  23.348  1.00  0.00     0.152 C 
ENDBRANCH  12  14
ENDBRANCH   9  12
ENDBRANCH   7   8
BRANCH   7  20
ATOM     20  C   UNL A   1      32.221  22.317  24.209  1.00  0.00     0.037 C 
ATOM     21  C   UNL A   1      32.366  20.929  23.552  1.00  0.00     0.034 C 
ATOM     22  C   UNL A   1      31.548  22.168  25.596  1.00  0.00     0.034 C 
ATOM     23  C   UNL A   1      31.178  23.083  23.344  1.00  0.00     0.034 C 
ENDBRANCH   7  20
ENDBRANCH   6   7
ENDBRANCH   3   6
ENDBRANCH   1   2
BRANCH   1  24
ATOM     24  C   UNL A   1      37.638  19.574  24.959  1.00  0.00     0.042 C 
BRANCH  24  25
ATOM     25  C   UNL A   1      38.856  20.236  25.592  1.00  0.00     0.118 C 
BRANCH  25  26
ATOM     26  N   UNL A   1      39.974  19.314  25.727  1.00  0.00    -0.352 N 
ATOM     27  C   UNL A   1      41.273  19.569  26.084  1.00  0.00     0.251 C 
ATOM     28  H   UNL A   1      39.766  18.371  25.535  1.00  0.00     0.163 HD
ATOM     29  O   UNL A   1      42.129  18.704  25.939  1.00  0.00    -0.269 OA
BRANCH  27  30
ATOM     30  C   UNL A   1      41.644  20.891  26.630  1.00  0.00     0.039 A 
ATOM     31  C   UNL A   1      42.123  21.869  25.755  1.00  0.00     0.014 A 
ATOM     32  C   UNL A   1      41.544  21.159  27.999  1.00  0.00     0.014 A 
ATOM     33  C   UNL A   1      42.458  23.131  26.247  1.00  0.00     0.010 A 
ATOM     34  C   UNL A   1      41.807  22.439  28.475  1.00  0.00     0.010 A 
ATOM     35  C   UNL A   1      42.277  23.436  27.606  1.00  0.00    -0.014 A 
BRANCH  35  36
ATOM     36  C   UNL A   1      42.588  24.786  28.135  1.00  0.00     0.031 A 
ATOM     37  C   UNL A   1      43.996  25.139  28.529  1.00  0.00     0.074 A 
ATOM     38  C   UNL A   1      41.595  25.680  28.302  1.00  0.00     0.049 A 
ATOM     39  N   UNL A   1      44.455  26.255  29.035  1.00  0.00    -0.248 NA
ATOM     40  C   UNL A   1      45.018  24.093  28.358  1.00  0.00     0.031 C 
ATOM     41  C   UNL A   1      40.181  25.444  27.999  1.00  0.00     0.029 A 
ATOM     42  N   UNL A   1      41.623  26.968  28.773  1.00  0.00    -0.354 N 
ATOM     43  C   UNL A   1      45.810  26.040  29.257  1.00  0.00     0.074 A 
ATOM     44  C   UNL A   1      46.089  24.672  28.878  1.00  0.00     0.031 C 
ATOM     45  C   UNL A   1      39.483  26.560  28.261  1.00  0.00     0.029 A 
ATOM     46  C   UNL A   1      40.391  27.576  28.786  1.00  0.00     0.049 A 
ATOM     47  H   UNL A   1      42.447  27.414  29.073  1.00  0.00     0.167 HD
ATOM     48  C   UNL A   1      46.743  26.908  29.714  1.00  0.00     0.031 A 
ATOM     49  C   UNL A   1      40.032  28.813  29.179  1.00  0.00     0.031 A 
ATOM     50  C   UNL A   1      46.468  28.273  30.075  1.00  0.00     0.049 A 
ATOM     51  C   UNL A   1      41.087  29.756  29.686  1.00  0.00     0.074 A 
ATOM     52  C   UNL A   1      47.356  29.250  30.492  1.00  0.00     0.029 A 
ATOM     53  N   UNL A   1      45.210  28.852  30.066  1.00  0.00    -0.354 N 
ATOM     54  N   UNL A   1      42.376  29.560  29.817  1.00  0.00    -0.248 NA
ATOM     55  C   UNL A   1      40.636  31.096  30.086  1.00  0.00     0.031 C 
ATOM     56  C   UNL A   1      46.626  30.407  30.781  1.00  0.00     0.029 A 
ATOM     57  C   UNL A   1      45.293  30.167  30.491  1.00  0.00     0.049 A 
ATOM     58  H   UNL A   1      44.380  28.396  29.796  1.00  0.00     0.167 HD
ATOM     59  C   UNL A   1      42.895  30.759  30.288  1.00  0.00     0.074 A 
ATOM     60  C   UNL A   1      41.783  31.681  30.403  1.00  0.00     0.031 C 
ATOM     61  C   UNL A   1      44.176  31.070  30.599  1.00  0.00     0.031 A 
BRANCH  48  62
ATOM     62  C   UNL A   1      48.152  26.403  29.852  1.00  0.00    -0.014 A 
ATOM     63  C   UNL A   1      49.072  26.513  28.795  1.00  0.00     0.009 A 
ATOM     64  C   UNL A   1      48.579  25.845  31.066  1.00  0.00     0.009 A 
ATOM     65  C   UNL A   1      50.377  26.042  28.942  1.00  0.00     0.001 A 
ATOM     66  C   UNL A   1      49.894  25.401  31.220  1.00  0.00     0.001 A 
ATOM     67  C   UNL A   1      50.789  25.491  30.155  1.00  0.00     0.000 A 
ENDBRANCH  48  62
BRANCH  49  68
ATOM     68  C   UNL A   1      38.610  29.240  29.092  1.00  0.00    -0.014 A 
ATOM     69  C   UNL A   1      38.098  29.771  27.898  1.00  0.00     0.009 A 
ATOM     70  C   UNL A   1      37.762  29.127  30.203  1.00  0.00     0.009 A 
ATOM     71  C   UNL A   1      36.774  30.209  27.829  1.00  0.00     0.001 A 
ATOM     72  C   UNL A   1      36.430  29.539  30.123  1.00  0.00     0.001 A 
ATOM     73  C   UNL A   1      35.940  30.089  28.939  1.00  0.00     0.000 A 
ENDBRANCH  49  68
BRANCH  61  74
ATOM     74  C   UNL A   1      44.450  32.473  31.059  1.00  0.00    -0.014 A 
ATOM     75  C   UNL A   1      44.736  33.497  30.143  1.00  0.00     0.009 A 
ATOM     76  C   UNL A   1      44.379  32.781  32.427  1.00  0.00     0.009 A 
ATOM     77  C   UNL A   1      44.980  34.797  30.593  1.00  0.00     0.001 A 
ATOM     78  C   UNL A   1      44.594  34.087  32.870  1.00  0.00     0.001 A 
ATOM     79  C   UNL A   1      44.904  35.091  31.954  1.00  0.00     0.000 A 
ENDBRANCH  61  74
ENDBRANCH  35  36
ENDBRANCH  27  30
ENDBRANCH  25  26
ENDBRANCH  24  25
ENDBRANCH   1  24
TORSDOF 15
ENDMDL
MODEL 3
REMARK VINA RESULT:     -10.6      2.515      7.348
REMARK SMILES C[C@H](NC(=O)N(CC(=O)NCCCNC(=O)c1ccc(-c2c3nc(c(-c4ccccc4)c4ccc([nH]4)c(-c4ccccc4)c4nc(c(-c5ccccc5)c5ccc2[nH]5)C=C4)C=C3)cc1)C(C)(C)C)c1nncn1C
REMARK SMILES IDX 11 1 10 2 8 3 9 4 7 6 6 7 4 8 3 9 5 11 2 12 1 13 69 14 70 15
REMARK SMILES IDX 73 16 71 17 72 18 74 19 65 20 66 21 67 22 68 23 12 24 13 25
REMARK SMILES IDX 14 26 15 27 16 29 17 30 18 31 64 32 19 33 63 34 20 35 21 36
REMARK SMILES IDX 22 37 57 38 23 39 62 40 56 41 58 42 24 43 61 44 55 45 54 46
REMARK SMILES IDX 25 48 47 49 32 50 46 51 33 52 36 53 45 54 59 55 34 56 35 57
REMARK SMILES IDX 44 59 60 60 37 61 26 62 27 63 31 64 28 65 30 66 29 67 48 68
REMARK SMILES IDX 49 69 53 70 50 71 52 72 51 73 38 74 39 75 43 76 40 77 42 78
REMARK SMILES IDX 41 79
REMARK H PARENT 10 5 3 10 14 28 58 47 36 58
REMARK Flexibility Score: inf
ROOT
ATOM      1  C   UNL A   1      31.352  27.573  26.401  1.00  0.00     0.117 C 
ENDROOT
BRANCH   1   2
ATOM      2  N   UNL A   1      30.869  26.213  26.504  1.00  0.00    -0.354 N 
ATOM      3  C   UNL A   1      31.458  25.027  26.196  1.00  0.00     0.239 C 
ATOM      4  O   UNL A   1      30.830  24.004  26.487  1.00  0.00    -0.273 OA
ATOM      5  H   UNL A   1      29.954  26.132  26.857  1.00  0.00     0.163 HD
BRANCH   3   6
ATOM      6  C   UNL A   1      32.898  24.933  25.675  1.00  0.00     0.221 C 
BRANCH   6   7
ATOM      7  N   UNL A   1      33.188  23.998  24.573  1.00  0.00    -0.311 N 
BRANCH   7   8
ATOM      8  C   UNL A   1      32.323  23.655  23.555  1.00  0.00     0.318 C 
ATOM      9  N   UNL A   1      32.084  24.397  22.454  1.00  0.00    -0.328 N 
ATOM     10  H   UNL A   1      31.357  24.021  21.908  1.00  0.00     0.166 HD
ATOM     11  O   UNL A   1      31.697  22.590  23.548  1.00  0.00    -0.249 OA
BRANCH   9  12
ATOM     12  C   UNL A   1      32.629  25.613  21.866  1.00  0.00     0.149 C 
ATOM     13  C   UNL A   1      32.675  25.481  20.343  1.00  0.00     0.040 C 
BRANCH  12  14
ATOM     14  C   UNL A   1      31.953  26.910  22.249  1.00  0.00     0.154 A 
ATOM     15  N   UNL A   1      30.716  27.178  21.852  1.00  0.00    -0.133 NA
ATOM     16  N   UNL A   1      32.421  28.020  22.911  1.00  0.00    -0.319 N 
ATOM     17  N   UNL A   1      30.373  28.434  22.257  1.00  0.00    -0.139 NA
ATOM     18  C   UNL A   1      31.403  28.933  22.891  1.00  0.00     0.225 A 
ATOM     19  C   UNL A   1      33.698  28.276  23.519  1.00  0.00     0.152 C 
ENDBRANCH  12  14
ENDBRANCH   9  12
ENDBRANCH   7   8
BRANCH   7  20
ATOM     20  C   UNL A   1      34.554  23.312  24.613  1.00  0.00     0.037 C 
ATOM     21  C   UNL A   1      35.587  24.139  25.406  1.00  0.00     0.034 C 
ATOM     22  C   UNL A   1      34.432  21.898  25.234  1.00  0.00     0.034 C 
ATOM     23  C   UNL A   1      35.191  23.075  23.214  1.00  0.00     0.034 C 
ENDBRANCH   7  20
ENDBRANCH   6   7
ENDBRANCH   3   6
ENDBRANCH   1   2
BRANCH   1  24
ATOM     24  C   UNL A   1      32.137  28.009  27.631  1.00  0.00     0.042 C 
BRANCH  24  25
ATOM     25  C   UNL A   1      33.478  28.651  27.300  1.00  0.00     0.118 C 
BRANCH  25  26
ATOM     26  N   UNL A   1      33.474  30.087  27.541  1.00  0.00    -0.352 N 
ATOM     27  C   UNL A   1      34.434  30.874  28.123  1.00  0.00     0.251 C 
ATOM     28  H   UNL A   1      32.664  30.561  27.242  1.00  0.00     0.163 HD
ATOM     29  O   UNL A   1      34.171  32.029  28.437  1.00  0.00    -0.269 OA
BRANCH  27  30
ATOM     30  C   UNL A   1      35.781  30.325  28.386  1.00  0.00     0.039 A 
ATOM     31  C   UNL A   1      36.737  30.375  27.369  1.00  0.00     0.014 A 
ATOM     32  C   UNL A   1      36.094  29.743  29.618  1.00  0.00     0.014 A 
ATOM     33  C   UNL A   1      38.021  29.883  27.604  1.00  0.00     0.010 A 
ATOM     34  C   UNL A   1      37.394  29.321  29.875  1.00  0.00     0.010 A 
ATOM     35  C   UNL A   1      38.368  29.376  28.866  1.00  0.00    -0.014 A 
BRANCH  35  36
ATOM     36  C   UNL A   1      39.741  28.889  29.143  1.00  0.00     0.031 A 
ATOM     37  C   UNL A   1      40.739  29.785  29.825  1.00  0.00     0.074 A 
ATOM     38  C   UNL A   1      40.104  27.656  28.740  1.00  0.00     0.049 A 
ATOM     39  N   UNL A   1      41.991  29.546  30.125  1.00  0.00    -0.248 NA
ATOM     40  C   UNL A   1      40.280  31.133  30.194  1.00  0.00     0.031 C 
ATOM     41  C   UNL A   1      39.242  26.708  28.030  1.00  0.00     0.029 A 
ATOM     42  N   UNL A   1      41.296  26.990  28.868  1.00  0.00    -0.354 N 
ATOM     43  C   UNL A   1      42.470  30.716  30.701  1.00  0.00     0.074 A 
ATOM     44  C   UNL A   1      41.392  31.680  30.663  1.00  0.00     0.031 C 
ATOM     45  C   UNL A   1      39.924  25.572  27.813  1.00  0.00     0.029 A 
ATOM     46  C   UNL A   1      41.279  25.724  28.334  1.00  0.00     0.049 A 
ATOM     47  H   UNL A   1      42.089  27.381  29.301  1.00  0.00     0.167 HD
ATOM     48  C   UNL A   1      43.691  30.962  31.233  1.00  0.00     0.031 A 
ATOM     49  C   UNL A   1      42.248  24.791  28.268  1.00  0.00     0.031 A 
ATOM     50  C   UNL A   1      44.757  29.998  31.285  1.00  0.00     0.049 A 
ATOM     51  C   UNL A   1      43.595  25.090  28.863  1.00  0.00     0.074 A 
ATOM     52  C   UNL A   1      46.010  30.130  31.858  1.00  0.00     0.029 A 
ATOM     53  N   UNL A   1      44.697  28.725  30.741  1.00  0.00    -0.354 N 
ATOM     54  N   UNL A   1      44.007  26.175  29.472  1.00  0.00    -0.248 NA
ATOM     55  C   UNL A   1      44.606  24.027  28.773  1.00  0.00     0.031 C 
ATOM     56  C   UNL A   1      46.726  28.953  31.617  1.00  0.00     0.029 A 
ATOM     57  C   UNL A   1      45.898  28.069  30.943  1.00  0.00     0.049 A 
ATOM     58  H   UNL A   1      43.914  28.345  30.280  1.00  0.00     0.167 HD
ATOM     59  C   UNL A   1      45.315  25.917  29.862  1.00  0.00     0.074 A 
ATOM     60  C   UNL A   1      45.621  24.567  29.436  1.00  0.00     0.031 C 
ATOM     61  C   UNL A   1      46.185  26.725  30.513  1.00  0.00     0.031 A 
BRANCH  48  62
ATOM     62  C   UNL A   1      43.937  32.332  31.801  1.00  0.00    -0.014 A 
ATOM     63  C   UNL A   1      44.341  33.398  30.980  1.00  0.00     0.009 A 
ATOM     64  C   UNL A   1      43.726  32.570  33.167  1.00  0.00     0.009 A 
ATOM     65  C   UNL A   1      44.562  34.664  31.524  1.00  0.00     0.001 A 
ATOM     66  C   UNL A   1      43.920  33.845  33.703  1.00  0.00     0.001 A 
ATOM     67  C   UNL A   1      44.347  34.889  32.883  1.00  0.00     0.000 A 
ENDBRANCH  48  62
BRANCH  49  68
ATOM     68  C   UNL A   1      41.975  23.477  27.628  1.00  0.00    -0.014 A 
ATOM     69  C   UNL A   1      41.373  22.440  28.360  1.00  0.00     0.009 A 
ATOM     70  C   UNL A   1      42.322  23.248  26.289  1.00  0.00     0.009 A 
ATOM     71  C   UNL A   1      41.154  21.194  27.771  1.00  0.00     0.001 A 
ATOM     72  C   UNL A   1      42.075  22.009  25.694  1.00  0.00     0.001 A 
ATOM     73  C   UNL A   1      41.501  20.980  26.438  1.00  0.00     0.000 A 
ENDBRANCH  49  68
BRANCH  61  74
ATOM     74  C   UNL A   1      47.538  26.158  30.836  1.00  0.00    -0.014 A 
ATOM     75  C   UNL A   1      48.561  26.123  29.877  1.00  0.00     0.009 A 
ATOM     76  C   UNL A   1      47.803  25.691  32.134  1.00  0.00     0.009 A 
ATOM     77  C   UNL A   1      49.814  25.599  30.202  1.00  0.00     0.001 A 
ATOM     78  C   UNL A   1      49.065  25.196  32.464  1.00  0.00     0.001 A 
ATOM     79  C   UNL A   1      50.066  25.141  31.495  1.00  0.00     0.000 A 
ENDBRANCH  61  74
ENDBRANCH  35  36
ENDBRANCH  27  30
ENDBRANCH  25  26
ENDBRANCH  24  25
ENDBRANCH   1  24
TORSDOF 15
ENDMDL
