MODEL 1
REMARK VINA RESULT:     -11.5      0.000      0.000
REMARK SMILES C[N@H+]1C[C@@H](Oc2cccc3cccnc23)C[C@H]1C(=O)NCCCNC(=O)c1ccc(-c2c3nc(c(-c4ccccc4)c4ccc([nH]4)c(-c4ccccc4)c4nc(c(-c5ccccc5)c5ccc2[nH]5)C=C4)C=C3)cc1
REMARK SMILES IDX 22 1 21 2 20 3 18 4 19 5 17 7 1 8 2 9 3 10 4 12 16 13 5 14
REMARK SMILES IDX 6 15 7 16 15 17 8 18 10 19 14 20 9 21 11 22 13 23 12 24
REMARK SMILES IDX 23 25 24 26 25 27 26 29 27 30 28 31 74 32 29 33 73 34 30 35
REMARK SMILES IDX 31 36 32 37 67 38 33 39 72 40 66 41 68 42 34 43 71 44 65 45
REMARK SMILES IDX 64 46 35 48 57 49 42 50 56 51 43 52 46 53 55 54 69 55 44 56
REMARK SMILES IDX 45 57 54 59 70 60 47 61 36 62 37 63 41 64 38 65 40 66 39 67
REMARK SMILES IDX 58 68 59 69 63 70 60 71 62 72 61 73 48 74 49 75 53 76 50 77
REMARK SMILES IDX 52 78 51 79
REMARK H PARENT 20 6 2 11 24 28 68 47 46 58
REMARK Flexibility Score: inf
ROOT
ATOM      1  C   UNL A   1      32.440  28.293  27.350  1.00  0.00     0.042 C 
ENDROOT
BRANCH   1   2
ATOM      2  C   UNL A   1      31.976  27.664  26.046  1.00  0.00     0.118 C 
BRANCH   2   3
ATOM      3  N   UNL A   1      31.355  28.560  25.107  1.00  0.00    -0.351 N 
ATOM      4  C   UNL A   1      31.017  28.353  23.804  1.00  0.00     0.278 C 
ATOM      5  O   UNL A   1      30.150  29.120  23.361  1.00  0.00    -0.268 OA
ATOM      6  H   UNL A   1      31.145  29.455  25.458  1.00  0.00     0.163 HD
BRANCH   4   7
ATOM      7  C   UNL A   1      31.587  27.247  22.877  1.00  0.00     0.278 C 
ATOM      8  C   UNL A   1      33.659  28.527  22.402  1.00  0.00     0.333 C 
ATOM      9  N   UNL A   1      33.023  27.249  22.597  1.00  0.00    -0.324 N 
ATOM     10  C   UNL A   1      33.701  26.224  23.381  1.00  0.00     0.308 C 
ATOM     11  H   UNL A   1      33.144  26.952  21.629  1.00  0.00     0.348 HD
ATOM     12  C   UNL A   1      32.617  25.148  23.636  1.00  0.00     0.234 C 
ATOM     13  C   UNL A   1      31.276  25.817  23.296  1.00  0.00     0.126 C 
BRANCH  12  14
ATOM     14  O   UNL A   1      32.783  24.360  24.829  1.00  0.00    -0.482 OA
BRANCH  14  15
ATOM     15  C   UNL A   1      33.298  23.086  24.824  1.00  0.00     0.146 A 
ATOM     16  C   UNL A   1      32.527  22.003  24.382  1.00  0.00     0.049 A 
ATOM     17  C   UNL A   1      34.663  22.907  25.129  1.00  0.00     0.112 A 
ATOM     18  C   UNL A   1      33.033  20.707  24.406  1.00  0.00     0.005 A 
ATOM     19  C   UNL A   1      35.181  21.587  25.074  1.00  0.00     0.004 A 
ATOM     20  N   UNL A   1      35.464  23.943  25.472  1.00  0.00    -0.252 NA
ATOM     21  C   UNL A   1      34.358  20.497  24.760  1.00  0.00     0.010 A 
ATOM     22  C   UNL A   1      36.540  21.379  25.333  1.00  0.00     0.012 A 
ATOM     23  C   UNL A   1      36.777  23.704  25.700  1.00  0.00     0.112 A 
ATOM     24  C   UNL A   1      37.358  22.455  25.638  1.00  0.00     0.021 A 
ENDBRANCH  14  15
ENDBRANCH  12  14
ENDBRANCH   4   7
ENDBRANCH   2   3
ENDBRANCH   1   2
BRANCH   1  25
ATOM     25  C   UNL A   1      33.807  28.946  27.248  1.00  0.00     0.118 C 
BRANCH  25  26
ATOM     26  N   UNL A   1      33.867  30.244  27.914  1.00  0.00    -0.352 N 
ATOM     27  C   UNL A   1      34.876  30.828  28.636  1.00  0.00     0.251 C 
ATOM     28  H   UNL A   1      33.050  30.787  27.832  1.00  0.00     0.163 HD
ATOM     29  O   UNL A   1      34.695  31.896  29.212  1.00  0.00    -0.269 OA
BRANCH  27  30
ATOM     30  C   UNL A   1      36.195  30.178  28.720  1.00  0.00     0.039 A 
ATOM     31  C   UNL A   1      36.593  29.581  29.923  1.00  0.00     0.014 A 
ATOM     32  C   UNL A   1      37.057  30.210  27.625  1.00  0.00     0.014 A 
ATOM     33  C   UNL A   1      37.848  28.978  30.013  1.00  0.00     0.010 A 
ATOM     34  C   UNL A   1      38.269  29.542  27.687  1.00  0.00     0.010 A 
ATOM     35  C   UNL A   1      38.685  28.948  28.890  1.00  0.00    -0.014 A 
BRANCH  35  36
ATOM     36  C   UNL A   1      40.062  28.412  28.935  1.00  0.00     0.031 A 
ATOM     37  C   UNL A   1      41.191  29.381  29.148  1.00  0.00     0.074 A 
ATOM     38  C   UNL A   1      40.300  27.123  28.647  1.00  0.00     0.049 A 
ATOM     39  N   UNL A   1      42.471  29.223  28.944  1.00  0.00    -0.248 NA
ATOM     40  C   UNL A   1      40.809  30.733  29.594  1.00  0.00     0.031 C 
ATOM     41  C   UNL A   1      39.280  26.103  28.403  1.00  0.00     0.029 A 
ATOM     42  N   UNL A   1      41.488  26.462  28.471  1.00  0.00    -0.354 N 
ATOM     43  C   UNL A   1      43.038  30.470  29.170  1.00  0.00     0.074 A 
ATOM     44  C   UNL A   1      41.961  31.378  29.501  1.00  0.00     0.031 C 
ATOM     45  C   UNL A   1      39.888  24.942  28.102  1.00  0.00     0.029 A 
ATOM     46  C   UNL A   1      41.332  25.153  28.089  1.00  0.00     0.049 A 
ATOM     47  H   UNL A   1      42.367  26.885  28.606  1.00  0.00     0.167 HD
ATOM     48  C   UNL A   1      44.343  30.826  29.107  1.00  0.00     0.031 A 
ATOM     49  C   UNL A   1      42.255  24.238  27.739  1.00  0.00     0.031 A 
ATOM     50  C   UNL A   1      45.403  29.901  28.817  1.00  0.00     0.049 A 
ATOM     51  C   UNL A   1      43.703  24.635  27.737  1.00  0.00     0.074 A 
ATOM     52  C   UNL A   1      46.767  30.126  28.789  1.00  0.00     0.029 A 
ATOM     53  N   UNL A   1      45.208  28.560  28.517  1.00  0.00    -0.354 N 
ATOM     54  N   UNL A   1      44.236  25.811  27.971  1.00  0.00    -0.248 NA
ATOM     55  C   UNL A   1      44.677  23.579  27.433  1.00  0.00     0.031 C 
ATOM     56  C   UNL A   1      47.397  28.923  28.449  1.00  0.00     0.029 A 
ATOM     57  C   UNL A   1      46.426  27.942  28.303  1.00  0.00     0.049 A 
ATOM     58  H   UNL A   1      44.331  28.114  28.466  1.00  0.00     0.167 HD
ATOM     59  C   UNL A   1      45.609  25.635  27.858  1.00  0.00     0.074 A 
ATOM     60  C   UNL A   1      45.824  24.235  27.549  1.00  0.00     0.031 C 
ATOM     61  C   UNL A   1      46.603  26.546  27.996  1.00  0.00     0.031 A 
BRANCH  48  62
ATOM     62  C   UNL A   1      44.668  32.277  29.334  1.00  0.00    -0.014 A 
ATOM     63  C   UNL A   1      44.704  33.196  28.272  1.00  0.00     0.009 A 
ATOM     64  C   UNL A   1      44.971  32.726  30.629  1.00  0.00     0.009 A 
ATOM     65  C   UNL A   1      45.094  34.519  28.493  1.00  0.00     0.001 A 
ATOM     66  C   UNL A   1      45.329  34.057  30.852  1.00  0.00     0.001 A 
ATOM     67  C   UNL A   1      45.405  34.949  29.783  1.00  0.00     0.000 A 
ENDBRANCH  48  62
BRANCH  49  68
ATOM     68  C   UNL A   1      41.826  22.863  27.383  1.00  0.00    -0.014 A 
ATOM     69  C   UNL A   1      41.717  21.879  28.376  1.00  0.00     0.009 A 
ATOM     70  C   UNL A   1      41.474  22.540  26.063  1.00  0.00     0.009 A 
ATOM     71  C   UNL A   1      41.274  20.594  28.054  1.00  0.00     0.001 A 
ATOM     72  C   UNL A   1      41.010  21.260  25.748  1.00  0.00     0.001 A 
ATOM     73  C   UNL A   1      40.914  20.287  26.742  1.00  0.00     0.000 A 
ENDBRANCH  49  68
BRANCH  61  74
ATOM     74  C   UNL A   1      48.008  26.045  27.841  1.00  0.00    -0.014 A 
ATOM     75  C   UNL A   1      48.639  26.035  26.589  1.00  0.00     0.009 A 
ATOM     76  C   UNL A   1      48.721  25.623  28.974  1.00  0.00     0.009 A 
ATOM     77  C   UNL A   1      49.954  25.584  26.470  1.00  0.00     0.001 A 
ATOM     78  C   UNL A   1      50.043  25.194  28.854  1.00  0.00     0.001 A 
ATOM     79  C   UNL A   1      50.655  25.168  27.603  1.00  0.00     0.000 A 
ENDBRANCH  61  74
ENDBRANCH  35  36
ENDBRANCH  27  30
ENDBRANCH  25  26
ENDBRANCH   1  25
TORSDOF 12
ENDMDL
MODEL 2
REMARK VINA RESULT:     -11.3      3.383      8.568
REMARK SMILES C[N@H+]1C[C@@H](Oc2cccc3cccnc23)C[C@H]1C(=O)NCCCNC(=O)c1ccc(-c2c3nc(c(-c4ccccc4)c4ccc([nH]4)c(-c4ccccc4)c4nc(c(-c5ccccc5)c5ccc2[nH]5)C=C4)C=C3)cc1
REMARK SMILES IDX 22 1 21 2 20 3 18 4 19 5 17 7 1 8 2 9 3 10 4 12 16 13 5 14
REMARK SMILES IDX 6 15 7 16 15 17 8 18 10 19 14 20 9 21 11 22 13 23 12 24
REMARK SMILES IDX 23 25 24 26 25 27 26 29 27 30 28 31 74 32 29 33 73 34 30 35
REMARK SMILES IDX 31 36 32 37 67 38 33 39 72 40 66 41 68 42 34 43 71 44 65 45
REMARK SMILES IDX 64 46 35 48 57 49 42 50 56 51 43 52 46 53 55 54 69 55 44 56
REMARK SMILES IDX 45 57 54 59 70 60 47 61 36 62 37 63 41 64 38 65 40 66 39 67
REMARK SMILES IDX 58 68 59 69 63 70 60 71 62 72 61 73 48 74 49 75 53 76 50 77
REMARK SMILES IDX 52 78 51 79
REMARK H PARENT 20 6 2 11 24 28 68 47 46 58
REMARK Flexibility Score: inf
ROOT
ATOM      1  C   UNL A   1      35.913  23.245  25.526  1.00  0.00     0.042 C 
ENDROOT
BRANCH   1   2
ATOM      2  C   UNL A   1      34.911  22.978  24.415  1.00  0.00     0.118 C 
BRANCH   2   3
ATOM      3  N   UNL A   1      34.243  21.705  24.470  1.00  0.00    -0.351 N 
ATOM      4  C   UNL A   1      32.938  21.420  24.736  1.00  0.00     0.278 C 
ATOM      5  O   UNL A   1      32.548  20.318  24.324  1.00  0.00    -0.268 OA
ATOM      6  H   UNL A   1      34.814  20.924  24.288  1.00  0.00     0.163 HD
BRANCH   4   7
ATOM      7  C   UNL A   1      31.929  22.353  25.455  1.00  0.00     0.278 C 
ATOM      8  C   UNL A   1      33.014  22.042  27.666  1.00  0.00     0.333 C 
ATOM      9  N   UNL A   1      32.302  22.906  26.757  1.00  0.00    -0.324 N 
ATOM     10  C   UNL A   1      32.711  24.299  26.627  1.00  0.00     0.308 C 
ATOM     11  H   UNL A   1      31.457  22.940  27.327  1.00  0.00     0.348 HD
ATOM     12  C   UNL A   1      31.957  24.810  25.375  1.00  0.00     0.234 C 
ATOM     13  C   UNL A   1      31.455  23.552  24.647  1.00  0.00     0.126 C 
BRANCH  12  14
ATOM     14  O   UNL A   1      32.585  25.891  24.661  1.00  0.00    -0.482 OA
BRANCH  14  15
ATOM     15  C   UNL A   1      32.095  27.174  24.655  1.00  0.00     0.146 A 
ATOM     16  C   UNL A   1      30.943  27.498  23.926  1.00  0.00     0.049 A 
ATOM     17  C   UNL A   1      32.682  28.127  25.513  1.00  0.00     0.112 A 
ATOM     18  C   UNL A   1      30.462  28.804  23.891  1.00  0.00     0.005 A 
ATOM     19  C   UNL A   1      32.130  29.434  25.521  1.00  0.00     0.004 A 
ATOM     20  N   UNL A   1      33.741  27.826  26.302  1.00  0.00    -0.252 NA
ATOM     21  C   UNL A   1      31.060  29.774  24.682  1.00  0.00     0.010 A 
ATOM     22  C   UNL A   1      32.664  30.392  26.389  1.00  0.00     0.012 A 
ATOM     23  C   UNL A   1      34.219  28.776  27.141  1.00  0.00     0.112 A 
ATOM     24  C   UNL A   1      33.717  30.058  27.225  1.00  0.00     0.021 A 
ENDBRANCH  14  15
ENDBRANCH  12  14
ENDBRANCH   4   7
ENDBRANCH   2   3
ENDBRANCH   1   2
BRANCH   1  25
ATOM     25  C   UNL A   1      37.278  23.670  25.014  1.00  0.00     0.118 C 
BRANCH  25  26
ATOM     26  N   UNL A   1      38.347  22.767  25.431  1.00  0.00    -0.352 N 
ATOM     27  C   UNL A   1      39.467  23.002  26.188  1.00  0.00     0.251 C 
ATOM     28  H   UNL A   1      38.248  21.838  25.118  1.00  0.00     0.163 HD
ATOM     29  O   UNL A   1      40.311  22.126  26.345  1.00  0.00    -0.269 OA
BRANCH  27  30
ATOM     30  C   UNL A   1      39.663  24.315  26.826  1.00  0.00     0.039 A 
ATOM     31  C   UNL A   1      40.384  25.309  26.152  1.00  0.00     0.014 A 
ATOM     32  C   UNL A   1      39.181  24.539  28.116  1.00  0.00     0.014 A 
ATOM     33  C   UNL A   1      40.586  26.548  26.760  1.00  0.00     0.010 A 
ATOM     34  C   UNL A   1      39.311  25.794  28.686  1.00  0.00     0.010 A 
ATOM     35  C   UNL A   1      40.040  26.797  28.027  1.00  0.00    -0.014 A 
BRANCH  35  36
ATOM     36  C   UNL A   1      40.291  28.049  28.772  1.00  0.00     0.031 A 
ATOM     37  C   UNL A   1      41.498  28.109  29.664  1.00  0.00     0.074 A 
ATOM     38  C   UNL A   1      39.387  29.040  28.760  1.00  0.00     0.049 A 
ATOM     39  N   UNL A   1      41.782  28.951  30.621  1.00  0.00    -0.248 NA
ATOM     40  C   UNL A   1      42.489  27.032  29.489  1.00  0.00     0.031 C 
ATOM     41  C   UNL A   1      38.171  29.075  27.947  1.00  0.00     0.029 A 
ATOM     42  N   UNL A   1      39.336  30.198  29.492  1.00  0.00    -0.354 N 
ATOM     43  C   UNL A   1      42.945  28.467  31.206  1.00  0.00     0.074 A 
ATOM     44  C   UNL A   1      43.298  27.247  30.514  1.00  0.00     0.031 C 
ATOM     45  C   UNL A   1      37.488  30.197  28.230  1.00  0.00     0.029 A 
ATOM     46  C   UNL A   1      38.196  30.932  29.273  1.00  0.00     0.049 A 
ATOM     47  H   UNL A   1      40.047  30.476  30.114  1.00  0.00     0.167 HD
ATOM     48  C   UNL A   1      43.655  28.995  32.231  1.00  0.00     0.031 A 
ATOM     49  C   UNL A   1      37.764  32.056  29.873  1.00  0.00     0.031 A 
ATOM     50  C   UNL A   1      43.310  30.230  32.880  1.00  0.00     0.049 A 
ATOM     51  C   UNL A   1      38.598  32.662  30.965  1.00  0.00     0.074 A 
ATOM     52  C   UNL A   1      43.985  30.901  33.883  1.00  0.00     0.029 A 
ATOM     53  N   UNL A   1      42.190  30.989  32.569  1.00  0.00    -0.354 N 
ATOM     54  N   UNL A   1      39.708  32.211  31.501  1.00  0.00    -0.248 NA
ATOM     55  C   UNL A   1      38.127  33.934  31.528  1.00  0.00     0.031 C 
ATOM     56  C   UNL A   1      43.259  32.056  34.196  1.00  0.00     0.029 A 
ATOM     57  C   UNL A   1      42.153  32.122  33.360  1.00  0.00     0.049 A 
ATOM     58  H   UNL A   1      41.521  30.754  31.885  1.00  0.00     0.167 HD
ATOM     59  C   UNL A   1      40.078  33.151  32.453  1.00  0.00     0.074 A 
ATOM     60  C   UNL A   1      39.081  34.203  32.409  1.00  0.00     0.031 C 
ATOM     61  C   UNL A   1      41.144  33.147  33.290  1.00  0.00     0.031 A 
BRANCH  48  62
ATOM     62  C   UNL A   1      44.848  28.216  32.710  1.00  0.00    -0.014 A 
ATOM     63  C   UNL A   1      44.738  27.261  33.735  1.00  0.00     0.009 A 
ATOM     64  C   UNL A   1      46.110  28.460  32.145  1.00  0.00     0.009 A 
ATOM     65  C   UNL A   1      45.875  26.613  34.224  1.00  0.00     0.001 A 
ATOM     66  C   UNL A   1      47.239  27.786  32.614  1.00  0.00     0.001 A 
ATOM     67  C   UNL A   1      47.124  26.875  33.662  1.00  0.00     0.000 A 
ENDBRANCH  48  62
BRANCH  49  68
ATOM     68  C   UNL A   1      36.490  32.677  29.433  1.00  0.00    -0.014 A 
ATOM     69  C   UNL A   1      36.467  33.524  28.316  1.00  0.00     0.009 A 
ATOM     70  C   UNL A   1      35.285  32.389  30.094  1.00  0.00     0.009 A 
ATOM     71  C   UNL A   1      35.265  34.078  27.872  1.00  0.00     0.001 A 
ATOM     72  C   UNL A   1      34.080  32.928  29.634  1.00  0.00     0.001 A 
ATOM     73  C   UNL A   1      34.071  33.775  28.527  1.00  0.00     0.000 A 
ENDBRANCH  49  68
BRANCH  61  74
ATOM     74  C   UNL A   1      41.296  34.330  34.200  1.00  0.00    -0.014 A 
ATOM     75  C   UNL A   1      42.046  35.449  33.812  1.00  0.00     0.009 A 
ATOM     76  C   UNL A   1      40.639  34.339  35.439  1.00  0.00     0.009 A 
ATOM     77  C   UNL A   1      42.158  36.548  34.664  1.00  0.00     0.001 A 
ATOM     78  C   UNL A   1      40.736  35.449  36.280  1.00  0.00     0.001 A 
ATOM     79  C   UNL A   1      41.500  36.548  35.895  1.00  0.00     0.000 A 
ENDBRANCH  61  74
ENDBRANCH  35  36
ENDBRANCH  27  30
ENDBRANCH  25  26
ENDBRANCH   1  25
TORSDOF 12
ENDMDL
MODEL 3
REMARK VINA RESULT:     -11.3      4.005      7.685
REMARK SMILES C[N@H+]1C[C@@H](Oc2cccc3cccnc23)C[C@H]1C(=O)NCCCNC(=O)c1ccc(-c2c3nc(c(-c4ccccc4)c4ccc([nH]4)c(-c4ccccc4)c4nc(c(-c5ccccc5)c5ccc2[nH]5)C=C4)C=C3)cc1
REMARK SMILES IDX 22 1 21 2 20 3 18 4 19 5 17 7 1 8 2 9 3 10 4 12 16 13 5 14
REMARK SMILES IDX 6 15 7 16 15 17 8 18 10 19 14 20 9 21 11 22 13 23 12 24
REMARK SMILES IDX 23 25 24 26 25 27 26 29 27 30 28 31 74 32 29 33 73 34 30 35
REMARK SMILES IDX 31 36 32 37 67 38 33 39 72 40 66 41 68 42 34 43 71 44 65 45
REMARK SMILES IDX 64 46 35 48 57 49 42 50 56 51 43 52 46 53 55 54 69 55 44 56
REMARK SMILES IDX 45 57 54 59 70 60 47 61 36 62 37 63 41 64 38 65 40 66 39 67
REMARK SMILES IDX 58 68 59 69 63 70 60 71 62 72 61 73 48 74 49 75 53 76 50 77
REMARK SMILES IDX 52 78 51 79
REMARK H PARENT 20 6 2 11 24 28 68 47 46 58
REMARK Flexibility Score: inf
ROOT
ATOM      1  C   UNL A   1      31.266  31.750  26.451  1.00  0.00     0.042 C 
ENDROOT
BRANCH   1   2
ATOM      2  C   UNL A   1      31.432  30.288  26.073  1.00  0.00     0.118 C 
BRANCH   2   3
ATOM      3  N   UNL A   1      32.631  29.963  25.346  1.00  0.00    -0.351 N 
ATOM      4  C   UNL A   1      33.073  28.756  24.897  1.00  0.00     0.278 C 
ATOM      5  O   UNL A   1      33.897  28.811  23.973  1.00  0.00    -0.268 OA
ATOM      6  H   UNL A   1      33.217  30.726  25.144  1.00  0.00     0.163 HD
BRANCH   4   7
ATOM      7  C   UNL A   1      32.612  27.366  25.411  1.00  0.00     0.278 C 
ATOM      8  C   UNL A   1      30.567  27.377  24.004  1.00  0.00     0.333 C 
ATOM      9  N   UNL A   1      31.633  26.624  24.617  1.00  0.00    -0.324 N 
ATOM     10  C   UNL A   1      32.282  25.559  23.863  1.00  0.00     0.308 C 
ATOM     11  H   UNL A   1      31.019  26.137  25.270  1.00  0.00     0.348 HD
ATOM     12  C   UNL A   1      33.541  25.206  24.693  1.00  0.00     0.234 C 
ATOM     13  C   UNL A   1      33.727  26.366  25.684  1.00  0.00     0.126 C 
BRANCH  12  14
ATOM     14  O   UNL A   1      34.650  24.665  23.952  1.00  0.00    -0.482 OA
BRANCH  14  15
ATOM     15  C   UNL A   1      35.381  23.581  24.376  1.00  0.00     0.146 A 
ATOM     16  C   UNL A   1      36.660  23.749  24.923  1.00  0.00     0.049 A 
ATOM     17  C   UNL A   1      34.765  22.313  24.389  1.00  0.00     0.112 A 
ATOM     18  C   UNL A   1      37.417  22.652  25.324  1.00  0.00     0.005 A 
ATOM     19  C   UNL A   1      35.526  21.217  24.872  1.00  0.00     0.004 A 
ATOM     20  N   UNL A   1      33.496  22.126  23.953  1.00  0.00    -0.252 NA
ATOM     21  C   UNL A   1      36.853  21.384  25.290  1.00  0.00     0.010 A 
ATOM     22  C   UNL A   1      34.932  19.952  24.935  1.00  0.00     0.012 A 
ATOM     23  C   UNL A   1      32.951  20.890  24.045  1.00  0.00     0.112 A 
ATOM     24  C   UNL A   1      33.618  19.784  24.529  1.00  0.00     0.021 A 
ENDBRANCH  14  15
ENDBRANCH  12  14
ENDBRANCH   4   7
ENDBRANCH   2   3
ENDBRANCH   1   2
BRANCH   1  25
ATOM     25  C   UNL A   1      32.563  32.405  26.895  1.00  0.00     0.118 C 
BRANCH  25  26
ATOM     26  N   UNL A   1      32.362  33.741  27.448  1.00  0.00    -0.352 N 
ATOM     27  C   UNL A   1      33.078  34.430  28.395  1.00  0.00     0.251 C 
ATOM     28  H   UNL A   1      31.588  34.228  27.083  1.00  0.00     0.163 HD
ATOM     29  O   UNL A   1      32.686  35.516  28.808  1.00  0.00    -0.269 OA
BRANCH  27  30
ATOM     30  C   UNL A   1      34.334  33.869  28.922  1.00  0.00     0.039 A 
ATOM     31  C   UNL A   1      34.285  32.880  29.913  1.00  0.00     0.014 A 
ATOM     32  C   UNL A   1      35.558  34.364  28.474  1.00  0.00     0.014 A 
ATOM     33  C   UNL A   1      35.473  32.358  30.427  1.00  0.00     0.010 A 
ATOM     34  C   UNL A   1      36.735  33.790  28.924  1.00  0.00     0.010 A 
ATOM     35  C   UNL A   1      36.702  32.805  29.925  1.00  0.00    -0.014 A 
BRANCH  35  36
ATOM     36  C   UNL A   1      37.998  32.368  30.484  1.00  0.00     0.031 A 
ATOM     37  C   UNL A   1      38.654  31.156  29.885  1.00  0.00     0.074 A 
ATOM     38  C   UNL A   1      38.496  32.952  31.586  1.00  0.00     0.049 A 
ATOM     39  N   UNL A   1      39.615  30.411  30.361  1.00  0.00    -0.248 NA
ATOM     40  C   UNL A   1      38.101  30.688  28.602  1.00  0.00     0.031 C 
ATOM     41  C   UNL A   1      37.929  34.120  32.260  1.00  0.00     0.029 A 
ATOM     42  N   UNL A   1      39.576  32.608  32.356  1.00  0.00    -0.354 N 
ATOM     43  C   UNL A   1      39.736  29.351  29.471  1.00  0.00     0.074 A 
ATOM     44  C   UNL A   1      38.734  29.537  28.444  1.00  0.00     0.031 C 
ATOM     45  C   UNL A   1      38.665  34.394  33.351  1.00  0.00     0.029 A 
ATOM     46  C   UNL A   1      39.722  33.395  33.472  1.00  0.00     0.049 A 
ATOM     47  H   UNL A   1      40.187  31.870  32.131  1.00  0.00     0.167 HD
ATOM     48  C   UNL A   1      40.606  28.315  29.509  1.00  0.00     0.031 A 
ATOM     49  C   UNL A   1      40.595  33.296  34.491  1.00  0.00     0.031 A 
ATOM     50  C   UNL A   1      41.621  28.170  30.515  1.00  0.00     0.049 A 
ATOM     51  C   UNL A   1      41.596  32.176  34.482  1.00  0.00     0.074 A 
ATOM     52  C   UNL A   1      42.603  27.202  30.624  1.00  0.00     0.029 A 
ATOM     53  N   UNL A   1      41.790  29.038  31.585  1.00  0.00    -0.354 N 
ATOM     54  N   UNL A   1      41.718  31.188  33.628  1.00  0.00    -0.248 NA
ATOM     55  C   UNL A   1      42.582  32.162  35.570  1.00  0.00     0.031 C 
ATOM     56  C   UNL A   1      43.352  27.473  31.775  1.00  0.00     0.029 A 
ATOM     57  C   UNL A   1      42.859  28.631  32.360  1.00  0.00     0.049 A 
ATOM     58  H   UNL A   1      41.230  29.829  31.764  1.00  0.00     0.167 HD
ATOM     59  C   UNL A   1      42.805  30.442  34.065  1.00  0.00     0.074 A 
ATOM     60  C   UNL A   1      43.313  31.103  35.251  1.00  0.00     0.031 C 
ATOM     61  C   UNL A   1      43.336  29.313  33.536  1.00  0.00     0.031 A 
BRANCH  48  62
ATOM     62  C   UNL A   1      40.465  27.264  28.443  1.00  0.00    -0.014 A 
ATOM     63  C   UNL A   1      41.124  27.379  27.208  1.00  0.00     0.009 A 
ATOM     64  C   UNL A   1      39.636  26.154  28.667  1.00  0.00     0.009 A 
ATOM     65  C   UNL A   1      40.909  26.436  26.200  1.00  0.00     0.001 A 
ATOM     66  C   UNL A   1      39.449  25.196  27.670  1.00  0.00     0.001 A 
ATOM     67  C   UNL A   1      40.073  25.345  26.432  1.00  0.00     0.000 A 
ENDBRANCH  48  62
BRANCH  49  68
ATOM     68  C   UNL A   1      40.563  34.300  35.583  1.00  0.00    -0.014 A 
ATOM     69  C   UNL A   1      41.261  35.508  35.452  1.00  0.00     0.009 A 
ATOM     70  C   UNL A   1      39.795  34.079  36.738  1.00  0.00     0.009 A 
ATOM     71  C   UNL A   1      41.201  36.474  36.459  1.00  0.00     0.001 A 
ATOM     72  C   UNL A   1      39.719  35.057  37.734  1.00  0.00     0.001 A 
ATOM     73  C   UNL A   1      40.425  36.251  37.595  1.00  0.00     0.000 A 
ENDBRANCH  49  68
BRANCH  61  74
ATOM     74  C   UNL A   1      44.542  28.745  34.223  1.00  0.00    -0.014 A 
ATOM     75  C   UNL A   1      44.413  27.777  35.229  1.00  0.00     0.009 A 
ATOM     76  C   UNL A   1      45.824  29.151  33.821  1.00  0.00     0.009 A 
ATOM     77  C   UNL A   1      45.548  27.245  35.841  1.00  0.00     0.001 A 
ATOM     78  C   UNL A   1      46.957  28.601  34.421  1.00  0.00     0.001 A 
ATOM     79  C   UNL A   1      46.818  27.655  35.434  1.00  0.00     0.000 A 
ENDBRANCH  61  74
ENDBRANCH  35  36
ENDBRANCH  27  30
ENDBRANCH  25  26
ENDBRANCH   1  25
TORSDOF 12
ENDMDL
