MODEL 1
REMARK VINA RESULT:     -11.7      0.000      0.000
REMARK SMILES O=C(NCCCNC(=O)c1c(F)cccc1NC(=O)C1CCCCC1)c1ccc(-c2c3nc(c(-c4ccccc4)c4ccc([nH]4)c(-c4ccccc4)c4nc(c(-c5ccccc5)c5ccc2[nH]5)C=C4)C=C3)cc1
REMARK SMILES IDX 5 1 4 2 3 3 1 4 2 5 26 7 27 8 73 9 28 10 72 11 29 12 30 13
REMARK SMILES IDX 31 14 66 15 32 16 71 17 65 18 67 19 33 20 70 21 64 22 63 23
REMARK SMILES IDX 34 25 56 26 41 27 55 28 42 29 45 30 54 31 68 32 43 33 44 34
REMARK SMILES IDX 53 36 69 37 46 38 35 39 36 40 40 41 37 42 39 43 38 44 57 45
REMARK SMILES IDX 58 46 62 47 59 48 61 49 60 50 47 51 48 52 52 53 49 54 51 55
REMARK SMILES IDX 50 56 6 57 7 58 8 59 9 61 10 62 11 63 16 64 12 65 13 66
REMARK SMILES IDX 15 67 14 68 17 69 18 70 19 72 20 73 21 74 25 75 22 76 24 77
REMARK SMILES IDX 23 78
REMARK H PARENT 3 6 67 24 45 35 7 60 17 71
REMARK Flexibility Score: inf
ROOT
ATOM      1  C   UNL A   1      37.460  20.140  24.845  1.00  0.00     0.042 C 
ENDROOT
BRANCH   1   2
ATOM      2  C   UNL A   1      38.661  20.537  25.689  1.00  0.00     0.118 C 
BRANCH   2   3
ATOM      3  N   UNL A   1      39.719  19.533  25.699  1.00  0.00    -0.352 N 
ATOM      4  O   UNL A   1      41.808  18.696  25.830  1.00  0.00    -0.269 OA
ATOM      5  C   UNL A   1      41.049  19.639  26.034  1.00  0.00     0.251 C 
ATOM      6  H   UNL A   1      39.435  18.633  25.419  1.00  0.00     0.163 HD
BRANCH   5   7
ATOM      7  C   UNL A   1      41.579  20.898  26.601  1.00  0.00     0.039 A 
ATOM      8  C   UNL A   1      41.662  21.082  27.980  1.00  0.00     0.014 A 
ATOM      9  C   UNL A   1      41.992  21.918  25.738  1.00  0.00     0.014 A 
ATOM     10  C   UNL A   1      41.942  22.342  28.490  1.00  0.00     0.010 A 
ATOM     11  C   UNL A   1      42.394  23.152  26.259  1.00  0.00     0.010 A 
ATOM     12  C   UNL A   1      42.317  23.395  27.638  1.00  0.00    -0.014 A 
BRANCH  12  13
ATOM     13  C   UNL A   1      42.643  24.718  28.232  1.00  0.00     0.031 A 
ATOM     14  C   UNL A   1      44.065  25.107  28.542  1.00  0.00     0.074 A 
ATOM     15  C   UNL A   1      41.647  25.604  28.431  1.00  0.00     0.049 A 
ATOM     16  N   UNL A   1      44.525  26.249  28.993  1.00  0.00    -0.248 NA
ATOM     17  C   UNL A   1      45.105  24.087  28.334  1.00  0.00     0.031 C 
ATOM     18  C   UNL A   1      40.226  25.348  28.174  1.00  0.00     0.029 A 
ATOM     19  N   UNL A   1      41.676  26.909  28.852  1.00  0.00    -0.354 N 
ATOM     20  C   UNL A   1      45.894  26.074  29.151  1.00  0.00     0.074 A 
ATOM     21  C   UNL A   1      46.191  24.712  28.768  1.00  0.00     0.031 C 
ATOM     22  C   UNL A   1      39.534  26.480  28.364  1.00  0.00     0.029 A 
ATOM     23  C   UNL A   1      40.446  27.519  28.824  1.00  0.00     0.049 A 
ATOM     24  H   UNL A   1      42.499  27.363  29.146  1.00  0.00     0.167 HD
ATOM     25  C   UNL A   1      46.821  26.967  29.575  1.00  0.00     0.031 A 
ATOM     26  C   UNL A   1      40.085  28.776  29.137  1.00  0.00     0.031 A 
ATOM     27  C   UNL A   1      46.532  28.330  29.937  1.00  0.00     0.049 A 
ATOM     28  C   UNL A   1      41.131  29.742  29.604  1.00  0.00     0.074 A 
ATOM     29  C   UNL A   1      47.410  29.320  30.343  1.00  0.00     0.029 A 
ATOM     30  N   UNL A   1      45.266  28.896  29.937  1.00  0.00    -0.354 N 
ATOM     31  N   UNL A   1      42.424  29.565  29.722  1.00  0.00    -0.248 NA
ATOM     32  C   UNL A   1      40.666  31.082  29.983  1.00  0.00     0.031 C 
ATOM     33  C   UNL A   1      46.670  30.473  30.631  1.00  0.00     0.029 A 
ATOM     34  C   UNL A   1      45.338  30.214  30.356  1.00  0.00     0.049 A 
ATOM     35  H   UNL A   1      44.439  28.428  29.679  1.00  0.00     0.167 HD
ATOM     36  C   UNL A   1      42.931  30.775  30.171  1.00  0.00     0.074 A 
ATOM     37  C   UNL A   1      41.808  31.685  30.284  1.00  0.00     0.031 C 
ATOM     38  C   UNL A   1      44.211  31.104  30.466  1.00  0.00     0.031 A 
BRANCH  25  39
ATOM     39  C   UNL A   1      48.242  26.488  29.700  1.00  0.00    -0.014 A 
ATOM     40  C   UNL A   1      49.167  26.655  28.659  1.00  0.00     0.009 A 
ATOM     41  C   UNL A   1      48.670  25.899  30.901  1.00  0.00     0.009 A 
ATOM     42  C   UNL A   1      50.485  26.212  28.806  1.00  0.00     0.001 A 
ATOM     43  C   UNL A   1      49.994  25.480  31.053  1.00  0.00     0.001 A 
ATOM     44  C   UNL A   1      50.897  25.629  30.003  1.00  0.00     0.000 A 
ENDBRANCH  25  39
BRANCH  26  45
ATOM     45  C   UNL A   1      38.663  29.188  29.015  1.00  0.00    -0.014 A 
ATOM     46  C   UNL A   1      38.155  29.638  27.788  1.00  0.00     0.009 A 
ATOM     47  C   UNL A   1      37.805  29.120  30.124  1.00  0.00     0.009 A 
ATOM     48  C   UNL A   1      36.818  30.029  27.678  1.00  0.00     0.001 A 
ATOM     49  C   UNL A   1      36.463  29.483  30.004  1.00  0.00     0.001 A 
ATOM     50  C   UNL A   1      35.973  29.946  28.783  1.00  0.00     0.000 A 
ENDBRANCH  26  45
BRANCH  38  51
ATOM     51  C   UNL A   1      44.463  32.517  30.907  1.00  0.00    -0.014 A 
ATOM     52  C   UNL A   1      44.437  32.871  32.265  1.00  0.00     0.009 A 
ATOM     53  C   UNL A   1      44.744  33.503  29.949  1.00  0.00     0.009 A 
ATOM     54  C   UNL A   1      44.648  34.197  32.651  1.00  0.00     0.001 A 
ATOM     55  C   UNL A   1      44.982  34.821  30.340  1.00  0.00     0.001 A 
ATOM     56  C   UNL A   1      44.923  35.168  31.689  1.00  0.00     0.000 A 
ENDBRANCH  38  51
ENDBRANCH  12  13
ENDBRANCH   5   7
ENDBRANCH   2   3
ENDBRANCH   1   2
BRANCH   1  57
ATOM     57  C   UNL A   1      36.198  20.933  25.145  1.00  0.00     0.118 C 
BRANCH  57  58
ATOM     58  N   UNL A   1      35.845  21.832  24.057  1.00  0.00    -0.352 N 
ATOM     59  C   UNL A   1      34.704  22.562  23.850  1.00  0.00     0.256 C 
ATOM     60  H   UNL A   1      36.534  21.934  23.361  1.00  0.00     0.163 HD
ATOM     61  O   UNL A   1      34.539  23.120  22.768  1.00  0.00    -0.269 OA
BRANCH  59  62
ATOM     62  C   UNL A   1      33.642  22.648  24.871  1.00  0.00     0.099 A 
ATOM     63  C   UNL A   1      33.842  23.470  25.989  1.00  0.00     0.138 A 
ATOM     64  C   UNL A   1      32.420  21.957  24.698  1.00  0.00     0.057 A 
ATOM     65  F   UNL A   1      34.967  24.186  26.131  1.00  0.00    -0.206 F 
ATOM     66  C   UNL A   1      32.890  23.563  26.993  1.00  0.00     0.040 A 
ATOM     67  C   UNL A   1      31.460  22.122  25.696  1.00  0.00     0.027 A 
ATOM     68  C   UNL A   1      31.691  22.887  26.844  1.00  0.00     0.005 A 
BRANCH  64  69
ATOM     69  N   UNL A   1      32.231  21.152  23.547  1.00  0.00    -0.325 N 
ATOM     70  C   UNL A   1      32.487  19.875  23.152  1.00  0.00     0.227 C 
ATOM     71  H   UNL A   1      31.789  21.662  22.829  1.00  0.00     0.169 HD
ATOM     72  O   UNL A   1      32.117  19.579  22.004  1.00  0.00    -0.274 OA
BRANCH  70  73
ATOM     73  C   UNL A   1      33.168  18.785  23.979  1.00  0.00     0.079 C 
ATOM     74  C   UNL A   1      32.442  18.455  25.290  1.00  0.00     0.013 C 
ATOM     75  C   UNL A   1      33.605  17.621  23.080  1.00  0.00     0.013 C 
ATOM     76  C   UNL A   1      32.783  17.100  25.910  1.00  0.00     0.001 C 
ATOM     77  C   UNL A   1      34.051  16.391  23.859  1.00  0.00     0.001 C 
ATOM     78  C   UNL A   1      33.031  15.978  24.908  1.00  0.00     0.000 C 
ENDBRANCH  70  73
ENDBRANCH  64  69
ENDBRANCH  59  62
ENDBRANCH  57  58
ENDBRANCH   1  57
TORSDOF 12
ENDMDL
MODEL 2
REMARK VINA RESULT:     -11.6      2.873      7.769
REMARK SMILES O=C(NCCCNC(=O)c1c(F)cccc1NC(=O)C1CCCCC1)c1ccc(-c2c3nc(c(-c4ccccc4)c4ccc([nH]4)c(-c4ccccc4)c4nc(c(-c5ccccc5)c5ccc2[nH]5)C=C4)C=C3)cc1
REMARK SMILES IDX 5 1 4 2 3 3 1 4 2 5 26 7 27 8 73 9 28 10 72 11 29 12 30 13
REMARK SMILES IDX 31 14 66 15 32 16 71 17 65 18 67 19 33 20 70 21 64 22 63 23
REMARK SMILES IDX 34 25 56 26 41 27 55 28 42 29 45 30 54 31 68 32 43 33 44 34
REMARK SMILES IDX 53 36 69 37 46 38 35 39 36 40 40 41 37 42 39 43 38 44 57 45
REMARK SMILES IDX 58 46 62 47 59 48 61 49 60 50 47 51 48 52 52 53 49 54 51 55
REMARK SMILES IDX 50 56 6 57 7 58 8 59 9 61 10 62 11 63 16 64 12 65 13 66
REMARK SMILES IDX 15 67 14 68 17 69 18 70 19 72 20 73 21 74 25 75 22 76 24 77
REMARK SMILES IDX 23 78
REMARK H PARENT 3 6 67 24 45 35 7 60 17 71
REMARK Flexibility Score: inf
ROOT
ATOM      1  C   UNL A   1      32.632  28.894  27.141  1.00  0.00     0.042 C 
ENDROOT
BRANCH   1   2
ATOM      2  C   UNL A   1      33.895  29.736  27.045  1.00  0.00     0.118 C 
BRANCH   2   3
ATOM      3  N   UNL A   1      33.990  30.758  28.081  1.00  0.00    -0.352 N 
ATOM      4  O   UNL A   1      34.820  31.857  29.866  1.00  0.00    -0.269 OA
ATOM      5  C   UNL A   1      35.003  31.040  28.967  1.00  0.00     0.251 C 
ATOM      6  H   UNL A   1      33.200  31.339  28.159  1.00  0.00     0.163 HD
BRANCH   5   7
ATOM      7  C   UNL A   1      36.300  30.334  28.871  1.00  0.00     0.039 A 
ATOM      8  C   UNL A   1      36.786  29.585  29.940  1.00  0.00     0.014 A 
ATOM      9  C   UNL A   1      37.047  30.432  27.693  1.00  0.00     0.014 A 
ATOM     10  C   UNL A   1      38.096  29.125  29.918  1.00  0.00     0.010 A 
ATOM     11  C   UNL A   1      38.322  29.860  27.628  1.00  0.00     0.010 A 
ATOM     12  C   UNL A   1      38.882  29.251  28.760  1.00  0.00    -0.014 A 
BRANCH  12  13
ATOM     13  C   UNL A   1      40.267  28.712  28.769  1.00  0.00     0.031 A 
ATOM     14  C   UNL A   1      40.555  27.290  28.363  1.00  0.00     0.074 A 
ATOM     15  C   UNL A   1      41.283  29.539  29.086  1.00  0.00     0.049 A 
ATOM     16  N   UNL A   1      41.715  26.688  28.247  1.00  0.00    -0.248 NA
ATOM     17  C   UNL A   1      39.403  26.428  28.060  1.00  0.00     0.031 C 
ATOM     18  C   UNL A   1      41.136  30.937  29.500  1.00  0.00     0.029 A 
ATOM     19  N   UNL A   1      42.641  29.341  29.068  1.00  0.00    -0.354 N 
ATOM     20  C   UNL A   1      41.429  25.376  27.890  1.00  0.00     0.074 A 
ATOM     21  C   UNL A   1      39.989  25.261  27.827  1.00  0.00     0.031 C 
ATOM     22  C   UNL A   1      42.351  31.492  29.617  1.00  0.00     0.029 A 
ATOM     23  C   UNL A   1      43.361  30.474  29.359  1.00  0.00     0.049 A 
ATOM     24  H   UNL A   1      43.057  28.472  28.867  1.00  0.00     0.167 HD
ATOM     25  C   UNL A   1      42.288  24.359  27.636  1.00  0.00     0.031 A 
ATOM     26  C   UNL A   1      44.689  30.676  29.416  1.00  0.00     0.031 A 
ATOM     27  C   UNL A   1      43.722  24.476  27.677  1.00  0.00     0.049 A 
ATOM     28  C   UNL A   1      45.615  29.533  29.131  1.00  0.00     0.074 A 
ATOM     29  C   UNL A   1      44.675  23.511  27.398  1.00  0.00     0.029 A 
ATOM     30  N   UNL A   1      44.412  25.630  28.019  1.00  0.00    -0.354 N 
ATOM     31  N   UNL A   1      45.326  28.307  28.769  1.00  0.00    -0.248 NA
ATOM     32  C   UNL A   1      47.052  29.803  29.263  1.00  0.00     0.031 C 
ATOM     33  C   UNL A   1      45.941  24.068  27.614  1.00  0.00     0.029 A 
ATOM     34  C   UNL A   1      45.776  25.395  27.978  1.00  0.00     0.049 A 
ATOM     35  H   UNL A   1      43.992  26.488  28.256  1.00  0.00     0.167 HD
ATOM     36  C   UNL A   1      46.545  27.663  28.614  1.00  0.00     0.074 A 
ATOM     37  C   UNL A   1      47.576  28.641  28.899  1.00  0.00     0.031 C 
ATOM     38  C   UNL A   1      46.788  26.376  28.268  1.00  0.00     0.031 A 
BRANCH  25  39
ATOM     39  C   UNL A   1      41.697  23.013  27.316  1.00  0.00    -0.014 A 
ATOM     40  C   UNL A   1      41.268  22.688  26.021  1.00  0.00     0.009 A 
ATOM     41  C   UNL A   1      41.610  22.039  28.325  1.00  0.00     0.009 A 
ATOM     42  C   UNL A   1      40.733  21.426  25.749  1.00  0.00     0.001 A 
ATOM     43  C   UNL A   1      41.099  20.770  28.044  1.00  0.00     0.001 A 
ATOM     44  C   UNL A   1      40.653  20.468  26.758  1.00  0.00     0.000 A 
ENDBRANCH  25  39
BRANCH  26  45
ATOM     45  C   UNL A   1      45.218  32.022  29.757  1.00  0.00    -0.014 A 
ATOM     46  C   UNL A   1      45.496  32.362  31.088  1.00  0.00     0.009 A 
ATOM     47  C   UNL A   1      45.458  32.968  28.747  1.00  0.00     0.009 A 
ATOM     48  C   UNL A   1      45.988  33.630  31.405  1.00  0.00     0.001 A 
ATOM     49  C   UNL A   1      45.978  34.224  29.064  1.00  0.00     0.001 A 
ATOM     50  C   UNL A   1      46.234  34.557  30.393  1.00  0.00     0.000 A 
ENDBRANCH  26  45
BRANCH  38  51
ATOM     51  C   UNL A   1      48.228  25.968  28.148  1.00  0.00    -0.014 A 
ATOM     52  C   UNL A   1      48.970  25.580  29.274  1.00  0.00     0.009 A 
ATOM     53  C   UNL A   1      48.845  25.960  26.888  1.00  0.00     0.009 A 
ATOM     54  C   UNL A   1      50.316  25.229  29.144  1.00  0.00     0.001 A 
ATOM     55  C   UNL A   1      50.181  25.582  26.757  1.00  0.00     0.001 A 
ATOM     56  C   UNL A   1      50.918  25.228  27.886  1.00  0.00     0.000 A 
ENDBRANCH  38  51
ENDBRANCH  12  13
ENDBRANCH   5   7
ENDBRANCH   2   3
ENDBRANCH   1   2
BRANCH   1  57
ATOM     57  C   UNL A   1      32.804  27.456  26.679  1.00  0.00     0.118 C 
BRANCH  57  58
ATOM     58  N   UNL A   1      31.603  26.664  26.893  1.00  0.00    -0.352 N 
ATOM     59  C   UNL A   1      30.775  26.054  25.987  1.00  0.00     0.256 C 
ATOM     60  H   UNL A   1      31.345  26.547  27.836  1.00  0.00     0.163 HD
ATOM     61  O   UNL A   1      29.708  25.584  26.375  1.00  0.00    -0.269 OA
BRANCH  59  62
ATOM     62  C   UNL A   1      31.104  25.997  24.550  1.00  0.00     0.099 A 
ATOM     63  C   UNL A   1      30.785  27.094  23.737  1.00  0.00     0.138 A 
ATOM     64  C   UNL A   1      31.778  24.877  24.010  1.00  0.00     0.057 A 
ATOM     65  F   UNL A   1      30.209  28.192  24.249  1.00  0.00    -0.206 F 
ATOM     66  C   UNL A   1      31.044  27.079  22.375  1.00  0.00     0.040 A 
ATOM     67  C   UNL A   1      32.078  24.921  22.650  1.00  0.00     0.027 A 
ATOM     68  C   UNL A   1      31.696  25.987  21.829  1.00  0.00     0.005 A 
BRANCH  64  69
ATOM     69  N   UNL A   1      32.113  23.790  24.857  1.00  0.00    -0.325 N 
ATOM     70  C   UNL A   1      33.235  23.161  25.301  1.00  0.00     0.227 C 
ATOM     71  H   UNL A   1      31.303  23.370  25.228  1.00  0.00     0.169 HD
ATOM     72  O   UNL A   1      33.052  22.215  26.083  1.00  0.00    -0.274 OA
BRANCH  70  73
ATOM     73  C   UNL A   1      34.679  23.512  24.940  1.00  0.00     0.079 C 
ATOM     74  C   UNL A   1      35.653  23.424  26.123  1.00  0.00     0.013 C 
ATOM     75  C   UNL A   1      35.081  22.844  23.619  1.00  0.00     0.013 C 
ATOM     76  C   UNL A   1      37.131  23.298  25.752  1.00  0.00     0.001 C 
ATOM     77  C   UNL A   1      36.573  22.930  23.329  1.00  0.00     0.001 C 
ATOM     78  C   UNL A   1      37.412  22.463  24.508  1.00  0.00     0.000 C 
ENDBRANCH  70  73
ENDBRANCH  64  69
ENDBRANCH  59  62
ENDBRANCH  57  58
ENDBRANCH   1  57
TORSDOF 12
ENDMDL
MODEL 3
REMARK VINA RESULT:     -11.6      2.411      7.287
REMARK SMILES O=C(NCCCNC(=O)c1c(F)cccc1NC(=O)C1CCCCC1)c1ccc(-c2c3nc(c(-c4ccccc4)c4ccc([nH]4)c(-c4ccccc4)c4nc(c(-c5ccccc5)c5ccc2[nH]5)C=C4)C=C3)cc1
REMARK SMILES IDX 5 1 4 2 3 3 1 4 2 5 26 7 27 8 73 9 28 10 72 11 29 12 30 13
REMARK SMILES IDX 31 14 66 15 32 16 71 17 65 18 67 19 33 20 70 21 64 22 63 23
REMARK SMILES IDX 34 25 56 26 41 27 55 28 42 29 45 30 54 31 68 32 43 33 44 34
REMARK SMILES IDX 53 36 69 37 46 38 35 39 36 40 40 41 37 42 39 43 38 44 57 45
REMARK SMILES IDX 58 46 62 47 59 48 61 49 60 50 47 51 48 52 52 53 49 54 51 55
REMARK SMILES IDX 50 56 6 57 7 58 8 59 9 61 10 62 11 63 16 64 12 65 13 66
REMARK SMILES IDX 15 67 14 68 17 69 18 70 19 72 20 73 21 74 25 75 22 76 24 77
REMARK SMILES IDX 23 78
REMARK H PARENT 3 6 67 24 45 35 7 60 17 71
REMARK Flexibility Score: inf
ROOT
ATOM      1  C   UNL A   1      33.864  28.503  25.821  1.00  0.00     0.042 C 
ENDROOT
BRANCH   1   2
ATOM      2  C   UNL A   1      33.459  28.724  27.270  1.00  0.00     0.118 C 
BRANCH   2   3
ATOM      3  N   UNL A   1      33.556  30.117  27.692  1.00  0.00    -0.352 N 
ATOM      4  O   UNL A   1      34.418  31.946  28.688  1.00  0.00    -0.269 OA
ATOM      5  C   UNL A   1      34.596  30.804  28.273  1.00  0.00     0.251 C 
ATOM      6  H   UNL A   1      32.745  30.651  27.535  1.00  0.00     0.163 HD
BRANCH   5   7
ATOM      7  C   UNL A   1      35.917  30.161  28.440  1.00  0.00     0.039 A 
ATOM      8  C   UNL A   1      36.250  29.509  29.627  1.00  0.00     0.014 A 
ATOM      9  C   UNL A   1      36.845  30.218  27.395  1.00  0.00     0.014 A 
ATOM     10  C   UNL A   1      37.563  29.117  29.851  1.00  0.00     0.010 A 
ATOM     11  C   UNL A   1      38.134  29.710  27.580  1.00  0.00     0.010 A 
ATOM     12  C   UNL A   1      38.523  29.206  28.829  1.00  0.00    -0.014 A 
BRANCH  12  13
ATOM     13  C   UNL A   1      39.908  28.740  29.102  1.00  0.00     0.031 A 
ATOM     14  C   UNL A   1      40.381  27.385  28.647  1.00  0.00     0.074 A 
ATOM     15  C   UNL A   1      40.767  29.581  29.712  1.00  0.00     0.049 A 
ATOM     16  N   UNL A   1      41.578  26.858  28.742  1.00  0.00    -0.248 NA
ATOM     17  C   UNL A   1      39.389  26.500  28.016  1.00  0.00     0.031 C 
ATOM     18  C   UNL A   1      40.431  30.920  30.206  1.00  0.00     0.029 A 
ATOM     19  N   UNL A   1      42.106  29.455  29.983  1.00  0.00    -0.354 N 
ATOM     20  C   UNL A   1      41.474  25.576  28.214  1.00  0.00     0.074 A 
ATOM     21  C   UNL A   1      40.095  25.395  27.818  1.00  0.00     0.031 C 
ATOM     22  C   UNL A   1      41.547  31.520  30.642  1.00  0.00     0.029 A 
ATOM     23  C   UNL A   1      42.661  30.588  30.529  1.00  0.00     0.049 A 
ATOM     24  H   UNL A   1      42.619  28.634  29.805  1.00  0.00     0.167 HD
ATOM     25  C   UNL A   1      42.439  24.636  28.070  1.00  0.00     0.031 A 
ATOM     26  C   UNL A   1      43.926  30.851  30.901  1.00  0.00     0.031 A 
ATOM     27  C   UNL A   1      43.817  24.821  28.444  1.00  0.00     0.049 A 
ATOM     28  C   UNL A   1      44.973  29.792  30.732  1.00  0.00     0.074 A 
ATOM     29  C   UNL A   1      44.876  23.940  28.302  1.00  0.00     0.029 A 
ATOM     30  N   UNL A   1      44.329  25.967  29.034  1.00  0.00    -0.354 N 
ATOM     31  N   UNL A   1      44.860  28.596  30.207  1.00  0.00    -0.248 NA
ATOM     32  C   UNL A   1      46.322  30.120  31.207  1.00  0.00     0.031 C 
ATOM     33  C   UNL A   1      46.019  24.536  28.847  1.00  0.00     0.029 A 
ATOM     34  C   UNL A   1      45.682  25.807  29.280  1.00  0.00     0.049 A 
ATOM     35  H   UNL A   1      43.806  26.774  29.246  1.00  0.00     0.167 HD
ATOM     36  C   UNL A   1      46.126  28.035  30.273  1.00  0.00     0.074 A 
ATOM     37  C   UNL A   1      46.996  29.029  30.869  1.00  0.00     0.031 C 
ATOM     38  C   UNL A   1      46.532  26.804  29.878  1.00  0.00     0.031 A 
BRANCH  25  39
ATOM     39  C   UNL A   1      42.032  23.302  27.507  1.00  0.00    -0.014 A 
ATOM     40  C   UNL A   1      42.207  22.993  26.150  1.00  0.00     0.009 A 
ATOM     41  C   UNL A   1      41.505  22.322  28.364  1.00  0.00     0.009 A 
ATOM     42  C   UNL A   1      41.831  21.741  25.656  1.00  0.00     0.001 A 
ATOM     43  C   UNL A   1      41.153  21.063  27.871  1.00  0.00     0.001 A 
ATOM     44  C   UNL A   1      41.309  20.777  26.517  1.00  0.00     0.000 A 
ENDBRANCH  25  39
BRANCH  26  45
ATOM     45  C   UNL A   1      44.267  32.180  31.471  1.00  0.00    -0.014 A 
ATOM     46  C   UNL A   1      44.587  33.254  30.629  1.00  0.00     0.009 A 
ATOM     47  C   UNL A   1      44.260  32.380  32.861  1.00  0.00     0.009 A 
ATOM     48  C   UNL A   1      44.912  34.501  31.169  1.00  0.00     0.001 A 
ATOM     49  C   UNL A   1      44.556  33.635  33.395  1.00  0.00     0.001 A 
ATOM     50  C   UNL A   1      44.890  34.691  32.550  1.00  0.00     0.000 A 
ENDBRANCH  26  45
BRANCH  38  51
ATOM     51  C   UNL A   1      47.989  26.485  30.050  1.00  0.00    -0.014 A 
ATOM     52  C   UNL A   1      48.922  26.780  29.044  1.00  0.00     0.009 A 
ATOM     53  C   UNL A   1      48.434  25.892  31.241  1.00  0.00     0.009 A 
ATOM     54  C   UNL A   1      50.269  26.450  29.213  1.00  0.00     0.001 A 
ATOM     55  C   UNL A   1      49.784  25.590  31.420  1.00  0.00     0.001 A 
ATOM     56  C   UNL A   1      50.698  25.858  30.402  1.00  0.00     0.000 A 
ENDBRANCH  38  51
ENDBRANCH  12  13
ENDBRANCH   5   7
ENDBRANCH   2   3
ENDBRANCH   1   2
BRANCH   1  57
ATOM     57  C   UNL A   1      33.690  27.072  25.336  1.00  0.00     0.118 C 
BRANCH  57  58
ATOM     58  N   UNL A   1      32.831  26.990  24.165  1.00  0.00    -0.352 N 
ATOM     59  C   UNL A   1      31.947  26.015  23.785  1.00  0.00     0.256 C 
ATOM     60  H   UNL A   1      32.894  27.756  23.549  1.00  0.00     0.163 HD
ATOM     61  O   UNL A   1      31.453  26.061  22.661  1.00  0.00    -0.269 OA
BRANCH  59  62
ATOM     62  C   UNL A   1      31.615  24.881  24.669  1.00  0.00     0.099 A 
ATOM     63  C   UNL A   1      30.591  25.035  25.614  1.00  0.00     0.138 A 
ATOM     64  C   UNL A   1      32.282  23.641  24.530  1.00  0.00     0.057 A 
ATOM     65  F   UNL A   1      29.902  26.182  25.709  1.00  0.00    -0.206 F 
ATOM     66  C   UNL A   1      30.260  24.012  26.489  1.00  0.00     0.040 A 
ATOM     67  C   UNL A   1      31.882  22.615  25.384  1.00  0.00     0.027 A 
ATOM     68  C   UNL A   1      30.908  22.795  26.373  1.00  0.00     0.005 A 
BRANCH  64  69
ATOM     69  N   UNL A   1      33.298  23.502  23.551  1.00  0.00    -0.325 N 
ATOM     70  C   UNL A   1      34.618  23.178  23.502  1.00  0.00     0.227 C 
ATOM     71  H   UNL A   1      32.948  23.695  22.650  1.00  0.00     0.169 HD
ATOM     72  O   UNL A   1      35.130  23.164  22.371  1.00  0.00    -0.274 OA
BRANCH  70  73
ATOM     73  C   UNL A   1      35.515  22.826  24.689  1.00  0.00     0.079 C 
ATOM     74  C   UNL A   1      36.461  21.647  24.425  1.00  0.00     0.013 C 
ATOM     75  C   UNL A   1      36.100  24.097  25.317  1.00  0.00     0.013 C 
ATOM     76  C   UNL A   1      37.670  21.550  25.356  1.00  0.00     0.001 C 
ATOM     77  C   UNL A   1      37.201  23.818  26.331  1.00  0.00     0.001 C 
ATOM     78  C   UNL A   1      38.267  22.888  25.775  1.00  0.00     0.000 C 
ENDBRANCH  70  73
ENDBRANCH  64  69
ENDBRANCH  59  62
ENDBRANCH  57  58
ENDBRANCH   1  57
TORSDOF 12
ENDMDL
