MODEL 1
REMARK VINA RESULT:      -8.3      0.000      0.000
REMARK SMILES CCCCCCNC(=O)Oc1cccc(-c2ccc([C@@H](C)C(=O)NCCCNC(=O)c3ccc(-c4c5nc(c(-c6ccccc6)c6ccc([nH]6)c(-c6ccccc6)c6nc(c(-c7ccccc7)c7ccc4[nH]7)C=C6)C=C5)cc3)cc2F)c1
REMARK SMILES IDX 16 1 17 2 18 3 19 4 79 5 80 6 81 7 15 8 11 9 12 10 82 11
REMARK SMILES IDX 13 12 14 13 10 14 8 15 7 16 9 18 6 19 5 20 4 21 3 22 2 23
REMARK SMILES IDX 1 24 20 25 21 26 22 27 23 28 24 29 25 31 26 32 27 33 28 34
REMARK SMILES IDX 29 35 30 37 31 38 32 39 78 40 33 41 77 42 34 43 35 44 36 45
REMARK SMILES IDX 71 46 37 47 76 48 70 49 72 50 38 51 75 52 69 53 68 54 39 56
REMARK SMILES IDX 61 57 46 58 60 59 47 60 50 61 59 62 73 63 48 64 49 65 58 67
REMARK SMILES IDX 74 68 51 69 40 70 41 71 45 72 42 73 44 74 43 75 62 76 63 77
REMARK SMILES IDX 67 78 64 79 66 80 65 81 52 82 53 83 57 84 54 85 56 86 55 87
REMARK H PARENT 7 17 24 30 28 36 72 55 50 66
REMARK Flexibility Score: inf
ROOT
ATOM      1  C   UNL A   1      39.046  30.355  33.998  1.00  0.00     0.018 A 
ATOM      2  C   UNL A   1      39.000  31.712  34.356  1.00  0.00     0.012 A 
ATOM      3  C   UNL A   1      37.938  32.542  33.971  1.00  0.00     0.005 A 
ATOM      4  C   UNL A   1      36.907  32.063  33.158  1.00  0.00    -0.033 A 
ATOM      5  C   UNL A   1      36.921  30.702  32.827  1.00  0.00     0.044 A 
ATOM      6  C   UNL A   1      37.957  29.869  33.258  1.00  0.00     0.131 A 
ATOM      7  F   UNL A   1      37.878  28.569  32.929  1.00  0.00    -0.206 F 
ENDROOT
BRANCH   1   8
ATOM      8  C   UNL A   1      40.204  29.504  34.357  1.00  0.00    -0.012 A 
ATOM      9  C   UNL A   1      41.961  28.861  35.919  1.00  0.00     0.133 A 
ATOM     10  C   UNL A   1      42.402  27.856  35.066  1.00  0.00     0.047 A 
ATOM     11  C   UNL A   1      40.883  29.680  35.576  1.00  0.00     0.056 A 
ATOM     12  C   UNL A   1      41.740  27.656  33.860  1.00  0.00     0.004 A 
ATOM     13  C   UNL A   1      40.660  28.476  33.508  1.00  0.00     0.009 A 
BRANCH   9  14
ATOM     14  O   UNL A   1      42.726  29.110  37.070  1.00  0.00    -0.410 OA
BRANCH  14  15
ATOM     15  C   UNL A   1      43.923  29.795  36.925  1.00  0.00     0.412 C 
ATOM     16  N   UNL A   1      45.015  29.030  37.229  1.00  0.00    -0.321 N 
ATOM     17  H   UNL A   1      45.893  29.471  37.170  1.00  0.00     0.167 HD
ATOM     18  O   UNL A   1      44.049  30.962  36.575  1.00  0.00    -0.224 OA
BRANCH  16  19
ATOM     19  C   UNL A   1      45.015  27.637  37.629  1.00  0.00     0.119 C 
BRANCH  19  20
ATOM     20  C   UNL A   1      45.921  26.785  36.741  1.00  0.00     0.021 C 
BRANCH  20  21
ATOM     21  C   UNL A   1      45.628  25.280  36.778  1.00  0.00     0.002 C 
BRANCH  21  22
ATOM     22  C   UNL A   1      44.159  24.886  36.589  1.00  0.00    -0.000 C 
BRANCH  22  23
ATOM     23  C   UNL A   1      43.766  24.467  35.170  1.00  0.00    -0.003 C 
ATOM     24  C   UNL A   1      42.398  23.808  35.095  1.00  0.00     0.004 C 
ENDBRANCH  22  23
ENDBRANCH  21  22
ENDBRANCH  20  21
ENDBRANCH  19  20
ENDBRANCH  16  19
ENDBRANCH  14  15
ENDBRANCH   9  14
ENDBRANCH   1   8
BRANCH   4  25
ATOM     25  C   UNL A   1      35.818  32.953  32.580  1.00  0.00     0.105 C 
ATOM     26  C   UNL A   1      34.573  33.132  33.445  1.00  0.00     0.023 C 
BRANCH  25  27
ATOM     27  C   UNL A   1      36.366  34.247  31.958  1.00  0.00     0.227 C 
ATOM     28  O   UNL A   1      36.431  35.277  32.639  1.00  0.00    -0.274 OA
ATOM     29  N   UNL A   1      36.793  34.351  30.670  1.00  0.00    -0.356 N 
ATOM     30  H   UNL A   1      37.155  35.238  30.438  1.00  0.00     0.163 HD
BRANCH  29  31
ATOM     31  C   UNL A   1      36.814  33.402  29.576  1.00  0.00     0.117 C 
BRANCH  31  32
ATOM     32  C   UNL A   1      35.555  33.473  28.716  1.00  0.00     0.042 C 
BRANCH  32  33
ATOM     33  C   UNL A   1      34.363  32.714  29.287  1.00  0.00     0.118 C 
BRANCH  33  34
ATOM     34  N   UNL A   1      33.826  31.742  28.346  1.00  0.00    -0.352 N 
ATOM     35  C   UNL A   1      34.417  30.696  27.686  1.00  0.00     0.251 C 
ATOM     36  H   UNL A   1      32.868  31.856  28.148  1.00  0.00     0.163 HD
ATOM     37  O   UNL A   1      33.793  30.147  26.781  1.00  0.00    -0.269 OA
BRANCH  35  38
ATOM     38  C   UNL A   1      35.777  30.212  28.027  1.00  0.00     0.039 A 
ATOM     39  C   UNL A   1      35.972  29.627  29.284  1.00  0.00     0.014 A 
ATOM     40  C   UNL A   1      36.875  30.400  27.183  1.00  0.00     0.014 A 
ATOM     41  C   UNL A   1      37.245  29.208  29.676  1.00  0.00     0.010 A 
ATOM     42  C   UNL A   1      38.131  29.905  27.540  1.00  0.00     0.010 A 
ATOM     43  C   UNL A   1      38.335  29.325  28.799  1.00  0.00    -0.014 A 
BRANCH  43  44
ATOM     44  C   UNL A   1      39.686  28.864  29.210  1.00  0.00     0.031 A 
ATOM     45  C   UNL A   1      40.554  29.717  30.096  1.00  0.00     0.074 A 
ATOM     46  C   UNL A   1      40.141  27.673  28.774  1.00  0.00     0.049 A 
ATOM     47  N   UNL A   1      41.737  29.454  30.594  1.00  0.00    -0.248 NA
ATOM     48  C   UNL A   1      40.037  31.049  30.454  1.00  0.00     0.031 C 
ATOM     49  C   UNL A   1      39.422  26.772  27.869  1.00  0.00     0.029 A 
ATOM     50  N   UNL A   1      41.311  27.010  29.042  1.00  0.00    -0.354 N 
ATOM     51  C   UNL A   1      42.108  30.587  31.308  1.00  0.00     0.074 A 
ATOM     52  C   UNL A   1      41.051  31.558  31.138  1.00  0.00     0.031 C 
ATOM     53  C   UNL A   1      40.147  25.656  27.693  1.00  0.00     0.029 A 
ATOM     54  C   UNL A   1      41.391  25.774  28.448  1.00  0.00     0.049 A 
ATOM     55  H   UNL A   1      42.025  27.384  29.607  1.00  0.00     0.167 HD
ATOM     56  C   UNL A   1      43.219  30.795  32.056  1.00  0.00     0.031 A 
ATOM     57  C   UNL A   1      42.352  24.834  28.511  1.00  0.00     0.031 A 
ATOM     58  C   UNL A   1      44.268  29.827  32.235  1.00  0.00     0.049 A 
ATOM     59  C   UNL A   1      43.564  25.079  29.366  1.00  0.00     0.074 A 
ATOM     60  C   UNL A   1      45.407  29.922  33.017  1.00  0.00     0.029 A 
ATOM     61  N   UNL A   1      44.306  28.584  31.623  1.00  0.00    -0.354 N 
ATOM     62  N   UNL A   1      43.862  26.125  30.096  1.00  0.00    -0.248 NA
ATOM     63  C   UNL A   1      44.561  24.001  29.418  1.00  0.00     0.031 C 
ATOM     64  C   UNL A   1      46.155  28.753  32.843  1.00  0.00     0.029 A 
ATOM     65  C   UNL A   1      45.457  27.910  31.994  1.00  0.00     0.049 A 
ATOM     66  H   UNL A   1      43.618  28.234  31.013  1.00  0.00     0.167 HD
ATOM     67  C   UNL A   1      45.068  25.823  30.714  1.00  0.00     0.074 A 
ATOM     68  C   UNL A   1      45.433  24.486  30.290  1.00  0.00     0.031 C 
ATOM     69  C   UNL A   1      45.809  26.584  31.557  1.00  0.00     0.031 A 
BRANCH  56  70
ATOM     70  C   UNL A   1      43.353  32.130  32.737  1.00  0.00    -0.014 A 
ATOM     71  C   UNL A   1      44.076  33.179  32.147  1.00  0.00     0.009 A 
ATOM     72  C   UNL A   1      42.723  32.352  33.972  1.00  0.00     0.009 A 
ATOM     73  C   UNL A   1      44.198  34.409  32.796  1.00  0.00     0.001 A 
ATOM     74  C   UNL A   1      42.823  33.593  34.606  1.00  0.00     0.001 A 
ATOM     75  C   UNL A   1      43.568  34.617  34.023  1.00  0.00     0.000 A 
ENDBRANCH  56  70
BRANCH  57  76
ATOM     76  C   UNL A   1      42.188  23.554  27.777  1.00  0.00    -0.014 A 
ATOM     77  C   UNL A   1      42.689  23.411  26.474  1.00  0.00     0.009 A 
ATOM     78  C   UNL A   1      41.532  22.467  28.375  1.00  0.00     0.009 A 
ATOM     79  C   UNL A   1      42.513  22.216  25.773  1.00  0.00     0.001 A 
ATOM     80  C   UNL A   1      41.382  21.263  27.682  1.00  0.00     0.001 A 
ATOM     81  C   UNL A   1      41.863  21.143  26.379  1.00  0.00     0.000 A 
ENDBRANCH  57  76
BRANCH  69  82
ATOM     82  C   UNL A   1      47.072  25.971  32.094  1.00  0.00    -0.014 A 
ATOM     83  C   UNL A   1      47.084  25.274  33.312  1.00  0.00     0.009 A 
ATOM     84  C   UNL A   1      48.264  26.085  31.361  1.00  0.00     0.009 A 
ATOM     85  C   UNL A   1      48.276  24.741  33.807  1.00  0.00     0.001 A 
ATOM     86  C   UNL A   1      49.447  25.526  31.845  1.00  0.00     0.001 A 
ATOM     87  C   UNL A   1      49.455  24.867  33.073  1.00  0.00     0.000 A 
ENDBRANCH  69  82
ENDBRANCH  43  44
ENDBRANCH  35  38
ENDBRANCH  33  34
ENDBRANCH  32  33
ENDBRANCH  31  32
ENDBRANCH  29  31
ENDBRANCH  25  27
ENDBRANCH   4  25
TORSDOF 19
ENDMDL
MODEL 2
REMARK VINA RESULT:      -8.2      4.123     10.157
REMARK SMILES CCCCCCNC(=O)Oc1cccc(-c2ccc([C@@H](C)C(=O)NCCCNC(=O)c3ccc(-c4c5nc(c(-c6ccccc6)c6ccc([nH]6)c(-c6ccccc6)c6nc(c(-c7ccccc7)c7ccc4[nH]7)C=C6)C=C5)cc3)cc2F)c1
REMARK SMILES IDX 16 1 17 2 18 3 19 4 79 5 80 6 81 7 15 8 11 9 12 10 82 11
REMARK SMILES IDX 13 12 14 13 10 14 8 15 7 16 9 18 6 19 5 20 4 21 3 22 2 23
REMARK SMILES IDX 1 24 20 25 21 26 22 27 23 28 24 29 25 31 26 32 27 33 28 34
REMARK SMILES IDX 29 35 30 37 31 38 32 39 78 40 33 41 77 42 34 43 35 44 36 45
REMARK SMILES IDX 71 46 37 47 76 48 70 49 72 50 38 51 75 52 69 53 68 54 39 56
REMARK SMILES IDX 61 57 46 58 60 59 47 60 50 61 59 62 73 63 48 64 49 65 58 67
REMARK SMILES IDX 74 68 51 69 40 70 41 71 45 72 42 73 44 74 43 75 62 76 63 77
REMARK SMILES IDX 67 78 64 79 66 80 65 81 52 82 53 83 57 84 54 85 56 86 55 87
REMARK H PARENT 7 17 24 30 28 36 72 55 50 66
REMARK Flexibility Score: inf
ROOT
ATOM      1  C   UNL A   1      45.159  27.812  26.025  1.00  0.00     0.018 A 
ATOM      2  C   UNL A   1      46.302  27.039  26.288  1.00  0.00     0.012 A 
ATOM      3  C   UNL A   1      46.324  25.655  26.067  1.00  0.00     0.005 A 
ATOM      4  C   UNL A   1      45.181  24.976  25.634  1.00  0.00    -0.033 A 
ATOM      5  C   UNL A   1      44.048  25.741  25.332  1.00  0.00     0.044 A 
ATOM      6  C   UNL A   1      44.050  27.128  25.504  1.00  0.00     0.131 A 
ATOM      7  F   UNL A   1      42.937  27.793  25.157  1.00  0.00    -0.206 F 
ENDROOT
BRANCH   1   8
ATOM      8  C   UNL A   1      45.129  29.263  26.322  1.00  0.00    -0.012 A 
ATOM      9  C   UNL A   1      46.233  31.434  26.412  1.00  0.00     0.133 A 
ATOM     10  C   UNL A   1      45.069  32.049  26.856  1.00  0.00     0.047 A 
ATOM     11  C   UNL A   1      46.273  30.062  26.151  1.00  0.00     0.056 A 
ATOM     12  C   UNL A   1      43.922  31.281  27.023  1.00  0.00     0.004 A 
ATOM     13  C   UNL A   1      43.955  29.904  26.765  1.00  0.00     0.009 A 
BRANCH   9  14
ATOM     14  O   UNL A   1      47.398  32.217  26.370  1.00  0.00    -0.410 OA
BRANCH  14  15
ATOM     15  C   UNL A   1      47.721  32.970  27.489  1.00  0.00     0.412 C 
ATOM     16  N   UNL A   1      47.629  34.317  27.270  1.00  0.00    -0.321 N 
ATOM     17  H   UNL A   1      47.872  34.904  28.022  1.00  0.00     0.167 HD
ATOM     18  O   UNL A   1      48.068  32.531  28.579  1.00  0.00    -0.224 OA
BRANCH  16  19
ATOM     19  C   UNL A   1      47.210  34.970  26.046  1.00  0.00     0.119 C 
BRANCH  19  20
ATOM     20  C   UNL A   1      46.154  36.046  26.302  1.00  0.00     0.021 C 
BRANCH  20  21
ATOM     21  C   UNL A   1      44.970  35.594  27.165  1.00  0.00     0.002 C 
BRANCH  21  22
ATOM     22  C   UNL A   1      43.673  35.294  26.405  1.00  0.00    -0.000 C 
BRANCH  22  23
ATOM     23  C   UNL A   1      42.555  36.325  26.576  1.00  0.00    -0.003 C 
ATOM     24  C   UNL A   1      41.832  36.213  27.909  1.00  0.00     0.004 C 
ENDBRANCH  22  23
ENDBRANCH  21  22
ENDBRANCH  20  21
ENDBRANCH  19  20
ENDBRANCH  16  19
ENDBRANCH  14  15
ENDBRANCH   9  14
ENDBRANCH   1   8
BRANCH   4  25
ATOM     25  C   UNL A   1      45.100  23.461  25.530  1.00  0.00     0.105 C 
ATOM     26  C   UNL A   1      46.306  22.768  24.900  1.00  0.00     0.023 C 
BRANCH  25  27
ATOM     27  C   UNL A   1      44.570  22.798  26.812  1.00  0.00     0.227 C 
ATOM     28  O   UNL A   1      45.071  23.086  27.906  1.00  0.00    -0.274 OA
ATOM     29  N   UNL A   1      43.561  21.885  26.835  1.00  0.00    -0.356 N 
ATOM     30  H   UNL A   1      43.310  21.588  27.741  1.00  0.00     0.163 HD
BRANCH  29  31
ATOM     31  C   UNL A   1      42.788  21.268  25.777  1.00  0.00     0.117 C 
BRANCH  31  32
ATOM     32  C   UNL A   1      41.663  20.386  26.314  1.00  0.00     0.042 C 
BRANCH  32  33
ATOM     33  C   UNL A   1      40.586  21.143  27.082  1.00  0.00     0.118 C 
BRANCH  33  34
ATOM     34  N   UNL A   1      39.471  21.531  26.231  1.00  0.00    -0.352 N 
ATOM     35  C   UNL A   1      38.801  22.719  26.100  1.00  0.00     0.251 C 
ATOM     36  H   UNL A   1      39.138  20.812  25.645  1.00  0.00     0.163 HD
ATOM     37  O   UNL A   1      37.754  22.734  25.456  1.00  0.00    -0.269 OA
BRANCH  35  38
ATOM     38  C   UNL A   1      39.296  23.979  26.708  1.00  0.00     0.039 A 
ATOM     39  C   UNL A   1      38.947  24.249  28.037  1.00  0.00     0.014 A 
ATOM     40  C   UNL A   1      40.014  24.932  25.982  1.00  0.00     0.014 A 
ATOM     41  C   UNL A   1      39.339  25.448  28.637  1.00  0.00     0.010 A 
ATOM     42  C   UNL A   1      40.478  26.091  26.607  1.00  0.00     0.010 A 
ATOM     43  C   UNL A   1      40.126  26.373  27.934  1.00  0.00    -0.014 A 
BRANCH  43  44
ATOM     44  C   UNL A   1      40.557  27.640  28.579  1.00  0.00     0.031 A 
ATOM     45  C   UNL A   1      41.984  27.834  29.018  1.00  0.00     0.074 A 
ATOM     46  C   UNL A   1      39.654  28.620  28.783  1.00  0.00     0.049 A 
ATOM     47  N   UNL A   1      42.547  28.890  29.552  1.00  0.00    -0.248 NA
ATOM     48  C   UNL A   1      42.893  26.688  28.857  1.00  0.00     0.031 C 
ATOM     49  C   UNL A   1      38.229  28.539  28.452  1.00  0.00     0.029 A 
ATOM     50  N   UNL A   1      39.804  29.879  29.306  1.00  0.00    -0.354 N 
ATOM     51  C   UNL A   1      43.866  28.531  29.801  1.00  0.00     0.074 A 
ATOM     52  C   UNL A   1      44.008  27.147  29.409  1.00  0.00     0.031 C 
ATOM     53  C   UNL A   1      37.645  29.714  28.739  1.00  0.00     0.029 A 
ATOM     54  C   UNL A   1      38.645  30.618  29.299  1.00  0.00     0.049 A 
ATOM     55  H   UNL A   1      40.659  30.220  29.652  1.00  0.00     0.167 HD
ATOM     56  C   UNL A   1      44.876  29.290  30.292  1.00  0.00     0.031 A 
ATOM     57  C   UNL A   1      38.415  31.885  29.687  1.00  0.00     0.031 A 
ATOM     58  C   UNL A   1      44.741  30.670  30.674  1.00  0.00     0.049 A 
ATOM     59  C   UNL A   1      39.556  32.713  30.208  1.00  0.00     0.074 A 
ATOM     60  C   UNL A   1      45.717  31.540  31.131  1.00  0.00     0.029 A 
ATOM     61  N   UNL A   1      43.553  31.383  30.643  1.00  0.00    -0.354 N 
ATOM     62  N   UNL A   1      40.814  32.381  30.364  1.00  0.00    -0.248 NA
ATOM     63  C   UNL A   1      39.246  34.098  30.585  1.00  0.00     0.031 C 
ATOM     64  C   UNL A   1      45.109  32.767  31.417  1.00  0.00     0.029 A 
ATOM     65  C   UNL A   1      43.766  32.676  31.089  1.00  0.00     0.049 A 
ATOM     66  H   UNL A   1      42.686  31.023  30.348  1.00  0.00     0.167 HD
ATOM     67  C   UNL A   1      41.450  33.521  30.835  1.00  0.00     0.074 A 
ATOM     68  C   UNL A   1      40.443  34.560  30.915  1.00  0.00     0.031 C 
ATOM     69  C   UNL A   1      42.753  33.695  31.171  1.00  0.00     0.031 A 
BRANCH  56  70
ATOM     70  C   UNL A   1      46.221  28.633  30.445  1.00  0.00    -0.014 A 
ATOM     71  C   UNL A   1      47.185  28.702  29.426  1.00  0.00     0.009 A 
ATOM     72  C   UNL A   1      46.540  27.960  31.635  1.00  0.00     0.009 A 
ATOM     73  C   UNL A   1      48.425  28.079  29.579  1.00  0.00     0.001 A 
ATOM     74  C   UNL A   1      47.793  27.362  31.797  1.00  0.00     0.001 A 
ATOM     75  C   UNL A   1      48.730  27.413  30.766  1.00  0.00     0.000 A 
ENDBRANCH  56  70
BRANCH  57  76
ATOM     76  C   UNL A   1      37.054  32.465  29.559  1.00  0.00    -0.014 A 
ATOM     77  C   UNL A   1      36.661  33.102  28.372  1.00  0.00     0.009 A 
ATOM     78  C   UNL A   1      36.140  32.384  30.621  1.00  0.00     0.009 A 
ATOM     79  C   UNL A   1      35.390  33.671  28.260  1.00  0.00     0.001 A 
ATOM     80  C   UNL A   1      34.860  32.929  30.496  1.00  0.00     0.001 A 
ATOM     81  C   UNL A   1      34.490  33.580  29.320  1.00  0.00     0.000 A 
ENDBRANCH  57  76
BRANCH  69  82
ATOM     82  C   UNL A   1      43.159  35.067  31.630  1.00  0.00    -0.014 A 
ATOM     83  C   UNL A   1      43.796  35.967  30.762  1.00  0.00     0.009 A 
ATOM     84  C   UNL A   1      42.888  35.466  32.948  1.00  0.00     0.009 A 
ATOM     85  C   UNL A   1      44.195  37.225  31.219  1.00  0.00     0.001 A 
ATOM     86  C   UNL A   1      43.262  36.735  33.393  1.00  0.00     0.001 A 
ATOM     87  C   UNL A   1      43.926  37.607  32.533  1.00  0.00     0.000 A 
ENDBRANCH  69  82
ENDBRANCH  43  44
ENDBRANCH  35  38
ENDBRANCH  33  34
ENDBRANCH  32  33
ENDBRANCH  31  32
ENDBRANCH  29  31
ENDBRANCH  25  27
ENDBRANCH   4  25
TORSDOF 19
ENDMDL
MODEL 3
REMARK VINA RESULT:      -8.1      4.534      9.930
REMARK SMILES CCCCCCNC(=O)Oc1cccc(-c2ccc([C@@H](C)C(=O)NCCCNC(=O)c3ccc(-c4c5nc(c(-c6ccccc6)c6ccc([nH]6)c(-c6ccccc6)c6nc(c(-c7ccccc7)c7ccc4[nH]7)C=C6)C=C5)cc3)cc2F)c1
REMARK SMILES IDX 16 1 17 2 18 3 19 4 79 5 80 6 81 7 15 8 11 9 12 10 82 11
REMARK SMILES IDX 13 12 14 13 10 14 8 15 7 16 9 18 6 19 5 20 4 21 3 22 2 23
REMARK SMILES IDX 1 24 20 25 21 26 22 27 23 28 24 29 25 31 26 32 27 33 28 34
REMARK SMILES IDX 29 35 30 37 31 38 32 39 78 40 33 41 77 42 34 43 35 44 36 45
REMARK SMILES IDX 71 46 37 47 76 48 70 49 72 50 38 51 75 52 69 53 68 54 39 56
REMARK SMILES IDX 61 57 46 58 60 59 47 60 50 61 59 62 73 63 48 64 49 65 58 67
REMARK SMILES IDX 74 68 51 69 40 70 41 71 45 72 42 73 44 74 43 75 62 76 63 77
REMARK SMILES IDX 67 78 64 79 66 80 65 81 52 82 53 83 57 84 54 85 56 86 55 87
REMARK H PARENT 7 17 24 30 28 36 72 55 50 66
REMARK Flexibility Score: inf
ROOT
ATOM      1  C   UNL A   1      33.792  29.006  26.785  1.00  0.00     0.018 A 
ATOM      2  C   UNL A   1      34.344  27.946  26.048  1.00  0.00     0.012 A 
ATOM      3  C   UNL A   1      33.570  26.854  25.630  1.00  0.00     0.005 A 
ATOM      4  C   UNL A   1      32.222  26.748  25.987  1.00  0.00    -0.033 A 
ATOM      5  C   UNL A   1      31.651  27.818  26.688  1.00  0.00     0.044 A 
ATOM      6  C   UNL A   1      32.417  28.926  27.056  1.00  0.00     0.131 A 
ATOM      7  F   UNL A   1      31.786  29.926  27.694  1.00  0.00    -0.206 F 
ENDROOT
BRANCH   1   8
ATOM      8  C   UNL A   1      34.634  30.122  27.275  1.00  0.00    -0.012 A 
ATOM      9  C   UNL A   1      34.910  32.469  27.869  1.00  0.00     0.133 A 
ATOM     10  C   UNL A   1      36.232  32.257  28.243  1.00  0.00     0.047 A 
ATOM     11  C   UNL A   1      34.118  31.425  27.387  1.00  0.00     0.056 A 
ATOM     12  C   UNL A   1      36.762  30.975  28.150  1.00  0.00     0.004 A 
ATOM     13  C   UNL A   1      35.973  29.923  27.665  1.00  0.00     0.009 A 
BRANCH   9  14
ATOM     14  O   UNL A   1      34.448  33.795  27.865  1.00  0.00    -0.410 OA
BRANCH  14  15
ATOM     15  C   UNL A   1      33.165  34.042  28.329  1.00  0.00     0.412 C 
ATOM     16  N   UNL A   1      33.141  34.463  29.630  1.00  0.00    -0.321 N 
ATOM     17  H   UNL A   1      32.254  34.630  30.024  1.00  0.00     0.167 HD
ATOM     18  O   UNL A   1      32.128  33.906  27.692  1.00  0.00    -0.224 OA
BRANCH  16  19
ATOM     19  C   UNL A   1      34.285  34.691  30.490  1.00  0.00     0.119 C 
BRANCH  19  20
ATOM     20  C   UNL A   1      34.442  33.590  31.540  1.00  0.00     0.021 C 
BRANCH  20  21
ATOM     21  C   UNL A   1      34.431  34.079  32.993  1.00  0.00     0.002 C 
BRANCH  21  22
ATOM     22  C   UNL A   1      34.942  35.507  33.215  1.00  0.00    -0.000 C 
BRANCH  22  23
ATOM     23  C   UNL A   1      33.863  36.557  33.491  1.00  0.00    -0.003 C 
ATOM     24  C   UNL A   1      34.039  37.829  32.675  1.00  0.00     0.004 C 
ENDBRANCH  22  23
ENDBRANCH  21  22
ENDBRANCH  20  21
ENDBRANCH  19  20
ENDBRANCH  16  19
ENDBRANCH  14  15
ENDBRANCH   9  14
ENDBRANCH   1   8
BRANCH   4  25
ATOM     25  C   UNL A   1      31.378  25.517  25.699  1.00  0.00     0.105 C 
ATOM     26  C   UNL A   1      30.947  25.326  24.246  1.00  0.00     0.023 C 
BRANCH  25  27
ATOM     27  C   UNL A   1      31.907  24.250  26.389  1.00  0.00     0.227 C 
ATOM     28  O   UNL A   1      31.331  23.809  27.391  1.00  0.00    -0.274 OA
ATOM     29  N   UNL A   1      33.000  23.555  25.971  1.00  0.00    -0.356 N 
ATOM     30  H   UNL A   1      33.182  22.741  26.496  1.00  0.00     0.163 HD
BRANCH  29  31
ATOM     31  C   UNL A   1      33.946  23.789  24.899  1.00  0.00     0.117 C 
BRANCH  31  32
ATOM     32  C   UNL A   1      34.981  22.674  24.779  1.00  0.00     0.042 C 
BRANCH  32  33
ATOM     33  C   UNL A   1      35.868  22.507  26.007  1.00  0.00     0.118 C 
BRANCH  33  34
ATOM     34  N   UNL A   1      36.849  21.445  25.838  1.00  0.00    -0.352 N 
ATOM     35  C   UNL A   1      38.219  21.461  25.876  1.00  0.00     0.251 C 
ATOM     36  H   UNL A   1      36.459  20.557  25.665  1.00  0.00     0.163 HD
ATOM     37  O   UNL A   1      38.827  20.463  25.496  1.00  0.00    -0.269 OA
BRANCH  35  38
ATOM     38  C   UNL A   1      38.984  22.638  26.357  1.00  0.00     0.039 A 
ATOM     39  C   UNL A   1      38.641  23.897  25.850  1.00  0.00     0.014 A 
ATOM     40  C   UNL A   1      40.078  22.521  27.218  1.00  0.00     0.014 A 
ATOM     41  C   UNL A   1      39.368  25.028  26.227  1.00  0.00     0.010 A 
ATOM     42  C   UNL A   1      40.751  23.663  27.660  1.00  0.00     0.010 A 
ATOM     43  C   UNL A   1      40.419  24.925  27.152  1.00  0.00    -0.014 A 
BRANCH  43  44
ATOM     44  C   UNL A   1      41.181  26.132  27.564  1.00  0.00     0.031 A 
ATOM     45  C   UNL A   1      42.525  26.438  26.958  1.00  0.00     0.074 A 
ATOM     46  C   UNL A   1      40.665  26.953  28.500  1.00  0.00     0.049 A 
ATOM     47  N   UNL A   1      43.306  27.470  27.161  1.00  0.00    -0.248 NA
ATOM     48  C   UNL A   1      43.073  25.448  26.017  1.00  0.00     0.031 C 
ATOM     49  C   UNL A   1      39.398  26.744  29.203  1.00  0.00     0.029 A 
ATOM     50  N   UNL A   1      41.139  28.135  29.011  1.00  0.00    -0.354 N 
ATOM     51  C   UNL A   1      44.439  27.246  26.388  1.00  0.00     0.074 A 
ATOM     52  C   UNL A   1      44.267  25.959  25.751  1.00  0.00     0.031 C 
ATOM     53  C   UNL A   1      39.173  27.784  30.022  1.00  0.00     0.029 A 
ATOM     54  C   UNL A   1      40.291  28.717  29.922  1.00  0.00     0.049 A 
ATOM     55  H   UNL A   1      42.002  28.528  28.750  1.00  0.00     0.167 HD
ATOM     56  C   UNL A   1      45.516  28.047  26.204  1.00  0.00     0.031 A 
ATOM     57  C   UNL A   1      40.395  29.879  30.594  1.00  0.00     0.031 A 
ATOM     58  C   UNL A   1      45.686  29.332  26.828  1.00  0.00     0.049 A 
ATOM     59  C   UNL A   1      41.589  30.760  30.357  1.00  0.00     0.074 A 
ATOM     60  C   UNL A   1      46.716  30.243  26.664  1.00  0.00     0.029 A 
ATOM     61  N   UNL A   1      44.800  29.889  27.737  1.00  0.00    -0.354 N 
ATOM     62  N   UNL A   1      42.613  30.568  29.562  1.00  0.00    -0.248 NA
ATOM     63  C   UNL A   1      41.627  32.029  31.096  1.00  0.00     0.031 C 
ATOM     64  C   UNL A   1      46.474  31.332  27.508  1.00  0.00     0.029 A 
ATOM     65  C   UNL A   1      45.268  31.123  28.157  1.00  0.00     0.049 A 
ATOM     66  H   UNL A   1      43.963  29.470  28.040  1.00  0.00     0.167 HD
ATOM     67  C   UNL A   1      43.406  31.701  29.688  1.00  0.00     0.074 A 
ATOM     68  C   UNL A   1      42.730  32.584  30.617  1.00  0.00     0.031 C 
ATOM     69  C   UNL A   1      44.588  31.986  29.088  1.00  0.00     0.031 A 
BRANCH  56  70
ATOM     70  C   UNL A   1      46.600  27.547  25.288  1.00  0.00    -0.014 A 
ATOM     71  C   UNL A   1      46.747  28.059  23.988  1.00  0.00     0.009 A 
ATOM     72  C   UNL A   1      47.505  26.574  25.740  1.00  0.00     0.009 A 
ATOM     73  C   UNL A   1      47.752  27.577  23.147  1.00  0.00     0.001 A 
ATOM     74  C   UNL A   1      48.527  26.115  24.906  1.00  0.00     0.001 A 
ATOM     75  C   UNL A   1      48.644  26.609  23.607  1.00  0.00     0.000 A 
ENDBRANCH  56  70
BRANCH  57  76
ATOM     76  C   UNL A   1      39.316  30.298  31.524  1.00  0.00    -0.014 A 
ATOM     77  C   UNL A   1      38.326  31.199  31.105  1.00  0.00     0.009 A 
ATOM     78  C   UNL A   1      39.269  29.798  32.834  1.00  0.00     0.009 A 
ATOM     79  C   UNL A   1      37.325  31.613  31.988  1.00  0.00     0.001 A 
ATOM     80  C   UNL A   1      38.251  30.192  33.706  1.00  0.00     0.001 A 
ATOM     81  C   UNL A   1      37.287  31.107  33.285  1.00  0.00     0.000 A 
ENDBRANCH  57  76
BRANCH  69  82
ATOM     82  C   UNL A   1      45.206  33.320  29.402  1.00  0.00    -0.014 A 
ATOM     83  C   UNL A   1      46.075  33.481  30.492  1.00  0.00     0.009 A 
ATOM     84  C   UNL A   1      44.920  34.426  28.587  1.00  0.00     0.009 A 
ATOM     85  C   UNL A   1      46.611  34.737  30.785  1.00  0.00     0.001 A 
ATOM     86  C   UNL A   1      45.481  35.673  28.866  1.00  0.00     0.001 A 
ATOM     87  C   UNL A   1      46.314  35.830  29.972  1.00  0.00     0.000 A 
ENDBRANCH  69  82
ENDBRANCH  43  44
ENDBRANCH  35  38
ENDBRANCH  33  34
ENDBRANCH  32  33
ENDBRANCH  31  32
ENDBRANCH  29  31
ENDBRANCH  25  27
ENDBRANCH   4  25
TORSDOF 19
ENDMDL
