MODEL 1
REMARK VINA RESULT:     -10.8      0.000      0.000
REMARK SMILES C[C@@H](C(=O)NCCCNC(=O)c1ccc(-c2c3nc(c(-c4ccccc4)c4ccc([nH]4)c(-c4ccccc4)c4nc(c(-c5ccccc5)c5ccc2[nH]5)C=C4)C=C3)cc1)c1ccc(Cc2ccsc2)cc1F
REMARK SMILES IDX 6 1 5 2 3 3 4 4 2 6 1 7 60 8 61 9 71 10 62 11 70 12 72 13
REMARK SMILES IDX 63 14 64 15 65 16 66 17 69 18 67 19 68 20 7 21 8 22 9 23
REMARK SMILES IDX 10 24 11 26 12 27 13 28 59 29 14 30 58 31 15 32 16 33 17 34
REMARK SMILES IDX 52 35 18 36 57 37 51 38 53 39 19 40 56 41 50 42 49 43 20 45
REMARK SMILES IDX 42 46 27 47 41 48 28 49 31 50 40 51 54 52 29 53 30 54 39 56
REMARK SMILES IDX 55 57 32 58 21 59 22 60 26 61 23 62 25 63 24 64 43 65 44 66
REMARK SMILES IDX 48 67 45 68 47 69 46 70 33 71 34 72 38 73 35 74 37 75 36 76
REMARK H PARENT 5 5 9 25 53 44 31 55
REMARK Flexibility Score: inf
ROOT
ATOM      1  C   UNL A   1      36.628  20.309  25.059  1.00  0.00     0.117 C 
ENDROOT
BRANCH   1   2
ATOM      2  N   UNL A   1      36.850  21.556  25.764  1.00  0.00    -0.356 N 
ATOM      3  C   UNL A   1      36.259  22.775  25.613  1.00  0.00     0.227 C 
ATOM      4  O   UNL A   1      36.755  23.704  26.253  1.00  0.00    -0.274 OA
ATOM      5  H   UNL A   1      37.539  21.515  26.464  1.00  0.00     0.163 HD
BRANCH   3   6
ATOM      6  C   UNL A   1      35.033  22.936  24.701  1.00  0.00     0.108 C 
ATOM      7  C   UNL A   1      35.419  23.033  23.220  1.00  0.00     0.023 C 
BRANCH   6   8
ATOM      8  C   UNL A   1      34.195  24.145  25.096  1.00  0.00    -0.000 A 
ATOM      9  C   UNL A   1      34.411  25.398  24.505  1.00  0.00     0.008 A 
ATOM     10  C   UNL A   1      33.193  24.041  26.062  1.00  0.00     0.127 A 
ATOM     11  C   UNL A   1      33.618  26.494  24.846  1.00  0.00     0.004 A 
ATOM     12  C   UNL A   1      32.413  25.140  26.428  1.00  0.00     0.043 A 
ATOM     13  F   UNL A   1      32.946  22.857  26.643  1.00  0.00    -0.207 F 
ATOM     14  C   UNL A   1      32.614  26.387  25.818  1.00  0.00    -0.041 A 
BRANCH  14  15
ATOM     15  C   UNL A   1      31.729  27.567  26.144  1.00  0.00     0.072 C 
BRANCH  15  16
ATOM     16  C   UNL A   1      30.983  27.969  24.902  1.00  0.00    -0.033 A 
ATOM     17  C   UNL A   1      30.024  27.162  24.192  1.00  0.00     0.015 A 
ATOM     18  C   UNL A   1      31.057  29.225  24.324  1.00  0.00     0.068 A 
ATOM     19  C   UNL A   1      29.454  27.813  23.122  1.00  0.00     0.065 A 
ATOM     20  S   UNL A   1      30.030  29.410  22.968  1.00  0.00    -0.152 S 
ENDBRANCH  15  16
ENDBRANCH  14  15
ENDBRANCH   6   8
ENDBRANCH   3   6
ENDBRANCH   1   2
BRANCH   1  21
ATOM     21  C   UNL A   1      37.915  19.493  24.967  1.00  0.00     0.042 C 
BRANCH  21  22
ATOM     22  C   UNL A   1      39.094  20.118  25.705  1.00  0.00     0.118 C 
BRANCH  22  23
ATOM     23  N   UNL A   1      40.207  19.193  25.871  1.00  0.00    -0.352 N 
ATOM     24  C   UNL A   1      41.515  19.455  26.195  1.00  0.00     0.251 C 
ATOM     25  H   UNL A   1      39.990  18.243  25.730  1.00  0.00     0.163 HD
ATOM     26  O   UNL A   1      42.362  18.569  26.109  1.00  0.00    -0.269 OA
BRANCH  24  27
ATOM     27  C   UNL A   1      41.907  20.810  26.631  1.00  0.00     0.039 A 
ATOM     28  C   UNL A   1      42.376  21.724  25.683  1.00  0.00     0.014 A 
ATOM     29  C   UNL A   1      41.812  21.176  27.975  1.00  0.00     0.014 A 
ATOM     30  C   UNL A   1      42.687  23.028  26.073  1.00  0.00     0.010 A 
ATOM     31  C   UNL A   1      42.044  22.494  28.347  1.00  0.00     0.010 A 
ATOM     32  C   UNL A   1      42.491  23.432  27.402  1.00  0.00    -0.014 A 
BRANCH  32  33
ATOM     33  C   UNL A   1      42.766  24.818  27.854  1.00  0.00     0.031 A 
ATOM     34  C   UNL A   1      44.156  25.195  28.284  1.00  0.00     0.074 A 
ATOM     35  C   UNL A   1      41.757  25.700  27.983  1.00  0.00     0.049 A 
ATOM     36  N   UNL A   1      44.576  26.288  28.867  1.00  0.00    -0.248 NA
ATOM     37  C   UNL A   1      45.207  24.189  28.058  1.00  0.00     0.031 C 
ATOM     38  C   UNL A   1      40.360  25.453  27.622  1.00  0.00     0.029 A 
ATOM     39  N   UNL A   1      41.751  26.980  28.480  1.00  0.00    -0.354 N 
ATOM     40  C   UNL A   1      45.928  26.088  29.107  1.00  0.00     0.074 A 
ATOM     41  C   UNL A   1      46.247  24.751  28.653  1.00  0.00     0.031 C 
ATOM     42  C   UNL A   1      39.636  26.547  27.903  1.00  0.00     0.029 A 
ATOM     43  C   UNL A   1      40.503  27.551  28.511  1.00  0.00     0.049 A 
ATOM     44  H   UNL A   1      42.565  27.442  28.786  1.00  0.00     0.167 HD
ATOM     45  C   UNL A   1      46.830  26.943  29.647  1.00  0.00     0.031 A 
ATOM     46  C   UNL A   1      40.097  28.740  28.997  1.00  0.00     0.031 A 
ATOM     47  C   UNL A   1      46.510  28.271  30.095  1.00  0.00     0.049 A 
ATOM     48  C   UNL A   1      41.106  29.666  29.616  1.00  0.00     0.074 A 
ATOM     49  C   UNL A   1      47.358  29.236  30.610  1.00  0.00     0.029 A 
ATOM     50  N   UNL A   1      45.236  28.820  30.085  1.00  0.00    -0.354 N 
ATOM     51  N   UNL A   1      42.393  29.485  29.793  1.00  0.00    -0.248 NA
ATOM     52  C   UNL A   1      40.610  30.965  30.093  1.00  0.00     0.031 C 
ATOM     53  C   UNL A   1      46.587  30.346  30.967  1.00  0.00     0.029 A 
ATOM     54  C   UNL A   1      45.271  30.102  30.608  1.00  0.00     0.049 A 
ATOM     55  H   UNL A   1      44.428  28.366  29.756  1.00  0.00     0.167 HD
ATOM     56  C   UNL A   1      42.866  30.658  30.367  1.00  0.00     0.074 A 
ATOM     57  C   UNL A   1      41.728  31.544  30.507  1.00  0.00     0.031 C 
ATOM     58  C   UNL A   1      44.132  30.975  30.734  1.00  0.00     0.031 A 
BRANCH  45  59
ATOM     59  C   UNL A   1      48.242  26.444  29.803  1.00  0.00    -0.014 A 
ATOM     60  C   UNL A   1      49.190  26.592  28.777  1.00  0.00     0.009 A 
ATOM     61  C   UNL A   1      48.630  25.815  30.997  1.00  0.00     0.009 A 
ATOM     62  C   UNL A   1      50.476  26.069  28.921  1.00  0.00     0.001 A 
ATOM     63  C   UNL A   1      49.928  25.327  31.152  1.00  0.00     0.001 A 
ATOM     64  C   UNL A   1      50.846  25.439  30.109  1.00  0.00     0.000 A 
ENDBRANCH  45  59
BRANCH  46  65
ATOM     65  C   UNL A   1      38.663  29.119  28.905  1.00  0.00    -0.014 A 
ATOM     66  C   UNL A   1      37.809  28.942  30.004  1.00  0.00     0.009 A 
ATOM     67  C   UNL A   1      38.146  29.686  27.729  1.00  0.00     0.009 A 
ATOM     68  C   UNL A   1      36.463  29.307  29.921  1.00  0.00     0.001 A 
ATOM     69  C   UNL A   1      36.807  30.078  27.659  1.00  0.00     0.001 A 
ATOM     70  C   UNL A   1      35.965  29.882  28.752  1.00  0.00     0.000 A 
ENDBRANCH  46  65
BRANCH  58  71
ATOM     71  C   UNL A   1      44.377  32.357  31.272  1.00  0.00    -0.014 A 
ATOM     72  C   UNL A   1      44.663  33.438  30.424  1.00  0.00     0.009 A 
ATOM     73  C   UNL A   1      44.244  32.591  32.650  1.00  0.00     0.009 A 
ATOM     74  C   UNL A   1      44.830  34.721  30.951  1.00  0.00     0.001 A 
ATOM     75  C   UNL A   1      44.381  33.879  33.169  1.00  0.00     0.001 A 
ATOM     76  C   UNL A   1      44.681  34.942  32.320  1.00  0.00     0.000 A 
ENDBRANCH  58  71
ENDBRANCH  32  33
ENDBRANCH  24  27
ENDBRANCH  22  23
ENDBRANCH  21  22
ENDBRANCH   1  21
TORSDOF 13
ENDMDL
MODEL 2
REMARK VINA RESULT:     -10.8      1.227      6.181
REMARK SMILES C[C@@H](C(=O)NCCCNC(=O)c1ccc(-c2c3nc(c(-c4ccccc4)c4ccc([nH]4)c(-c4ccccc4)c4nc(c(-c5ccccc5)c5ccc2[nH]5)C=C4)C=C3)cc1)c1ccc(Cc2ccsc2)cc1F
REMARK SMILES IDX 6 1 5 2 3 3 4 4 2 6 1 7 60 8 61 9 71 10 62 11 70 12 72 13
REMARK SMILES IDX 63 14 64 15 65 16 66 17 69 18 67 19 68 20 7 21 8 22 9 23
REMARK SMILES IDX 10 24 11 26 12 27 13 28 59 29 14 30 58 31 15 32 16 33 17 34
REMARK SMILES IDX 52 35 18 36 57 37 51 38 53 39 19 40 56 41 50 42 49 43 20 45
REMARK SMILES IDX 42 46 27 47 41 48 28 49 31 50 40 51 54 52 29 53 30 54 39 56
REMARK SMILES IDX 55 57 32 58 21 59 22 60 26 61 23 62 25 63 24 64 43 65 44 66
REMARK SMILES IDX 48 67 45 68 47 69 46 70 33 71 34 72 38 73 35 74 37 75 36 76
REMARK H PARENT 5 5 9 25 53 44 31 55
REMARK Flexibility Score: inf
ROOT
ATOM      1  C   UNL A   1      36.416  20.322  25.127  1.00  0.00     0.117 C 
ENDROOT
BRANCH   1   2
ATOM      2  N   UNL A   1      36.703  21.570  25.804  1.00  0.00    -0.356 N 
ATOM      3  C   UNL A   1      36.212  22.824  25.594  1.00  0.00     0.227 C 
ATOM      4  O   UNL A   1      36.751  23.734  26.227  1.00  0.00    -0.274 OA
ATOM      5  H   UNL A   1      37.359  21.500  26.535  1.00  0.00     0.163 HD
BRANCH   3   6
ATOM      6  C   UNL A   1      35.040  23.046  24.626  1.00  0.00     0.108 C 
ATOM      7  C   UNL A   1      35.504  23.190  23.172  1.00  0.00     0.023 C 
BRANCH   6   8
ATOM      8  C   UNL A   1      34.208  24.259  25.024  1.00  0.00    -0.000 A 
ATOM      9  C   UNL A   1      34.383  25.496  24.388  1.00  0.00     0.008 A 
ATOM     10  C   UNL A   1      33.251  24.173  26.037  1.00  0.00     0.127 A 
ATOM     11  C   UNL A   1      33.594  26.594  24.733  1.00  0.00     0.004 A 
ATOM     12  C   UNL A   1      32.476  25.275  26.406  1.00  0.00     0.043 A 
ATOM     13  F   UNL A   1      33.043  23.004  26.662  1.00  0.00    -0.207 F 
ATOM     14  C   UNL A   1      32.636  26.506  25.752  1.00  0.00    -0.041 A 
BRANCH  14  15
ATOM     15  C   UNL A   1      31.753  27.686  26.084  1.00  0.00     0.072 C 
BRANCH  15  16
ATOM     16  C   UNL A   1      30.959  28.053  24.861  1.00  0.00    -0.033 A 
ATOM     17  C   UNL A   1      30.024  27.202  24.172  1.00  0.00     0.015 A 
ATOM     18  C   UNL A   1      30.956  29.313  24.286  1.00  0.00     0.068 A 
ATOM     19  C   UNL A   1      29.396  27.826  23.119  1.00  0.00     0.065 A 
ATOM     20  S   UNL A   1      29.889  29.450  22.956  1.00  0.00    -0.152 S 
ENDBRANCH  15  16
ENDBRANCH  14  15
ENDBRANCH   6   8
ENDBRANCH   3   6
ENDBRANCH   1   2
BRANCH   1  21
ATOM     21  C   UNL A   1      37.679  19.477  24.970  1.00  0.00     0.042 C 
BRANCH  21  22
ATOM     22  C   UNL A   1      38.923  20.114  25.580  1.00  0.00     0.118 C 
BRANCH  22  23
ATOM     23  N   UNL A   1      40.023  19.171  25.724  1.00  0.00    -0.352 N 
ATOM     24  C   UNL A   1      41.335  19.407  26.054  1.00  0.00     0.251 C 
ATOM     25  H   UNL A   1      39.794  18.227  25.560  1.00  0.00     0.163 HD
ATOM     26  O   UNL A   1      42.170  18.512  25.947  1.00  0.00    -0.269 OA
BRANCH  24  27
ATOM     27  C   UNL A   1      41.745  20.746  26.523  1.00  0.00     0.039 A 
ATOM     28  C   UNL A   1      41.870  20.980  27.895  1.00  0.00     0.014 A 
ATOM     29  C   UNL A   1      42.005  21.766  25.607  1.00  0.00     0.014 A 
ATOM     30  C   UNL A   1      42.320  22.222  28.348  1.00  0.00     0.010 A 
ATOM     31  C   UNL A   1      42.529  22.974  26.054  1.00  0.00     0.010 A 
ATOM     32  C   UNL A   1      42.685  23.217  27.428  1.00  0.00    -0.014 A 
BRANCH  32  33
ATOM     33  C   UNL A   1      43.210  24.536  27.859  1.00  0.00     0.031 A 
ATOM     34  C   UNL A   1      42.248  25.628  28.234  1.00  0.00     0.074 A 
ATOM     35  C   UNL A   1      44.531  24.787  27.809  1.00  0.00     0.049 A 
ATOM     36  N   UNL A   1      42.483  26.893  28.474  1.00  0.00    -0.248 NA
ATOM     37  C   UNL A   1      40.828  25.251  28.316  1.00  0.00     0.031 C 
ATOM     38  C   UNL A   1      45.567  23.821  27.441  1.00  0.00     0.029 A 
ATOM     39  N   UNL A   1      45.226  25.947  28.046  1.00  0.00    -0.354 N 
ATOM     40  C   UNL A   1      41.239  27.467  28.700  1.00  0.00     0.074 A 
ATOM     41  C   UNL A   1      40.251  26.425  28.520  1.00  0.00     0.031 C 
ATOM     42  C   UNL A   1      46.765  24.426  27.485  1.00  0.00     0.029 A 
ATOM     43  C   UNL A   1      46.578  25.831  27.830  1.00  0.00     0.049 A 
ATOM     44  H   UNL A   1      44.796  26.782  28.342  1.00  0.00     0.167 HD
ATOM     45  C   UNL A   1      40.944  28.745  29.039  1.00  0.00     0.031 A 
ATOM     46  C   UNL A   1      47.554  26.758  27.880  1.00  0.00     0.031 A 
ATOM     47  C   UNL A   1      41.929  29.777  29.220  1.00  0.00     0.049 A 
ATOM     48  C   UNL A   1      47.206  28.177  28.233  1.00  0.00     0.074 A 
ATOM     49  C   UNL A   1      41.740  31.090  29.612  1.00  0.00     0.029 A 
ATOM     50  N   UNL A   1      43.290  29.611  29.014  1.00  0.00    -0.354 N 
ATOM     51  N   UNL A   1      46.030  28.698  28.492  1.00  0.00    -0.248 NA
ATOM     52  C   UNL A   1      48.318  29.134  28.308  1.00  0.00     0.031 C 
ATOM     53  C   UNL A   1      42.981  31.734  29.586  1.00  0.00     0.029 A 
ATOM     54  C   UNL A   1      43.952  30.804  29.248  1.00  0.00     0.049 A 
ATOM     55  H   UNL A   1      43.722  28.769  28.742  1.00  0.00     0.167 HD
ATOM     56  C   UNL A   1      46.265  30.032  28.799  1.00  0.00     0.074 A 
ATOM     57  C   UNL A   1      47.695  30.240  28.693  1.00  0.00     0.031 C 
ATOM     58  C   UNL A   1      45.376  30.995  29.147  1.00  0.00     0.031 A 
BRANCH  45  59
ATOM     59  C   UNL A   1      39.489  29.093  29.207  1.00  0.00    -0.014 A 
ATOM     60  C   UNL A   1      38.833  28.930  30.439  1.00  0.00     0.009 A 
ATOM     61  C   UNL A   1      38.762  29.591  28.114  1.00  0.00     0.009 A 
ATOM     62  C   UNL A   1      37.468  29.202  30.556  1.00  0.00     0.001 A 
ATOM     63  C   UNL A   1      37.407  29.898  28.245  1.00  0.00     0.001 A 
ATOM     64  C   UNL A   1      36.756  29.688  29.460  1.00  0.00     0.000 A 
ENDBRANCH  45  59
BRANCH  46  65
ATOM     65  C   UNL A   1      48.957  26.362  27.594  1.00  0.00    -0.014 A 
ATOM     66  C   UNL A   1      49.441  26.357  26.277  1.00  0.00     0.009 A 
ATOM     67  C   UNL A   1      49.829  26.012  28.639  1.00  0.00     0.009 A 
ATOM     68  C   UNL A   1      50.763  25.993  26.010  1.00  0.00     0.001 A 
ATOM     69  C   UNL A   1      51.159  25.678  28.371  1.00  0.00     0.001 A 
ATOM     70  C   UNL A   1      51.623  25.662  27.057  1.00  0.00     0.000 A 
ENDBRANCH  46  65
BRANCH  58  71
ATOM     71  C   UNL A   1      45.919  32.352  29.498  1.00  0.00    -0.014 A 
ATOM     72  C   UNL A   1      46.333  32.665  30.801  1.00  0.00     0.009 A 
ATOM     73  C   UNL A   1      46.087  33.307  28.482  1.00  0.00     0.009 A 
ATOM     74  C   UNL A   1      46.886  33.917  31.082  1.00  0.00     0.001 A 
ATOM     75  C   UNL A   1      46.667  34.546  28.760  1.00  0.00     0.001 A 
ATOM     76  C   UNL A   1      47.060  34.852  30.062  1.00  0.00     0.000 A 
ENDBRANCH  58  71
ENDBRANCH  32  33
ENDBRANCH  24  27
ENDBRANCH  22  23
ENDBRANCH  21  22
ENDBRANCH   1  21
TORSDOF 13
ENDMDL
MODEL 3
REMARK VINA RESULT:     -10.7      4.369      9.056
REMARK SMILES C[C@@H](C(=O)NCCCNC(=O)c1ccc(-c2c3nc(c(-c4ccccc4)c4ccc([nH]4)c(-c4ccccc4)c4nc(c(-c5ccccc5)c5ccc2[nH]5)C=C4)C=C3)cc1)c1ccc(Cc2ccsc2)cc1F
REMARK SMILES IDX 6 1 5 2 3 3 4 4 2 6 1 7 60 8 61 9 71 10 62 11 70 12 72 13
REMARK SMILES IDX 63 14 64 15 65 16 66 17 69 18 67 19 68 20 7 21 8 22 9 23
REMARK SMILES IDX 10 24 11 26 12 27 13 28 59 29 14 30 58 31 15 32 16 33 17 34
REMARK SMILES IDX 52 35 18 36 57 37 51 38 53 39 19 40 56 41 50 42 49 43 20 45
REMARK SMILES IDX 42 46 27 47 41 48 28 49 31 50 40 51 54 52 29 53 30 54 39 56
REMARK SMILES IDX 55 57 32 58 21 59 22 60 26 61 23 62 25 63 24 64 43 65 44 66
REMARK SMILES IDX 48 67 45 68 47 69 46 70 33 71 34 72 38 73 35 74 37 75 36 76
REMARK H PARENT 5 5 9 25 53 44 31 55
REMARK Flexibility Score: inf
ROOT
ATOM      1  C   UNL A   1      31.851  30.026  26.165  1.00  0.00     0.117 C 
ENDROOT
BRANCH   1   2
ATOM      2  N   UNL A   1      31.287  29.695  24.872  1.00  0.00    -0.356 N 
ATOM      3  C   UNL A   1      31.857  29.106  23.783  1.00  0.00     0.227 C 
ATOM      4  O   UNL A   1      31.175  29.083  22.756  1.00  0.00    -0.274 OA
ATOM      5  H   UNL A   1      30.339  29.934  24.764  1.00  0.00     0.163 HD
BRANCH   3   6
ATOM      6  C   UNL A   1      33.266  28.501  23.875  1.00  0.00     0.108 C 
ATOM      7  C   UNL A   1      34.186  28.995  22.753  1.00  0.00     0.023 C 
BRANCH   6   8
ATOM      8  C   UNL A   1      33.223  26.979  23.874  1.00  0.00    -0.000 A 
ATOM      9  C   UNL A   1      33.011  26.262  22.688  1.00  0.00     0.008 A 
ATOM     10  C   UNL A   1      33.387  26.254  25.056  1.00  0.00     0.127 A 
ATOM     11  C   UNL A   1      33.006  24.867  22.687  1.00  0.00     0.004 A 
ATOM     12  C   UNL A   1      33.357  24.857  25.068  1.00  0.00     0.043 A 
ATOM     13  F   UNL A   1      33.604  26.900  26.211  1.00  0.00    -0.207 F 
ATOM     14  C   UNL A   1      33.169  24.141  23.876  1.00  0.00    -0.041 A 
BRANCH  14  15
ATOM     15  C   UNL A   1      33.212  22.632  23.857  1.00  0.00     0.072 C 
BRANCH  15  16
ATOM     16  C   UNL A   1      34.621  22.186  24.136  1.00  0.00    -0.033 A 
ATOM     17  C   UNL A   1      35.811  22.696  23.506  1.00  0.00     0.015 A 
ATOM     18  C   UNL A   1      34.967  21.275  25.121  1.00  0.00     0.068 A 
ATOM     19  C   UNL A   1      36.969  22.144  24.004  1.00  0.00     0.065 A 
ATOM     20  S   UNL A   1      36.655  21.030  25.257  1.00  0.00    -0.152 S 
ENDBRANCH  15  16
ENDBRANCH  14  15
ENDBRANCH   6   8
ENDBRANCH   3   6
ENDBRANCH   1   2
BRANCH   1  21
ATOM     21  C   UNL A   1      31.604  31.492  26.514  1.00  0.00     0.042 C 
BRANCH  21  22
ATOM     22  C   UNL A   1      32.797  32.177  27.173  1.00  0.00     0.118 C 
BRANCH  22  23
ATOM     23  N   UNL A   1      32.511  33.551  27.561  1.00  0.00    -0.352 N 
ATOM     24  C   UNL A   1      33.157  34.350  28.472  1.00  0.00     0.251 C 
ATOM     25  H   UNL A   1      31.744  33.967  27.105  1.00  0.00     0.163 HD
ATOM     26  O   UNL A   1      32.664  35.423  28.811  1.00  0.00    -0.269 OA
BRANCH  24  27
ATOM     27  C   UNL A   1      34.438  33.908  29.060  1.00  0.00     0.039 A 
ATOM     28  C   UNL A   1      34.423  33.066  30.175  1.00  0.00     0.014 A 
ATOM     29  C   UNL A   1      35.650  34.327  28.508  1.00  0.00     0.014 A 
ATOM     30  C   UNL A   1      35.627  32.589  30.699  1.00  0.00     0.010 A 
ATOM     31  C   UNL A   1      36.841  33.789  28.979  1.00  0.00     0.010 A 
ATOM     32  C   UNL A   1      36.844  32.921  30.083  1.00  0.00    -0.014 A 
BRANCH  32  33
ATOM     33  C   UNL A   1      38.144  32.404  30.575  1.00  0.00     0.031 A 
ATOM     34  C   UNL A   1      38.708  31.140  29.987  1.00  0.00     0.074 A 
ATOM     35  C   UNL A   1      38.759  32.998  31.615  1.00  0.00     0.049 A 
ATOM     36  N   UNL A   1      39.732  30.429  30.382  1.00  0.00    -0.248 NA
ATOM     37  C   UNL A   1      38.002  30.589  28.820  1.00  0.00     0.031 C 
ATOM     38  C   UNL A   1      38.304  34.215  32.289  1.00  0.00     0.029 A 
ATOM     39  N   UNL A   1      39.891  32.639  32.304  1.00  0.00    -0.354 N 
ATOM     40  C   UNL A   1      39.771  29.329  29.534  1.00  0.00     0.074 A 
ATOM     41  C   UNL A   1      38.641  29.444  28.638  1.00  0.00     0.031 C 
ATOM     42  C   UNL A   1      39.152  34.505  33.287  1.00  0.00     0.029 A 
ATOM     43  C   UNL A   1      40.177  33.469  33.359  1.00  0.00     0.049 A 
ATOM     44  H   UNL A   1      40.443  31.860  32.063  1.00  0.00     0.167 HD
ATOM     45  C   UNL A   1      40.674  28.320  29.495  1.00  0.00     0.031 A 
ATOM     46  C   UNL A   1      41.142  33.391  34.296  1.00  0.00     0.031 A 
ATOM     47  C   UNL A   1      41.798  28.211  30.386  1.00  0.00     0.049 A 
ATOM     48  C   UNL A   1      42.120  32.250  34.254  1.00  0.00     0.074 A 
ATOM     49  C   UNL A   1      42.799  27.256  30.399  1.00  0.00     0.029 A 
ATOM     50  N   UNL A   1      42.064  29.087  31.427  1.00  0.00    -0.354 N 
ATOM     51  N   UNL A   1      42.176  31.242  33.416  1.00  0.00    -0.248 NA
ATOM     52  C   UNL A   1      43.173  32.240  35.279  1.00  0.00     0.031 C 
ATOM     53  C   UNL A   1      43.638  27.521  31.485  1.00  0.00     0.029 A 
ATOM     54  C   UNL A   1      43.202  28.682  32.105  1.00  0.00     0.049 A 
ATOM     55  H   UNL A   1      41.526  29.880  31.651  1.00  0.00     0.167 HD
ATOM     56  C   UNL A   1      43.289  30.500  33.789  1.00  0.00     0.074 A 
ATOM     57  C   UNL A   1      43.879  31.174  34.928  1.00  0.00     0.031 C 
ATOM     58  C   UNL A   1      43.783  29.368  33.231  1.00  0.00     0.031 A 
BRANCH  45  59
ATOM     59  C   UNL A   1      40.455  27.242  28.468  1.00  0.00    -0.014 A 
ATOM     60  C   UNL A   1      40.998  27.339  27.175  1.00  0.00     0.009 A 
ATOM     61  C   UNL A   1      39.693  26.110  28.798  1.00  0.00     0.009 A 
ATOM     62  C   UNL A   1      40.733  26.356  26.220  1.00  0.00     0.001 A 
ATOM     63  C   UNL A   1      39.461  25.111  27.851  1.00  0.00     0.001 A 
ATOM     64  C   UNL A   1      39.966  25.241  26.559  1.00  0.00     0.000 A 
ENDBRANCH  45  59
BRANCH  46  65
ATOM     65  C   UNL A   1      41.229  34.437  35.348  1.00  0.00    -0.014 A 
ATOM     66  C   UNL A   1      40.542  34.284  36.562  1.00  0.00     0.009 A 
ATOM     67  C   UNL A   1      42.022  35.581  35.157  1.00  0.00     0.009 A 
ATOM     68  C   UNL A   1      40.632  35.263  37.555  1.00  0.00     0.001 A 
ATOM     69  C   UNL A   1      42.134  36.543  36.163  1.00  0.00     0.001 A 
ATOM     70  C   UNL A   1      41.433  36.387  37.358  1.00  0.00     0.000 A 
ENDBRANCH  46  65
BRANCH  58  71
ATOM     71  C   UNL A   1      45.057  28.807  33.799  1.00  0.00    -0.014 A 
ATOM     72  C   UNL A   1      46.315  29.238  33.352  1.00  0.00     0.009 A 
ATOM     73  C   UNL A   1      44.990  27.885  34.856  1.00  0.00     0.009 A 
ATOM     74  C   UNL A   1      47.480  28.739  33.940  1.00  0.00     0.001 A 
ATOM     75  C   UNL A   1      46.155  27.412  35.461  1.00  0.00     0.001 A 
ATOM     76  C   UNL A   1      47.399  27.834  34.998  1.00  0.00     0.000 A 
ENDBRANCH  58  71
ENDBRANCH  32  33
ENDBRANCH  24  27
ENDBRANCH  22  23
ENDBRANCH  21  22
ENDBRANCH   1  21
TORSDOF 13
ENDMDL
