MODEL 1
REMARK VINA RESULT:     -12.9      0.000      0.000
REMARK SMILES Cc1ccccc1OC1(C(=O)NCCCNC(=O)c2ccc(-c3c4nc(c(-c5ccccc5)c5ccc([nH]5)c(-c5ccccc5)c5nc(c(-c6ccccc6)c6ccc3[nH]6)C=C5)C=C4)cc2)CCN(C(=O)[C@H]2CCCCO2)CC1
REMARK SMILES IDX 14 1 13 2 12 3 10 4 11 5 9 7 67 8 79 9 68 10 78 11 69 12
REMARK SMILES IDX 70 13 71 14 8 15 7 16 1 17 2 18 3 19 4 20 6 21 5 22 72 23
REMARK SMILES IDX 73 24 77 25 74 26 76 27 75 28 15 29 16 30 17 31 18 33 19 34
REMARK SMILES IDX 20 35 66 36 21 37 65 38 22 39 23 40 24 41 59 42 25 43 64 44
REMARK SMILES IDX 58 45 60 46 26 47 63 48 57 49 56 50 27 52 49 53 34 54 48 55
REMARK SMILES IDX 35 56 38 57 47 58 61 59 36 60 37 61 46 63 62 64 39 65 28 66
REMARK SMILES IDX 29 67 33 68 30 69 32 70 31 71 50 72 51 73 55 74 52 75 54 76
REMARK SMILES IDX 53 77 40 78 41 79 45 80 42 81 44 82 43 83
REMARK H PARENT 12 6 16 32 60 51 38 62
REMARK Flexibility Score: inf
ROOT
ATOM      1  C   UNL A   1      33.416  31.133  27.234  1.00  0.00     0.042 C 
ENDROOT
BRANCH   1   2
ATOM      2  C   UNL A   1      32.749  30.106  26.329  1.00  0.00     0.118 C 
BRANCH   2   3
ATOM      3  N   UNL A   1      33.461  29.872  25.082  1.00  0.00    -0.353 N 
ATOM      4  C   UNL A   1      33.354  28.955  24.070  1.00  0.00     0.264 C 
ATOM      5  O   UNL A   1      34.079  29.198  23.095  1.00  0.00    -0.270 OA
ATOM      6  H   UNL A   1      34.187  30.519  24.932  1.00  0.00     0.163 HD
BRANCH   4   7
ATOM      7  C   UNL A   1      32.430  27.668  24.115  1.00  0.00     0.190 C 
ATOM      8  C   UNL A   1      32.287  27.174  22.683  1.00  0.00     0.080 C 
ATOM      9  C   UNL A   1      32.938  26.730  25.206  1.00  0.00     0.080 C 
ATOM     10  C   UNL A   1      32.938  25.852  22.344  1.00  0.00     0.124 C 
ATOM     11  C   UNL A   1      33.526  25.396  24.771  1.00  0.00     0.124 C 
ATOM     12  N   UNL A   1      33.213  24.922  23.428  1.00  0.00    -0.340 N 
ATOM     13  C   UNL A   1      33.418  23.593  23.028  1.00  0.00     0.251 C 
ATOM     14  O   UNL A   1      33.453  23.300  21.828  1.00  0.00    -0.272 OA
BRANCH   7  15
ATOM     15  O   UNL A   1      31.151  28.230  24.543  1.00  0.00    -0.477 OA
BRANCH  15  16
ATOM     16  C   UNL A   1      30.013  28.560  23.866  1.00  0.00     0.123 A 
ATOM     17  C   UNL A   1      28.524  26.431  23.869  1.00  0.00     0.048 C 
ATOM     18  C   UNL A   1      28.842  27.851  23.549  1.00  0.00    -0.009 A 
ATOM     19  C   UNL A   1      27.826  28.482  22.786  1.00  0.00     0.007 A 
ATOM     20  C   UNL A   1      27.938  29.795  22.353  1.00  0.00     0.001 A 
ATOM     21  C   UNL A   1      30.100  29.889  23.405  1.00  0.00     0.047 A 
ATOM     22  C   UNL A   1      29.083  30.503  22.665  1.00  0.00     0.004 A 
ENDBRANCH  15  16
ENDBRANCH   7  15
BRANCH  13  23
ATOM     23  C   UNL A   1      33.523  22.505  24.121  1.00  0.00     0.207 C 
ATOM     24  C   UNL A   1      32.581  21.354  23.736  1.00  0.00     0.042 C 
ATOM     25  O   UNL A   1      34.881  22.060  24.187  1.00  0.00    -0.368 OA
ATOM     26  C   UNL A   1      32.807  20.111  24.585  1.00  0.00     0.006 C 
ATOM     27  C   UNL A   1      35.086  20.971  25.078  1.00  0.00     0.161 C 
ATOM     28  C   UNL A   1      34.286  19.763  24.624  1.00  0.00     0.029 C 
ENDBRANCH  13  23
ENDBRANCH   4   7
ENDBRANCH   2   3
ENDBRANCH   1   2
BRANCH   1  29
ATOM     29  C   UNL A   1      34.421  30.564  28.222  1.00  0.00     0.118 C 
BRANCH  29  30
ATOM     30  N   UNL A   1      35.478  31.500  28.610  1.00  0.00    -0.352 N 
ATOM     31  C   UNL A   1      36.834  31.237  28.784  1.00  0.00     0.251 C 
ATOM     32  H   UNL A   1      35.196  32.430  28.767  1.00  0.00     0.163 HD
ATOM     33  O   UNL A   1      37.629  32.118  29.039  1.00  0.00    -0.269 OA
BRANCH  31  34
ATOM     34  C   UNL A   1      37.294  29.856  28.507  1.00  0.00     0.039 A 
ATOM     35  C   UNL A   1      37.509  29.030  29.612  1.00  0.00     0.014 A 
ATOM     36  C   UNL A   1      37.855  29.566  27.267  1.00  0.00     0.014 A 
ATOM     37  C   UNL A   1      38.532  28.093  29.551  1.00  0.00     0.010 A 
ATOM     38  C   UNL A   1      38.944  28.718  27.239  1.00  0.00     0.010 A 
ATOM     39  C   UNL A   1      39.329  28.048  28.405  1.00  0.00    -0.014 A 
BRANCH  39  40
ATOM     40  C   UNL A   1      40.634  27.398  28.387  1.00  0.00     0.031 A 
ATOM     41  C   UNL A   1      40.708  25.939  28.198  1.00  0.00     0.074 A 
ATOM     42  C   UNL A   1      41.772  28.106  28.569  1.00  0.00     0.049 A 
ATOM     43  N   UNL A   1      41.594  25.180  28.748  1.00  0.00    -0.248 NA
ATOM     44  C   UNL A   1      39.727  25.214  27.402  1.00  0.00     0.031 C 
ATOM     45  C   UNL A   1      43.141  27.614  28.431  1.00  0.00     0.029 A 
ATOM     46  N   UNL A   1      41.925  29.365  29.152  1.00  0.00    -0.354 N 
ATOM     47  C   UNL A   1      41.494  23.948  28.145  1.00  0.00     0.074 A 
ATOM     48  C   UNL A   1      40.260  23.989  27.395  1.00  0.00     0.031 C 
ATOM     49  C   UNL A   1      43.946  28.374  29.190  1.00  0.00     0.029 A 
ATOM     50  C   UNL A   1      43.104  29.312  29.914  1.00  0.00     0.049 A 
ATOM     51  H   UNL A   1      41.324  30.138  29.049  1.00  0.00     0.167 HD
ATOM     52  C   UNL A   1      42.541  23.077  28.205  1.00  0.00     0.031 A 
ATOM     53  C   UNL A   1      43.153  29.557  31.255  1.00  0.00     0.031 A 
ATOM     54  C   UNL A   1      43.642  23.598  29.011  1.00  0.00     0.049 A 
ATOM     55  C   UNL A   1      43.676  28.379  32.051  1.00  0.00     0.074 A 
ATOM     56  C   UNL A   1      44.837  24.216  28.678  1.00  0.00     0.029 A 
ATOM     57  N   UNL A   1      43.460  23.803  30.372  1.00  0.00    -0.354 N 
ATOM     58  N   UNL A   1      43.816  27.181  31.556  1.00  0.00    -0.248 NA
ATOM     59  C   UNL A   1      44.016  28.433  33.471  1.00  0.00     0.031 C 
ATOM     60  C   UNL A   1      45.334  24.863  29.837  1.00  0.00     0.029 A 
ATOM     61  C   UNL A   1      44.458  24.613  30.878  1.00  0.00     0.049 A 
ATOM     62  H   UNL A   1      42.722  23.423  30.904  1.00  0.00     0.167 HD
ATOM     63  C   UNL A   1      44.245  26.323  32.533  1.00  0.00     0.074 A 
ATOM     64  C   UNL A   1      44.364  27.157  33.716  1.00  0.00     0.031 C 
ATOM     65  C   UNL A   1      44.457  24.999  32.283  1.00  0.00     0.031 A 
BRANCH  52  66
ATOM     66  C   UNL A   1      42.674  21.909  27.256  1.00  0.00    -0.014 A 
ATOM     67  C   UNL A   1      41.971  20.718  27.513  1.00  0.00     0.009 A 
ATOM     68  C   UNL A   1      43.521  21.893  26.134  1.00  0.00     0.009 A 
ATOM     69  C   UNL A   1      42.187  19.551  26.768  1.00  0.00     0.001 A 
ATOM     70  C   UNL A   1      43.779  20.718  25.413  1.00  0.00     0.001 A 
ATOM     71  C   UNL A   1      43.120  19.542  25.739  1.00  0.00     0.000 A 
ENDBRANCH  52  66
BRANCH  53  72
ATOM     72  C   UNL A   1      42.122  30.521  31.722  1.00  0.00    -0.014 A 
ATOM     73  C   UNL A   1      42.409  31.894  31.575  1.00  0.00     0.009 A 
ATOM     74  C   UNL A   1      40.786  30.125  31.866  1.00  0.00     0.009 A 
ATOM     75  C   UNL A   1      41.379  32.825  31.419  1.00  0.00     0.001 A 
ATOM     76  C   UNL A   1      39.759  31.066  31.722  1.00  0.00     0.001 A 
ATOM     77  C   UNL A   1      40.054  32.403  31.451  1.00  0.00     0.000 A 
ENDBRANCH  53  72
BRANCH  65  78
ATOM     78  C   UNL A   1      44.764  23.940  33.311  1.00  0.00    -0.014 A 
ATOM     79  C   UNL A   1      43.815  23.060  33.847  1.00  0.00     0.009 A 
ATOM     80  C   UNL A   1      46.112  23.721  33.677  1.00  0.00     0.009 A 
ATOM     81  C   UNL A   1      44.188  22.046  34.742  1.00  0.00     0.001 A 
ATOM     82  C   UNL A   1      46.493  22.686  34.532  1.00  0.00     0.001 A 
ATOM     83  C   UNL A   1      45.525  21.855  35.077  1.00  0.00     0.000 A 
ENDBRANCH  65  78
ENDBRANCH  39  40
ENDBRANCH  31  34
ENDBRANCH  29  30
ENDBRANCH   1  29
TORSDOF 13
ENDMDL
MODEL 2
REMARK VINA RESULT:     -12.9      3.986      7.700
REMARK SMILES Cc1ccccc1OC1(C(=O)NCCCNC(=O)c2ccc(-c3c4nc(c(-c5ccccc5)c5ccc([nH]5)c(-c5ccccc5)c5nc(c(-c6ccccc6)c6ccc3[nH]6)C=C5)C=C4)cc2)CCN(C(=O)[C@H]2CCCCO2)CC1
REMARK SMILES IDX 14 1 13 2 12 3 10 4 11 5 9 7 67 8 79 9 68 10 78 11 69 12
REMARK SMILES IDX 70 13 71 14 8 15 7 16 1 17 2 18 3 19 4 20 6 21 5 22 72 23
REMARK SMILES IDX 73 24 77 25 74 26 76 27 75 28 15 29 16 30 17 31 18 33 19 34
REMARK SMILES IDX 20 35 66 36 21 37 65 38 22 39 23 40 24 41 59 42 25 43 64 44
REMARK SMILES IDX 58 45 60 46 26 47 63 48 57 49 56 50 27 52 49 53 34 54 48 55
REMARK SMILES IDX 35 56 38 57 47 58 61 59 36 60 37 61 46 63 62 64 39 65 28 66
REMARK SMILES IDX 29 67 33 68 30 69 32 70 31 71 50 72 51 73 55 74 52 75 54 76
REMARK SMILES IDX 53 77 40 78 41 79 45 80 42 81 44 82 43 83
REMARK H PARENT 12 6 16 32 60 51 38 62
REMARK Flexibility Score: inf
ROOT
ATOM      1  C   UNL A   1      38.470  23.934  26.196  1.00  0.00     0.042 C 
ENDROOT
BRANCH   1   2
ATOM      2  C   UNL A   1      37.142  23.386  25.692  1.00  0.00     0.118 C 
BRANCH   2   3
ATOM      3  N   UNL A   1      36.182  23.111  26.751  1.00  0.00    -0.353 N 
ATOM      4  C   UNL A   1      34.827  22.912  26.794  1.00  0.00     0.264 C 
ATOM      5  O   UNL A   1      34.407  22.554  27.904  1.00  0.00    -0.270 OA
ATOM      6  H   UNL A   1      36.602  23.054  27.639  1.00  0.00     0.163 HD
BRANCH   4   7
ATOM      7  C   UNL A   1      33.844  23.146  25.573  1.00  0.00     0.190 C 
ATOM      8  C   UNL A   1      32.441  22.824  26.065  1.00  0.00     0.080 C 
ATOM      9  C   UNL A   1      34.146  24.502  24.943  1.00  0.00     0.080 C 
ATOM     10  C   UNL A   1      31.471  23.979  26.179  1.00  0.00     0.124 C 
ATOM     11  C   UNL A   1      33.086  25.586  25.060  1.00  0.00     0.124 C 
ATOM     12  N   UNL A   1      31.727  25.172  25.389  1.00  0.00    -0.340 N 
ATOM     13  C   UNL A   1      30.617  26.013  25.212  1.00  0.00     0.251 C 
ATOM     14  O   UNL A   1      29.551  25.768  25.786  1.00  0.00    -0.272 OA
BRANCH   7  15
ATOM     15  O   UNL A   1      34.262  22.098  24.645  1.00  0.00    -0.477 OA
BRANCH  15  16
ATOM     16  C   UNL A   1      33.658  20.956  24.205  1.00  0.00     0.123 A 
ATOM     17  C   UNL A   1      31.861  21.703  22.484  1.00  0.00     0.048 C 
ATOM     18  C   UNL A   1      32.634  20.705  23.275  1.00  0.00    -0.009 A 
ATOM     19  C   UNL A   1      32.197  19.373  23.058  1.00  0.00     0.007 A 
ATOM     20  C   UNL A   1      32.762  18.295  23.721  1.00  0.00     0.001 A 
ATOM     21  C   UNL A   1      34.205  19.839  24.870  1.00  0.00     0.047 A 
ATOM     22  C   UNL A   1      33.772  18.529  24.634  1.00  0.00     0.004 A 
ENDBRANCH  15  16
ENDBRANCH   7  15
BRANCH  13  23
ATOM     23  C   UNL A   1      30.743  27.199  24.229  1.00  0.00     0.207 C 
ATOM     24  C   UNL A   1      29.405  27.345  23.488  1.00  0.00     0.042 C 
ATOM     25  O   UNL A   1      31.048  28.378  24.980  1.00  0.00    -0.368 OA
ATOM     26  C   UNL A   1      29.316  28.645  22.702  1.00  0.00     0.006 C 
ATOM     27  C   UNL A   1      31.074  29.566  24.199  1.00  0.00     0.161 C 
ATOM     28  C   UNL A   1      29.709  29.820  23.584  1.00  0.00     0.029 C 
ENDBRANCH  13  23
ENDBRANCH   4   7
ENDBRANCH   2   3
ENDBRANCH   1   2
BRANCH   1  29
ATOM     29  C   UNL A   1      39.349  22.926  26.917  1.00  0.00     0.118 C 
BRANCH  29  30
ATOM     30  N   UNL A   1      40.390  22.327  26.077  1.00  0.00    -0.352 N 
ATOM     31  C   UNL A   1      41.770  22.457  26.200  1.00  0.00     0.251 C 
ATOM     32  H   UNL A   1      40.074  21.762  25.335  1.00  0.00     0.163 HD
ATOM     33  O   UNL A   1      42.536  21.849  25.481  1.00  0.00    -0.269 OA
BRANCH  31  34
ATOM     34  C   UNL A   1      42.273  23.261  27.338  1.00  0.00     0.039 A 
ATOM     35  C   UNL A   1      42.193  24.650  27.212  1.00  0.00     0.014 A 
ATOM     36  C   UNL A   1      43.129  22.667  28.260  1.00  0.00     0.014 A 
ATOM     37  C   UNL A   1      43.190  25.427  27.787  1.00  0.00     0.010 A 
ATOM     38  C   UNL A   1      44.181  23.422  28.736  1.00  0.00     0.010 A 
ATOM     39  C   UNL A   1      44.252  24.785  28.427  1.00  0.00    -0.014 A 
BRANCH  39  40
ATOM     40  C   UNL A   1      45.513  25.458  28.714  1.00  0.00     0.031 A 
ATOM     41  C   UNL A   1      46.691  25.162  27.882  1.00  0.00     0.074 A 
ATOM     42  C   UNL A   1      45.625  26.326  29.745  1.00  0.00     0.049 A 
ATOM     43  N   UNL A   1      47.904  25.140  28.322  1.00  0.00    -0.248 NA
ATOM     44  C   UNL A   1      46.572  24.805  26.474  1.00  0.00     0.031 C 
ATOM     45  C   UNL A   1      46.773  27.174  30.055  1.00  0.00     0.029 A 
ATOM     46  N   UNL A   1      44.806  26.446  30.869  1.00  0.00    -0.354 N 
ATOM     47  C   UNL A   1      48.727  25.078  27.222  1.00  0.00     0.074 A 
ATOM     48  C   UNL A   1      47.857  24.769  26.111  1.00  0.00     0.031 C 
ATOM     49  C   UNL A   1      46.758  27.450  31.369  1.00  0.00     0.029 A 
ATOM     50  C   UNL A   1      45.657  26.706  31.957  1.00  0.00     0.049 A 
ATOM     51  H   UNL A   1      43.826  26.363  30.895  1.00  0.00     0.167 HD
ATOM     52  C   UNL A   1      50.032  25.455  27.330  1.00  0.00     0.031 A 
ATOM     53  C   UNL A   1      45.728  25.920  33.069  1.00  0.00     0.031 A 
ATOM     54  C   UNL A   1      50.385  25.820  28.700  1.00  0.00     0.049 A 
ATOM     55  C   UNL A   1      47.114  25.355  33.303  1.00  0.00     0.074 A 
ATOM     56  C   UNL A   1      50.510  27.042  29.343  1.00  0.00     0.029 A 
ATOM     57  N   UNL A   1      50.362  24.853  29.696  1.00  0.00    -0.354 N 
ATOM     58  N   UNL A   1      48.066  25.392  32.413  1.00  0.00    -0.248 NA
ATOM     59  C   UNL A   1      47.519  24.649  34.516  1.00  0.00     0.031 C 
ATOM     60  C   UNL A   1      50.482  26.807  30.741  1.00  0.00     0.029 A 
ATOM     61  C   UNL A   1      50.370  25.443  30.945  1.00  0.00     0.049 A 
ATOM     62  H   UNL A   1      50.343  23.880  29.536  1.00  0.00     0.167 HD
ATOM     63  C   UNL A   1      49.174  24.746  32.893  1.00  0.00     0.074 A 
ATOM     64  C   UNL A   1      48.786  24.303  34.220  1.00  0.00     0.031 C 
ATOM     65  C   UNL A   1      50.313  24.627  32.150  1.00  0.00     0.031 A 
BRANCH  52  66
ATOM     66  C   UNL A   1      50.875  25.802  26.126  1.00  0.00    -0.014 A 
ATOM     67  C   UNL A   1      52.078  25.110  25.895  1.00  0.00     0.009 A 
ATOM     68  C   UNL A   1      50.577  26.836  25.221  1.00  0.00     0.009 A 
ATOM     69  C   UNL A   1      52.980  25.501  24.896  1.00  0.00     0.001 A 
ATOM     70  C   UNL A   1      51.494  27.265  24.251  1.00  0.00     0.001 A 
ATOM     71  C   UNL A   1      52.704  26.603  24.097  1.00  0.00     0.000 A 
ENDBRANCH  52  66
BRANCH  53  72
ATOM     72  C   UNL A   1      44.452  25.230  33.394  1.00  0.00    -0.014 A 
ATOM     73  C   UNL A   1      44.365  23.856  33.087  1.00  0.00     0.009 A 
ATOM     74  C   UNL A   1      43.573  25.765  34.345  1.00  0.00     0.009 A 
ATOM     75  C   UNL A   1      43.530  23.013  33.824  1.00  0.00     0.001 A 
ATOM     76  C   UNL A   1      42.729  24.914  35.071  1.00  0.00     0.001 A 
ATOM     77  C   UNL A   1      42.743  23.538  34.844  1.00  0.00     0.000 A 
ENDBRANCH  53  72
BRANCH  65  78
ATOM     78  C   UNL A   1      51.522  23.800  32.507  1.00  0.00    -0.014 A 
ATOM     79  C   UNL A   1      51.489  22.426  32.776  1.00  0.00     0.009 A 
ATOM     80  C   UNL A   1      52.799  24.406  32.449  1.00  0.00     0.009 A 
ATOM     81  C   UNL A   1      52.667  21.705  33.023  1.00  0.00     0.001 A 
ATOM     82  C   UNL A   1      53.976  23.684  32.652  1.00  0.00     0.001 A 
ATOM     83  C   UNL A   1      53.908  22.332  32.953  1.00  0.00     0.000 A 
ENDBRANCH  65  78
ENDBRANCH  39  40
ENDBRANCH  31  34
ENDBRANCH  29  30
ENDBRANCH   1  29
TORSDOF 13
ENDMDL
MODEL 3
REMARK VINA RESULT:     -12.8      2.768      8.504
REMARK SMILES Cc1ccccc1OC1(C(=O)NCCCNC(=O)c2ccc(-c3c4nc(c(-c5ccccc5)c5ccc([nH]5)c(-c5ccccc5)c5nc(c(-c6ccccc6)c6ccc3[nH]6)C=C5)C=C4)cc2)CCN(C(=O)[C@H]2CCCCO2)CC1
REMARK SMILES IDX 14 1 13 2 12 3 10 4 11 5 9 7 67 8 79 9 68 10 78 11 69 12
REMARK SMILES IDX 70 13 71 14 8 15 7 16 1 17 2 18 3 19 4 20 6 21 5 22 72 23
REMARK SMILES IDX 73 24 77 25 74 26 76 27 75 28 15 29 16 30 17 31 18 33 19 34
REMARK SMILES IDX 20 35 66 36 21 37 65 38 22 39 23 40 24 41 59 42 25 43 64 44
REMARK SMILES IDX 58 45 60 46 26 47 63 48 57 49 56 50 27 52 49 53 34 54 48 55
REMARK SMILES IDX 35 56 38 57 47 58 61 59 36 60 37 61 46 63 62 64 39 65 28 66
REMARK SMILES IDX 29 67 33 68 30 69 32 70 31 71 50 72 51 73 55 74 52 75 54 76
REMARK SMILES IDX 53 77 40 78 41 79 45 80 42 81 44 82 43 83
REMARK H PARENT 12 6 16 32 60 51 38 62
REMARK Flexibility Score: inf
ROOT
ATOM      1  C   UNL A   1      38.969  22.758  26.278  1.00  0.00     0.042 C 
ENDROOT
BRANCH   1   2
ATOM      2  C   UNL A   1      37.811  21.928  25.740  1.00  0.00     0.118 C 
BRANCH   2   3
ATOM      3  N   UNL A   1      37.486  22.208  24.349  1.00  0.00    -0.353 N 
ATOM      4  C   UNL A   1      36.409  22.757  23.705  1.00  0.00     0.264 C 
ATOM      5  O   UNL A   1      36.595  22.953  22.496  1.00  0.00    -0.270 OA
ATOM      6  H   UNL A   1      38.203  21.941  23.731  1.00  0.00     0.163 HD
BRANCH   4   7
ATOM      7  C   UNL A   1      35.021  23.091  24.394  1.00  0.00     0.190 C 
ATOM      8  C   UNL A   1      35.274  24.227  25.374  1.00  0.00     0.080 C 
ATOM      9  C   UNL A   1      33.951  23.229  23.316  1.00  0.00     0.080 C 
ATOM     10  C   UNL A   1      34.653  25.566  25.048  1.00  0.00     0.124 C 
ATOM     11  C   UNL A   1      33.343  24.606  23.098  1.00  0.00     0.124 C 
ATOM     12  N   UNL A   1      33.503  25.593  24.159  1.00  0.00    -0.340 N 
ATOM     13  C   UNL A   1      32.734  26.766  24.224  1.00  0.00     0.251 C 
ATOM     14  O   UNL A   1      33.101  27.715  24.923  1.00  0.00    -0.272 OA
BRANCH   7  15
ATOM     15  O   UNL A   1      34.761  21.870  25.154  1.00  0.00    -0.477 OA
BRANCH  15  16
ATOM     16  C   UNL A   1      34.024  20.753  24.887  1.00  0.00     0.123 A 
ATOM     17  C   UNL A   1      31.534  21.454  25.127  1.00  0.00     0.048 C 
ATOM     18  C   UNL A   1      32.642  20.499  24.843  1.00  0.00    -0.009 A 
ATOM     19  C   UNL A   1      32.180  19.189  24.557  1.00  0.00     0.007 A 
ATOM     20  C   UNL A   1      33.049  18.141  24.297  1.00  0.00     0.001 A 
ATOM     21  C   UNL A   1      34.882  19.665  24.627  1.00  0.00     0.047 A 
ATOM     22  C   UNL A   1      34.410  18.381  24.332  1.00  0.00     0.004 A 
ENDBRANCH  15  16
ENDBRANCH   7  15
BRANCH  13  23
ATOM     23  C   UNL A   1      31.390  26.805  23.461  1.00  0.00     0.207 C 
ATOM     24  C   UNL A   1      30.281  26.371  24.432  1.00  0.00     0.042 C 
ATOM     25  O   UNL A   1      31.173  28.140  22.994  1.00  0.00    -0.368 OA
ATOM     26  C   UNL A   1      28.889  26.637  23.880  1.00  0.00     0.006 C 
ATOM     27  C   UNL A   1      29.908  28.334  22.376  1.00  0.00     0.161 C 
ATOM     28  C   UNL A   1      28.790  28.066  23.369  1.00  0.00     0.029 C 
ENDBRANCH  13  23
ENDBRANCH   4   7
ENDBRANCH   2   3
ENDBRANCH   1   2
BRANCH   1  29
ATOM     29  C   UNL A   1      40.033  21.970  27.024  1.00  0.00     0.118 C 
BRANCH  29  30
ATOM     30  N   UNL A   1      40.796  21.045  26.181  1.00  0.00    -0.352 N 
ATOM     31  C   UNL A   1      42.178  20.937  26.062  1.00  0.00     0.251 C 
ATOM     32  H   UNL A   1      40.265  20.422  25.633  1.00  0.00     0.163 HD
ATOM     33  O   UNL A   1      42.695  20.076  25.380  1.00  0.00    -0.269 OA
BRANCH  31  34
ATOM     34  C   UNL A   1      43.001  21.829  26.911  1.00  0.00     0.039 A 
ATOM     35  C   UNL A   1      42.799  21.747  28.291  1.00  0.00     0.014 A 
ATOM     36  C   UNL A   1      43.613  22.937  26.334  1.00  0.00     0.014 A 
ATOM     37  C   UNL A   1      42.927  22.904  29.049  1.00  0.00     0.010 A 
ATOM     38  C   UNL A   1      43.631  24.110  27.061  1.00  0.00     0.010 A 
ATOM     39  C   UNL A   1      43.208  24.104  28.394  1.00  0.00    -0.014 A 
BRANCH  39  40
ATOM     40  C   UNL A   1      42.983  25.404  29.017  1.00  0.00     0.031 A 
ATOM     41  C   UNL A   1      41.800  26.192  28.628  1.00  0.00     0.074 A 
ATOM     42  C   UNL A   1      43.853  25.908  29.920  1.00  0.00     0.049 A 
ATOM     43  N   UNL A   1      41.776  27.480  28.565  1.00  0.00    -0.248 NA
ATOM     44  C   UNL A   1      40.553  25.560  28.218  1.00  0.00     0.031 C 
ATOM     45  C   UNL A   1      43.680  27.116  30.723  1.00  0.00     0.029 A 
ATOM     46  N   UNL A   1      45.187  25.556  30.128  1.00  0.00    -0.354 N 
ATOM     47  C   UNL A   1      40.459  27.848  28.416  1.00  0.00     0.074 A 
ATOM     48  C   UNL A   1      39.755  26.625  28.103  1.00  0.00     0.031 C 
ATOM     49  C   UNL A   1      44.894  27.586  31.054  1.00  0.00     0.029 A 
ATOM     50  C   UNL A   1      45.880  26.750  30.391  1.00  0.00     0.049 A 
ATOM     51  H   UNL A   1      45.569  24.649  30.094  1.00  0.00     0.167 HD
ATOM     52  C   UNL A   1      40.069  29.115  28.733  1.00  0.00     0.031 A 
ATOM     53  C   UNL A   1      46.935  27.195  29.650  1.00  0.00     0.031 A 
ATOM     54  C   UNL A   1      41.196  29.950  29.137  1.00  0.00     0.049 A 
ATOM     55  C   UNL A   1      46.686  28.553  29.027  1.00  0.00     0.074 A 
ATOM     56  C   UNL A   1      41.681  30.336  30.377  1.00  0.00     0.029 A 
ATOM     57  N   UNL A   1      42.188  30.259  28.215  1.00  0.00    -0.354 N 
ATOM     58  N   UNL A   1      45.513  29.119  28.980  1.00  0.00    -0.248 NA
ATOM     59  C   UNL A   1      47.711  29.348  28.354  1.00  0.00     0.031 C 
ATOM     60  C   UNL A   1      43.006  30.809  30.203  1.00  0.00     0.029 A 
ATOM     61  C   UNL A   1      43.314  30.737  28.856  1.00  0.00     0.049 A 
ATOM     62  H   UNL A   1      42.100  30.153  27.239  1.00  0.00     0.167 HD
ATOM     63  C   UNL A   1      45.598  30.306  28.302  1.00  0.00     0.074 A 
ATOM     64  C   UNL A   1      46.999  30.410  27.934  1.00  0.00     0.031 C 
ATOM     65  C   UNL A   1      44.503  31.094  28.095  1.00  0.00     0.031 A 
BRANCH  52  66
ATOM     66  C   UNL A   1      38.624  29.474  28.987  1.00  0.00    -0.014 A 
ATOM     67  C   UNL A   1      38.049  29.206  30.242  1.00  0.00     0.009 A 
ATOM     68  C   UNL A   1      37.760  30.016  28.019  1.00  0.00     0.009 A 
ATOM     69  C   UNL A   1      36.676  29.359  30.480  1.00  0.00     0.001 A 
ATOM     70  C   UNL A   1      36.379  30.127  28.231  1.00  0.00     0.001 A 
ATOM     71  C   UNL A   1      35.835  29.786  29.461  1.00  0.00     0.000 A 
ENDBRANCH  52  66
BRANCH  53  72
ATOM     72  C   UNL A   1      47.736  26.102  29.038  1.00  0.00    -0.014 A 
ATOM     73  C   UNL A   1      47.433  25.747  27.707  1.00  0.00     0.009 A 
ATOM     74  C   UNL A   1      48.992  25.760  29.557  1.00  0.00     0.009 A 
ATOM     75  C   UNL A   1      48.415  25.208  26.872  1.00  0.00     0.001 A 
ATOM     76  C   UNL A   1      49.966  25.206  28.717  1.00  0.00     0.001 A 
ATOM     77  C   UNL A   1      49.693  24.976  27.368  1.00  0.00     0.000 A 
ENDBRANCH  53  72
BRANCH  65  78
ATOM     78  C   UNL A   1      44.448  32.325  27.226  1.00  0.00    -0.014 A 
ATOM     79  C   UNL A   1      44.290  32.303  25.834  1.00  0.00     0.009 A 
ATOM     80  C   UNL A   1      44.426  33.594  27.848  1.00  0.00     0.009 A 
ATOM     81  C   UNL A   1      44.167  33.491  25.098  1.00  0.00     0.001 A 
ATOM     82  C   UNL A   1      44.260  34.776  27.125  1.00  0.00     0.001 A 
ATOM     83  C   UNL A   1      44.143  34.724  25.743  1.00  0.00     0.000 A 
ENDBRANCH  65  78
ENDBRANCH  39  40
ENDBRANCH  31  34
ENDBRANCH  29  30
ENDBRANCH   1  29
TORSDOF 13
ENDMDL
