MODEL 1
REMARK VINA RESULT:     -12.0      0.000      0.000
REMARK SMILES Cc1ccc(C[C@@H](Cc2cc(F)cc(Br)c2)C(=O)NCCCNC(=O)c2ccc(-c3c4nc(c(-c5ccccc5)c5ccc([nH]5)c(-c5ccccc5)c5nc(c(-c6ccccc6)c6ccc3[nH]6)C=C5)C=C4)cc2)cc1
REMARK SMILES IDX 21 1 20 2 19 3 17 4 18 5 7 7 6 8 5 9 1 10 2 11 3 12 75 13
REMARK SMILES IDX 4 14 74 15 8 16 9 17 10 18 16 19 11 20 14 21 12 22 13 23
REMARK SMILES IDX 15 24 22 25 23 26 24 27 25 29 26 30 27 31 73 32 28 33 72 34
REMARK SMILES IDX 29 35 30 36 31 37 66 38 32 39 71 40 65 41 67 42 33 43 70 44
REMARK SMILES IDX 64 45 63 46 34 48 56 49 41 50 55 51 42 52 45 53 54 54 68 55
REMARK SMILES IDX 43 56 44 57 53 59 69 60 46 61 35 62 36 63 40 64 37 65 39 66
REMARK SMILES IDX 38 67 57 68 58 69 62 70 59 71 61 72 60 73 47 74 48 75 52 76
REMARK SMILES IDX 49 77 51 78 50 79
REMARK H PARENT 19 6 23 28 67 47 45 58
REMARK Flexibility Score: inf
ROOT
ATOM      1  C   UNL A   1      37.689  21.136  24.951  1.00  0.00     0.042 C 
ENDROOT
BRANCH   1   2
ATOM      2  C   UNL A   1      36.177  21.198  24.780  1.00  0.00     0.117 C 
BRANCH   2   3
ATOM      3  N   UNL A   1      35.476  21.061  26.050  1.00  0.00    -0.356 N 
ATOM      4  C   UNL A   1      34.394  21.738  26.535  1.00  0.00     0.223 C 
ATOM      5  O   UNL A   1      33.949  21.401  27.636  1.00  0.00    -0.275 OA
ATOM      6  H   UNL A   1      35.840  20.373  26.653  1.00  0.00     0.163 HD
BRANCH   4   7
ATOM      7  C   UNL A   1      33.754  22.891  25.765  1.00  0.00     0.087 C 
BRANCH   7   8
ATOM      8  C   UNL A   1      32.246  22.856  26.116  1.00  0.00     0.049 C 
BRANCH   8   9
ATOM      9  C   UNL A   1      31.291  23.852  25.512  1.00  0.00    -0.047 A 
ATOM     10  C   UNL A   1      29.001  26.991  23.623  1.00  0.00     0.044 C 
ATOM     11  C   UNL A   1      29.790  25.906  24.291  1.00  0.00    -0.051 A 
ATOM     12  C   UNL A   1      30.237  24.815  23.542  1.00  0.00     0.004 A 
ATOM     13  C   UNL A   1      30.080  25.955  25.658  1.00  0.00     0.004 A 
ATOM     14  C   UNL A   1      30.994  23.809  24.143  1.00  0.00     0.004 A 
ATOM     15  C   UNL A   1      30.820  24.935  26.264  1.00  0.00     0.004 A 
ENDBRANCH   8   9
ENDBRANCH   7   8
BRANCH   7  16
ATOM     16  C   UNL A   1      34.483  24.262  25.867  1.00  0.00     0.049 C 
BRANCH  16  17
ATOM     17  C   UNL A   1      34.121  25.422  24.950  1.00  0.00    -0.043 A 
ATOM     18  C   UNL A   1      34.041  25.192  23.564  1.00  0.00     0.043 A 
ATOM     19  C   UNL A   1      33.836  26.714  25.418  1.00  0.00     0.019 A 
ATOM     20  C   UNL A   1      33.593  26.192  22.703  1.00  0.00     0.124 A 
ATOM     21  C   UNL A   1      33.349  27.694  24.543  1.00  0.00     0.021 A 
ATOM     22  F   UNL A   1      33.488  25.931  21.394  1.00  0.00    -0.207 F 
ATOM     23  C   UNL A   1      33.220  27.437  23.183  1.00  0.00     0.055 A 
ATOM     24  Br  UNL A   1      32.792  29.367  25.226  1.00  0.00    -0.051 Br
ENDBRANCH  16  17
ENDBRANCH   7  16
ENDBRANCH   4   7
ENDBRANCH   2   3
ENDBRANCH   1   2
BRANCH   1  25
ATOM     25  C   UNL A   1      38.223  22.320  25.730  1.00  0.00     0.118 C 
BRANCH  25  26
ATOM     26  N   UNL A   1      39.644  22.241  26.038  1.00  0.00    -0.352 N 
ATOM     27  C   UNL A   1      40.514  23.237  26.454  1.00  0.00     0.251 C 
ATOM     28  H   UNL A   1      40.046  21.348  25.936  1.00  0.00     0.163 HD
ATOM     29  O   UNL A   1      41.696  22.993  26.584  1.00  0.00    -0.269 OA
BRANCH  27  30
ATOM     30  C   UNL A   1      39.964  24.551  26.891  1.00  0.00     0.039 A 
ATOM     31  C   UNL A   1      40.433  25.689  26.227  1.00  0.00     0.014 A 
ATOM     32  C   UNL A   1      39.239  24.683  28.069  1.00  0.00     0.014 A 
ATOM     33  C   UNL A   1      40.428  26.912  26.891  1.00  0.00     0.010 A 
ATOM     34  C   UNL A   1      39.347  25.857  28.783  1.00  0.00     0.010 A 
ATOM     35  C   UNL A   1      40.005  26.950  28.217  1.00  0.00    -0.014 A 
BRANCH  35  36
ATOM     36  C   UNL A   1      40.313  28.051  29.117  1.00  0.00     0.031 A 
ATOM     37  C   UNL A   1      39.297  29.079  29.398  1.00  0.00     0.074 A 
ATOM     38  C   UNL A   1      41.531  28.134  29.694  1.00  0.00     0.049 A 
ATOM     39  N   UNL A   1      39.580  30.313  29.649  1.00  0.00    -0.248 NA
ATOM     40  C   UNL A   1      37.865  28.805  29.363  1.00  0.00     0.031 C 
ATOM     41  C   UNL A   1      41.949  29.034  30.765  1.00  0.00     0.029 A 
ATOM     42  N   UNL A   1      42.711  27.540  29.278  1.00  0.00    -0.354 N 
ATOM     43  C   UNL A   1      38.423  30.913  30.082  1.00  0.00     0.074 A 
ATOM     44  C   UNL A   1      37.369  29.963  29.807  1.00  0.00     0.031 C 
ATOM     45  C   UNL A   1      43.291  29.110  30.770  1.00  0.00     0.029 A 
ATOM     46  C   UNL A   1      43.779  28.375  29.614  1.00  0.00     0.049 A 
ATOM     47  H   UNL A   1      42.786  26.671  28.820  1.00  0.00     0.167 HD
ATOM     48  C   UNL A   1      38.483  32.085  30.770  1.00  0.00     0.031 A 
ATOM     49  C   UNL A   1      44.596  28.897  28.652  1.00  0.00     0.031 A 
ATOM     50  C   UNL A   1      39.856  32.548  30.942  1.00  0.00     0.049 A 
ATOM     51  C   UNL A   1      44.536  30.408  28.564  1.00  0.00     0.074 A 
ATOM     52  C   UNL A   1      40.749  32.442  31.997  1.00  0.00     0.029 A 
ATOM     53  N   UNL A   1      40.598  32.932  29.833  1.00  0.00    -0.354 N 
ATOM     54  N   UNL A   1      43.575  31.133  29.064  1.00  0.00    -0.248 NA
ATOM     55  C   UNL A   1      45.536  31.215  27.869  1.00  0.00     0.031 C 
ATOM     56  C   UNL A   1      42.047  32.722  31.503  1.00  0.00     0.029 A 
ATOM     57  C   UNL A   1      41.939  33.024  30.157  1.00  0.00     0.049 A 
ATOM     58  H   UNL A   1      40.222  33.115  28.941  1.00  0.00     0.167 HD
ATOM     59  C   UNL A   1      43.795  32.455  28.772  1.00  0.00     0.074 A 
ATOM     60  C   UNL A   1      45.042  32.456  28.032  1.00  0.00     0.031 C 
ATOM     61  C   UNL A   1      42.918  33.430  29.158  1.00  0.00     0.031 A 
BRANCH  48  62
ATOM     62  C   UNL A   1      37.313  32.618  31.554  1.00  0.00    -0.014 A 
ATOM     63  C   UNL A   1      37.189  32.306  32.919  1.00  0.00     0.009 A 
ATOM     64  C   UNL A   1      36.280  33.388  30.994  1.00  0.00     0.009 A 
ATOM     65  C   UNL A   1      36.050  32.647  33.657  1.00  0.00     0.001 A 
ATOM     66  C   UNL A   1      35.116  33.696  31.713  1.00  0.00     0.001 A 
ATOM     67  C   UNL A   1      34.997  33.314  33.043  1.00  0.00     0.000 A 
ENDBRANCH  48  62
BRANCH  49  68
ATOM     68  C   UNL A   1      44.795  27.998  27.480  1.00  0.00    -0.014 A 
ATOM     69  C   UNL A   1      45.484  26.785  27.676  1.00  0.00     0.009 A 
ATOM     70  C   UNL A   1      44.024  28.151  26.320  1.00  0.00     0.009 A 
ATOM     71  C   UNL A   1      45.314  25.714  26.793  1.00  0.00     0.001 A 
ATOM     72  C   UNL A   1      43.864  27.077  25.433  1.00  0.00     0.001 A 
ATOM     73  C   UNL A   1      44.478  25.852  25.688  1.00  0.00     0.000 A 
ENDBRANCH  49  68
BRANCH  61  74
ATOM     74  C   UNL A   1      42.916  34.876  28.714  1.00  0.00    -0.014 A 
ATOM     75  C   UNL A   1      43.093  35.974  29.564  1.00  0.00     0.009 A 
ATOM     76  C   UNL A   1      42.852  35.161  27.328  1.00  0.00     0.009 A 
ATOM     77  C   UNL A   1      43.165  37.283  29.063  1.00  0.00     0.001 A 
ATOM     78  C   UNL A   1      42.972  36.457  26.821  1.00  0.00     0.001 A 
ATOM     79  C   UNL A   1      43.117  37.523  27.694  1.00  0.00     0.000 A 
ENDBRANCH  61  74
ENDBRANCH  35  36
ENDBRANCH  27  30
ENDBRANCH  25  26
ENDBRANCH   1  25
TORSDOF 14
ENDMDL
MODEL 2
REMARK VINA RESULT:     -11.8      3.756      8.497
REMARK SMILES Cc1ccc(C[C@@H](Cc2cc(F)cc(Br)c2)C(=O)NCCCNC(=O)c2ccc(-c3c4nc(c(-c5ccccc5)c5ccc([nH]5)c(-c5ccccc5)c5nc(c(-c6ccccc6)c6ccc3[nH]6)C=C5)C=C4)cc2)cc1
REMARK SMILES IDX 21 1 20 2 19 3 17 4 18 5 7 7 6 8 5 9 1 10 2 11 3 12 75 13
REMARK SMILES IDX 4 14 74 15 8 16 9 17 10 18 16 19 11 20 14 21 12 22 13 23
REMARK SMILES IDX 15 24 22 25 23 26 24 27 25 29 26 30 27 31 73 32 28 33 72 34
REMARK SMILES IDX 29 35 30 36 31 37 66 38 32 39 71 40 65 41 67 42 33 43 70 44
REMARK SMILES IDX 64 45 63 46 34 48 56 49 41 50 55 51 42 52 45 53 54 54 68 55
REMARK SMILES IDX 43 56 44 57 53 59 69 60 46 61 35 62 36 63 40 64 37 65 39 66
REMARK SMILES IDX 38 67 57 68 58 69 62 70 59 71 61 72 60 73 47 74 48 75 52 76
REMARK SMILES IDX 49 77 51 78 50 79
REMARK H PARENT 19 6 23 28 67 47 45 58
REMARK Flexibility Score: inf
ROOT
ATOM      1  C   UNL A   1      33.044  30.676  26.401  1.00  0.00     0.042 C 
ENDROOT
BRANCH   1   2
ATOM      2  C   UNL A   1      31.856  29.814  25.999  1.00  0.00     0.117 C 
BRANCH   2   3
ATOM      3  N   UNL A   1      31.572  29.903  24.573  1.00  0.00    -0.356 N 
ATOM      4  C   UNL A   1      31.520  28.923  23.623  1.00  0.00     0.223 C 
ATOM      5  O   UNL A   1      31.208  29.249  22.474  1.00  0.00    -0.275 OA
ATOM      6  H   UNL A   1      31.389  30.812  24.241  1.00  0.00     0.163 HD
BRANCH   4   7
ATOM      7  C   UNL A   1      31.855  27.469  23.948  1.00  0.00     0.087 C 
BRANCH   7   8
ATOM      8  C   UNL A   1      31.626  26.674  22.638  1.00  0.00     0.049 C 
BRANCH   8   9
ATOM      9  C   UNL A   1      31.744  25.172  22.618  1.00  0.00    -0.047 A 
ATOM     10  C   UNL A   1      32.353  20.916  23.039  1.00  0.00     0.044 C 
ATOM     11  C   UNL A   1      32.150  22.392  22.881  1.00  0.00    -0.051 A 
ATOM     12  C   UNL A   1      31.035  23.003  23.460  1.00  0.00     0.004 A 
ATOM     13  C   UNL A   1      33.051  23.175  22.153  1.00  0.00     0.004 A 
ATOM     14  C   UNL A   1      30.845  24.380  23.344  1.00  0.00     0.004 A 
ATOM     15  C   UNL A   1      32.848  24.553  22.018  1.00  0.00     0.004 A 
ENDBRANCH   8   9
ENDBRANCH   7   8
BRANCH   7  16
ATOM     16  C   UNL A   1      33.194  27.233  24.704  1.00  0.00     0.049 C 
BRANCH  16  17
ATOM     17  C   UNL A   1      33.556  25.867  25.269  1.00  0.00    -0.043 A 
ATOM     18  C   UNL A   1      32.674  25.253  26.178  1.00  0.00     0.043 A 
ATOM     19  C   UNL A   1      34.718  25.169  24.911  1.00  0.00     0.019 A 
ATOM     20  C   UNL A   1      32.905  23.953  26.623  1.00  0.00     0.124 A 
ATOM     21  C   UNL A   1      34.912  23.848  25.336  1.00  0.00     0.021 A 
ATOM     22  F   UNL A   1      32.026  23.381  27.456  1.00  0.00    -0.207 F 
ATOM     23  C   UNL A   1      34.005  23.232  26.190  1.00  0.00     0.055 A 
ATOM     24  Br  UNL A   1      36.390  22.861  24.688  1.00  0.00    -0.051 Br
ENDBRANCH  16  17
ENDBRANCH   7  16
ENDBRANCH   4   7
ENDBRANCH   2   3
ENDBRANCH   1   2
BRANCH   1  25
ATOM     25  C   UNL A   1      33.627  30.258  27.735  1.00  0.00     0.118 C 
BRANCH  25  26
ATOM     26  N   UNL A   1      34.343  31.316  28.433  1.00  0.00    -0.352 N 
ATOM     27  C   UNL A   1      35.595  31.290  29.029  1.00  0.00     0.251 C 
ATOM     28  H   UNL A   1      33.868  32.176  28.491  1.00  0.00     0.163 HD
ATOM     29  O   UNL A   1      35.993  32.260  29.642  1.00  0.00    -0.269 OA
BRANCH  27  30
ATOM     30  C   UNL A   1      36.502  30.136  28.775  1.00  0.00     0.039 A 
ATOM     31  C   UNL A   1      36.761  29.282  29.852  1.00  0.00     0.014 A 
ATOM     32  C   UNL A   1      37.271  30.053  27.621  1.00  0.00     0.014 A 
ATOM     33  C   UNL A   1      37.955  28.569  29.879  1.00  0.00     0.010 A 
ATOM     34  C   UNL A   1      38.510  29.455  27.696  1.00  0.00     0.010 A 
ATOM     35  C   UNL A   1      38.878  28.771  28.856  1.00  0.00    -0.014 A 
BRANCH  35  36
ATOM     36  C   UNL A   1      40.280  28.402  28.967  1.00  0.00     0.031 A 
ATOM     37  C   UNL A   1      40.755  27.130  28.395  1.00  0.00     0.074 A 
ATOM     38  C   UNL A   1      41.149  29.221  29.597  1.00  0.00     0.049 A 
ATOM     39  N   UNL A   1      41.725  26.441  28.893  1.00  0.00    -0.248 NA
ATOM     40  C   UNL A   1      40.129  26.503  27.236  1.00  0.00     0.031 C 
ATOM     41  C   UNL A   1      42.606  29.120  29.628  1.00  0.00     0.029 A 
ATOM     42  N   UNL A   1      40.865  30.216  30.518  1.00  0.00    -0.354 N 
ATOM     43  C   UNL A   1      42.033  25.460  27.983  1.00  0.00     0.074 A 
ATOM     44  C   UNL A   1      40.963  25.484  27.012  1.00  0.00     0.031 C 
ATOM     45  C   UNL A   1      43.070  29.836  30.666  1.00  0.00     0.029 A 
ATOM     46  C   UNL A   1      41.922  30.306  31.426  1.00  0.00     0.049 A 
ATOM     47  H   UNL A   1      40.051  30.770  30.530  1.00  0.00     0.167 HD
ATOM     48  C   UNL A   1      43.235  24.827  28.049  1.00  0.00     0.031 A 
ATOM     49  C   UNL A   1      41.728  30.077  32.759  1.00  0.00     0.031 A 
ATOM     50  C   UNL A   1      44.053  25.321  29.151  1.00  0.00     0.049 A 
ATOM     51  C   UNL A   1      42.486  28.874  33.281  1.00  0.00     0.074 A 
ATOM     52  C   UNL A   1      45.083  26.247  29.204  1.00  0.00     0.029 A 
ATOM     53  N   UNL A   1      43.646  25.106  30.462  1.00  0.00    -0.354 N 
ATOM     54  N   UNL A   1      42.976  27.932  32.524  1.00  0.00    -0.248 NA
ATOM     55  C   UNL A   1      42.713  28.620  34.701  1.00  0.00     0.031 C 
ATOM     56  C   UNL A   1      45.264  26.625  30.559  1.00  0.00     0.029 A 
ATOM     57  C   UNL A   1      44.364  25.910  31.328  1.00  0.00     0.049 A 
ATOM     58  H   UNL A   1      42.946  24.470  30.735  1.00  0.00     0.167 HD
ATOM     59  C   UNL A   1      43.559  26.968  33.307  1.00  0.00     0.074 A 
ATOM     60  C   UNL A   1      43.377  27.450  34.663  1.00  0.00     0.031 C 
ATOM     61  C   UNL A   1      44.127  25.850  32.764  1.00  0.00     0.031 A 
BRANCH  48  62
ATOM     62  C   UNL A   1      43.772  24.000  26.910  1.00  0.00    -0.014 A 
ATOM     63  C   UNL A   1      44.375  24.636  25.811  1.00  0.00     0.009 A 
ATOM     64  C   UNL A   1      43.668  22.601  26.842  1.00  0.00     0.009 A 
ATOM     65  C   UNL A   1      44.754  23.930  24.663  1.00  0.00     0.001 A 
ATOM     66  C   UNL A   1      44.004  21.892  25.679  1.00  0.00     0.001 A 
ATOM     67  C   UNL A   1      44.537  22.560  24.584  1.00  0.00     0.000 A 
ENDBRANCH  48  62
BRANCH  49  68
ATOM     68  C   UNL A   1      40.386  30.500  33.251  1.00  0.00    -0.014 A 
ATOM     69  C   UNL A   1      40.079  31.875  33.260  1.00  0.00     0.009 A 
ATOM     70  C   UNL A   1      39.336  29.578  33.353  1.00  0.00     0.009 A 
ATOM     71  C   UNL A   1      38.750  32.311  33.255  1.00  0.00     0.001 A 
ATOM     72  C   UNL A   1      38.007  30.020  33.356  1.00  0.00     0.001 A 
ATOM     73  C   UNL A   1      37.715  31.381  33.271  1.00  0.00     0.000 A 
ENDBRANCH  49  68
BRANCH  61  74
ATOM     74  C   UNL A   1      44.592  24.617  33.506  1.00  0.00    -0.014 A 
ATOM     75  C   UNL A   1      43.777  23.525  33.831  1.00  0.00     0.009 A 
ATOM     76  C   UNL A   1      45.971  24.477  33.796  1.00  0.00     0.009 A 
ATOM     77  C   UNL A   1      44.303  22.378  34.446  1.00  0.00     0.001 A 
ATOM     78  C   UNL A   1      46.507  23.318  34.363  1.00  0.00     0.001 A 
ATOM     79  C   UNL A   1      45.666  22.269  34.699  1.00  0.00     0.000 A 
ENDBRANCH  61  74
ENDBRANCH  35  36
ENDBRANCH  27  30
ENDBRANCH  25  26
ENDBRANCH   1  25
TORSDOF 14
ENDMDL
MODEL 3
REMARK VINA RESULT:     -11.7      3.061      4.627
REMARK SMILES Cc1ccc(C[C@@H](Cc2cc(F)cc(Br)c2)C(=O)NCCCNC(=O)c2ccc(-c3c4nc(c(-c5ccccc5)c5ccc([nH]5)c(-c5ccccc5)c5nc(c(-c6ccccc6)c6ccc3[nH]6)C=C5)C=C4)cc2)cc1
REMARK SMILES IDX 21 1 20 2 19 3 17 4 18 5 7 7 6 8 5 9 1 10 2 11 3 12 75 13
REMARK SMILES IDX 4 14 74 15 8 16 9 17 10 18 16 19 11 20 14 21 12 22 13 23
REMARK SMILES IDX 15 24 22 25 23 26 24 27 25 29 26 30 27 31 73 32 28 33 72 34
REMARK SMILES IDX 29 35 30 36 31 37 66 38 32 39 71 40 65 41 67 42 33 43 70 44
REMARK SMILES IDX 64 45 63 46 34 48 56 49 41 50 55 51 42 52 45 53 54 54 68 55
REMARK SMILES IDX 43 56 44 57 53 59 69 60 46 61 35 62 36 63 40 64 37 65 39 66
REMARK SMILES IDX 38 67 57 68 58 69 62 70 59 71 61 72 60 73 47 74 48 75 52 76
REMARK SMILES IDX 49 77 51 78 50 79
REMARK H PARENT 19 6 23 28 67 47 45 58
REMARK Flexibility Score: inf
ROOT
ATOM      1  C   UNL A   1      38.604  21.428  25.676  1.00  0.00     0.042 C 
ENDROOT
BRANCH   1   2
ATOM      2  C   UNL A   1      37.836  22.742  25.663  1.00  0.00     0.117 C 
BRANCH   2   3
ATOM      3  N   UNL A   1      37.133  22.953  24.403  1.00  0.00    -0.356 N 
ATOM      4  C   UNL A   1      35.843  22.672  24.058  1.00  0.00     0.223 C 
ATOM      5  O   UNL A   1      35.464  22.993  22.928  1.00  0.00    -0.275 OA
ATOM      6  H   UNL A   1      37.674  23.363  23.689  1.00  0.00     0.163 HD
BRANCH   4   7
ATOM      7  C   UNL A   1      34.889  21.963  25.018  1.00  0.00     0.087 C 
BRANCH   7   8
ATOM      8  C   UNL A   1      34.743  22.897  26.245  1.00  0.00     0.049 C 
BRANCH   8   9
ATOM      9  C   UNL A   1      33.881  24.130  26.177  1.00  0.00    -0.047 A 
ATOM     10  C   UNL A   1      31.225  27.469  25.496  1.00  0.00     0.044 C 
ATOM     11  C   UNL A   1      32.157  26.320  25.731  1.00  0.00    -0.051 A 
ATOM     12  C   UNL A   1      31.689  25.168  26.367  1.00  0.00     0.004 A 
ATOM     13  C   UNL A   1      33.497  26.380  25.337  1.00  0.00     0.004 A 
ATOM     14  C   UNL A   1      32.538  24.079  26.571  1.00  0.00     0.004 A 
ATOM     15  C   UNL A   1      34.353  25.297  25.561  1.00  0.00     0.004 A 
ENDBRANCH   8   9
ENDBRANCH   7   8
BRANCH   7  16
ATOM     16  C   UNL A   1      33.584  21.400  24.387  1.00  0.00     0.049 C 
BRANCH  16  17
ATOM     17  C   UNL A   1      33.423  19.916  24.087  1.00  0.00    -0.043 A 
ATOM     18  C   UNL A   1      32.559  19.523  23.049  1.00  0.00     0.043 A 
ATOM     19  C   UNL A   1      34.116  18.911  24.780  1.00  0.00     0.019 A 
ATOM     20  C   UNL A   1      32.477  18.187  22.661  1.00  0.00     0.124 A 
ATOM     21  C   UNL A   1      34.053  17.580  24.349  1.00  0.00     0.021 A 
ATOM     22  F   UNL A   1      31.676  17.849  21.642  1.00  0.00    -0.207 F 
ATOM     23  C   UNL A   1      33.238  17.212  23.285  1.00  0.00     0.055 A 
ATOM     24  Br  UNL A   1      35.141  16.273  25.176  1.00  0.00    -0.051 Br
ENDBRANCH  16  17
ENDBRANCH   7  16
ENDBRANCH   4   7
ENDBRANCH   2   3
ENDBRANCH   1   2
BRANCH   1  25
ATOM     25  C   UNL A   1      39.977  21.576  26.298  1.00  0.00     0.118 C 
BRANCH  25  26
ATOM     26  N   UNL A   1      40.954  20.603  25.829  1.00  0.00    -0.352 N 
ATOM     27  C   UNL A   1      42.339  20.647  25.884  1.00  0.00     0.251 C 
ATOM     28  H   UNL A   1      40.575  19.796  25.412  1.00  0.00     0.163 HD
ATOM     29  O   UNL A   1      42.993  19.766  25.361  1.00  0.00    -0.269 OA
BRANCH  27  30
ATOM     30  C   UNL A   1      43.005  21.683  26.721  1.00  0.00     0.039 A 
ATOM     31  C   UNL A   1      42.816  21.600  28.105  1.00  0.00     0.014 A 
ATOM     32  C   UNL A   1      43.556  22.830  26.162  1.00  0.00     0.014 A 
ATOM     33  C   UNL A   1      42.902  22.757  28.871  1.00  0.00     0.010 A 
ATOM     34  C   UNL A   1      43.517  24.001  26.887  1.00  0.00     0.010 A 
ATOM     35  C   UNL A   1      43.122  23.972  28.225  1.00  0.00    -0.014 A 
BRANCH  35  36
ATOM     36  C   UNL A   1      42.849  25.260  28.843  1.00  0.00     0.031 A 
ATOM     37  C   UNL A   1      41.646  26.019  28.463  1.00  0.00     0.074 A 
ATOM     38  C   UNL A   1      43.699  25.765  29.762  1.00  0.00     0.049 A 
ATOM     39  N   UNL A   1      41.587  27.308  28.453  1.00  0.00    -0.248 NA
ATOM     40  C   UNL A   1      40.418  25.377  28.007  1.00  0.00     0.031 C 
ATOM     41  C   UNL A   1      43.492  26.924  30.625  1.00  0.00     0.029 A 
ATOM     42  N   UNL A   1      45.031  25.436  29.960  1.00  0.00    -0.354 N 
ATOM     43  C   UNL A   1      40.270  27.652  28.277  1.00  0.00     0.074 A 
ATOM     44  C   UNL A   1      39.594  26.425  27.920  1.00  0.00     0.031 C 
ATOM     45  C   UNL A   1      44.684  27.349  31.077  1.00  0.00     0.029 A 
ATOM     46  C   UNL A   1      45.713  26.569  30.409  1.00  0.00     0.049 A 
ATOM     47  H   UNL A   1      45.430  24.549  29.810  1.00  0.00     0.167 HD
ATOM     48  C   UNL A   1      39.846  28.904  28.599  1.00  0.00     0.031 A 
ATOM     49  C   UNL A   1      46.744  27.102  29.688  1.00  0.00     0.031 A 
ATOM     50  C   UNL A   1      40.933  29.735  29.106  1.00  0.00     0.049 A 
ATOM     51  C   UNL A   1      46.465  28.501  29.180  1.00  0.00     0.074 A 
ATOM     52  C   UNL A   1      41.332  30.062  30.392  1.00  0.00     0.029 A 
ATOM     53  N   UNL A   1      41.979  30.091  28.265  1.00  0.00    -0.354 N 
ATOM     54  N   UNL A   1      45.276  29.028  29.098  1.00  0.00    -0.248 NA
ATOM     55  C   UNL A   1      47.505  29.401  28.686  1.00  0.00     0.031 C 
ATOM     56  C   UNL A   1      42.650  30.579  30.325  1.00  0.00     0.029 A 
ATOM     57  C   UNL A   1      43.040  30.589  28.998  1.00  0.00     0.049 A 
ATOM     58  H   UNL A   1      41.967  30.002  27.284  1.00  0.00     0.167 HD
ATOM     59  C   UNL A   1      45.363  30.284  28.555  1.00  0.00     0.074 A 
ATOM     60  C   UNL A   1      46.782  30.476  28.324  1.00  0.00     0.031 C 
ATOM     61  C   UNL A   1      44.252  31.048  28.333  1.00  0.00     0.031 A 
BRANCH  48  62
ATOM     62  C   UNL A   1      38.387  29.245  28.751  1.00  0.00    -0.014 A 
ATOM     63  C   UNL A   1      37.667  29.735  27.647  1.00  0.00     0.009 A 
ATOM     64  C   UNL A   1      37.684  29.152  29.963  1.00  0.00     0.009 A 
ATOM     65  C   UNL A   1      36.355  30.206  27.769  1.00  0.00     0.001 A 
ATOM     66  C   UNL A   1      36.385  29.662  30.104  1.00  0.00     0.001 A 
ATOM     67  C   UNL A   1      35.725  30.201  29.008  1.00  0.00     0.000 A 
ENDBRANCH  48  62
BRANCH  49  68
ATOM     68  C   UNL A   1      47.547  26.087  28.948  1.00  0.00    -0.014 A 
ATOM     69  C   UNL A   1      47.276  25.886  27.581  1.00  0.00     0.009 A 
ATOM     70  C   UNL A   1      48.761  25.616  29.468  1.00  0.00     0.009 A 
ATOM     71  C   UNL A   1      48.241  25.331  26.734  1.00  0.00     0.001 A 
ATOM     72  C   UNL A   1      49.721  25.053  28.616  1.00  0.00     0.001 A 
ATOM     73  C   UNL A   1      49.475  24.944  27.248  1.00  0.00     0.000 A 
ENDBRANCH  49  68
BRANCH  61  74
ATOM     74  C   UNL A   1      44.179  32.336  27.542  1.00  0.00    -0.014 A 
ATOM     75  C   UNL A   1      44.332  32.430  26.153  1.00  0.00     0.009 A 
ATOM     76  C   UNL A   1      43.811  33.527  28.213  1.00  0.00     0.009 A 
ATOM     77  C   UNL A   1      44.165  33.651  25.481  1.00  0.00     0.001 A 
ATOM     78  C   UNL A   1      43.595  34.733  27.543  1.00  0.00     0.001 A 
ATOM     79  C   UNL A   1      43.785  34.797  26.172  1.00  0.00     0.000 A 
ENDBRANCH  61  74
ENDBRANCH  35  36
ENDBRANCH  27  30
ENDBRANCH  25  26
ENDBRANCH   1  25
TORSDOF 14
ENDMDL
