MODEL 1
REMARK VINA RESULT:     -11.2      0.000      0.000
REMARK SMILES COc1ccc([C@H](C)[N@H+]2CC[C@H](C(=O)NCCCNC(=O)c3ccc(-c4c5nc(c(-c6ccccc6)c6ccc([nH]6)c(-c6ccccc6)c6nc(c(-c7ccccc7)c7ccc4[nH]7)C=C6)C=C5)cc3)[C@@H]2C)cc1
REMARK SMILES IDX 16 1 15 2 13 3 14 4 12 6 9 7 10 8 70 9 11 11 71 12 7 13 8 14
REMARK SMILES IDX 6 15 3 16 4 17 73 18 5 19 72 20 2 21 1 22 17 23 18 24 19 25
REMARK SMILES IDX 20 26 21 28 22 29 23 30 69 31 24 32 68 33 25 34 26 35 27 36
REMARK SMILES IDX 62 37 28 38 67 39 61 40 63 41 29 42 66 43 60 44 59 45 30 47
REMARK SMILES IDX 52 48 37 49 51 50 38 51 41 52 50 53 64 54 39 55 40 56 49 58
REMARK SMILES IDX 65 59 42 60 31 61 32 62 36 63 33 64 35 65 34 66 53 67 54 68
REMARK SMILES IDX 58 69 55 70 57 71 56 72 43 73 44 74 48 75 45 76 47 77 46 78
REMARK H PARENT 15 5 9 10 19 27 63 46 41 57
REMARK Flexibility Score: inf
ROOT
ATOM      1  C   UNL A   1      36.528  20.813  25.075  1.00  0.00     0.117 C 
ENDROOT
BRANCH   1   2
ATOM      2  N   UNL A   1      35.316  20.054  25.315  1.00  0.00    -0.356 N 
ATOM      3  C   UNL A   1      34.013  20.423  25.194  1.00  0.00     0.229 C 
ATOM      4  O   UNL A   1      33.162  19.585  25.489  1.00  0.00    -0.275 OA
ATOM      5  H   UNL A   1      35.459  19.127  25.612  1.00  0.00     0.163 HD
BRANCH   3   6
ATOM      6  C   UNL A   1      33.680  21.767  24.582  1.00  0.00     0.142 C 
ATOM      7  N   UNL A   1      32.259  23.590  25.234  1.00  0.00    -0.326 N 
ATOM      8  C   UNL A   1      31.412  22.515  24.705  1.00  0.00     0.264 C 
ATOM      9  C   UNL A   1      33.560  22.966  25.541  1.00  0.00     0.194 C 
ATOM     10  H   UNL A   1      31.838  23.977  26.079  1.00  0.00     0.348 HD
ATOM     11  C   UNL A   1      32.326  21.634  23.887  1.00  0.00     0.081 C 
ATOM     12  C   UNL A   1      33.657  22.678  27.039  1.00  0.00     0.076 C 
BRANCH   7  13
ATOM     13  C   UNL A   1      32.325  24.825  24.418  1.00  0.00     0.212 C 
ATOM     14  C   UNL A   1      31.226  25.003  23.351  1.00  0.00     0.081 C 
BRANCH  13  15
ATOM     15  C   UNL A   1      32.517  26.059  25.309  1.00  0.00     0.009 A 
ATOM     16  C   UNL A   1      32.737  28.413  26.856  1.00  0.00     0.118 A 
ATOM     17  C   UNL A   1      31.527  27.724  26.788  1.00  0.00     0.047 A 
ATOM     18  C   UNL A   1      33.846  27.912  26.178  1.00  0.00     0.047 A 
ATOM     19  C   UNL A   1      31.415  26.564  26.018  1.00  0.00     0.013 A 
ATOM     20  C   UNL A   1      33.736  26.748  25.410  1.00  0.00     0.013 A 
BRANCH  16  21
ATOM     21  O   UNL A   1      32.733  29.537  27.635  1.00  0.00    -0.497 OA
ATOM     22  C   UNL A   1      32.557  30.765  26.936  1.00  0.00     0.278 C 
ENDBRANCH  16  21
ENDBRANCH  13  15
ENDBRANCH   7  13
ENDBRANCH   3   6
ENDBRANCH   1   2
BRANCH   1  23
ATOM     23  C   UNL A   1      37.731  19.896  24.933  1.00  0.00     0.042 C 
BRANCH  23  24
ATOM     24  C   UNL A   1      38.972  20.394  25.655  1.00  0.00     0.118 C 
BRANCH  24  25
ATOM     25  N   UNL A   1      40.023  19.389  25.731  1.00  0.00    -0.352 N 
ATOM     26  C   UNL A   1      41.344  19.546  26.070  1.00  0.00     0.251 C 
ATOM     27  H   UNL A   1      39.749  18.470  25.507  1.00  0.00     0.163 HD
ATOM     28  O   UNL A   1      42.138  18.624  25.914  1.00  0.00    -0.269 OA
BRANCH  26  29
ATOM     29  C   UNL A   1      41.805  20.845  26.598  1.00  0.00     0.039 A 
ATOM     30  C   UNL A   1      42.293  21.802  25.707  1.00  0.00     0.014 A 
ATOM     31  C   UNL A   1      41.721  21.126  27.964  1.00  0.00     0.014 A 
ATOM     32  C   UNL A   1      42.634  23.070  26.180  1.00  0.00     0.010 A 
ATOM     33  C   UNL A   1      41.968  22.416  28.417  1.00  0.00     0.010 A 
ATOM     34  C   UNL A   1      42.435  23.398  27.532  1.00  0.00    -0.014 A 
BRANCH  34  35
ATOM     35  C   UNL A   1      42.715  24.761  28.043  1.00  0.00     0.031 A 
ATOM     36  C   UNL A   1      44.108  25.135  28.468  1.00  0.00     0.074 A 
ATOM     37  C   UNL A   1      41.705  25.639  28.192  1.00  0.00     0.049 A 
ATOM     38  N   UNL A   1      44.539  26.257  28.988  1.00  0.00    -0.248 NA
ATOM     39  C   UNL A   1      45.147  24.105  28.316  1.00  0.00     0.031 C 
ATOM     40  C   UNL A   1      40.301  25.381  27.863  1.00  0.00     0.029 A 
ATOM     41  N   UNL A   1      41.705  26.927  28.664  1.00  0.00    -0.354 N 
ATOM     42  C   UNL A   1      45.891  26.057  29.241  1.00  0.00     0.074 A 
ATOM     43  C   UNL A   1      46.193  24.691  28.876  1.00  0.00     0.031 C 
ATOM     44  C   UNL A   1      39.581  26.486  28.116  1.00  0.00     0.029 A 
ATOM     45  C   UNL A   1      40.462  27.513  28.662  1.00  0.00     0.049 A 
ATOM     46  H   UNL A   1      42.517  27.387  28.975  1.00  0.00     0.167 HD
ATOM     47  C   UNL A   1      46.804  26.937  29.714  1.00  0.00     0.031 A 
ATOM     48  C   UNL A   1      40.073  28.738  29.063  1.00  0.00     0.031 A 
ATOM     49  C   UNL A   1      46.502  28.297  30.074  1.00  0.00     0.049 A 
ATOM     50  C   UNL A   1      41.101  29.695  29.598  1.00  0.00     0.074 A 
ATOM     51  C   UNL A   1      47.365  29.287  30.508  1.00  0.00     0.029 A 
ATOM     52  N   UNL A   1      45.232  28.855  30.052  1.00  0.00    -0.354 N 
ATOM     53  N   UNL A   1      42.389  29.518  29.759  1.00  0.00    -0.248 NA
ATOM     54  C   UNL A   1      40.619  31.026  29.994  1.00  0.00     0.031 C 
ATOM     55  C   UNL A   1      46.610  30.426  30.804  1.00  0.00     0.029 A 
ATOM     56  C   UNL A   1      45.285  30.165  30.493  1.00  0.00     0.049 A 
ATOM     57  H   UNL A   1      44.415  28.386  29.765  1.00  0.00     0.167 HD
ATOM     58  C   UNL A   1      42.879  30.721  30.252  1.00  0.00     0.074 A 
ATOM     59  C   UNL A   1      41.750  31.624  30.346  1.00  0.00     0.031 C 
ATOM     60  C   UNL A   1      44.149  31.048  30.592  1.00  0.00     0.031 A 
BRANCH  47  61
ATOM     61  C   UNL A   1      48.215  26.440  29.879  1.00  0.00    -0.014 A 
ATOM     62  C   UNL A   1      48.639  25.825  31.069  1.00  0.00     0.009 A 
ATOM     63  C   UNL A   1      49.134  26.584  28.828  1.00  0.00     0.009 A 
ATOM     64  C   UNL A   1      49.965  25.414  31.220  1.00  0.00     0.001 A 
ATOM     65  C   UNL A   1      50.449  26.140  28.970  1.00  0.00     0.001 A 
ATOM     66  C   UNL A   1      50.868  25.568  30.170  1.00  0.00     0.000 A 
ENDBRANCH  47  61
BRANCH  48  67
ATOM     67  C   UNL A   1      38.644  29.129  28.951  1.00  0.00    -0.014 A 
ATOM     68  C   UNL A   1      37.789  29.032  30.060  1.00  0.00     0.009 A 
ATOM     69  C   UNL A   1      38.132  29.622  27.740  1.00  0.00     0.009 A 
ATOM     70  C   UNL A   1      36.447  29.404  29.953  1.00  0.00     0.001 A 
ATOM     71  C   UNL A   1      36.797  30.020  27.645  1.00  0.00     0.001 A 
ATOM     72  C   UNL A   1      35.954  29.904  28.748  1.00  0.00     0.000 A 
ENDBRANCH  48  67
BRANCH  60  73
ATOM     73  C   UNL A   1      44.393  32.452  31.072  1.00  0.00    -0.014 A 
ATOM     74  C   UNL A   1      44.353  32.776  32.437  1.00  0.00     0.009 A 
ATOM     75  C   UNL A   1      44.708  33.458  30.144  1.00  0.00     0.009 A 
ATOM     76  C   UNL A   1      44.591  34.086  32.859  1.00  0.00     0.001 A 
ATOM     77  C   UNL A   1      44.978  34.758  30.571  1.00  0.00     0.001 A 
ATOM     78  C   UNL A   1      44.909  35.073  31.927  1.00  0.00     0.000 A 
ENDBRANCH  60  73
ENDBRANCH  34  35
ENDBRANCH  26  29
ENDBRANCH  24  25
ENDBRANCH  23  24
ENDBRANCH   1  23
TORSDOF 13
ENDMDL
MODEL 2
REMARK VINA RESULT:     -11.1      3.547      9.192
REMARK SMILES COc1ccc([C@H](C)[N@H+]2CC[C@H](C(=O)NCCCNC(=O)c3ccc(-c4c5nc(c(-c6ccccc6)c6ccc([nH]6)c(-c6ccccc6)c6nc(c(-c7ccccc7)c7ccc4[nH]7)C=C6)C=C5)cc3)[C@@H]2C)cc1
REMARK SMILES IDX 16 1 15 2 13 3 14 4 12 6 9 7 10 8 70 9 11 11 71 12 7 13 8 14
REMARK SMILES IDX 6 15 3 16 4 17 73 18 5 19 72 20 2 21 1 22 17 23 18 24 19 25
REMARK SMILES IDX 20 26 21 28 22 29 23 30 69 31 24 32 68 33 25 34 26 35 27 36
REMARK SMILES IDX 62 37 28 38 67 39 61 40 63 41 29 42 66 43 60 44 59 45 30 47
REMARK SMILES IDX 52 48 37 49 51 50 38 51 41 52 50 53 64 54 39 55 40 56 49 58
REMARK SMILES IDX 65 59 42 60 31 61 32 62 36 63 33 64 35 65 34 66 53 67 54 68
REMARK SMILES IDX 58 69 55 70 57 71 56 72 43 73 44 74 48 75 45 76 47 77 46 78
REMARK H PARENT 15 5 9 10 19 27 63 46 41 57
REMARK Flexibility Score: inf
ROOT
ATOM      1  C   UNL A   1      31.685  30.512  25.949  1.00  0.00     0.117 C 
ENDROOT
BRANCH   1   2
ATOM      2  N   UNL A   1      31.028  30.396  24.661  1.00  0.00    -0.356 N 
ATOM      3  C   UNL A   1      30.747  29.294  23.916  1.00  0.00     0.229 C 
ATOM      4  O   UNL A   1      30.197  29.474  22.831  1.00  0.00    -0.275 OA
ATOM      5  H   UNL A   1      30.740  31.249  24.264  1.00  0.00     0.163 HD
BRANCH   3   6
ATOM      6  C   UNL A   1      30.991  27.922  24.507  1.00  0.00     0.142 C 
ATOM      7  N   UNL A   1      32.019  25.912  23.690  1.00  0.00    -0.326 N 
ATOM      8  C   UNL A   1      30.688  26.026  23.083  1.00  0.00     0.264 C 
ATOM      9  C   UNL A   1      32.345  27.255  24.204  1.00  0.00     0.194 C 
ATOM     10  H   UNL A   1      32.697  25.623  22.983  1.00  0.00     0.348 HD
ATOM     11  C   UNL A   1      29.917  26.985  23.958  1.00  0.00     0.081 C 
ATOM     12  C   UNL A   1      33.276  27.973  23.227  1.00  0.00     0.076 C 
BRANCH   7  13
ATOM     13  C   UNL A   1      32.200  24.802  24.655  1.00  0.00     0.212 C 
ATOM     14  C   UNL A   1      31.143  23.681  24.618  1.00  0.00     0.081 C 
BRANCH  13  15
ATOM     15  C   UNL A   1      33.643  24.283  24.627  1.00  0.00     0.009 A 
ATOM     16  C   UNL A   1      36.233  23.157  24.547  1.00  0.00     0.118 A 
ATOM     17  C   UNL A   1      35.364  23.003  23.468  1.00  0.00     0.047 A 
ATOM     18  C   UNL A   1      35.823  23.898  25.652  1.00  0.00     0.047 A 
ATOM     19  C   UNL A   1      34.081  23.553  23.508  1.00  0.00     0.013 A 
ATOM     20  C   UNL A   1      34.539  24.452  25.693  1.00  0.00     0.013 A 
BRANCH  16  21
ATOM     21  O   UNL A   1      37.463  22.575  24.403  1.00  0.00    -0.497 OA
ATOM     22  C   UNL A   1      38.037  22.055  25.597  1.00  0.00     0.278 C 
ENDBRANCH  16  21
ENDBRANCH  13  15
ENDBRANCH   7  13
ENDBRANCH   3   6
ENDBRANCH   1   2
BRANCH   1  23
ATOM     23  C   UNL A   1      31.416  31.866  26.582  1.00  0.00     0.042 C 
BRANCH  23  24
ATOM     24  C   UNL A   1      32.647  32.512  27.197  1.00  0.00     0.118 C 
BRANCH  24  25
ATOM     25  N   UNL A   1      32.419  33.893  27.598  1.00  0.00    -0.352 N 
ATOM     26  C   UNL A   1      33.093  34.643  28.531  1.00  0.00     0.251 C 
ATOM     27  H   UNL A   1      31.681  34.353  27.137  1.00  0.00     0.163 HD
ATOM     28  O   UNL A   1      32.661  35.738  28.875  1.00  0.00    -0.269 OA
BRANCH  26  29
ATOM     29  C   UNL A   1      34.326  34.104  29.137  1.00  0.00     0.039 A 
ATOM     30  C   UNL A   1      34.226  33.299  30.273  1.00  0.00     0.014 A 
ATOM     31  C   UNL A   1      35.572  34.366  28.563  1.00  0.00     0.014 A 
ATOM     32  C   UNL A   1      35.374  32.700  30.793  1.00  0.00     0.010 A 
ATOM     33  C   UNL A   1      36.697  33.692  29.022  1.00  0.00     0.010 A 
ATOM     34  C   UNL A   1      36.611  32.860  30.147  1.00  0.00    -0.014 A 
BRANCH  34  35
ATOM     35  C   UNL A   1      37.830  32.171  30.634  1.00  0.00     0.031 A 
ATOM     36  C   UNL A   1      38.629  32.761  31.763  1.00  0.00     0.074 A 
ATOM     37  C   UNL A   1      38.257  31.053  30.016  1.00  0.00     0.049 A 
ATOM     38  N   UNL A   1      39.748  32.335  32.292  1.00  0.00    -0.248 NA
ATOM     39  C   UNL A   1      38.119  34.007  32.355  1.00  0.00     0.031 C 
ATOM     40  C   UNL A   1      37.599  30.408  28.877  1.00  0.00     0.029 A 
ATOM     41  N   UNL A   1      39.353  30.264  30.257  1.00  0.00    -0.354 N 
ATOM     42  C   UNL A   1      40.083  33.271  33.263  1.00  0.00     0.074 A 
ATOM     43  C   UNL A   1      39.084  34.316  33.207  1.00  0.00     0.031 C 
ATOM     44  C   UNL A   1      38.287  29.307  28.538  1.00  0.00     0.029 A 
ATOM     45  C   UNL A   1      39.455  29.191  29.405  1.00  0.00     0.049 A 
ATOM     46  H   UNL A   1      40.004  30.449  30.971  1.00  0.00     0.167 HD
ATOM     47  C   UNL A   1      41.115  33.253  34.138  1.00  0.00     0.031 A 
ATOM     48  C   UNL A   1      40.389  28.225  29.325  1.00  0.00     0.031 A 
ATOM     49  C   UNL A   1      42.107  32.212  34.194  1.00  0.00     0.049 A 
ATOM     50  C   UNL A   1      41.535  28.231  30.298  1.00  0.00     0.074 A 
ATOM     51  C   UNL A   1      43.159  32.070  35.080  1.00  0.00     0.029 A 
ATOM     52  N   UNL A   1      42.172  31.138  33.318  1.00  0.00    -0.354 N 
ATOM     53  N   UNL A   1      41.797  29.081  31.260  1.00  0.00    -0.248 NA
ATOM     54  C   UNL A   1      42.508  27.135  30.178  1.00  0.00     0.031 C 
ATOM     55  C   UNL A   1      43.896  30.942  34.704  1.00  0.00     0.029 A 
ATOM     56  C   UNL A   1      43.265  30.346  33.624  1.00  0.00     0.049 A 
ATOM     57  H   UNL A   1      41.535  30.967  32.587  1.00  0.00     0.167 HD
ATOM     58  C   UNL A   1      42.949  28.612  31.878  1.00  0.00     0.074 A 
ATOM     59  C   UNL A   1      43.325  27.393  31.191  1.00  0.00     0.031 C 
ATOM     60  C   UNL A   1      43.632  29.141  32.923  1.00  0.00     0.031 A 
BRANCH  47  61
ATOM     61  C   UNL A   1      41.225  34.410  35.094  1.00  0.00    -0.014 A 
ATOM     62  C   UNL A   1      40.566  34.400  36.335  1.00  0.00     0.009 A 
ATOM     63  C   UNL A   1      42.003  35.528  34.751  1.00  0.00     0.009 A 
ATOM     64  C   UNL A   1      40.642  35.503  37.187  1.00  0.00     0.001 A 
ATOM     65  C   UNL A   1      42.105  36.614  35.621  1.00  0.00     0.001 A 
ATOM     66  C   UNL A   1      41.413  36.608  36.831  1.00  0.00     0.000 A 
ENDBRANCH  47  61
BRANCH  48  67
ATOM     67  C   UNL A   1      40.262  27.161  28.296  1.00  0.00    -0.014 A 
ATOM     68  C   UNL A   1      40.880  27.302  27.044  1.00  0.00     0.009 A 
ATOM     69  C   UNL A   1      39.538  25.989  28.567  1.00  0.00     0.009 A 
ATOM     70  C   UNL A   1      40.761  26.299  26.079  1.00  0.00     0.001 A 
ATOM     71  C   UNL A   1      39.446  24.975  27.611  1.00  0.00     0.001 A 
ATOM     72  C   UNL A   1      40.051  25.134  26.366  1.00  0.00     0.000 A 
ENDBRANCH  48  67
BRANCH  60  73
ATOM     73  C   UNL A   1      44.841  28.389  33.406  1.00  0.00    -0.014 A 
ATOM     74  C   UNL A   1      46.127  28.690  32.930  1.00  0.00     0.009 A 
ATOM     75  C   UNL A   1      44.694  27.394  34.385  1.00  0.00     0.009 A 
ATOM     76  C   UNL A   1      47.236  27.983  33.400  1.00  0.00     0.001 A 
ATOM     77  C   UNL A   1      45.807  26.713  34.876  1.00  0.00     0.001 A 
ATOM     78  C   UNL A   1      47.076  27.001  34.377  1.00  0.00     0.000 A 
ENDBRANCH  60  73
ENDBRANCH  34  35
ENDBRANCH  26  29
ENDBRANCH  24  25
ENDBRANCH  23  24
ENDBRANCH   1  23
TORSDOF 13
ENDMDL
MODEL 3
REMARK VINA RESULT:     -11.0      0.960      6.104
REMARK SMILES COc1ccc([C@H](C)[N@H+]2CC[C@H](C(=O)NCCCNC(=O)c3ccc(-c4c5nc(c(-c6ccccc6)c6ccc([nH]6)c(-c6ccccc6)c6nc(c(-c7ccccc7)c7ccc4[nH]7)C=C6)C=C5)cc3)[C@@H]2C)cc1
REMARK SMILES IDX 16 1 15 2 13 3 14 4 12 6 9 7 10 8 70 9 11 11 71 12 7 13 8 14
REMARK SMILES IDX 6 15 3 16 4 17 73 18 5 19 72 20 2 21 1 22 17 23 18 24 19 25
REMARK SMILES IDX 20 26 21 28 22 29 23 30 69 31 24 32 68 33 25 34 26 35 27 36
REMARK SMILES IDX 62 37 28 38 67 39 61 40 63 41 29 42 66 43 60 44 59 45 30 47
REMARK SMILES IDX 52 48 37 49 51 50 38 51 41 52 50 53 64 54 39 55 40 56 49 58
REMARK SMILES IDX 65 59 42 60 31 61 32 62 36 63 33 64 35 65 34 66 53 67 54 68
REMARK SMILES IDX 58 69 55 70 57 71 56 72 43 73 44 74 48 75 45 76 47 77 46 78
REMARK H PARENT 15 5 9 10 19 27 63 46 41 57
REMARK Flexibility Score: inf
ROOT
ATOM      1  C   UNL A   1      36.530  21.006  25.071  1.00  0.00     0.117 C 
ENDROOT
BRANCH   1   2
ATOM      2  N   UNL A   1      35.396  20.153  25.371  1.00  0.00    -0.356 N 
ATOM      3  C   UNL A   1      34.063  20.408  25.291  1.00  0.00     0.229 C 
ATOM      4  O   UNL A   1      33.297  19.508  25.633  1.00  0.00    -0.275 OA
ATOM      5  H   UNL A   1      35.627  19.248  25.681  1.00  0.00     0.163 HD
BRANCH   3   6
ATOM      6  C   UNL A   1      33.595  21.704  24.665  1.00  0.00     0.142 C 
ATOM      7  N   UNL A   1      32.144  23.477  25.386  1.00  0.00    -0.326 N 
ATOM      8  C   UNL A   1      31.312  22.336  24.986  1.00  0.00     0.264 C 
ATOM      9  C   UNL A   1      33.503  22.936  25.584  1.00  0.00     0.194 C 
ATOM     10  H   UNL A   1      31.787  23.878  26.254  1.00  0.00     0.348 HD
ATOM     11  C   UNL A   1      32.190  21.471  24.114  1.00  0.00     0.081 C 
ATOM     12  C   UNL A   1      33.762  22.720  27.075  1.00  0.00     0.076 C 
BRANCH   7  13
ATOM     13  C   UNL A   1      32.059  24.677  24.520  1.00  0.00     0.212 C 
ATOM     14  C   UNL A   1      30.804  24.797  23.634  1.00  0.00     0.081 C 
BRANCH  13  15
ATOM     15  C   UNL A   1      32.368  25.949  25.320  1.00  0.00     0.009 A 
ATOM     16  C   UNL A   1      33.072  28.201  26.874  1.00  0.00     0.118 A 
ATOM     17  C   UNL A   1      34.009  27.604  26.034  1.00  0.00     0.047 A 
ATOM     18  C   UNL A   1      31.775  27.696  26.918  1.00  0.00     0.047 A 
ATOM     19  C   UNL A   1      33.665  26.487  25.269  1.00  0.00     0.013 A 
ATOM     20  C   UNL A   1      31.428  26.579  26.151  1.00  0.00     0.013 A 
BRANCH  16  21
ATOM     21  O   UNL A   1      33.517  29.286  27.579  1.00  0.00    -0.497 OA
ATOM     22  C   UNL A   1      32.904  30.526  27.246  1.00  0.00     0.278 C 
ENDBRANCH  16  21
ENDBRANCH  13  15
ENDBRANCH   7  13
ENDBRANCH   3   6
ENDBRANCH   1   2
BRANCH   1  23
ATOM     23  C   UNL A   1      37.779  20.184  24.802  1.00  0.00     0.042 C 
BRANCH  23  24
ATOM     24  C   UNL A   1      38.919  20.463  25.768  1.00  0.00     0.118 C 
BRANCH  24  25
ATOM     25  N   UNL A   1      39.871  19.365  25.852  1.00  0.00    -0.352 N 
ATOM     26  C   UNL A   1      41.218  19.409  26.110  1.00  0.00     0.251 C 
ATOM     27  H   UNL A   1      39.497  18.467  25.703  1.00  0.00     0.163 HD
ATOM     28  O   UNL A   1      41.910  18.406  25.970  1.00  0.00    -0.269 OA
BRANCH  26  29
ATOM     29  C   UNL A   1      41.833  20.685  26.528  1.00  0.00     0.039 A 
ATOM     30  C   UNL A   1      42.245  21.590  25.548  1.00  0.00     0.014 A 
ATOM     31  C   UNL A   1      41.966  20.998  27.883  1.00  0.00     0.014 A 
ATOM     32  C   UNL A   1      42.731  22.841  25.931  1.00  0.00     0.010 A 
ATOM     33  C   UNL A   1      42.357  22.277  28.258  1.00  0.00     0.010 A 
ATOM     34  C   UNL A   1      42.752  23.208  27.288  1.00  0.00    -0.014 A 
BRANCH  34  35
ATOM     35  C   UNL A   1      43.189  24.559  27.713  1.00  0.00     0.031 A 
ATOM     36  C   UNL A   1      42.168  25.613  28.043  1.00  0.00     0.074 A 
ATOM     37  C   UNL A   1      44.501  24.861  27.735  1.00  0.00     0.049 A 
ATOM     38  N   UNL A   1      42.352  26.864  28.381  1.00  0.00    -0.248 NA
ATOM     39  C   UNL A   1      40.754  25.217  27.951  1.00  0.00     0.031 C 
ATOM     40  C   UNL A   1      45.589  23.942  27.389  1.00  0.00     0.029 A 
ATOM     41  N   UNL A   1      45.143  26.030  28.057  1.00  0.00    -0.354 N 
ATOM     42  C   UNL A   1      41.081  27.405  28.523  1.00  0.00     0.074 A 
ATOM     43  C   UNL A   1      40.137  26.366  28.174  1.00  0.00     0.031 C 
ATOM     44  C   UNL A   1      46.764  24.574  27.548  1.00  0.00     0.029 A 
ATOM     45  C   UNL A   1      46.511  25.950  27.963  1.00  0.00     0.049 A 
ATOM     46  H   UNL A   1      44.668  26.847  28.330  1.00  0.00     0.167 HD
ATOM     47  C   UNL A   1      40.728  28.647  28.928  1.00  0.00     0.031 A 
ATOM     48  C   UNL A   1      47.458  26.882  28.179  1.00  0.00     0.031 A 
ATOM     49  C   UNL A   1      41.668  29.679  29.276  1.00  0.00     0.049 A 
ATOM     50  C   UNL A   1      47.044  28.259  28.616  1.00  0.00     0.074 A 
ATOM     51  C   UNL A   1      41.415  30.952  29.754  1.00  0.00     0.029 A 
ATOM     52  N   UNL A   1      43.046  29.556  29.174  1.00  0.00    -0.354 N 
ATOM     53  N   UNL A   1      45.840  28.734  28.820  1.00  0.00    -0.248 NA
ATOM     54  C   UNL A   1      48.125  29.225  28.862  1.00  0.00     0.031 C 
ATOM     55  C   UNL A   1      42.636  31.620  29.885  1.00  0.00     0.029 A 
ATOM     56  C   UNL A   1      43.654  30.742  29.550  1.00  0.00     0.049 A 
ATOM     57  H   UNL A   1      43.520  28.746  28.876  1.00  0.00     0.167 HD
ATOM     58  C   UNL A   1      46.016  30.045  29.243  1.00  0.00     0.074 A 
ATOM     59  C   UNL A   1      47.444  30.284  29.281  1.00  0.00     0.031 C 
ATOM     60  C   UNL A   1      45.078  30.967  29.572  1.00  0.00     0.031 A 
BRANCH  47  61
ATOM     61  C   UNL A   1      39.256  28.954  28.998  1.00  0.00    -0.014 A 
ATOM     62  C   UNL A   1      38.563  29.472  27.890  1.00  0.00     0.009 A 
ATOM     63  C   UNL A   1      38.550  28.719  30.188  1.00  0.00     0.009 A 
ATOM     64  C   UNL A   1      37.209  29.795  27.990  1.00  0.00     0.001 A 
ATOM     65  C   UNL A   1      37.188  29.010  30.273  1.00  0.00     0.001 A 
ATOM     66  C   UNL A   1      36.521  29.561  29.180  1.00  0.00     0.000 A 
ENDBRANCH  47  61
BRANCH  48  67
ATOM     67  C   UNL A   1      48.891  26.530  28.005  1.00  0.00    -0.014 A 
ATOM     68  C   UNL A   1      49.515  26.677  26.756  1.00  0.00     0.009 A 
ATOM     69  C   UNL A   1      49.649  26.064  29.091  1.00  0.00     0.009 A 
ATOM     70  C   UNL A   1      50.863  26.348  26.596  1.00  0.00     0.001 A 
ATOM     71  C   UNL A   1      51.003  25.765  28.935  1.00  0.00     0.001 A 
ATOM     72  C   UNL A   1      51.607  25.900  27.686  1.00  0.00     0.000 A 
ENDBRANCH  48  67
BRANCH  60  73
ATOM     73  C   UNL A   1      45.568  32.312  30.032  1.00  0.00    -0.014 A 
ATOM     74  C   UNL A   1      45.763  33.368  29.127  1.00  0.00     0.009 A 
ATOM     75  C   UNL A   1      45.796  32.538  31.399  1.00  0.00     0.009 A 
ATOM     76  C   UNL A   1      46.210  34.611  29.579  1.00  0.00     0.001 A 
ATOM     77  C   UNL A   1      46.211  33.790  31.851  1.00  0.00     0.001 A 
ATOM     78  C   UNL A   1      46.428  34.823  30.940  1.00  0.00     0.000 A 
ENDBRANCH  60  73
ENDBRANCH  34  35
ENDBRANCH  26  29
ENDBRANCH  24  25
ENDBRANCH  23  24
ENDBRANCH   1  23
TORSDOF 13
ENDMDL
