MODEL 1
REMARK VINA RESULT:     -10.0      0.000      0.000
REMARK SMILES C=CCN(CC(=O)NCCCNC(=O)c1ccc(-c2c3nc(c(-c4ccccc4)c4ccc([nH]4)c(-c4ccccc4)c4nc(c(-c5ccccc5)c5ccc2[nH]5)C=C4)C=C3)cc1)S(=O)(=O)Cc1cc(C)on1
REMARK SMILES IDX 9 1 8 2 6 3 7 4 5 6 4 7 3 8 2 9 1 10 63 11 64 12 65 13 66 14
REMARK SMILES IDX 67 15 68 16 72 17 69 18 71 19 70 20 10 21 11 22 12 23 13 24
REMARK SMILES IDX 14 26 15 27 16 28 62 29 17 30 61 31 18 32 19 33 20 34 55 35
REMARK SMILES IDX 21 36 60 37 54 38 56 39 22 40 59 41 53 42 52 43 23 45 45 46
REMARK SMILES IDX 30 47 44 48 31 49 34 50 43 51 57 52 32 53 33 54 42 56 58 57
REMARK SMILES IDX 35 58 24 59 25 60 29 61 26 62 28 63 27 64 46 65 47 66 51 67
REMARK SMILES IDX 48 68 50 69 49 70 36 71 37 72 41 73 38 74 40 75 39 76
REMARK H PARENT 8 5 12 25 56 44 34 55
REMARK Flexibility Score: inf
ROOT
ATOM      1  C   UNL A   1      32.151  26.945  26.047  1.00  0.00     0.117 C 
ENDROOT
BRANCH   1   2
ATOM      2  N   UNL A   1      31.469  25.792  26.606  1.00  0.00    -0.355 N 
ATOM      3  C   UNL A   1      31.860  24.485  26.691  1.00  0.00     0.235 C 
ATOM      4  O   UNL A   1      31.114  23.695  27.279  1.00  0.00    -0.274 OA
ATOM      5  H   UNL A   1      30.582  25.982  26.987  1.00  0.00     0.163 HD
BRANCH   3   6
ATOM      6  C   UNL A   1      33.198  24.012  26.137  1.00  0.00     0.202 C 
BRANCH   6   7
ATOM      7  N   UNL A   1      33.230  23.329  24.804  1.00  0.00    -0.188 NA
BRANCH   7   8
ATOM      8  C   UNL A   1      33.358  21.867  24.931  1.00  0.00     0.129 C 
BRANCH   8   9
ATOM      9  C   UNL A   1      32.653  21.036  23.918  1.00  0.00    -0.018 C 
ATOM     10  C   UNL A   1      32.529  19.703  23.993  1.00  0.00     0.005 C 
ENDBRANCH   8   9
ENDBRANCH   7   8
BRANCH   7  11
ATOM     11  S   UNL A   1      33.872  24.217  23.501  1.00  0.00     0.220 S 
ATOM     12  O   UNL A   1      34.226  25.528  23.993  1.00  0.00    -0.212 OA
ATOM     13  O   UNL A   1      34.877  23.432  22.810  1.00  0.00    -0.212 OA
BRANCH  11  14
ATOM     14  C   UNL A   1      32.472  24.333  22.369  1.00  0.00     0.214 C 
BRANCH  14  15
ATOM     15  C   UNL A   1      31.435  25.326  22.792  1.00  0.00     0.100 A 
ATOM     16  C   UNL A   1      31.295  26.701  22.477  1.00  0.00     0.073 A 
ATOM     17  N   UNL A   1      30.436  24.931  23.598  1.00  0.00    -0.084 NA
ATOM     18  C   UNL A   1      30.132  27.090  23.086  1.00  0.00     0.133 A 
ATOM     19  O   UNL A   1      29.624  26.039  23.779  1.00  0.00    -0.361 OA
ATOM     20  C   UNL A   1      29.373  28.352  23.113  1.00  0.00     0.091 C 
ENDBRANCH  14  15
ENDBRANCH  11  14
ENDBRANCH   7  11
ENDBRANCH   6   7
ENDBRANCH   3   6
ENDBRANCH   1   2
BRANCH   1  21
ATOM     21  C   UNL A   1      32.151  28.131  27.010  1.00  0.00     0.042 C 
BRANCH  21  22
ATOM     22  C   UNL A   1      33.530  28.594  27.445  1.00  0.00     0.118 C 
BRANCH  22  23
ATOM     23  N   UNL A   1      33.572  30.017  27.747  1.00  0.00    -0.352 N 
ATOM     24  C   UNL A   1      34.559  30.791  28.309  1.00  0.00     0.251 C 
ATOM     25  H   UNL A   1      32.753  30.509  27.510  1.00  0.00     0.163 HD
ATOM     26  O   UNL A   1      34.291  31.943  28.643  1.00  0.00    -0.269 OA
BRANCH  24  27
ATOM     27  C   UNL A   1      35.928  30.267  28.539  1.00  0.00     0.039 A 
ATOM     28  C   UNL A   1      36.859  30.341  27.497  1.00  0.00     0.014 A 
ATOM     29  C   UNL A   1      36.297  29.655  29.739  1.00  0.00     0.014 A 
ATOM     30  C   UNL A   1      38.160  29.858  27.678  1.00  0.00     0.010 A 
ATOM     31  C   UNL A   1      37.620  29.274  29.956  1.00  0.00     0.010 A 
ATOM     32  C   UNL A   1      38.564  29.352  28.922  1.00  0.00    -0.014 A 
BRANCH  32  33
ATOM     33  C   UNL A   1      39.949  28.860  29.150  1.00  0.00     0.031 A 
ATOM     34  C   UNL A   1      40.971  29.756  29.803  1.00  0.00     0.074 A 
ATOM     35  C   UNL A   1      40.305  27.627  28.738  1.00  0.00     0.049 A 
ATOM     36  N   UNL A   1      42.241  29.534  30.031  1.00  0.00    -0.248 NA
ATOM     37  C   UNL A   1      40.510  31.085  30.241  1.00  0.00     0.031 C 
ATOM     38  C   UNL A   1      39.422  26.663  28.076  1.00  0.00     0.029 A 
ATOM     39  N   UNL A   1      41.508  26.970  28.817  1.00  0.00    -0.354 N 
ATOM     40  C   UNL A   1      42.727  30.692  30.629  1.00  0.00     0.074 A 
ATOM     41  C   UNL A   1      41.635  31.638  30.670  1.00  0.00     0.031 C 
ATOM     42  C   UNL A   1      40.103  25.530  27.842  1.00  0.00     0.029 A 
ATOM     43  C   UNL A   1      41.482  25.702  28.288  1.00  0.00     0.049 A 
ATOM     44  H   UNL A   1      42.315  27.370  29.215  1.00  0.00     0.167 HD
ATOM     45  C   UNL A   1      43.962  30.939  31.126  1.00  0.00     0.031 A 
ATOM     46  C   UNL A   1      42.460  24.785  28.166  1.00  0.00     0.031 A 
ATOM     47  C   UNL A   1      45.052  30.002  31.092  1.00  0.00     0.049 A 
ATOM     48  C   UNL A   1      43.840  25.112  28.671  1.00  0.00     0.074 A 
ATOM     49  C   UNL A   1      46.335  30.153  31.588  1.00  0.00     0.029 A 
ATOM     50  N   UNL A   1      44.984  28.738  30.530  1.00  0.00    -0.354 N 
ATOM     51  N   UNL A   1      44.267  26.193  29.277  1.00  0.00    -0.248 NA
ATOM     52  C   UNL A   1      44.874  24.083  28.482  1.00  0.00     0.031 C 
ATOM     53  C   UNL A   1      47.059  28.998  31.282  1.00  0.00     0.029 A 
ATOM     54  C   UNL A   1      46.209  28.103  30.653  1.00  0.00     0.049 A 
ATOM     55  H   UNL A   1      44.186  28.348  30.107  1.00  0.00     0.167 HD
ATOM     56  C   UNL A   1      45.603  25.957  29.578  1.00  0.00     0.074 A 
ATOM     57  C   UNL A   1      45.911  24.625  29.103  1.00  0.00     0.031 C 
ATOM     58  C   UNL A   1      46.495  26.770  30.193  1.00  0.00     0.031 A 
BRANCH  45  59
ATOM     59  C   UNL A   1      44.198  32.283  31.763  1.00  0.00    -0.014 A 
ATOM     60  C   UNL A   1      43.990  32.477  33.139  1.00  0.00     0.009 A 
ATOM     61  C   UNL A   1      44.684  33.351  30.994  1.00  0.00     0.009 A 
ATOM     62  C   UNL A   1      44.231  33.721  33.723  1.00  0.00     0.001 A 
ATOM     63  C   UNL A   1      44.955  34.585  31.587  1.00  0.00     0.001 A 
ATOM     64  C   UNL A   1      44.721  34.772  32.948  1.00  0.00     0.000 A 
ENDBRANCH  45  59
BRANCH  46  65
ATOM     65  C   UNL A   1      42.187  23.461  27.540  1.00  0.00    -0.014 A 
ATOM     66  C   UNL A   1      41.646  22.411  28.301  1.00  0.00     0.009 A 
ATOM     67  C   UNL A   1      42.513  23.222  26.196  1.00  0.00     0.009 A 
ATOM     68  C   UNL A   1      41.483  21.141  27.743  1.00  0.00     0.001 A 
ATOM     69  C   UNL A   1      42.314  21.961  25.630  1.00  0.00     0.001 A 
ATOM     70  C   UNL A   1      41.815  20.918  26.408  1.00  0.00     0.000 A 
ENDBRANCH  46  65
BRANCH  58  71
ATOM     71  C   UNL A   1      47.872  26.221  30.444  1.00  0.00    -0.014 A 
ATOM     72  C   UNL A   1      48.861  26.231  29.449  1.00  0.00     0.009 A 
ATOM     73  C   UNL A   1      48.193  25.723  31.717  1.00  0.00     0.009 A 
ATOM     74  C   UNL A   1      50.134  25.720  29.714  1.00  0.00     0.001 A 
ATOM     75  C   UNL A   1      49.476  25.245  31.990  1.00  0.00     0.001 A 
ATOM     76  C   UNL A   1      50.441  25.235  30.984  1.00  0.00     0.000 A 
ENDBRANCH  58  71
ENDBRANCH  32  33
ENDBRANCH  24  27
ENDBRANCH  22  23
ENDBRANCH  21  22
ENDBRANCH   1  21
TORSDOF 16
ENDMDL
MODEL 2
REMARK VINA RESULT:     -10.0      2.825      4.636
REMARK SMILES C=CCN(CC(=O)NCCCNC(=O)c1ccc(-c2c3nc(c(-c4ccccc4)c4ccc([nH]4)c(-c4ccccc4)c4nc(c(-c5ccccc5)c5ccc2[nH]5)C=C4)C=C3)cc1)S(=O)(=O)Cc1cc(C)on1
REMARK SMILES IDX 9 1 8 2 6 3 7 4 5 6 4 7 3 8 2 9 1 10 63 11 64 12 65 13 66 14
REMARK SMILES IDX 67 15 68 16 72 17 69 18 71 19 70 20 10 21 11 22 12 23 13 24
REMARK SMILES IDX 14 26 15 27 16 28 62 29 17 30 61 31 18 32 19 33 20 34 55 35
REMARK SMILES IDX 21 36 60 37 54 38 56 39 22 40 59 41 53 42 52 43 23 45 45 46
REMARK SMILES IDX 30 47 44 48 31 49 34 50 43 51 57 52 32 53 33 54 42 56 58 57
REMARK SMILES IDX 35 58 24 59 25 60 29 61 26 62 28 63 27 64 46 65 47 66 51 67
REMARK SMILES IDX 48 68 50 69 49 70 36 71 37 72 41 73 38 74 40 75 39 76
REMARK H PARENT 8 5 12 25 56 44 34 55
REMARK Flexibility Score: inf
ROOT
ATOM      1  C   UNL A   1      31.106  30.258  25.181  1.00  0.00     0.117 C 
ENDROOT
BRANCH   1   2
ATOM      2  N   UNL A   1      30.669  30.273  23.796  1.00  0.00    -0.355 N 
ATOM      3  C   UNL A   1      30.089  29.296  23.038  1.00  0.00     0.235 C 
ATOM      4  O   UNL A   1      29.747  29.583  21.887  1.00  0.00    -0.274 OA
ATOM      5  H   UNL A   1      30.812  31.127  23.329  1.00  0.00     0.163 HD
BRANCH   3   6
ATOM      6  C   UNL A   1      29.808  27.907  23.599  1.00  0.00     0.202 C 
BRANCH   6   7
ATOM      7  N   UNL A   1      30.918  26.902  23.633  1.00  0.00    -0.188 NA
BRANCH   7   8
ATOM      8  C   UNL A   1      31.780  26.986  22.442  1.00  0.00     0.129 C 
BRANCH   8   9
ATOM      9  C   UNL A   1      33.217  27.302  22.668  1.00  0.00    -0.018 C 
ATOM     10  C   UNL A   1      33.726  28.543  22.650  1.00  0.00     0.005 C 
ENDBRANCH   8   9
ENDBRANCH   7   8
BRANCH   7  11
ATOM     11  S   UNL A   1      30.616  25.451  24.471  1.00  0.00     0.220 S 
ATOM     12  O   UNL A   1      29.480  25.671  25.336  1.00  0.00    -0.212 OA
ATOM     13  O   UNL A   1      30.587  24.336  23.545  1.00  0.00    -0.212 OA
BRANCH  11  14
ATOM     14  C   UNL A   1      32.114  25.239  25.454  1.00  0.00     0.214 C 
BRANCH  14  15
ATOM     15  C   UNL A   1      32.523  26.467  26.205  1.00  0.00     0.100 A 
ATOM     16  C   UNL A   1      33.723  27.219  26.154  1.00  0.00     0.073 A 
ATOM     17  N   UNL A   1      31.670  27.014  27.087  1.00  0.00    -0.084 NA
ATOM     18  C   UNL A   1      33.520  28.273  27.004  1.00  0.00     0.133 A 
ATOM     19  O   UNL A   1      32.299  28.143  27.584  1.00  0.00    -0.361 OA
ATOM     20  C   UNL A   1      34.323  29.453  27.370  1.00  0.00     0.091 C 
ENDBRANCH  14  15
ENDBRANCH  11  14
ENDBRANCH   7  11
ENDBRANCH   6   7
ENDBRANCH   3   6
ENDBRANCH   1   2
BRANCH   1  21
ATOM     21  C   UNL A   1      30.971  31.630  25.838  1.00  0.00     0.042 C 
BRANCH  21  22
ATOM     22  C   UNL A   1      32.091  31.984  26.800  1.00  0.00     0.118 C 
BRANCH  22  23
ATOM     23  N   UNL A   1      32.067  33.386  27.193  1.00  0.00    -0.352 N 
ATOM     24  C   UNL A   1      32.891  34.103  28.027  1.00  0.00     0.251 C 
ATOM     25  H   UNL A   1      31.336  33.910  26.793  1.00  0.00     0.163 HD
ATOM     26  O   UNL A   1      32.556  35.239  28.357  1.00  0.00    -0.269 OA
BRANCH  24  27
ATOM     27  C   UNL A   1      34.157  33.535  28.554  1.00  0.00     0.039 A 
ATOM     28  C   UNL A   1      34.108  32.743  29.707  1.00  0.00     0.014 A 
ATOM     29  C   UNL A   1      35.394  33.810  27.969  1.00  0.00     0.014 A 
ATOM     30  C   UNL A   1      35.281  32.189  30.231  1.00  0.00     0.010 A 
ATOM     31  C   UNL A   1      36.546  33.173  28.427  1.00  0.00     0.010 A 
ATOM     32  C   UNL A   1      36.508  32.370  29.576  1.00  0.00    -0.014 A 
BRANCH  32  33
ATOM     33  C   UNL A   1      37.764  31.767  30.096  1.00  0.00     0.031 A 
ATOM     34  C   UNL A   1      38.523  32.445  31.209  1.00  0.00     0.074 A 
ATOM     35  C   UNL A   1      38.248  30.634  29.548  1.00  0.00     0.049 A 
ATOM     36  N   UNL A   1      39.665  32.111  31.755  1.00  0.00    -0.248 NA
ATOM     37  C   UNL A   1      37.930  33.671  31.770  1.00  0.00     0.031 C 
ATOM     38  C   UNL A   1      37.625  29.884  28.455  1.00  0.00     0.029 A 
ATOM     39  N   UNL A   1      39.379  29.912  29.840  1.00  0.00    -0.354 N 
ATOM     40  C   UNL A   1      39.927  33.085  32.712  1.00  0.00     0.074 A 
ATOM     41  C   UNL A   1      38.860  34.057  32.630  1.00  0.00     0.031 C 
ATOM     42  C   UNL A   1      38.363  28.794  28.192  1.00  0.00     0.029 A 
ATOM     43  C   UNL A   1      39.536  28.791  29.060  1.00  0.00     0.049 A 
ATOM     44  H   UNL A   1      40.019  30.173  30.541  1.00  0.00     0.167 HD
ATOM     45  C   UNL A   1      40.947  33.153  33.601  1.00  0.00     0.031 A 
ATOM     46  C   UNL A   1      40.518  27.871  29.040  1.00  0.00     0.031 A 
ATOM     47  C   UNL A   1      42.009  32.188  33.691  1.00  0.00     0.049 A 
ATOM     48  C   UNL A   1      41.672  28.007  29.997  1.00  0.00     0.074 A 
ATOM     49  C   UNL A   1      43.075  32.159  34.572  1.00  0.00     0.029 A 
ATOM     50  N   UNL A   1      42.136  31.080  32.869  1.00  0.00    -0.354 N 
ATOM     51  N   UNL A   1      41.876  28.907  30.927  1.00  0.00    -0.248 NA
ATOM     52  C   UNL A   1      42.730  26.989  29.905  1.00  0.00     0.031 C 
ATOM     53  C   UNL A   1      43.877  31.060  34.250  1.00  0.00     0.029 A 
ATOM     54  C   UNL A   1      43.274  30.369  33.213  1.00  0.00     0.049 A 
ATOM     55  H   UNL A   1      41.512  30.834  32.149  1.00  0.00     0.167 HD
ATOM     56  C   UNL A   1      43.059  28.541  31.557  1.00  0.00     0.074 A 
ATOM     57  C   UNL A   1      43.519  27.328  30.914  1.00  0.00     0.031 C 
ATOM     58  C   UNL A   1      43.708  29.154  32.577  1.00  0.00     0.031 A 
BRANCH  45  59
ATOM     59  C   UNL A   1      40.956  34.313  34.561  1.00  0.00    -0.014 A 
ATOM     60  C   UNL A   1      40.279  34.239  35.790  1.00  0.00     0.009 A 
ATOM     61  C   UNL A   1      41.690  35.470  34.260  1.00  0.00     0.009 A 
ATOM     62  C   UNL A   1      40.311  35.312  36.681  1.00  0.00     0.001 A 
ATOM     63  C   UNL A   1      41.746  36.530  35.167  1.00  0.00     0.001 A 
ATOM     64  C   UNL A   1      41.050  36.453  36.372  1.00  0.00     0.000 A 
ENDBRANCH  45  59
BRANCH  46  65
ATOM     65  C   UNL A   1      40.470  26.730  28.083  1.00  0.00    -0.014 A 
ATOM     66  C   UNL A   1      39.855  25.521  28.447  1.00  0.00     0.009 A 
ATOM     67  C   UNL A   1      41.084  26.823  26.824  1.00  0.00     0.009 A 
ATOM     68  C   UNL A   1      39.897  24.417  27.592  1.00  0.00     0.001 A 
ATOM     69  C   UNL A   1      41.091  25.729  25.955  1.00  0.00     0.001 A 
ATOM     70  C   UNL A   1      40.513  24.523  26.346  1.00  0.00     0.000 A 
ENDBRANCH  46  65
BRANCH  58  71
ATOM     71  C   UNL A   1      44.949  28.490  33.103  1.00  0.00    -0.014 A 
ATOM     72  C   UNL A   1      44.889  27.492  34.088  1.00  0.00     0.009 A 
ATOM     73  C   UNL A   1      46.199  28.842  32.569  1.00  0.00     0.009 A 
ATOM     74  C   UNL A   1      46.059  26.887  34.552  1.00  0.00     0.001 A 
ATOM     75  C   UNL A   1      47.363  28.212  33.010  1.00  0.00     0.001 A 
ATOM     76  C   UNL A   1      47.293  27.243  34.009  1.00  0.00     0.000 A 
ENDBRANCH  58  71
ENDBRANCH  32  33
ENDBRANCH  24  27
ENDBRANCH  22  23
ENDBRANCH  21  22
ENDBRANCH   1  21
TORSDOF 16
ENDMDL
MODEL 3
REMARK VINA RESULT:      -9.9      2.007      7.290
REMARK SMILES C=CCN(CC(=O)NCCCNC(=O)c1ccc(-c2c3nc(c(-c4ccccc4)c4ccc([nH]4)c(-c4ccccc4)c4nc(c(-c5ccccc5)c5ccc2[nH]5)C=C4)C=C3)cc1)S(=O)(=O)Cc1cc(C)on1
REMARK SMILES IDX 9 1 8 2 6 3 7 4 5 6 4 7 3 8 2 9 1 10 63 11 64 12 65 13 66 14
REMARK SMILES IDX 67 15 68 16 72 17 69 18 71 19 70 20 10 21 11 22 12 23 13 24
REMARK SMILES IDX 14 26 15 27 16 28 62 29 17 30 61 31 18 32 19 33 20 34 55 35
REMARK SMILES IDX 21 36 60 37 54 38 56 39 22 40 59 41 53 42 52 43 23 45 45 46
REMARK SMILES IDX 30 47 44 48 31 49 34 50 43 51 57 52 32 53 33 54 42 56 58 57
REMARK SMILES IDX 35 58 24 59 25 60 29 61 26 62 28 63 27 64 46 65 47 66 51 67
REMARK SMILES IDX 48 68 50 69 49 70 36 71 37 72 41 73 38 74 40 75 39 76
REMARK H PARENT 8 5 12 25 56 44 34 55
REMARK Flexibility Score: inf
ROOT
ATOM      1  C   UNL A   1      36.238  19.959  25.000  1.00  0.00     0.117 C 
ENDROOT
BRANCH   1   2
ATOM      2  N   UNL A   1      36.167  21.319  25.503  1.00  0.00    -0.355 N 
ATOM      3  C   UNL A   1      35.156  21.978  26.144  1.00  0.00     0.235 C 
ATOM      4  O   UNL A   1      35.371  23.130  26.532  1.00  0.00    -0.274 OA
ATOM      5  H   UNL A   1      36.981  21.854  25.359  1.00  0.00     0.163 HD
BRANCH   3   6
ATOM      6  C   UNL A   1      33.820  21.305  26.434  1.00  0.00     0.202 C 
BRANCH   6   7
ATOM      7  N   UNL A   1      32.625  21.681  25.613  1.00  0.00    -0.188 NA
BRANCH   7   8
ATOM      8  C   UNL A   1      32.931  21.718  24.172  1.00  0.00     0.129 C 
BRANCH   8   9
ATOM      9  C   UNL A   1      32.431  20.587  23.345  1.00  0.00    -0.018 C 
ATOM     10  C   UNL A   1      32.422  19.307  23.747  1.00  0.00     0.005 C 
ENDBRANCH   8   9
ENDBRANCH   7   8
BRANCH   7  11
ATOM     11  S   UNL A   1      31.470  22.688  26.352  1.00  0.00     0.220 S 
ATOM     12  O   UNL A   1      30.201  22.000  26.322  1.00  0.00    -0.212 OA
ATOM     13  O   UNL A   1      31.974  23.177  27.621  1.00  0.00    -0.212 OA
BRANCH  11  14
ATOM     14  C   UNL A   1      31.428  24.120  25.254  1.00  0.00     0.214 C 
BRANCH  14  15
ATOM     15  C   UNL A   1      31.629  25.425  25.956  1.00  0.00     0.100 A 
ATOM     16  C   UNL A   1      32.786  26.234  26.081  1.00  0.00     0.073 A 
ATOM     17  N   UNL A   1      30.594  25.996  26.594  1.00  0.00    -0.084 NA
ATOM     18  C   UNL A   1      32.375  27.342  26.773  1.00  0.00     0.133 A 
ATOM     19  O   UNL A   1      31.067  27.195  27.103  1.00  0.00    -0.361 OA
ATOM     20  C   UNL A   1      33.043  28.589  27.184  1.00  0.00     0.091 C 
ENDBRANCH  14  15
ENDBRANCH  11  14
ENDBRANCH   7  11
ENDBRANCH   6   7
ENDBRANCH   3   6
ENDBRANCH   1   2
BRANCH   1  21
ATOM     21  C   UNL A   1      37.677  19.519  24.743  1.00  0.00     0.042 C 
BRANCH  21  22
ATOM     22  C   UNL A   1      38.699  20.099  25.704  1.00  0.00     0.118 C 
BRANCH  22  23
ATOM     23  N   UNL A   1      39.887  19.267  25.825  1.00  0.00    -0.352 N 
ATOM     24  C   UNL A   1      41.180  19.586  26.165  1.00  0.00     0.251 C 
ATOM     25  H   UNL A   1      39.740  18.314  25.629  1.00  0.00     0.163 HD
ATOM     26  O   UNL A   1      42.059  18.739  26.013  1.00  0.00    -0.269 OA
BRANCH  24  27
ATOM     27  C   UNL A   1      41.544  20.926  26.689  1.00  0.00     0.039 A 
ATOM     28  C   UNL A   1      41.962  21.908  25.784  1.00  0.00     0.014 A 
ATOM     29  C   UNL A   1      41.534  21.218  28.054  1.00  0.00     0.014 A 
ATOM     30  C   UNL A   1      42.311  23.184  26.240  1.00  0.00     0.010 A 
ATOM     31  C   UNL A   1      41.777  22.517  28.497  1.00  0.00     0.010 A 
ATOM     32  C   UNL A   1      42.188  23.511  27.599  1.00  0.00    -0.014 A 
BRANCH  32  33
ATOM     33  C   UNL A   1      42.525  24.869  28.105  1.00  0.00     0.031 A 
ATOM     34  C   UNL A   1      43.950  25.212  28.459  1.00  0.00     0.074 A 
ATOM     35  C   UNL A   1      41.551  25.784  28.286  1.00  0.00     0.049 A 
ATOM     36  N   UNL A   1      44.433  26.316  28.972  1.00  0.00    -0.248 NA
ATOM     37  C   UNL A   1      44.965  24.170  28.224  1.00  0.00     0.031 C 
ATOM     38  C   UNL A   1      40.128  25.579  28.003  1.00  0.00     0.029 A 
ATOM     39  N   UNL A   1      41.611  27.074  28.753  1.00  0.00    -0.354 N 
ATOM     40  C   UNL A   1      45.797  26.097  29.125  1.00  0.00     0.074 A 
ATOM     41  C   UNL A   1      46.058  24.736  28.713  1.00  0.00     0.031 C 
ATOM     42  C   UNL A   1      39.459  26.712  28.267  1.00  0.00     0.029 A 
ATOM     43  C   UNL A   1      40.392  27.707  28.788  1.00  0.00     0.049 A 
ATOM     44  H   UNL A   1      42.449  27.506  29.036  1.00  0.00     0.167 HD
ATOM     45  C   UNL A   1      46.756  26.958  29.543  1.00  0.00     0.031 A 
ATOM     46  C   UNL A   1      40.060  28.944  29.202  1.00  0.00     0.031 A 
ATOM     47  C   UNL A   1      46.505  28.314  29.951  1.00  0.00     0.049 A 
ATOM     48  C   UNL A   1      41.138  29.857  29.722  1.00  0.00     0.074 A 
ATOM     49  C   UNL A   1      47.413  29.270  30.371  1.00  0.00     0.029 A 
ATOM     50  N   UNL A   1      45.252  28.905  29.988  1.00  0.00    -0.354 N 
ATOM     51  N   UNL A   1      42.429  29.649  29.812  1.00  0.00    -0.248 NA
ATOM     52  C   UNL A   1      40.710  31.185  30.190  1.00  0.00     0.031 C 
ATOM     53  C   UNL A   1      46.703  30.426  30.710  1.00  0.00     0.029 A 
ATOM     54  C   UNL A   1      45.362  30.209  30.439  1.00  0.00     0.049 A 
ATOM     55  H   UNL A   1      44.411  28.465  29.731  1.00  0.00     0.167 HD
ATOM     56  C   UNL A   1      42.970  30.831  30.305  1.00  0.00     0.074 A 
ATOM     57  C   UNL A   1      41.870  31.756  30.478  1.00  0.00     0.031 C 
ATOM     58  C   UNL A   1      44.262  31.124  30.589  1.00  0.00     0.031 A 
BRANCH  45  59
ATOM     59  C   UNL A   1      48.175  26.458  29.570  1.00  0.00    -0.014 A 
ATOM     60  C   UNL A   1      48.710  25.861  30.724  1.00  0.00     0.009 A 
ATOM     61  C   UNL A   1      48.971  26.534  28.417  1.00  0.00     0.009 A 
ATOM     62  C   UNL A   1      50.020  25.382  30.732  1.00  0.00     0.001 A 
ATOM     63  C   UNL A   1      50.271  26.026  28.417  1.00  0.00     0.001 A 
ATOM     64  C   UNL A   1      50.797  25.458  29.577  1.00  0.00     0.000 A 
ENDBRANCH  45  59
BRANCH  46  65
ATOM     65  C   UNL A   1      38.646  29.409  29.150  1.00  0.00    -0.014 A 
ATOM     66  C   UNL A   1      37.781  29.183  30.234  1.00  0.00     0.009 A 
ATOM     67  C   UNL A   1      38.138  30.033  28.000  1.00  0.00     0.009 A 
ATOM     68  C   UNL A   1      36.430  29.527  30.148  1.00  0.00     0.001 A 
ATOM     69  C   UNL A   1      36.795  30.411  27.931  1.00  0.00     0.001 A 
ATOM     70  C   UNL A   1      35.939  30.142  28.998  1.00  0.00     0.000 A 
ENDBRANCH  46  65
BRANCH  58  71
ATOM     71  C   UNL A   1      44.566  32.520  31.056  1.00  0.00    -0.014 A 
ATOM     72  C   UNL A   1      44.599  32.849  32.420  1.00  0.00     0.009 A 
ATOM     73  C   UNL A   1      44.869  33.513  30.110  1.00  0.00     0.009 A 
ATOM     74  C   UNL A   1      44.893  34.153  32.824  1.00  0.00     0.001 A 
ATOM     75  C   UNL A   1      45.196  34.807  30.518  1.00  0.00     0.001 A 
ATOM     76  C   UNL A   1      45.197  35.128  31.874  1.00  0.00     0.000 A 
ENDBRANCH  58  71
ENDBRANCH  32  33
ENDBRANCH  24  27
ENDBRANCH  22  23
ENDBRANCH  21  22
ENDBRANCH   1  21
TORSDOF 16
ENDMDL
