MODEL 1
REMARK VINA RESULT:     -13.0      0.000      0.000
REMARK SMILES CN1N[C@H](C(=O)N[C@@H](CC2=c3ccccc3=NC2)C(=O)NCCCNC(=O)c2ccc(-c3c4nc(c(-c5ccccc5)c5ccc([nH]5)c(-c5ccccc5)c5nc(c(-c6ccccc6)c6ccc3[nH]6)C=C5)C=C4)cc2)c2ccccc2C1=O
REMARK SMILES IDX 23 1 22 2 21 3 19 4 20 5 8 7 7 8 5 9 6 10 4 12 1 13 2 14
REMARK SMILES IDX 3 15 82 16 81 18 83 19 76 20 80 21 77 22 79 23 78 24 9 25
REMARK SMILES IDX 10 26 11 27 18 28 12 29 16 30 17 31 13 32 15 33 14 34 24 35
REMARK SMILES IDX 25 36 26 37 27 39 28 40 29 41 75 42 30 43 74 44 31 45 32 46
REMARK SMILES IDX 33 47 68 48 34 49 73 50 67 51 69 52 35 53 72 54 66 55 65 56
REMARK SMILES IDX 36 58 58 59 43 60 57 61 44 62 47 63 56 64 70 65 45 66 46 67
REMARK SMILES IDX 55 69 71 70 48 71 37 72 38 73 42 74 39 75 41 76 40 77 59 78
REMARK SMILES IDX 60 79 64 80 61 81 63 82 62 83 49 84 50 85 54 86 51 87 53 88
REMARK SMILES IDX 52 89
REMARK H PARENT 21 6 7 11 3 17 25 38 69 57 47 68
REMARK Flexibility Score: inf
ROOT
ATOM      1  C   UNL A   1      31.982  29.251  27.035  1.00  0.00     0.042 C 
ENDROOT
BRANCH   1   2
ATOM      2  C   UNL A   1      31.996  27.744  26.868  1.00  0.00     0.117 C 
BRANCH   2   3
ATOM      3  N   UNL A   1      33.210  27.073  26.481  1.00  0.00    -0.354 N 
ATOM      4  C   UNL A   1      33.218  25.994  25.622  1.00  0.00     0.242 C 
ATOM      5  O   UNL A   1      34.043  26.023  24.703  1.00  0.00    -0.273 OA
ATOM      6  H   UNL A   1      34.066  27.398  26.842  1.00  0.00     0.163 HD
BRANCH   4   7
ATOM      7  C   UNL A   1      32.199  24.804  25.729  1.00  0.00     0.175 C 
BRANCH   7   8
ATOM      8  N   UNL A   1      32.373  23.872  26.852  1.00  0.00    -0.342 N 
ATOM      9  C   UNL A   1      33.266  22.849  27.025  1.00  0.00     0.244 C 
ATOM     10  O   UNL A   1      33.214  22.235  28.097  1.00  0.00    -0.273 OA
ATOM     11  H   UNL A   1      31.746  24.005  27.600  1.00  0.00     0.164 HD
BRANCH   9  12
ATOM     12  C   UNL A   1      34.303  22.450  25.940  1.00  0.00     0.195 C 
ATOM     13  C   UNL A   1      37.976  22.618  25.727  1.00  0.00     0.169 C 
ATOM     14  N   UNL A   1      36.676  21.970  25.785  1.00  0.00    -0.276 N 
ATOM     15  N   UNL A   1      35.648  22.591  26.536  1.00  0.00    -0.215 NA
ATOM     16  C   UNL A   1      36.505  20.701  25.223  1.00  0.00     0.268 C 
ATOM     17  H   UNL A   1      35.862  23.585  26.614  1.00  0.00     0.149 HD
ATOM     18  C   UNL A   1      35.104  20.219  25.087  1.00  0.00     0.046 A 
ATOM     19  O   UNL A   1      37.428  20.025  24.775  1.00  0.00    -0.268 OA
ATOM     20  C   UNL A   1      34.036  21.085  25.353  1.00  0.00    -0.007 A 
ATOM     21  C   UNL A   1      34.865  18.939  24.570  1.00  0.00     0.014 A 
ATOM     22  C   UNL A   1      32.736  20.690  24.992  1.00  0.00     0.007 A 
ATOM     23  C   UNL A   1      33.563  18.540  24.266  1.00  0.00     0.001 A 
ATOM     24  C   UNL A   1      32.503  19.424  24.454  1.00  0.00     0.000 A 
ENDBRANCH   9  12
ENDBRANCH   7   8
BRANCH   7  25
ATOM     25  C   UNL A   1      30.692  25.137  25.440  1.00  0.00     0.068 C 
BRANCH  25  26
ATOM     26  C   UNL A   1      30.235  25.740  24.108  1.00  0.00    -0.037 C 
ATOM     27  C   UNL A   1      29.976  27.053  23.953  1.00  0.00     0.001 A 
ATOM     28  C   UNL A   1      30.893  25.210  22.873  1.00  0.00     0.174 C 
ATOM     29  C   UNL A   1      28.804  27.656  23.306  1.00  0.00     0.010 A 
ATOM     30  C   UNL A   1      31.116  27.351  23.030  1.00  0.00     0.065 A 
ATOM     31  N   UNL A   1      31.633  26.378  22.353  1.00  0.00    -0.280 NA
ATOM     32  C   UNL A   1      28.972  28.853  22.696  1.00  0.00     0.001 A 
ATOM     33  C   UNL A   1      31.394  28.792  22.899  1.00  0.00     0.028 A 
ATOM     34  C   UNL A   1      30.273  29.517  22.742  1.00  0.00     0.002 A 
ENDBRANCH  25  26
ENDBRANCH   7  25
ENDBRANCH   4   7
ENDBRANCH   2   3
ENDBRANCH   1   2
BRANCH   1  35
ATOM     35  C   UNL A   1      33.371  29.893  26.970  1.00  0.00     0.118 C 
BRANCH  35  36
ATOM     36  N   UNL A   1      33.661  30.909  27.991  1.00  0.00    -0.352 N 
ATOM     37  C   UNL A   1      34.746  31.244  28.781  1.00  0.00     0.251 C 
ATOM     38  H   UNL A   1      32.891  31.500  28.152  1.00  0.00     0.163 HD
ATOM     39  O   UNL A   1      34.660  32.211  29.516  1.00  0.00    -0.269 OA
BRANCH  37  40
ATOM     40  C   UNL A   1      35.985  30.426  28.821  1.00  0.00     0.039 A 
ATOM     41  C   UNL A   1      36.346  29.682  29.932  1.00  0.00     0.014 A 
ATOM     42  C   UNL A   1      36.832  30.418  27.702  1.00  0.00     0.014 A 
ATOM     43  C   UNL A   1      37.644  29.207  30.053  1.00  0.00     0.010 A 
ATOM     44  C   UNL A   1      38.086  29.793  27.765  1.00  0.00     0.010 A 
ATOM     45  C   UNL A   1      38.543  29.261  28.977  1.00  0.00    -0.014 A 
BRANCH  45  46
ATOM     46  C   UNL A   1      39.945  28.792  29.172  1.00  0.00     0.031 A 
ATOM     47  C   UNL A   1      40.372  27.423  28.699  1.00  0.00     0.074 A 
ATOM     48  C   UNL A   1      40.869  29.639  29.675  1.00  0.00     0.049 A 
ATOM     49  N   UNL A   1      41.552  26.856  28.781  1.00  0.00    -0.248 NA
ATOM     50  C   UNL A   1      39.353  26.574  28.060  1.00  0.00     0.031 C 
ATOM     51  C   UNL A   1      40.601  31.004  30.133  1.00  0.00     0.029 A 
ATOM     52  N   UNL A   1      42.225  29.500  29.837  1.00  0.00    -0.354 N 
ATOM     53  C   UNL A   1      41.403  25.582  28.245  1.00  0.00     0.074 A 
ATOM     54  C   UNL A   1      40.018  25.445  27.857  1.00  0.00     0.031 C 
ATOM     55  C   UNL A   1      41.761  31.608  30.422  1.00  0.00     0.029 A 
ATOM     56  C   UNL A   1      42.844  30.642  30.286  1.00  0.00     0.049 A 
ATOM     57  H   UNL A   1      42.708  28.662  29.650  1.00  0.00     0.167 HD
ATOM     58  C   UNL A   1      42.337  24.616  28.082  1.00  0.00     0.031 A 
ATOM     59  C   UNL A   1      44.134  30.891  30.587  1.00  0.00     0.031 A 
ATOM     60  C   UNL A   1      43.726  24.768  28.428  1.00  0.00     0.049 A 
ATOM     61  C   UNL A   1      45.139  29.787  30.449  1.00  0.00     0.074 A 
ATOM     62  C   UNL A   1      44.749  23.846  28.287  1.00  0.00     0.029 A 
ATOM     63  N   UNL A   1      44.288  25.912  28.970  1.00  0.00    -0.354 N 
ATOM     64  N   UNL A   1      44.970  28.577  29.977  1.00  0.00    -0.248 NA
ATOM     65  C   UNL A   1      46.507  30.071  30.907  1.00  0.00     0.031 C 
ATOM     66  C   UNL A   1      45.919  24.413  28.795  1.00  0.00     0.029 A 
ATOM     67  C   UNL A   1      45.638  25.710  29.193  1.00  0.00     0.049 A 
ATOM     68  H   UNL A   1      43.799  26.744  29.167  1.00  0.00     0.167 HD
ATOM     69  C   UNL A   1      46.205  27.955  30.077  1.00  0.00     0.074 A 
ATOM     70  C   UNL A   1      47.123  28.928  30.632  1.00  0.00     0.031 C 
ATOM     71  C   UNL A   1      46.542  26.686  29.746  1.00  0.00     0.031 A 
BRANCH  58  72
ATOM     72  C   UNL A   1      41.904  23.290  27.518  1.00  0.00    -0.014 A 
ATOM     73  C   UNL A   1      41.449  22.285  28.387  1.00  0.00     0.009 A 
ATOM     74  C   UNL A   1      42.043  22.994  26.154  1.00  0.00     0.009 A 
ATOM     75  C   UNL A   1      41.158  21.007  27.907  1.00  0.00     0.001 A 
ATOM     76  C   UNL A   1      41.724  21.722  25.671  1.00  0.00     0.001 A 
ATOM     77  C   UNL A   1      41.294  20.727  26.549  1.00  0.00     0.000 A 
ENDBRANCH  58  72
BRANCH  59  78
ATOM     78  C   UNL A   1      44.522  32.240  31.080  1.00  0.00    -0.014 A 
ATOM     79  C   UNL A   1      44.450  32.545  32.450  1.00  0.00     0.009 A 
ATOM     80  C   UNL A   1      44.900  33.250  30.183  1.00  0.00     0.009 A 
ATOM     81  C   UNL A   1      44.706  33.839  32.907  1.00  0.00     0.001 A 
ATOM     82  C   UNL A   1      45.189  34.535  30.647  1.00  0.00     0.001 A 
ATOM     83  C   UNL A   1      45.078  34.833  32.005  1.00  0.00     0.000 A 
ENDBRANCH  59  78
BRANCH  71  84
ATOM     84  C   UNL A   1      47.964  26.258  29.960  1.00  0.00    -0.014 A 
ATOM     85  C   UNL A   1      48.841  26.183  28.866  1.00  0.00     0.009 A 
ATOM     86  C   UNL A   1      48.401  25.816  31.217  1.00  0.00     0.009 A 
ATOM     87  C   UNL A   1      50.122  25.653  29.022  1.00  0.00     0.001 A 
ATOM     88  C   UNL A   1      49.693  25.312  31.376  1.00  0.00     0.001 A 
ATOM     89  C   UNL A   1      50.548  25.220  30.277  1.00  0.00     0.000 A 
ENDBRANCH  71  84
ENDBRANCH  45  46
ENDBRANCH  37  40
ENDBRANCH  35  36
ENDBRANCH   1  35
TORSDOF 14
ENDMDL
MODEL 2
REMARK VINA RESULT:     -12.8      0.242      5.665
REMARK SMILES CN1N[C@H](C(=O)N[C@@H](CC2=c3ccccc3=NC2)C(=O)NCCCNC(=O)c2ccc(-c3c4nc(c(-c5ccccc5)c5ccc([nH]5)c(-c5ccccc5)c5nc(c(-c6ccccc6)c6ccc3[nH]6)C=C5)C=C4)cc2)c2ccccc2C1=O
REMARK SMILES IDX 23 1 22 2 21 3 19 4 20 5 8 7 7 8 5 9 6 10 4 12 1 13 2 14
REMARK SMILES IDX 3 15 82 16 81 18 83 19 76 20 80 21 77 22 79 23 78 24 9 25
REMARK SMILES IDX 10 26 11 27 18 28 12 29 16 30 17 31 13 32 15 33 14 34 24 35
REMARK SMILES IDX 25 36 26 37 27 39 28 40 29 41 75 42 30 43 74 44 31 45 32 46
REMARK SMILES IDX 33 47 68 48 34 49 73 50 67 51 69 52 35 53 72 54 66 55 65 56
REMARK SMILES IDX 36 58 58 59 43 60 57 61 44 62 47 63 56 64 70 65 45 66 46 67
REMARK SMILES IDX 55 69 71 70 48 71 37 72 38 73 42 74 39 75 41 76 40 77 59 78
REMARK SMILES IDX 60 79 64 80 61 81 63 82 62 83 49 84 50 85 54 86 51 87 53 88
REMARK SMILES IDX 52 89
REMARK H PARENT 21 6 7 11 3 17 25 38 69 57 47 68
REMARK Flexibility Score: inf
ROOT
ATOM      1  C   UNL A   1      32.050  29.346  26.837  1.00  0.00     0.042 C 
ENDROOT
BRANCH   1   2
ATOM      2  C   UNL A   1      32.042  27.830  26.882  1.00  0.00     0.117 C 
BRANCH   2   3
ATOM      3  N   UNL A   1      33.223  27.092  26.519  1.00  0.00    -0.354 N 
ATOM      4  C   UNL A   1      33.185  26.002  25.675  1.00  0.00     0.242 C 
ATOM      5  O   UNL A   1      34.021  25.975  24.766  1.00  0.00    -0.273 OA
ATOM      6  H   UNL A   1      34.091  27.377  26.886  1.00  0.00     0.163 HD
BRANCH   4   7
ATOM      7  C   UNL A   1      32.106  24.867  25.785  1.00  0.00     0.175 C 
BRANCH   7   8
ATOM      8  N   UNL A   1      32.259  23.900  26.881  1.00  0.00    -0.342 N 
ATOM      9  C   UNL A   1      33.147  22.870  27.037  1.00  0.00     0.244 C 
ATOM     10  O   UNL A   1      33.076  22.223  28.088  1.00  0.00    -0.273 OA
ATOM     11  H   UNL A   1      31.620  24.011  27.623  1.00  0.00     0.164 HD
BRANCH   9  12
ATOM     12  C   UNL A   1      34.201  22.504  25.957  1.00  0.00     0.195 C 
ATOM     13  C   UNL A   1      37.865  22.818  25.747  1.00  0.00     0.169 C 
ATOM     14  N   UNL A   1      36.593  22.119  25.811  1.00  0.00    -0.276 N 
ATOM     15  N   UNL A   1      35.539  22.705  26.554  1.00  0.00    -0.215 NA
ATOM     16  C   UNL A   1      36.474  20.838  25.261  1.00  0.00     0.268 C 
ATOM     17  H   UNL A   1      35.712  23.708  26.623  1.00  0.00     0.149 HD
ATOM     18  C   UNL A   1      35.093  20.298  25.128  1.00  0.00     0.046 A 
ATOM     19  O   UNL A   1      37.425  20.196  24.821  1.00  0.00    -0.268 OA
ATOM     20  C   UNL A   1      33.991  21.123  25.384  1.00  0.00    -0.007 A 
ATOM     21  C   UNL A   1      34.907  19.005  24.623  1.00  0.00     0.014 A 
ATOM     22  C   UNL A   1      32.708  20.672  25.025  1.00  0.00     0.007 A 
ATOM     23  C   UNL A   1      33.624  18.551  24.321  1.00  0.00     0.001 A 
ATOM     24  C   UNL A   1      32.528  19.393  24.499  1.00  0.00     0.000 A 
ENDBRANCH   9  12
ENDBRANCH   7   8
BRANCH   7  25
ATOM     25  C   UNL A   1      30.611  25.290  25.549  1.00  0.00     0.068 C 
BRANCH  25  26
ATOM     26  C   UNL A   1      30.129  25.848  24.208  1.00  0.00    -0.037 C 
ATOM     27  C   UNL A   1      29.797  27.142  24.033  1.00  0.00     0.001 A 
ATOM     28  C   UNL A   1      30.821  25.339  22.983  1.00  0.00     0.174 C 
ATOM     29  C   UNL A   1      28.597  27.670  23.372  1.00  0.00     0.010 A 
ATOM     30  C   UNL A   1      30.924  27.491  23.111  1.00  0.00     0.065 A 
ATOM     31  N   UNL A   1      31.498  26.539  22.450  1.00  0.00    -0.280 NA
ATOM     32  C   UNL A   1      28.700  28.865  22.746  1.00  0.00     0.001 A 
ATOM     33  C   UNL A   1      31.121  28.943  22.961  1.00  0.00     0.028 A 
ATOM     34  C   UNL A   1      29.962  29.603  22.788  1.00  0.00     0.002 A 
ENDBRANCH  25  26
ENDBRANCH   7  25
ENDBRANCH   4   7
ENDBRANCH   2   3
ENDBRANCH   1   2
BRANCH   1  35
ATOM     35  C   UNL A   1      33.452  29.958  26.880  1.00  0.00     0.118 C 
BRANCH  35  36
ATOM     36  N   UNL A   1      33.728  30.865  28.002  1.00  0.00    -0.352 N 
ATOM     37  C   UNL A   1      34.810  31.139  28.819  1.00  0.00     0.251 C 
ATOM     38  H   UNL A   1      32.946  31.419  28.228  1.00  0.00     0.163 HD
ATOM     39  O   UNL A   1      34.707  32.020  29.653  1.00  0.00    -0.269 OA
BRANCH  37  40
ATOM     40  C   UNL A   1      36.067  30.349  28.766  1.00  0.00     0.039 A 
ATOM     41  C   UNL A   1      36.542  29.639  29.856  1.00  0.00     0.014 A 
ATOM     42  C   UNL A   1      36.812  30.334  27.577  1.00  0.00     0.014 A 
ATOM     43  C   UNL A   1      37.856  29.196  29.872  1.00  0.00     0.010 A 
ATOM     44  C   UNL A   1      38.080  29.738  27.542  1.00  0.00     0.010 A 
ATOM     45  C   UNL A   1      38.655  29.244  28.720  1.00  0.00    -0.014 A 
BRANCH  45  46
ATOM     46  C   UNL A   1      40.080  28.811  28.799  1.00  0.00     0.031 A 
ATOM     47  C   UNL A   1      41.128  29.716  29.401  1.00  0.00     0.074 A 
ATOM     48  C   UNL A   1      40.419  27.557  28.431  1.00  0.00     0.049 A 
ATOM     49  N   UNL A   1      42.411  29.498  29.557  1.00  0.00    -0.248 NA
ATOM     50  C   UNL A   1      40.691  31.036  29.887  1.00  0.00     0.031 C 
ATOM     51  C   UNL A   1      39.497  26.565  27.871  1.00  0.00     0.029 A 
ATOM     52  N   UNL A   1      41.611  26.882  28.519  1.00  0.00    -0.354 N 
ATOM     53  C   UNL A   1      42.933  30.659  30.115  1.00  0.00     0.074 A 
ATOM     54  C   UNL A   1      41.838  31.590  30.256  1.00  0.00     0.031 C 
ATOM     55  C   UNL A   1      40.128  25.388  27.766  1.00  0.00     0.029 A 
ATOM     56  C   UNL A   1      41.527  25.565  28.136  1.00  0.00     0.049 A 
ATOM     57  H   UNL A   1      42.447  27.303  28.826  1.00  0.00     0.167 HD
ATOM     58  C   UNL A   1      44.208  30.924  30.485  1.00  0.00     0.031 A 
ATOM     59  C   UNL A   1      42.466  24.603  28.059  1.00  0.00     0.031 A 
ATOM     60  C   UNL A   1      45.292  29.982  30.384  1.00  0.00     0.049 A 
ATOM     61  C   UNL A   1      43.882  24.938  28.422  1.00  0.00     0.074 A 
ATOM     62  C   UNL A   1      46.616  30.158  30.747  1.00  0.00     0.029 A 
ATOM     63  N   UNL A   1      45.175  28.689  29.900  1.00  0.00    -0.354 N 
ATOM     64  N   UNL A   1      44.362  26.055  28.911  1.00  0.00    -0.248 NA
ATOM     65  C   UNL A   1      44.892  23.892  28.203  1.00  0.00     0.031 C 
ATOM     66  C   UNL A   1      47.313  28.991  30.430  1.00  0.00     0.029 A 
ATOM     67  C   UNL A   1      46.411  28.066  29.930  1.00  0.00     0.049 A 
ATOM     68  H   UNL A   1      44.341  28.277  29.582  1.00  0.00     0.167 HD
ATOM     69  C   UNL A   1      45.725  25.849  29.060  1.00  0.00     0.074 A 
ATOM     70  C   UNL A   1      45.995  24.491  28.634  1.00  0.00     0.031 C 
ATOM     71  C   UNL A   1      46.667  26.714  29.503  1.00  0.00     0.031 A 
BRANCH  58  72
ATOM     72  C   UNL A   1      44.528  32.293  31.022  1.00  0.00    -0.014 A 
ATOM     73  C   UNL A   1      45.037  33.274  30.155  1.00  0.00     0.009 A 
ATOM     74  C   UNL A   1      44.430  32.584  32.391  1.00  0.00     0.009 A 
ATOM     75  C   UNL A   1      45.457  34.511  30.648  1.00  0.00     0.001 A 
ATOM     76  C   UNL A   1      44.825  33.832  32.878  1.00  0.00     0.001 A 
ATOM     77  C   UNL A   1      45.348  34.790  32.009  1.00  0.00     0.000 A 
ENDBRANCH  58  72
BRANCH  59  78
ATOM     78  C   UNL A   1      42.086  23.246  27.582  1.00  0.00    -0.014 A 
ATOM     79  C   UNL A   1      42.182  22.918  26.219  1.00  0.00     0.009 A 
ATOM     80  C   UNL A   1      41.562  22.295  28.470  1.00  0.00     0.009 A 
ATOM     81  C   UNL A   1      41.724  21.686  25.748  1.00  0.00     0.001 A 
ATOM     82  C   UNL A   1      41.136  21.050  28.001  1.00  0.00     0.001 A 
ATOM     83  C   UNL A   1      41.203  20.752  26.640  1.00  0.00     0.000 A 
ENDBRANCH  59  78
BRANCH  71  84
ATOM     84  C   UNL A   1      48.088  26.235  29.566  1.00  0.00    -0.014 A 
ATOM     85  C   UNL A   1      48.605  25.743  30.775  1.00  0.00     0.009 A 
ATOM     86  C   UNL A   1      48.945  26.381  28.465  1.00  0.00     0.009 A 
ATOM     87  C   UNL A   1      49.959  25.427  30.888  1.00  0.00     0.001 A 
ATOM     88  C   UNL A   1      50.294  26.038  28.574  1.00  0.00     0.001 A 
ATOM     89  C   UNL A   1      50.802  25.573  29.787  1.00  0.00     0.000 A 
ENDBRANCH  71  84
ENDBRANCH  45  46
ENDBRANCH  37  40
ENDBRANCH  35  36
ENDBRANCH   1  35
TORSDOF 14
ENDMDL
MODEL 3
REMARK VINA RESULT:     -12.7      2.962      6.020
REMARK SMILES CN1N[C@H](C(=O)N[C@@H](CC2=c3ccccc3=NC2)C(=O)NCCCNC(=O)c2ccc(-c3c4nc(c(-c5ccccc5)c5ccc([nH]5)c(-c5ccccc5)c5nc(c(-c6ccccc6)c6ccc3[nH]6)C=C5)C=C4)cc2)c2ccccc2C1=O
REMARK SMILES IDX 23 1 22 2 21 3 19 4 20 5 8 7 7 8 5 9 6 10 4 12 1 13 2 14
REMARK SMILES IDX 3 15 82 16 81 18 83 19 76 20 80 21 77 22 79 23 78 24 9 25
REMARK SMILES IDX 10 26 11 27 18 28 12 29 16 30 17 31 13 32 15 33 14 34 24 35
REMARK SMILES IDX 25 36 26 37 27 39 28 40 29 41 75 42 30 43 74 44 31 45 32 46
REMARK SMILES IDX 33 47 68 48 34 49 73 50 67 51 69 52 35 53 72 54 66 55 65 56
REMARK SMILES IDX 36 58 58 59 43 60 57 61 44 62 47 63 56 64 70 65 45 66 46 67
REMARK SMILES IDX 55 69 71 70 48 71 37 72 38 73 42 74 39 75 41 76 40 77 59 78
REMARK SMILES IDX 60 79 64 80 61 81 63 82 62 83 49 84 50 85 54 86 51 87 53 88
REMARK SMILES IDX 52 89
REMARK H PARENT 21 6 7 11 3 17 25 38 69 57 47 68
REMARK Flexibility Score: inf
ROOT
ATOM      1  C   UNL A   1      31.453  28.966  26.497  1.00  0.00     0.042 C 
ENDROOT
BRANCH   1   2
ATOM      2  C   UNL A   1      32.168  27.817  27.181  1.00  0.00     0.117 C 
BRANCH   2   3
ATOM      3  N   UNL A   1      33.254  27.146  26.516  1.00  0.00    -0.354 N 
ATOM      4  C   UNL A   1      33.049  26.190  25.543  1.00  0.00     0.242 C 
ATOM      5  O   UNL A   1      33.715  26.301  24.508  1.00  0.00    -0.273 OA
ATOM      6  H   UNL A   1      34.177  27.379  26.765  1.00  0.00     0.163 HD
BRANCH   4   7
ATOM      7  C   UNL A   1      31.981  25.047  25.673  1.00  0.00     0.175 C 
BRANCH   7   8
ATOM      8  N   UNL A   1      32.140  24.105  26.789  1.00  0.00    -0.342 N 
ATOM      9  C   UNL A   1      33.046  23.095  26.975  1.00  0.00     0.244 C 
ATOM     10  O   UNL A   1      32.976  22.468  28.038  1.00  0.00    -0.273 OA
ATOM     11  H   UNL A   1      31.492  24.218  27.522  1.00  0.00     0.164 HD
BRANCH   9  12
ATOM     12  C   UNL A   1      34.119  22.728  25.914  1.00  0.00     0.195 C 
ATOM     13  C   UNL A   1      37.782  23.074  25.751  1.00  0.00     0.169 C 
ATOM     14  N   UNL A   1      36.515  22.364  25.804  1.00  0.00    -0.276 N 
ATOM     15  N   UNL A   1      35.446  22.947  26.527  1.00  0.00    -0.215 NA
ATOM     16  C   UNL A   1      36.417  21.076  25.266  1.00  0.00     0.268 C 
ATOM     17  H   UNL A   1      35.609  23.953  26.587  1.00  0.00     0.149 HD
ATOM     18  C   UNL A   1      35.043  20.522  25.120  1.00  0.00     0.046 A 
ATOM     19  O   UNL A   1      37.379  20.439  24.846  1.00  0.00    -0.268 OA
ATOM     20  C   UNL A   1      33.929  21.339  25.352  1.00  0.00    -0.007 A 
ATOM     21  C   UNL A   1      34.876  19.222  24.626  1.00  0.00     0.014 A 
ATOM     22  C   UNL A   1      32.656  20.873  24.980  1.00  0.00     0.007 A 
ATOM     23  C   UNL A   1      33.601  18.753  24.311  1.00  0.00     0.001 A 
ATOM     24  C   UNL A   1      32.495  19.586  24.464  1.00  0.00     0.000 A 
ENDBRANCH   9  12
ENDBRANCH   7   8
BRANCH   7  25
ATOM     25  C   UNL A   1      30.483  25.448  25.423  1.00  0.00     0.068 C 
BRANCH  25  26
ATOM     26  C   UNL A   1      30.000  25.973  24.068  1.00  0.00    -0.037 C 
ATOM     27  C   UNL A   1      29.723  27.273  23.846  1.00  0.00     0.001 A 
ATOM     28  C   UNL A   1      30.644  25.384  22.853  1.00  0.00     0.174 C 
ATOM     29  C   UNL A   1      28.535  27.829  23.186  1.00  0.00     0.010 A 
ATOM     30  C   UNL A   1      30.846  27.533  22.890  1.00  0.00     0.065 A 
ATOM     31  N   UNL A   1      31.363  26.529  22.259  1.00  0.00    -0.280 NA
ATOM     32  C   UNL A   1      28.680  28.992  22.510  1.00  0.00     0.001 A 
ATOM     33  C   UNL A   1      31.106  28.967  22.677  1.00  0.00     0.028 A 
ATOM     34  C   UNL A   1      29.974  29.671  22.498  1.00  0.00     0.002 A 
ENDBRANCH  25  26
ENDBRANCH   7  25
ENDBRANCH   4   7
ENDBRANCH   2   3
ENDBRANCH   1   2
BRANCH   1  35
ATOM     35  C   UNL A   1      32.395  30.035  25.936  1.00  0.00     0.118 C 
BRANCH  35  36
ATOM     36  N   UNL A   1      32.371  31.338  26.614  1.00  0.00    -0.352 N 
ATOM     37  C   UNL A   1      33.260  32.086  27.364  1.00  0.00     0.251 C 
ATOM     38  H   UNL A   1      31.505  31.793  26.506  1.00  0.00     0.163 HD
ATOM     39  O   UNL A   1      32.919  33.189  27.749  1.00  0.00    -0.269 OA
BRANCH  37  40
ATOM     40  C   UNL A   1      34.588  31.565  27.779  1.00  0.00     0.039 A 
ATOM     41  C   UNL A   1      34.807  30.225  28.048  1.00  0.00     0.014 A 
ATOM     42  C   UNL A   1      35.657  32.464  27.921  1.00  0.00     0.014 A 
ATOM     43  C   UNL A   1      35.947  29.836  28.738  1.00  0.00     0.010 A 
ATOM     44  C   UNL A   1      36.875  32.036  28.468  1.00  0.00     0.010 A 
ATOM     45  C   UNL A   1      36.999  30.734  28.970  1.00  0.00    -0.014 A 
BRANCH  45  46
ATOM     46  C   UNL A   1      38.179  30.288  29.766  1.00  0.00     0.031 A 
ATOM     47  C   UNL A   1      38.310  30.659  31.223  1.00  0.00     0.074 A 
ATOM     48  C   UNL A   1      39.083  29.453  29.209  1.00  0.00     0.049 A 
ATOM     49  N   UNL A   1      39.265  30.351  32.067  1.00  0.00    -0.248 NA
ATOM     50  C   UNL A   1      37.243  31.483  31.815  1.00  0.00     0.031 C 
ATOM     51  C   UNL A   1      39.055  28.983  27.822  1.00  0.00     0.029 A 
ATOM     52  N   UNL A   1      40.169  28.811  29.750  1.00  0.00    -0.354 N 
ATOM     53  C   UNL A   1      38.934  30.974  33.265  1.00  0.00     0.074 A 
ATOM     54  C   UNL A   1      37.702  31.695  33.041  1.00  0.00     0.031 C 
ATOM     55  C   UNL A   1      40.004  28.054  27.652  1.00  0.00     0.029 A 
ATOM     56  C   UNL A   1      40.786  27.946  28.878  1.00  0.00     0.049 A 
ATOM     57  H   UNL A   1      40.477  28.957  30.674  1.00  0.00     0.167 HD
ATOM     58  C   UNL A   1      39.592  30.943  34.448  1.00  0.00     0.031 A 
ATOM     59  C   UNL A   1      41.877  27.169  29.024  1.00  0.00     0.031 A 
ATOM     60  C   UNL A   1      40.796  30.190  34.683  1.00  0.00     0.049 A 
ATOM     61  C   UNL A   1      42.619  27.194  30.327  1.00  0.00     0.074 A 
ATOM     62  C   UNL A   1      41.526  30.088  35.855  1.00  0.00     0.029 A 
ATOM     63  N   UNL A   1      41.437  29.404  33.740  1.00  0.00    -0.354 N 
ATOM     64  N   UNL A   1      42.310  27.822  31.435  1.00  0.00    -0.248 NA
ATOM     65  C   UNL A   1      43.870  26.426  30.396  1.00  0.00     0.031 C 
ATOM     66  C   UNL A   1      42.640  29.286  35.605  1.00  0.00     0.029 A 
ATOM     67  C   UNL A   1      42.569  28.835  34.296  1.00  0.00     0.049 A 
ATOM     68  H   UNL A   1      41.134  29.271  32.813  1.00  0.00     0.167 HD
ATOM     69  C   UNL A   1      43.325  27.525  32.333  1.00  0.00     0.074 A 
ATOM     70  C   UNL A   1      44.247  26.640  31.651  1.00  0.00     0.031 C 
ATOM     71  C   UNL A   1      43.479  27.957  33.607  1.00  0.00     0.031 A 
BRANCH  58  72
ATOM     72  C   UNL A   1      39.047  31.755  35.591  1.00  0.00    -0.014 A 
ATOM     73  C   UNL A   1      39.521  33.061  35.799  1.00  0.00     0.009 A 
ATOM     74  C   UNL A   1      38.153  31.204  36.521  1.00  0.00     0.009 A 
ATOM     75  C   UNL A   1      39.127  33.792  36.921  1.00  0.00     0.001 A 
ATOM     76  C   UNL A   1      37.738  31.947  37.628  1.00  0.00     0.001 A 
ATOM     77  C   UNL A   1      38.233  33.235  37.833  1.00  0.00     0.000 A 
ENDBRANCH  58  72
BRANCH  59  78
ATOM     78  C   UNL A   1      42.337  26.334  27.882  1.00  0.00    -0.014 A 
ATOM     79  C   UNL A   1      41.964  24.982  27.793  1.00  0.00     0.009 A 
ATOM     80  C   UNL A   1      43.205  26.860  26.914  1.00  0.00     0.009 A 
ATOM     81  C   UNL A   1      42.482  24.164  26.787  1.00  0.00     0.001 A 
ATOM     82  C   UNL A   1      43.693  26.047  25.887  1.00  0.00     0.001 A 
ATOM     83  C   UNL A   1      43.344  24.698  25.833  1.00  0.00     0.000 A 
ENDBRANCH  59  78
BRANCH  71  84
ATOM     84  C   UNL A   1      44.682  27.483  34.369  1.00  0.00    -0.014 A 
ATOM     85  C   UNL A   1      45.915  28.131  34.199  1.00  0.00     0.009 A 
ATOM     86  C   UNL A   1      44.620  26.326  35.161  1.00  0.00     0.009 A 
ATOM     87  C   UNL A   1      47.071  27.618  34.789  1.00  0.00     0.001 A 
ATOM     88  C   UNL A   1      45.774  25.830  35.771  1.00  0.00     0.001 A 
ATOM     89  C   UNL A   1      46.999  26.469  35.576  1.00  0.00     0.000 A 
ENDBRANCH  71  84
ENDBRANCH  45  46
ENDBRANCH  37  40
ENDBRANCH  35  36
ENDBRANCH   1  35
TORSDOF 14
ENDMDL
