MODEL 1
REMARK VINA RESULT:     -13.1      0.000      0.000
REMARK SMILES COc1ccc2[nH]cc([C@H](C(=O)NCCCNC(=O)c3ccc(-c4c5nc(c(-c6ccccc6)c6ccc([nH]6)c(-c6ccccc6)c6nc(c(-c7ccccc7)c7ccc4[nH]7)C=C6)C=C5)cc3)[NH+]3CC[NH+](Cc4cccc5ccccc45)CC3)c2c1
REMARK SMILES IDX 14 1 13 2 11 3 12 4 10 6 9 7 3 8 4 9 86 10 5 11 85 12 6 13
REMARK SMILES IDX 7 14 8 15 2 17 1 18 68 19 69 20 84 21 70 23 83 24 71 25
REMARK SMILES IDX 72 27 73 28 74 29 82 30 75 31 77 32 81 33 76 34 78 35 80 36
REMARK SMILES IDX 79 37 15 38 16 39 17 40 18 41 19 43 20 44 21 45 67 46 22 47
REMARK SMILES IDX 66 48 23 49 24 50 25 51 60 52 26 53 65 54 59 55 61 56 27 57
REMARK SMILES IDX 64 58 58 59 57 60 28 62 50 63 35 64 49 65 36 66 39 67 48 68
REMARK SMILES IDX 62 69 37 70 38 71 47 73 63 74 40 75 29 76 30 77 34 78 31 79
REMARK SMILES IDX 33 80 32 81 51 82 52 83 56 84 53 85 55 86 54 87 41 88 42 89
REMARK SMILES IDX 46 90 43 91 45 92 44 93
REMARK H PARENT 13 5 7 16 68 22 71 26 17 42 61 61 39 72
REMARK Flexibility Score: inf
ROOT
ATOM      1  C   UNL A   1      31.410  30.787  26.061  1.00  0.00     0.118 C 
ENDROOT
BRANCH   1   2
ATOM      2  N   UNL A   1      32.251  29.720  26.592  1.00  0.00    -0.351 N 
ATOM      3  C   UNL A   1      32.554  28.427  26.225  1.00  0.00     0.283 C 
ATOM      4  O   UNL A   1      33.482  27.957  26.887  1.00  0.00    -0.268 OA
ATOM      5  H   UNL A   1      32.717  29.990  27.415  1.00  0.00     0.163 HD
BRANCH   3   6
ATOM      6  C   UNL A   1      31.779  27.644  25.124  1.00  0.00     0.308 C 
BRANCH   6   7
ATOM      7  C   UNL A   1      31.396  28.360  23.822  1.00  0.00     0.045 A 
ATOM      8  C   UNL A   1      27.735  29.063  22.817  1.00  0.00     0.119 A 
ATOM      9  C   UNL A   1      28.015  29.894  21.743  1.00  0.00     0.048 A 
ATOM     10  C   UNL A   1      28.758  28.526  23.603  1.00  0.00     0.057 A 
ATOM     11  C   UNL A   1      29.340  30.160  21.394  1.00  0.00     0.030 A 
ATOM     12  C   UNL A   1      30.112  28.734  23.259  1.00  0.00     0.013 A 
ATOM     13  C   UNL A   1      30.356  29.557  22.152  1.00  0.00     0.046 A 
ATOM     14  N   UNL A   1      31.716  29.664  22.015  1.00  0.00    -0.361 N 
ATOM     15  C   UNL A   1      32.347  28.947  22.990  1.00  0.00     0.094 A 
ATOM     16  H   UNL A   1      32.173  30.183  21.314  1.00  0.00     0.166 HD
BRANCH   8  17
ATOM     17  O   UNL A   1      26.444  28.784  23.185  1.00  0.00    -0.497 OA
ATOM     18  C   UNL A   1      26.388  27.568  23.932  1.00  0.00     0.278 C 
ENDBRANCH   8  17
ENDBRANCH   6   7
BRANCH   6  19
ATOM     19  N   UNL A   1      32.395  26.354  24.761  1.00  0.00    -0.312 N 
ATOM     20  C   UNL A   1      32.258  25.148  25.578  1.00  0.00     0.325 C 
ATOM     21  C   UNL A   1      32.471  26.056  23.353  1.00  0.00     0.325 C 
ATOM     22  H   UNL A   1      33.305  26.663  25.102  1.00  0.00     0.349 HD
ATOM     23  C   UNL A   1      31.500  23.922  24.980  1.00  0.00     0.324 C 
ATOM     24  C   UNL A   1      31.365  25.089  22.880  1.00  0.00     0.324 C 
ATOM     25  N   UNL A   1      31.411  23.776  23.519  1.00  0.00    -0.322 N 
ATOM     26  H   UNL A   1      30.519  23.312  23.350  1.00  0.00     0.348 HD
BRANCH  25  27
ATOM     27  C   UNL A   1      32.293  22.785  22.876  1.00  0.00     0.300 C 
BRANCH  27  28
ATOM     28  C   UNL A   1      33.031  21.824  23.799  1.00  0.00     0.014 A 
ATOM     29  C   UNL A   1      32.385  20.612  24.134  1.00  0.00     0.010 A 
ATOM     30  C   UNL A   1      34.391  22.014  24.162  1.00  0.00    -0.010 A 
ATOM     31  C   UNL A   1      33.097  19.549  24.678  1.00  0.00     0.001 A 
ATOM     32  C   UNL A   1      35.115  20.907  24.676  1.00  0.00    -0.018 A 
ATOM     33  C   UNL A   1      35.083  23.235  24.001  1.00  0.00     0.009 A 
ATOM     34  C   UNL A   1      34.461  19.687  24.913  1.00  0.00     0.009 A 
ATOM     35  C   UNL A   1      36.493  21.026  24.914  1.00  0.00     0.009 A 
ATOM     36  C   UNL A   1      36.445  23.346  24.278  1.00  0.00     0.001 A 
ATOM     37  C   UNL A   1      37.155  22.236  24.711  1.00  0.00     0.001 A 
ENDBRANCH  27  28
ENDBRANCH  25  27
ENDBRANCH   6  19
ENDBRANCH   3   6
ENDBRANCH   1   2
BRANCH   1  38
ATOM     38  C   UNL A   1      31.392  32.114  26.860  1.00  0.00     0.042 C 
BRANCH  38  39
ATOM     39  C   UNL A   1      32.730  32.824  27.117  1.00  0.00     0.118 C 
BRANCH  39  40
ATOM     40  N   UNL A   1      32.548  34.106  27.769  1.00  0.00    -0.352 N 
ATOM     41  C   UNL A   1      33.204  34.672  28.835  1.00  0.00     0.251 C 
ATOM     42  H   UNL A   1      31.834  34.664  27.385  1.00  0.00     0.163 HD
ATOM     43  O   UNL A   1      32.709  35.667  29.360  1.00  0.00    -0.269 OA
BRANCH  41  44
ATOM     44  C   UNL A   1      34.485  34.142  29.381  1.00  0.00     0.039 A 
ATOM     45  C   UNL A   1      35.652  34.374  28.638  1.00  0.00     0.014 A 
ATOM     46  C   UNL A   1      34.552  33.302  30.497  1.00  0.00     0.014 A 
ATOM     47  C   UNL A   1      36.866  33.775  29.002  1.00  0.00     0.010 A 
ATOM     48  C   UNL A   1      35.778  32.726  30.881  1.00  0.00     0.010 A 
ATOM     49  C   UNL A   1      36.944  32.939  30.126  1.00  0.00    -0.014 A 
BRANCH  49  50
ATOM     50  C   UNL A   1      38.238  32.283  30.477  1.00  0.00     0.031 A 
ATOM     51  C   UNL A   1      39.172  32.890  31.493  1.00  0.00     0.074 A 
ATOM     52  C   UNL A   1      38.580  31.115  29.898  1.00  0.00     0.049 A 
ATOM     53  N   UNL A   1      40.299  32.415  31.967  1.00  0.00    -0.248 NA
ATOM     54  C   UNL A   1      38.798  34.203  32.039  1.00  0.00     0.031 C 
ATOM     55  C   UNL A   1      37.793  30.412  28.886  1.00  0.00     0.029 A 
ATOM     56  N   UNL A   1      39.679  30.310  30.087  1.00  0.00    -0.354 N 
ATOM     57  C   UNL A   1      40.771  33.368  32.862  1.00  0.00     0.074 A 
ATOM     58  C   UNL A   1      39.826  34.466  32.836  1.00  0.00     0.031 C 
ATOM     59  C   UNL A   1      38.422  29.272  28.557  1.00  0.00     0.029 A 
ATOM     60  C   UNL A   1      39.665  29.171  29.320  1.00  0.00     0.049 A 
ATOM     61  H   UNL A   1      40.406  30.530  30.713  1.00  0.00     0.167 HD
ATOM     62  C   UNL A   1      41.880  33.337  33.642  1.00  0.00     0.031 A 
ATOM     63  C   UNL A   1      40.545  28.155  29.236  1.00  0.00     0.031 A 
ATOM     64  C   UNL A   1      42.830  32.255  33.685  1.00  0.00     0.049 A 
ATOM     65  C   UNL A   1      41.775  28.146  30.100  1.00  0.00     0.074 A 
ATOM     66  C   UNL A   1      43.946  32.116  34.495  1.00  0.00     0.029 A 
ATOM     67  N   UNL A   1      42.788  31.131  32.875  1.00  0.00    -0.354 N 
ATOM     68  N   UNL A   1      42.160  29.020  30.995  1.00  0.00    -0.248 NA
ATOM     69  C   UNL A   1      42.682  26.998  29.948  1.00  0.00     0.031 C 
ATOM     70  C   UNL A   1      44.604  30.933  34.143  1.00  0.00     0.029 A 
ATOM     71  C   UNL A   1      43.872  30.312  33.145  1.00  0.00     0.049 A 
ATOM     72  H   UNL A   1      42.090  30.943  32.207  1.00  0.00     0.167 HD
ATOM     73  C   UNL A   1      43.344  28.522  31.525  1.00  0.00     0.074 A 
ATOM     74  C   UNL A   1      43.604  27.261  30.865  1.00  0.00     0.031 C 
ATOM     75  C   UNL A   1      44.140  29.065  32.477  1.00  0.00     0.031 A 
BRANCH  62  76
ATOM     76  C   UNL A   1      42.140  34.529  34.521  1.00  0.00    -0.014 A 
ATOM     77  C   UNL A   1      41.672  34.574  35.843  1.00  0.00     0.009 A 
ATOM     78  C   UNL A   1      42.902  35.603  34.033  1.00  0.00     0.009 A 
ATOM     79  C   UNL A   1      41.931  35.686  36.648  1.00  0.00     0.001 A 
ATOM     80  C   UNL A   1      43.179  36.703  34.847  1.00  0.00     0.001 A 
ATOM     81  C   UNL A   1      42.686  36.747  36.150  1.00  0.00     0.000 A 
ENDBRANCH  62  76
BRANCH  63  82
ATOM     82  C   UNL A   1      40.283  27.035  28.296  1.00  0.00    -0.014 A 
ATOM     83  C   UNL A   1      39.524  25.928  28.701  1.00  0.00     0.009 A 
ATOM     84  C   UNL A   1      40.790  27.072  26.987  1.00  0.00     0.009 A 
ATOM     85  C   UNL A   1      39.289  24.872  27.818  1.00  0.00     0.001 A 
ATOM     86  C   UNL A   1      40.535  26.026  26.101  1.00  0.00     0.001 A 
ATOM     87  C   UNL A   1      39.790  24.924  26.518  1.00  0.00     0.000 A 
ENDBRANCH  63  82
BRANCH  75  88
ATOM     88  C   UNL A   1      45.366  28.290  32.873  1.00  0.00    -0.014 A 
ATOM     89  C   UNL A   1      46.622  28.587  32.321  1.00  0.00     0.009 A 
ATOM     90  C   UNL A   1      45.269  27.267  33.830  1.00  0.00     0.009 A 
ATOM     91  C   UNL A   1      47.750  27.854  32.695  1.00  0.00     0.001 A 
ATOM     92  C   UNL A   1      46.403  26.552  34.220  1.00  0.00     0.001 A 
ATOM     93  C   UNL A   1      47.641  26.839  33.646  1.00  0.00     0.000 A 
ENDBRANCH  75  88
ENDBRANCH  49  50
ENDBRANCH  41  44
ENDBRANCH  39  40
ENDBRANCH  38  39
ENDBRANCH   1  38
TORSDOF 15
ENDMDL
MODEL 2
REMARK VINA RESULT:     -12.9      0.527      5.543
REMARK SMILES COc1ccc2[nH]cc([C@H](C(=O)NCCCNC(=O)c3ccc(-c4c5nc(c(-c6ccccc6)c6ccc([nH]6)c(-c6ccccc6)c6nc(c(-c7ccccc7)c7ccc4[nH]7)C=C6)C=C5)cc3)[NH+]3CC[NH+](Cc4cccc5ccccc45)CC3)c2c1
REMARK SMILES IDX 14 1 13 2 11 3 12 4 10 6 9 7 3 8 4 9 86 10 5 11 85 12 6 13
REMARK SMILES IDX 7 14 8 15 2 17 1 18 68 19 69 20 84 21 70 23 83 24 71 25
REMARK SMILES IDX 72 27 73 28 74 29 82 30 75 31 77 32 81 33 76 34 78 35 80 36
REMARK SMILES IDX 79 37 15 38 16 39 17 40 18 41 19 43 20 44 21 45 67 46 22 47
REMARK SMILES IDX 66 48 23 49 24 50 25 51 60 52 26 53 65 54 59 55 61 56 27 57
REMARK SMILES IDX 64 58 58 59 57 60 28 62 50 63 35 64 49 65 36 66 39 67 48 68
REMARK SMILES IDX 62 69 37 70 38 71 47 73 63 74 40 75 29 76 30 77 34 78 31 79
REMARK SMILES IDX 33 80 32 81 51 82 52 83 56 84 53 85 55 86 54 87 41 88 42 89
REMARK SMILES IDX 46 90 43 91 45 92 44 93
REMARK H PARENT 13 5 7 16 68 22 71 26 17 42 61 61 39 72
REMARK Flexibility Score: inf
ROOT
ATOM      1  C   UNL A   1      31.459  30.770  26.074  1.00  0.00     0.118 C 
ENDROOT
BRANCH   1   2
ATOM      2  N   UNL A   1      32.285  29.684  26.587  1.00  0.00    -0.351 N 
ATOM      3  C   UNL A   1      32.565  28.390  26.203  1.00  0.00     0.283 C 
ATOM      4  O   UNL A   1      33.490  27.898  26.854  1.00  0.00    -0.268 OA
ATOM      5  H   UNL A   1      32.760  29.937  27.411  1.00  0.00     0.163 HD
BRANCH   3   6
ATOM      6  C   UNL A   1      31.771  27.633  25.098  1.00  0.00     0.308 C 
BRANCH   6   7
ATOM      7  C   UNL A   1      31.395  28.369  23.805  1.00  0.00     0.045 A 
ATOM      8  C   UNL A   1      27.741  29.124  22.812  1.00  0.00     0.119 A 
ATOM      9  C   UNL A   1      28.030  29.965  21.748  1.00  0.00     0.048 A 
ATOM     10  C   UNL A   1      28.759  28.566  23.591  1.00  0.00     0.057 A 
ATOM     11  C   UNL A   1      29.357  30.221  21.402  1.00  0.00     0.030 A 
ATOM     12  C   UNL A   1      30.115  28.764  23.248  1.00  0.00     0.013 A 
ATOM     13  C   UNL A   1      30.368  29.598  22.151  1.00  0.00     0.046 A 
ATOM     14  N   UNL A   1      31.729  29.692  22.014  1.00  0.00    -0.361 N 
ATOM     15  C   UNL A   1      32.352  28.956  22.980  1.00  0.00     0.094 A 
ATOM     16  H   UNL A   1      32.190  30.215  21.319  1.00  0.00     0.166 HD
BRANCH   8  17
ATOM     17  O   UNL A   1      26.448  28.854  23.177  1.00  0.00    -0.497 OA
ATOM     18  C   UNL A   1      26.387  27.659  23.957  1.00  0.00     0.278 C 
ENDBRANCH   8  17
ENDBRANCH   6   7
BRANCH   6  19
ATOM     19  N   UNL A   1      32.363  26.336  24.718  1.00  0.00    -0.312 N 
ATOM     20  C   UNL A   1      32.428  25.194  25.630  1.00  0.00     0.325 C 
ATOM     21  C   UNL A   1      32.190  25.932  23.346  1.00  0.00     0.325 C 
ATOM     22  H   UNL A   1      33.307  26.695  24.861  1.00  0.00     0.349 HD
ATOM     23  C   UNL A   1      31.623  23.905  25.272  1.00  0.00     0.324 C 
ATOM     24  C   UNL A   1      31.056  24.902  23.157  1.00  0.00     0.324 C 
ATOM     25  N   UNL A   1      31.274  23.644  23.868  1.00  0.00    -0.322 N 
ATOM     26  H   UNL A   1      30.385  23.144  23.901  1.00  0.00     0.348 HD
BRANCH  25  27
ATOM     27  C   UNL A   1      32.062  22.630  23.143  1.00  0.00     0.300 C 
BRANCH  27  28
ATOM     28  C   UNL A   1      32.911  21.690  23.989  1.00  0.00     0.014 A 
ATOM     29  C   UNL A   1      32.320  20.478  24.413  1.00  0.00     0.010 A 
ATOM     30  C   UNL A   1      34.301  21.897  24.190  1.00  0.00    -0.010 A 
ATOM     31  C   UNL A   1      33.100  19.429  24.885  1.00  0.00     0.001 A 
ATOM     32  C   UNL A   1      35.090  20.804  24.634  1.00  0.00    -0.018 A 
ATOM     33  C   UNL A   1      34.957  23.121  23.934  1.00  0.00     0.009 A 
ATOM     34  C   UNL A   1      34.481  19.582  24.961  1.00  0.00     0.009 A 
ATOM     35  C   UNL A   1      36.485  20.939  24.711  1.00  0.00     0.009 A 
ATOM     36  C   UNL A   1      36.342  23.248  24.052  1.00  0.00     0.001 A 
ATOM     37  C   UNL A   1      37.107  22.150  24.416  1.00  0.00     0.001 A 
ENDBRANCH  27  28
ENDBRANCH  25  27
ENDBRANCH   6  19
ENDBRANCH   3   6
ENDBRANCH   1   2
BRANCH   1  38
ATOM     38  C   UNL A   1      31.515  32.107  26.854  1.00  0.00     0.042 C 
BRANCH  38  39
ATOM     39  C   UNL A   1      32.894  32.678  27.217  1.00  0.00     0.118 C 
BRANCH  39  40
ATOM     40  N   UNL A   1      32.805  34.036  27.717  1.00  0.00    -0.352 N 
ATOM     41  C   UNL A   1      33.451  34.652  28.761  1.00  0.00     0.251 C 
ATOM     42  H   UNL A   1      32.176  34.613  27.227  1.00  0.00     0.163 HD
ATOM     43  O   UNL A   1      33.029  35.742  29.143  1.00  0.00    -0.269 OA
BRANCH  41  44
ATOM     44  C   UNL A   1      34.636  34.067  29.449  1.00  0.00     0.039 A 
ATOM     45  C   UNL A   1      35.892  34.266  28.858  1.00  0.00     0.014 A 
ATOM     46  C   UNL A   1      34.536  33.208  30.548  1.00  0.00     0.014 A 
ATOM     47  C   UNL A   1      37.031  33.617  29.356  1.00  0.00     0.010 A 
ATOM     48  C   UNL A   1      35.685  32.581  31.068  1.00  0.00     0.010 A 
ATOM     49  C   UNL A   1      36.941  32.762  30.464  1.00  0.00    -0.014 A 
BRANCH  49  50
ATOM     50  C   UNL A   1      38.159  32.053  30.957  1.00  0.00     0.031 A 
ATOM     51  C   UNL A   1      38.660  30.800  30.285  1.00  0.00     0.074 A 
ATOM     52  C   UNL A   1      38.844  32.543  32.010  1.00  0.00     0.049 A 
ATOM     53  N   UNL A   1      39.741  30.101  30.540  1.00  0.00    -0.248 NA
ATOM     54  C   UNL A   1      37.839  30.256  29.194  1.00  0.00     0.031 C 
ATOM     55  C   UNL A   1      38.478  33.733  32.776  1.00  0.00     0.029 A 
ATOM     56  N   UNL A   1      40.000  32.101  32.610  1.00  0.00    -0.354 N 
ATOM     57  C   UNL A   1      39.728  29.036  29.647  1.00  0.00     0.074 A 
ATOM     58  C   UNL A   1      38.512  29.161  28.869  1.00  0.00     0.031 C 
ATOM     59  C   UNL A   1      39.399  33.939  33.731  1.00  0.00     0.029 A 
ATOM     60  C   UNL A   1      40.411  32.887  33.658  1.00  0.00     0.049 A 
ATOM     61  H   UNL A   1      40.485  31.297  32.316  1.00  0.00     0.167 HD
ATOM     62  C   UNL A   1      40.643  28.049  29.477  1.00  0.00     0.031 A 
ATOM     63  C   UNL A   1      41.480  32.784  34.470  1.00  0.00     0.031 A 
ATOM     64  C   UNL A   1      41.858  27.908  30.238  1.00  0.00     0.049 A 
ATOM     65  C   UNL A   1      42.475  31.674  34.273  1.00  0.00     0.074 A 
ATOM     66  C   UNL A   1      42.869  26.973  30.085  1.00  0.00     0.029 A 
ATOM     67  N   UNL A   1      42.223  28.715  31.303  1.00  0.00    -0.354 N 
ATOM     68  N   UNL A   1      42.483  30.724  33.373  1.00  0.00    -0.248 NA
ATOM     69  C   UNL A   1      43.615  31.635  35.201  1.00  0.00     0.031 C 
ATOM     70  C   UNL A   1      43.822  27.184  31.088  1.00  0.00     0.029 A 
ATOM     71  C   UNL A   1      43.427  28.281  31.836  1.00  0.00     0.049 A 
ATOM     72  H   UNL A   1      41.704  29.484  31.633  1.00  0.00     0.167 HD
ATOM     73  C   UNL A   1      43.634  29.985  33.613  1.00  0.00     0.074 A 
ATOM     74  C   UNL A   1      44.310  30.606  34.732  1.00  0.00     0.031 C 
ATOM     75  C   UNL A   1      44.090  28.889  32.959  1.00  0.00     0.031 A 
BRANCH  62  76
ATOM     76  C   UNL A   1      40.357  27.017  28.421  1.00  0.00    -0.014 A 
ATOM     77  C   UNL A   1      40.868  27.148  27.120  1.00  0.00     0.009 A 
ATOM     78  C   UNL A   1      39.604  25.877  28.744  1.00  0.00     0.009 A 
ATOM     79  C   UNL A   1      40.599  26.175  26.154  1.00  0.00     0.001 A 
ATOM     80  C   UNL A   1      39.357  24.895  27.783  1.00  0.00     0.001 A 
ATOM     81  C   UNL A   1      39.848  25.049  26.487  1.00  0.00     0.000 A 
ENDBRANCH  62  76
BRANCH  63  82
ATOM     82  C   UNL A   1      41.680  33.785  35.550  1.00  0.00    -0.014 A 
ATOM     83  C   UNL A   1      42.386  34.970  35.300  1.00  0.00     0.009 A 
ATOM     84  C   UNL A   1      41.160  33.557  36.834  1.00  0.00     0.009 A 
ATOM     85  C   UNL A   1      42.580  35.903  36.321  1.00  0.00     0.001 A 
ATOM     86  C   UNL A   1      41.337  34.501  37.845  1.00  0.00     0.001 A 
ATOM     87  C   UNL A   1      42.052  35.670  37.590  1.00  0.00     0.000 A 
ENDBRANCH  63  82
BRANCH  75  88
ATOM     88  C   UNL A   1      45.389  28.297  33.430  1.00  0.00    -0.014 A 
ATOM     89  C   UNL A   1      45.415  27.289  34.406  1.00  0.00     0.009 A 
ATOM     90  C   UNL A   1      46.601  28.733  32.872  1.00  0.00     0.009 A 
ATOM     91  C   UNL A   1      46.630  26.753  34.838  1.00  0.00     0.001 A 
ATOM     92  C   UNL A   1      47.813  28.178  33.287  1.00  0.00     0.001 A 
ATOM     93  C   UNL A   1      47.827  27.195  34.276  1.00  0.00     0.000 A 
ENDBRANCH  75  88
ENDBRANCH  49  50
ENDBRANCH  41  44
ENDBRANCH  39  40
ENDBRANCH  38  39
ENDBRANCH   1  38
TORSDOF 15
ENDMDL
MODEL 3
REMARK VINA RESULT:     -12.7      3.550      9.287
REMARK SMILES COc1ccc2[nH]cc([C@H](C(=O)NCCCNC(=O)c3ccc(-c4c5nc(c(-c6ccccc6)c6ccc([nH]6)c(-c6ccccc6)c6nc(c(-c7ccccc7)c7ccc4[nH]7)C=C6)C=C5)cc3)[NH+]3CC[NH+](Cc4cccc5ccccc45)CC3)c2c1
REMARK SMILES IDX 14 1 13 2 11 3 12 4 10 6 9 7 3 8 4 9 86 10 5 11 85 12 6 13
REMARK SMILES IDX 7 14 8 15 2 17 1 18 68 19 69 20 84 21 70 23 83 24 71 25
REMARK SMILES IDX 72 27 73 28 74 29 82 30 75 31 77 32 81 33 76 34 78 35 80 36
REMARK SMILES IDX 79 37 15 38 16 39 17 40 18 41 19 43 20 44 21 45 67 46 22 47
REMARK SMILES IDX 66 48 23 49 24 50 25 51 60 52 26 53 65 54 59 55 61 56 27 57
REMARK SMILES IDX 64 58 58 59 57 60 28 62 50 63 35 64 49 65 36 66 39 67 48 68
REMARK SMILES IDX 62 69 37 70 38 71 47 73 63 74 40 75 29 76 30 77 34 78 31 79
REMARK SMILES IDX 33 80 32 81 51 82 52 83 56 84 53 85 55 86 54 87 41 88 42 89
REMARK SMILES IDX 46 90 43 91 45 92 44 93
REMARK H PARENT 13 5 7 16 68 22 71 26 17 42 61 61 39 72
REMARK Flexibility Score: inf
ROOT
ATOM      1  C   UNL A   1      37.033  20.354  24.936  1.00  0.00     0.118 C 
ENDROOT
BRANCH   1   2
ATOM      2  N   UNL A   1      37.019  21.808  24.833  1.00  0.00    -0.351 N 
ATOM      3  C   UNL A   1      36.050  22.782  24.731  1.00  0.00     0.283 C 
ATOM      4  O   UNL A   1      36.511  23.919  24.864  1.00  0.00    -0.268 OA
ATOM      5  H   UNL A   1      37.927  22.188  24.837  1.00  0.00     0.163 HD
BRANCH   3   6
ATOM      6  C   UNL A   1      34.551  22.473  24.443  1.00  0.00     0.308 C 
BRANCH   6   7
ATOM      7  C   UNL A   1      33.866  21.317  25.184  1.00  0.00     0.045 A 
ATOM      8  C   UNL A   1      32.521  18.178  23.382  1.00  0.00     0.119 A 
ATOM      9  C   UNL A   1      32.257  17.434  24.522  1.00  0.00     0.048 A 
ATOM     10  C   UNL A   1      33.086  19.453  23.465  1.00  0.00     0.057 A 
ATOM     11  C   UNL A   1      32.501  17.980  25.783  1.00  0.00     0.030 A 
ATOM     12  C   UNL A   1      33.308  20.061  24.722  1.00  0.00     0.013 A 
ATOM     13  C   UNL A   1      33.004  19.289  25.851  1.00  0.00     0.046 A 
ATOM     14  N   UNL A   1      33.327  20.035  26.955  1.00  0.00    -0.361 N 
ATOM     15  C   UNL A   1      33.826  21.247  26.575  1.00  0.00     0.094 A 
ATOM     16  H   UNL A   1      33.214  19.740  27.887  1.00  0.00     0.166 HD
BRANCH   8  17
ATOM     17  O   UNL A   1      32.293  17.670  22.130  1.00  0.00    -0.497 OA
ATOM     18  C   UNL A   1      32.115  18.726  21.186  1.00  0.00     0.278 C 
ENDBRANCH   8  17
ENDBRANCH   6   7
BRANCH   6  19
ATOM     19  N   UNL A   1      33.668  23.650  24.538  1.00  0.00    -0.312 N 
ATOM     20  C   UNL A   1      33.473  24.590  23.434  1.00  0.00     0.325 C 
ATOM     21  C   UNL A   1      32.482  23.496  25.342  1.00  0.00     0.325 C 
ATOM     22  H   UNL A   1      34.375  24.172  25.055  1.00  0.00     0.349 HD
ATOM     23  C   UNL A   1      32.054  24.708  22.795  1.00  0.00     0.324 C 
ATOM     24  C   UNL A   1      31.213  23.238  24.503  1.00  0.00     0.324 C 
ATOM     25  N   UNL A   1      30.876  24.325  23.587  1.00  0.00    -0.322 N 
ATOM     26  H   UNL A   1      30.202  23.968  22.909  1.00  0.00     0.348 HD
BRANCH  25  27
ATOM     27  C   UNL A   1      30.052  25.408  24.157  1.00  0.00     0.300 C 
BRANCH  27  28
ATOM     28  C   UNL A   1      30.558  26.830  23.956  1.00  0.00     0.014 A 
ATOM     29  C   UNL A   1      30.215  27.482  22.749  1.00  0.00     0.010 A 
ATOM     30  C   UNL A   1      31.177  27.571  24.998  1.00  0.00    -0.010 A 
ATOM     31  C   UNL A   1      30.335  28.862  22.622  1.00  0.00     0.001 A 
ATOM     32  C   UNL A   1      31.255  28.981  24.871  1.00  0.00    -0.018 A 
ATOM     33  C   UNL A   1      31.685  26.987  26.179  1.00  0.00     0.009 A 
ATOM     34  C   UNL A   1      30.819  29.608  23.692  1.00  0.00     0.009 A 
ATOM     35  C   UNL A   1      31.735  29.751  25.941  1.00  0.00     0.009 A 
ATOM     36  C   UNL A   1      32.194  27.765  27.219  1.00  0.00     0.001 A 
ATOM     37  C   UNL A   1      32.196  29.148  27.110  1.00  0.00     0.001 A 
ENDBRANCH  27  28
ENDBRANCH  25  27
ENDBRANCH   6  19
ENDBRANCH   3   6
ENDBRANCH   1   2
BRANCH   1  38
ATOM     38  C   UNL A   1      38.425  19.678  24.977  1.00  0.00     0.042 C 
BRANCH  38  39
ATOM     39  C   UNL A   1      39.431  20.151  26.039  1.00  0.00     0.118 C 
BRANCH  39  40
ATOM     40  N   UNL A   1      40.651  19.368  26.018  1.00  0.00    -0.352 N 
ATOM     41  C   UNL A   1      41.964  19.749  26.149  1.00  0.00     0.251 C 
ATOM     42  H   UNL A   1      40.516  18.402  25.888  1.00  0.00     0.163 HD
ATOM     43  O   UNL A   1      42.837  18.935  25.855  1.00  0.00    -0.269 OA
BRANCH  41  44
ATOM     44  C   UNL A   1      42.380  21.095  26.633  1.00  0.00     0.039 A 
ATOM     45  C   UNL A   1      42.243  21.364  28.003  1.00  0.00     0.014 A 
ATOM     46  C   UNL A   1      42.743  22.139  25.774  1.00  0.00     0.014 A 
ATOM     47  C   UNL A   1      42.463  22.652  28.507  1.00  0.00     0.010 A 
ATOM     48  C   UNL A   1      42.995  23.426  26.286  1.00  0.00     0.010 A 
ATOM     49  C   UNL A   1      42.837  23.702  27.655  1.00  0.00    -0.014 A 
BRANCH  49  50
ATOM     50  C   UNL A   1      43.032  25.075  28.206  1.00  0.00     0.031 A 
ATOM     51  C   UNL A   1      44.402  25.579  28.585  1.00  0.00     0.074 A 
ATOM     52  C   UNL A   1      41.975  25.898  28.355  1.00  0.00     0.049 A 
ATOM     53  N   UNL A   1      44.758  26.768  29.009  1.00  0.00    -0.248 NA
ATOM     54  C   UNL A   1      45.513  24.622  28.483  1.00  0.00     0.031 C 
ATOM     55  C   UNL A   1      40.587  25.554  28.050  1.00  0.00     0.029 A 
ATOM     56  N   UNL A   1      41.909  27.201  28.792  1.00  0.00    -0.354 N 
ATOM     57  C   UNL A   1      46.128  26.703  29.229  1.00  0.00     0.074 A 
ATOM     58  C   UNL A   1      46.533  25.345  28.926  1.00  0.00     0.031 C 
ATOM     59  C   UNL A   1      39.808  26.621  28.291  1.00  0.00     0.029 A 
ATOM     60  C   UNL A   1      40.637  27.720  28.783  1.00  0.00     0.049 A 
ATOM     61  H   UNL A   1      42.698  27.711  29.084  1.00  0.00     0.167 HD
ATOM     62  C   UNL A   1      46.979  27.678  29.634  1.00  0.00     0.031 A 
ATOM     63  C   UNL A   1      40.182  28.940  29.125  1.00  0.00     0.031 A 
ATOM     64  C   UNL A   1      46.597  29.034  29.938  1.00  0.00     0.049 A 
ATOM     65  C   UNL A   1      41.140  30.003  29.585  1.00  0.00     0.074 A 
ATOM     66  C   UNL A   1      47.408  30.100  30.293  1.00  0.00     0.029 A 
ATOM     67  N   UNL A   1      45.296  29.510  29.936  1.00  0.00    -0.354 N 
ATOM     68  N   UNL A   1      42.441  29.942  29.711  1.00  0.00    -0.248 NA
ATOM     69  C   UNL A   1      40.561  31.309  29.938  1.00  0.00     0.031 C 
ATOM     70  C   UNL A   1      46.593  31.208  30.553  1.00  0.00     0.029 A 
ATOM     71  C   UNL A   1      45.278  30.843  30.313  1.00  0.00     0.049 A 
ATOM     72  H   UNL A   1      44.501  28.978  29.700  1.00  0.00     0.167 HD
ATOM     73  C   UNL A   1      42.840  31.202  30.139  1.00  0.00     0.074 A 
ATOM     74  C   UNL A   1      41.645  32.013  30.235  1.00  0.00     0.031 C 
ATOM     75  C   UNL A   1      44.088  31.645  30.424  1.00  0.00     0.031 A 
BRANCH  62  76
ATOM     76  C   UNL A   1      48.429  27.310  29.789  1.00  0.00    -0.014 A 
ATOM     77  C   UNL A   1      49.333  27.456  28.726  1.00  0.00     0.009 A 
ATOM     78  C   UNL A   1      48.904  26.853  31.029  1.00  0.00     0.009 A 
ATOM     79  C   UNL A   1      50.679  27.117  28.892  1.00  0.00     0.001 A 
ATOM     80  C   UNL A   1      50.254  26.538  31.197  1.00  0.00     0.001 A 
ATOM     81  C   UNL A   1      51.137  26.662  30.126  1.00  0.00     0.000 A 
ENDBRANCH  62  76
BRANCH  63  82
ATOM     82  C   UNL A   1      38.729  29.234  29.028  1.00  0.00    -0.014 A 
ATOM     83  C   UNL A   1      38.171  29.678  27.820  1.00  0.00     0.009 A 
ATOM     84  C   UNL A   1      37.895  29.067  30.145  1.00  0.00     0.009 A 
ATOM     85  C   UNL A   1      36.807  29.963  27.736  1.00  0.00     0.001 A 
ATOM     86  C   UNL A   1      36.528  29.332  30.051  1.00  0.00     0.001 A 
ATOM     87  C   UNL A   1      35.986  29.785  28.850  1.00  0.00     0.000 A 
ENDBRANCH  63  82
BRANCH  75  88
ATOM     88  C   UNL A   1      44.229  33.078  30.856  1.00  0.00    -0.014 A 
ATOM     89  C   UNL A   1      44.196  33.433  32.214  1.00  0.00     0.009 A 
ATOM     90  C   UNL A   1      44.422  34.083  29.896  1.00  0.00     0.009 A 
ATOM     91  C   UNL A   1      44.322  34.769  32.599  1.00  0.00     0.001 A 
ATOM     92  C   UNL A   1      44.573  35.416  30.285  1.00  0.00     0.001 A 
ATOM     93  C   UNL A   1      44.513  35.759  31.635  1.00  0.00     0.000 A 
ENDBRANCH  75  88
ENDBRANCH  49  50
ENDBRANCH  41  44
ENDBRANCH  39  40
ENDBRANCH  38  39
ENDBRANCH   1  38
TORSDOF 15
ENDMDL
