MODEL 1
REMARK VINA RESULT:      -9.1      0.000      0.000
REMARK SMILES C[C@@H](C(=O)NCCCNC(=O)c1ccc(-c2c3nc(c(-c4ccccc4)c4ccc([nH]4)c(-c4ccccc4)c4nc(c(-c5ccccc5)c5ccc2[nH]5)C=C4)C=C3)cc1)c1ccc2c(c1)[nH]c1ccc(Cl)cc12
REMARK SMILES IDX 7 1 6 2 5 3 3 4 4 5 2 7 1 8 60 9 61 10 65 11 62 12 64 13
REMARK SMILES IDX 63 14 66 15 73 16 67 17 72 19 68 20 70 21 69 22 71 23 8 24
REMARK SMILES IDX 9 25 10 26 11 28 12 29 13 30 59 31 14 32 58 33 15 34 16 35
REMARK SMILES IDX 17 36 52 37 18 38 57 39 51 40 53 41 19 42 56 43 50 44 49 45
REMARK SMILES IDX 20 47 42 48 27 49 41 50 28 51 31 52 40 53 54 54 29 55 30 56
REMARK SMILES IDX 39 58 55 59 32 60 21 61 22 62 26 63 23 64 25 65 24 66 43 67
REMARK SMILES IDX 44 68 48 69 45 70 47 71 46 72 33 73 34 74 38 75 35 76 37 77
REMARK SMILES IDX 36 78
REMARK H PARENT 5 6 66 18 9 27 53 46 31 57
REMARK Flexibility Score: inf
ROOT
ATOM      1  C   UNL A   1      32.633  35.832  31.462  1.00  0.00     0.042 C 
ENDROOT
BRANCH   1   2
ATOM      2  C   UNL A   1      33.482  35.144  32.540  1.00  0.00     0.117 C 
BRANCH   2   3
ATOM      3  N   UNL A   1      34.906  35.393  32.364  1.00  0.00    -0.356 N 
ATOM      4  C   UNL A   1      36.007  34.869  32.993  1.00  0.00     0.227 C 
ATOM      5  O   UNL A   1      37.095  35.329  32.640  1.00  0.00    -0.274 OA
ATOM      6  H   UNL A   1      35.116  36.059  31.670  1.00  0.00     0.163 HD
BRANCH   4   7
ATOM      7  C   UNL A   1      35.852  33.743  34.037  1.00  0.00     0.105 C 
ATOM      8  C   UNL A   1      35.307  34.329  35.352  1.00  0.00     0.023 C 
BRANCH   7   9
ATOM      9  C   UNL A   1      37.105  32.876  34.311  1.00  0.00    -0.034 A 
ATOM     10  C   UNL A   1      38.225  33.338  35.022  1.00  0.00     0.005 A 
ATOM     11  C   UNL A   1      37.193  31.596  33.734  1.00  0.00     0.031 A 
ATOM     12  C   UNL A   1      39.381  32.537  35.209  1.00  0.00     0.011 A 
ATOM     13  C   UNL A   1      38.361  30.847  33.866  1.00  0.00     0.047 A 
ATOM     14  C   UNL A   1      39.457  31.262  34.608  1.00  0.00     0.007 A 
ATOM     15  N   UNL A   1      38.661  29.634  33.306  1.00  0.00    -0.355 N 
ATOM     16  C   UNL A   1      40.432  30.206  34.523  1.00  0.00     0.009 A 
ATOM     17  C   UNL A   1      39.937  29.257  33.624  1.00  0.00     0.047 A 
ATOM     18  H   UNL A   1      38.043  29.106  32.752  1.00  0.00     0.167 HD
ATOM     19  C   UNL A   1      41.703  29.970  35.089  1.00  0.00     0.031 A 
ATOM     20  C   UNL A   1      40.663  28.150  33.179  1.00  0.00     0.028 A 
ATOM     21  C   UNL A   1      42.424  28.835  34.689  1.00  0.00     0.041 A 
ATOM     22  C   UNL A   1      41.928  27.958  33.728  1.00  0.00     0.022 A 
ATOM     23  Cl  UNL A   1      43.961  28.513  35.398  1.00  0.00    -0.084 Cl
ENDBRANCH   7   9
ENDBRANCH   4   7
ENDBRANCH   2   3
ENDBRANCH   1   2
BRANCH   1  24
ATOM     24  C   UNL A   1      33.331  36.016  30.118  1.00  0.00     0.118 C 
BRANCH  24  25
ATOM     25  N   UNL A   1      32.856  35.083  29.111  1.00  0.00    -0.352 N 
ATOM     26  C   UNL A   1      33.491  34.022  28.511  1.00  0.00     0.251 C 
ATOM     27  H   UNL A   1      31.931  35.236  28.810  1.00  0.00     0.163 HD
ATOM     28  O   UNL A   1      32.969  33.480  27.543  1.00  0.00    -0.269 OA
BRANCH  26  29
ATOM     29  C   UNL A   1      34.808  33.546  28.994  1.00  0.00     0.039 A 
ATOM     30  C   UNL A   1      34.838  32.663  30.078  1.00  0.00     0.014 A 
ATOM     31  C   UNL A   1      36.006  33.975  28.416  1.00  0.00     0.014 A 
ATOM     32  C   UNL A   1      36.058  32.142  30.521  1.00  0.00     0.010 A 
ATOM     33  C   UNL A   1      37.216  33.406  28.816  1.00  0.00     0.010 A 
ATOM     34  C   UNL A   1      37.252  32.466  29.858  1.00  0.00    -0.014 A 
BRANCH  34  35
ATOM     35  C   UNL A   1      38.525  31.772  30.187  1.00  0.00     0.031 A 
ATOM     36  C   UNL A   1      39.591  32.449  31.004  1.00  0.00     0.074 A 
ATOM     37  C   UNL A   1      38.751  30.546  29.671  1.00  0.00     0.049 A 
ATOM     38  N   UNL A   1      40.789  32.017  31.311  1.00  0.00    -0.248 NA
ATOM     39  C   UNL A   1      39.279  33.786  31.534  1.00  0.00     0.031 C 
ATOM     40  C   UNL A   1      37.813  29.793  28.834  1.00  0.00     0.029 A 
ATOM     41  N   UNL A   1      39.846  29.722  29.758  1.00  0.00    -0.354 N 
ATOM     42  C   UNL A   1      41.379  33.034  32.053  1.00  0.00     0.074 A 
ATOM     43  C   UNL A   1      40.419  34.114  32.128  1.00  0.00     0.031 C 
ATOM     44  C   UNL A   1      38.366  28.617  28.497  1.00  0.00     0.029 A 
ATOM     45  C   UNL A   1      39.716  28.553  29.046  1.00  0.00     0.049 A 
ATOM     46  H   UNL A   1      40.650  29.947  30.282  1.00  0.00     0.167 HD
ATOM     47  C   UNL A   1      42.608  33.058  32.623  1.00  0.00     0.031 A 
ATOM     48  C   UNL A   1      40.591  27.552  28.832  1.00  0.00     0.031 A 
ATOM     49  C   UNL A   1      43.558  31.978  32.557  1.00  0.00     0.049 A 
ATOM     50  C   UNL A   1      41.963  27.633  29.443  1.00  0.00     0.074 A 
ATOM     51  C   UNL A   1      44.796  31.885  33.173  1.00  0.00     0.029 A 
ATOM     52  N   UNL A   1      43.389  30.817  31.822  1.00  0.00    -0.354 N 
ATOM     53  N   UNL A   1      42.466  28.556  30.224  1.00  0.00    -0.248 NA
ATOM     54  C   UNL A   1      42.889  26.530  29.144  1.00  0.00     0.031 C 
ATOM     55  C   UNL A   1      45.405  30.700  32.752  1.00  0.00     0.029 A 
ATOM     56  C   UNL A   1      44.521  30.025  31.927  1.00  0.00     0.049 A 
ATOM     57  H   UNL A   1      42.584  30.588  31.303  1.00  0.00     0.167 HD
ATOM     58  C   UNL A   1      43.757  28.138  30.522  1.00  0.00     0.074 A 
ATOM     59  C   UNL A   1      43.948  26.863  29.865  1.00  0.00     0.031 C 
ATOM     60  C   UNL A   1      44.701  28.760  31.267  1.00  0.00     0.031 A 
BRANCH  47  61
ATOM     61  C   UNL A   1      43.021  34.296  33.369  1.00  0.00    -0.014 A 
ATOM     62  C   UNL A   1      43.609  35.384  32.706  1.00  0.00     0.009 A 
ATOM     63  C   UNL A   1      42.718  34.415  34.735  1.00  0.00     0.009 A 
ATOM     64  C   UNL A   1      43.897  36.562  33.401  1.00  0.00     0.001 A 
ATOM     65  C   UNL A   1      42.984  35.601  35.421  1.00  0.00     0.001 A 
ATOM     66  C   UNL A   1      43.576  36.672  34.755  1.00  0.00     0.000 A 
ENDBRANCH  47  61
BRANCH  48  67
ATOM     67  C   UNL A   1      40.224  26.398  27.965  1.00  0.00    -0.014 A 
ATOM     68  C   UNL A   1      39.452  25.340  28.470  1.00  0.00     0.009 A 
ATOM     69  C   UNL A   1      40.690  26.326  26.643  1.00  0.00     0.009 A 
ATOM     70  C   UNL A   1      39.191  24.217  27.681  1.00  0.00     0.001 A 
ATOM     71  C   UNL A   1      40.396  25.218  25.846  1.00  0.00     0.001 A 
ATOM     72  C   UNL A   1      39.662  24.157  26.370  1.00  0.00     0.000 A 
ENDBRANCH  48  67
BRANCH  60  73
ATOM     73  C   UNL A   1      46.023  28.062  31.426  1.00  0.00    -0.014 A 
ATOM     74  C   UNL A   1      46.205  27.068  32.401  1.00  0.00     0.009 A 
ATOM     75  C   UNL A   1      47.085  28.370  30.562  1.00  0.00     0.009 A 
ATOM     76  C   UNL A   1      47.434  26.417  32.523  1.00  0.00     0.001 A 
ATOM     77  C   UNL A   1      48.302  27.695  30.665  1.00  0.00     0.001 A 
ATOM     78  C   UNL A   1      48.478  26.726  31.652  1.00  0.00     0.000 A 
ENDBRANCH  60  73
ENDBRANCH  34  35
ENDBRANCH  26  29
ENDBRANCH  24  25
ENDBRANCH   1  24
TORSDOF 11
ENDMDL
MODEL 2
REMARK VINA RESULT:      -9.1      0.760      6.071
REMARK SMILES C[C@@H](C(=O)NCCCNC(=O)c1ccc(-c2c3nc(c(-c4ccccc4)c4ccc([nH]4)c(-c4ccccc4)c4nc(c(-c5ccccc5)c5ccc2[nH]5)C=C4)C=C3)cc1)c1ccc2c(c1)[nH]c1ccc(Cl)cc12
REMARK SMILES IDX 7 1 6 2 5 3 3 4 4 5 2 7 1 8 60 9 61 10 65 11 62 12 64 13
REMARK SMILES IDX 63 14 66 15 73 16 67 17 72 19 68 20 70 21 69 22 71 23 8 24
REMARK SMILES IDX 9 25 10 26 11 28 12 29 13 30 59 31 14 32 58 33 15 34 16 35
REMARK SMILES IDX 17 36 52 37 18 38 57 39 51 40 53 41 19 42 56 43 50 44 49 45
REMARK SMILES IDX 20 47 42 48 27 49 41 50 28 51 31 52 40 53 54 54 29 55 30 56
REMARK SMILES IDX 39 58 55 59 32 60 21 61 22 62 26 63 23 64 25 65 24 66 43 67
REMARK SMILES IDX 44 68 48 69 45 70 47 71 46 72 33 73 34 74 38 75 35 76 37 77
REMARK SMILES IDX 36 78
REMARK H PARENT 5 6 66 18 9 27 53 46 31 57
REMARK Flexibility Score: inf
ROOT
ATOM      1  C   UNL A   1      32.571  35.798  31.566  1.00  0.00     0.042 C 
ENDROOT
BRANCH   1   2
ATOM      2  C   UNL A   1      33.407  35.006  32.580  1.00  0.00     0.117 C 
BRANCH   2   3
ATOM      3  N   UNL A   1      34.824  35.334  32.503  1.00  0.00    -0.356 N 
ATOM      4  C   UNL A   1      35.921  34.791  33.123  1.00  0.00     0.227 C 
ATOM      5  O   UNL A   1      37.000  35.333  32.877  1.00  0.00    -0.274 OA
ATOM      6  H   UNL A   1      35.033  36.082  31.897  1.00  0.00     0.163 HD
BRANCH   4   7
ATOM      7  C   UNL A   1      35.774  33.550  34.029  1.00  0.00     0.105 C 
ATOM      8  C   UNL A   1      35.547  33.996  35.485  1.00  0.00     0.023 C 
BRANCH   7   9
ATOM      9  C   UNL A   1      36.912  32.502  33.957  1.00  0.00    -0.034 A 
ATOM     10  C   UNL A   1      36.806  31.291  33.252  1.00  0.00     0.005 A 
ATOM     11  C   UNL A   1      38.078  32.703  34.718  1.00  0.00     0.031 A 
ATOM     12  C   UNL A   1      37.846  30.328  33.251  1.00  0.00     0.011 A 
ATOM     13  C   UNL A   1      39.062  31.718  34.764  1.00  0.00     0.047 A 
ATOM     14  C   UNL A   1      39.001  30.539  34.035  1.00  0.00     0.007 A 
ATOM     15  N   UNL A   1      40.209  31.696  35.511  1.00  0.00    -0.355 N 
ATOM     16  C   UNL A   1      40.209  29.813  34.328  1.00  0.00     0.009 A 
ATOM     17  C   UNL A   1      40.885  30.521  35.325  1.00  0.00     0.047 A 
ATOM     18  H   UNL A   1      40.507  32.426  36.099  1.00  0.00     0.167 HD
ATOM     19  C   UNL A   1      40.785  28.606  33.878  1.00  0.00     0.031 A 
ATOM     20  C   UNL A   1      42.036  30.058  35.968  1.00  0.00     0.028 A 
ATOM     21  C   UNL A   1      41.969  28.153  34.480  1.00  0.00     0.041 A 
ATOM     22  C   UNL A   1      42.567  28.848  35.528  1.00  0.00     0.022 A 
ATOM     23  Cl  UNL A   1      42.706  26.701  33.915  1.00  0.00    -0.084 Cl
ENDBRANCH   7   9
ENDBRANCH   4   7
ENDBRANCH   2   3
ENDBRANCH   1   2
BRANCH   1  24
ATOM     24  C   UNL A   1      33.238  36.012  30.212  1.00  0.00     0.118 C 
BRANCH  24  25
ATOM     25  N   UNL A   1      32.784  35.064  29.210  1.00  0.00    -0.352 N 
ATOM     26  C   UNL A   1      33.456  34.041  28.584  1.00  0.00     0.251 C 
ATOM     27  H   UNL A   1      31.845  35.170  28.936  1.00  0.00     0.163 HD
ATOM     28  O   UNL A   1      32.936  33.479  27.626  1.00  0.00    -0.269 OA
BRANCH  26  29
ATOM     29  C   UNL A   1      34.808  33.629  29.028  1.00  0.00     0.039 A 
ATOM     30  C   UNL A   1      34.913  32.681  30.050  1.00  0.00     0.014 A 
ATOM     31  C   UNL A   1      35.967  34.181  28.473  1.00  0.00     0.014 A 
ATOM     32  C   UNL A   1      36.170  32.220  30.450  1.00  0.00     0.010 A 
ATOM     33  C   UNL A   1      37.218  33.674  28.827  1.00  0.00     0.010 A 
ATOM     34  C   UNL A   1      37.332  32.672  29.804  1.00  0.00    -0.014 A 
BRANCH  34  35
ATOM     35  C   UNL A   1      38.654  32.052  30.079  1.00  0.00     0.031 A 
ATOM     36  C   UNL A   1      39.018  30.710  29.506  1.00  0.00     0.074 A 
ATOM     37  C   UNL A   1      39.504  32.674  30.923  1.00  0.00     0.049 A 
ATOM     38  N   UNL A   1      40.093  29.992  29.713  1.00  0.00    -0.248 NA
ATOM     39  C   UNL A   1      38.044  30.086  28.595  1.00  0.00     0.031 C 
ATOM     40  C   UNL A   1      39.258  33.964  31.573  1.00  0.00     0.029 A 
ATOM     41  N   UNL A   1      40.738  32.300  31.394  1.00  0.00    -0.354 N 
ATOM     42  C   UNL A   1      39.920  28.827  28.974  1.00  0.00     0.074 A 
ATOM     43  C   UNL A   1      38.625  28.922  28.335  1.00  0.00     0.031 C 
ATOM     44  C   UNL A   1      40.310  34.278  32.345  1.00  0.00     0.029 A 
ATOM     45  C   UNL A   1      41.280  33.191  32.290  1.00  0.00     0.049 A 
ATOM     46  H   UNL A   1      41.192  31.471  31.117  1.00  0.00     0.167 HD
ATOM     47  C   UNL A   1      40.767  27.779  28.839  1.00  0.00     0.031 A 
ATOM     48  C   UNL A   1      42.417  33.130  33.010  1.00  0.00     0.031 A 
ATOM     49  C   UNL A   1      42.060  27.691  29.467  1.00  0.00     0.049 A 
ATOM     50  C   UNL A   1      43.313  31.931  32.868  1.00  0.00     0.074 A 
ATOM     51  C   UNL A   1      43.019  26.702  29.321  1.00  0.00     0.029 A 
ATOM     52  N   UNL A   1      42.568  28.610  30.369  1.00  0.00    -0.354 N 
ATOM     53  N   UNL A   1      43.179  30.887  32.089  1.00  0.00    -0.248 NA
ATOM     54  C   UNL A   1      44.521  31.903  33.708  1.00  0.00     0.031 C 
ATOM     55  C   UNL A   1      44.076  26.987  30.191  1.00  0.00     0.029 A 
ATOM     56  C   UNL A   1      43.804  28.185  30.828  1.00  0.00     0.049 A 
ATOM     57  H   UNL A   1      42.118  29.442  30.643  1.00  0.00     0.167 HD
ATOM     58  C   UNL A   1      44.290  30.089  32.331  1.00  0.00     0.074 A 
ATOM     59  C   UNL A   1      45.104  30.784  33.305  1.00  0.00     0.031 C 
ATOM     60  C   UNL A   1      44.604  28.883  31.799  1.00  0.00     0.031 A 
BRANCH  47  61
ATOM     61  C   UNL A   1      40.334  26.619  27.986  1.00  0.00    -0.014 A 
ATOM     62  C   UNL A   1      40.781  26.478  26.664  1.00  0.00     0.009 A 
ATOM     63  C   UNL A   1      39.553  25.598  28.553  1.00  0.00     0.009 A 
ATOM     64  C   UNL A   1      40.443  25.343  25.922  1.00  0.00     0.001 A 
ATOM     65  C   UNL A   1      39.239  24.454  27.818  1.00  0.00     0.001 A 
ATOM     66  C   UNL A   1      39.681  24.329  26.502  1.00  0.00     0.000 A 
ENDBRANCH  47  61
BRANCH  48  67
ATOM     67  C   UNL A   1      42.764  34.217  33.967  1.00  0.00    -0.014 A 
ATOM     68  C   UNL A   1      42.351  34.150  35.307  1.00  0.00     0.009 A 
ATOM     69  C   UNL A   1      43.466  35.352  33.531  1.00  0.00     0.009 A 
ATOM     70  C   UNL A   1      42.597  35.215  36.177  1.00  0.00     0.001 A 
ATOM     71  C   UNL A   1      43.742  36.399  34.412  1.00  0.00     0.001 A 
ATOM     72  C   UNL A   1      43.293  36.338  35.730  1.00  0.00     0.000 A 
ENDBRANCH  48  67
BRANCH  60  73
ATOM     73  C   UNL A   1      45.889  28.246  32.246  1.00  0.00    -0.014 A 
ATOM     74  C   UNL A   1      47.106  28.549  31.615  1.00  0.00     0.009 A 
ATOM     75  C   UNL A   1      45.890  27.366  33.340  1.00  0.00     0.009 A 
ATOM     76  C   UNL A   1      48.293  27.962  32.054  1.00  0.00     0.001 A 
ATOM     77  C   UNL A   1      47.083  26.806  33.797  1.00  0.00     0.001 A 
ATOM     78  C   UNL A   1      48.282  27.097  33.148  1.00  0.00     0.000 A 
ENDBRANCH  60  73
ENDBRANCH  34  35
ENDBRANCH  26  29
ENDBRANCH  24  25
ENDBRANCH   1  24
TORSDOF 11
ENDMDL
MODEL 3
REMARK VINA RESULT:      -8.9      6.170     11.566
REMARK SMILES C[C@@H](C(=O)NCCCNC(=O)c1ccc(-c2c3nc(c(-c4ccccc4)c4ccc([nH]4)c(-c4ccccc4)c4nc(c(-c5ccccc5)c5ccc2[nH]5)C=C4)C=C3)cc1)c1ccc2c(c1)[nH]c1ccc(Cl)cc12
REMARK SMILES IDX 7 1 6 2 5 3 3 4 4 5 2 7 1 8 60 9 61 10 65 11 62 12 64 13
REMARK SMILES IDX 63 14 66 15 73 16 67 17 72 19 68 20 70 21 69 22 71 23 8 24
REMARK SMILES IDX 9 25 10 26 11 28 12 29 13 30 59 31 14 32 58 33 15 34 16 35
REMARK SMILES IDX 17 36 52 37 18 38 57 39 51 40 53 41 19 42 56 43 50 44 49 45
REMARK SMILES IDX 20 47 42 48 27 49 41 50 28 51 31 52 40 53 54 54 29 55 30 56
REMARK SMILES IDX 39 58 55 59 32 60 21 61 22 62 26 63 23 64 25 65 24 66 43 67
REMARK SMILES IDX 44 68 48 69 45 70 47 71 46 72 33 73 34 74 38 75 35 76 37 77
REMARK SMILES IDX 36 78
REMARK H PARENT 5 6 66 18 9 27 53 46 31 57
REMARK Flexibility Score: inf
ROOT
ATOM      1  C   UNL A   1      37.678  20.072  24.998  1.00  0.00     0.042 C 
ENDROOT
BRANCH   1   2
ATOM      2  C   UNL A   1      36.573  21.136  24.996  1.00  0.00     0.117 C 
BRANCH   2   3
ATOM      3  N   UNL A   1      35.252  20.561  25.211  1.00  0.00    -0.356 N 
ATOM      4  C   UNL A   1      34.162  21.017  25.910  1.00  0.00     0.227 C 
ATOM      5  O   UNL A   1      33.190  20.260  25.939  1.00  0.00    -0.274 OA
ATOM      6  H   UNL A   1      35.117  19.687  24.778  1.00  0.00     0.163 HD
BRANCH   4   7
ATOM      7  C   UNL A   1      34.179  22.414  26.564  1.00  0.00     0.105 C 
ATOM      8  C   UNL A   1      33.569  22.332  27.975  1.00  0.00     0.023 C 
BRANCH   7   9
ATOM      9  C   UNL A   1      33.525  23.563  25.759  1.00  0.00    -0.034 A 
ATOM     10  C   UNL A   1      34.225  24.701  25.323  1.00  0.00     0.005 A 
ATOM     11  C   UNL A   1      32.136  23.539  25.535  1.00  0.00     0.031 A 
ATOM     12  C   UNL A   1      33.584  25.762  24.635  1.00  0.00     0.011 A 
ATOM     13  C   UNL A   1      31.507  24.620  24.920  1.00  0.00     0.047 A 
ATOM     14  C   UNL A   1      32.187  25.727  24.436  1.00  0.00     0.007 A 
ATOM     15  N   UNL A   1      30.169  24.814  24.701  1.00  0.00    -0.355 N 
ATOM     16  C   UNL A   1      31.196  26.592  23.850  1.00  0.00     0.009 A 
ATOM     17  C   UNL A   1      29.945  26.033  24.125  1.00  0.00     0.047 A 
ATOM     18  H   UNL A   1      29.466  24.164  24.928  1.00  0.00     0.167 HD
ATOM     19  C   UNL A   1      31.226  27.814  23.144  1.00  0.00     0.031 A 
ATOM     20  C   UNL A   1      28.730  26.657  23.832  1.00  0.00     0.028 A 
ATOM     21  C   UNL A   1      30.013  28.429  22.799  1.00  0.00     0.041 A 
ATOM     22  C   UNL A   1      28.787  27.878  23.164  1.00  0.00     0.022 A 
ATOM     23  Cl  UNL A   1      30.032  29.901  21.904  1.00  0.00    -0.084 Cl
ENDBRANCH   7   9
ENDBRANCH   4   7
ENDBRANCH   2   3
ENDBRANCH   1   2
BRANCH   1  24
ATOM     24  C   UNL A   1      38.941  20.460  25.758  1.00  0.00     0.118 C 
BRANCH  24  25
ATOM     25  N   UNL A   1      39.913  19.382  25.813  1.00  0.00    -0.352 N 
ATOM     26  C   UNL A   1      41.267  19.416  26.048  1.00  0.00     0.251 C 
ATOM     27  H   UNL A   1      39.542  18.484  25.658  1.00  0.00     0.163 HD
ATOM     28  O   UNL A   1      41.933  18.404  25.861  1.00  0.00    -0.269 OA
BRANCH  26  29
ATOM     29  C   UNL A   1      41.936  20.661  26.491  1.00  0.00     0.039 A 
ATOM     30  C   UNL A   1      42.441  21.527  25.516  1.00  0.00     0.014 A 
ATOM     31  C   UNL A   1      42.095  20.972  27.844  1.00  0.00     0.014 A 
ATOM     32  C   UNL A   1      43.021  22.742  25.893  1.00  0.00     0.010 A 
ATOM     33  C   UNL A   1      42.615  22.212  28.218  1.00  0.00     0.010 A 
ATOM     34  C   UNL A   1      43.063  23.120  27.245  1.00  0.00    -0.014 A 
BRANCH  34  35
ATOM     35  C   UNL A   1      43.493  24.485  27.646  1.00  0.00     0.031 A 
ATOM     36  C   UNL A   1      42.488  25.539  28.020  1.00  0.00     0.074 A 
ATOM     37  C   UNL A   1      44.805  24.797  27.594  1.00  0.00     0.049 A 
ATOM     38  N   UNL A   1      42.688  26.799  28.314  1.00  0.00    -0.248 NA
ATOM     39  C   UNL A   1      41.074  25.131  28.054  1.00  0.00     0.031 C 
ATOM     40  C   UNL A   1      45.880  23.876  27.215  1.00  0.00     0.029 A 
ATOM     41  N   UNL A   1      45.459  25.979  27.843  1.00  0.00    -0.354 N 
ATOM     42  C   UNL A   1      41.430  27.339  28.551  1.00  0.00     0.074 A 
ATOM     43  C   UNL A   1      40.469  26.277  28.341  1.00  0.00     0.031 C 
ATOM     44  C   UNL A   1      47.055  24.522  27.269  1.00  0.00     0.029 A 
ATOM     45  C   UNL A   1      46.816  25.914  27.633  1.00  0.00     0.049 A 
ATOM     46  H   UNL A   1      44.999  26.796  28.144  1.00  0.00     0.167 HD
ATOM     47  C   UNL A   1      41.109  28.603  28.917  1.00  0.00     0.031 A 
ATOM     48  C   UNL A   1      47.761  26.871  27.696  1.00  0.00     0.031 A 
ATOM     49  C   UNL A   1      42.066  29.656  29.136  1.00  0.00     0.049 A 
ATOM     50  C   UNL A   1      47.363  28.274  28.061  1.00  0.00     0.074 A 
ATOM     51  C   UNL A   1      41.836  30.946  29.586  1.00  0.00     0.029 A 
ATOM     52  N   UNL A   1      43.427  29.550  28.907  1.00  0.00    -0.354 N 
ATOM     53  N   UNL A   1      46.181  28.741  28.379  1.00  0.00    -0.248 NA
ATOM     54  C   UNL A   1      48.432  29.285  28.077  1.00  0.00     0.031 C 
ATOM     55  C   UNL A   1      43.048  31.641  29.559  1.00  0.00     0.029 A 
ATOM     56  C   UNL A   1      44.042  30.767  29.156  1.00  0.00     0.049 A 
ATOM     57  H   UNL A   1      43.890  28.732  28.612  1.00  0.00     0.167 HD
ATOM     58  C   UNL A   1      46.367  30.091  28.649  1.00  0.00     0.074 A 
ATOM     59  C   UNL A   1      47.779  30.361  28.489  1.00  0.00     0.031 C 
ATOM     60  C   UNL A   1      45.447  31.025  28.991  1.00  0.00     0.031 A 
BRANCH  47  61
ATOM     61  C   UNL A   1      39.655  28.944  29.097  1.00  0.00    -0.014 A 
ATOM     62  C   UNL A   1      38.867  29.371  28.019  1.00  0.00     0.009 A 
ATOM     63  C   UNL A   1      39.044  28.729  30.344  1.00  0.00     0.009 A 
ATOM     64  C   UNL A   1      37.497  29.589  28.189  1.00  0.00     0.001 A 
ATOM     65  C   UNL A   1      37.672  28.924  30.505  1.00  0.00     0.001 A 
ATOM     66  C   UNL A   1      36.900  29.357  29.428  1.00  0.00     0.000 A 
ENDBRANCH  47  61
BRANCH  48  67
ATOM     67  C   UNL A   1      49.179  26.557  27.367  1.00  0.00    -0.014 A 
ATOM     68  C   UNL A   1      49.621  26.548  26.035  1.00  0.00     0.009 A 
ATOM     69  C   UNL A   1      50.085  26.212  28.383  1.00  0.00     0.009 A 
ATOM     70  C   UNL A   1      50.926  26.158  25.725  1.00  0.00     0.001 A 
ATOM     71  C   UNL A   1      51.400  25.859  28.073  1.00  0.00     0.001 A 
ATOM     72  C   UNL A   1      51.815  25.816  26.744  1.00  0.00     0.000 A 
ENDBRANCH  48  67
BRANCH  60  73
ATOM     73  C   UNL A   1      45.942  32.424  29.231  1.00  0.00    -0.014 A 
ATOM     74  C   UNL A   1      45.959  33.374  28.197  1.00  0.00     0.009 A 
ATOM     75  C   UNL A   1      46.353  32.810  30.517  1.00  0.00     0.009 A 
ATOM     76  C   UNL A   1      46.404  34.673  28.441  1.00  0.00     0.001 A 
ATOM     77  C   UNL A   1      46.766  34.118  30.765  1.00  0.00     0.001 A 
ATOM     78  C   UNL A   1      46.800  35.046  29.725  1.00  0.00     0.000 A 
ENDBRANCH  60  73
ENDBRANCH  34  35
ENDBRANCH  26  29
ENDBRANCH  24  25
ENDBRANCH   1  24
TORSDOF 11
ENDMDL
