MODEL 1
REMARK VINA RESULT:     -10.5      0.000      0.000
REMARK SMILES CC1CC[NH+](CC2(CC(=O)NCCCNC(=O)c3ccc(-c4c5nc(c(-c6ccccc6)c6ccc([nH]6)c(-c6ccccc6)c6nc(c(-c7ccccc7)c7ccc4[nH]7)C=C6)C=C5)cc3)CCCCC2)CC1
REMARK SMILES IDX 12 1 11 2 9 3 10 4 8 6 7 7 66 8 70 9 67 10 69 11 68 12 6 13
REMARK SMILES IDX 5 14 1 15 2 16 3 17 72 18 4 19 71 20 13 22 14 23 15 24 16 25
REMARK SMILES IDX 17 27 18 28 19 29 65 30 20 31 64 32 21 33 22 34 23 35 58 36
REMARK SMILES IDX 24 37 63 38 57 39 59 40 25 41 62 42 56 43 55 44 26 46 48 47
REMARK SMILES IDX 33 48 47 49 34 50 37 51 46 52 60 53 35 54 36 55 45 57 61 58
REMARK SMILES IDX 38 59 27 60 28 61 32 62 29 63 31 64 30 65 49 66 50 67 54 68
REMARK SMILES IDX 51 69 53 70 52 71 39 72 40 73 44 74 41 75 43 76 42 77
REMARK H PARENT 11 5 5 21 15 26 59 45 37 56
REMARK Flexibility Score: inf
ROOT
ATOM      1  C   UNL A   1      31.289  27.585  26.384  1.00  0.00     0.117 C 
ENDROOT
BRANCH   1   2
ATOM      2  N   UNL A   1      30.869  26.262  26.815  1.00  0.00    -0.356 N 
ATOM      3  C   UNL A   1      30.519  25.150  26.109  1.00  0.00     0.220 C 
ATOM      4  O   UNL A   1      30.077  24.194  26.753  1.00  0.00    -0.275 OA
ATOM      5  H   UNL A   1      30.831  26.147  27.792  1.00  0.00     0.163 HD
BRANCH   3   6
ATOM      6  C   UNL A   1      30.695  25.039  24.598  1.00  0.00     0.112 C 
BRANCH   6   7
ATOM      7  C   UNL A   1      31.943  24.276  24.049  1.00  0.00     0.028 C 
ATOM      8  C   UNL A   1      33.241  24.973  24.579  1.00  0.00     0.013 C 
ATOM      9  C   UNL A   1      31.999  24.347  22.509  1.00  0.00     0.013 C 
ATOM     10  C   UNL A   1      33.579  26.317  23.924  1.00  0.00     0.001 C 
ATOM     11  C   UNL A   1      32.232  25.723  21.908  1.00  0.00     0.001 C 
ATOM     12  C   UNL A   1      33.569  26.246  22.401  1.00  0.00     0.000 C 
BRANCH   7  13
ATOM     13  C   UNL A   1      31.928  22.766  24.524  1.00  0.00     0.269 C 
BRANCH  13  14
ATOM     14  N   UNL A   1      33.215  22.386  25.087  1.00  0.00    -0.334 N 
ATOM     15  C   UNL A   1      36.739  23.848  25.815  1.00  0.00     0.008 C 
ATOM     16  C   UNL A   1      35.886  22.570  25.924  1.00  0.00    -0.003 C 
ATOM     17  C   UNL A   1      35.522  22.079  24.503  1.00  0.00     0.065 C 
ATOM     18  C   UNL A   1      34.709  22.832  26.897  1.00  0.00     0.065 C 
ATOM     19  C   UNL A   1      34.105  21.529  24.334  1.00  0.00     0.262 C 
ATOM     20  C   UNL A   1      33.368  22.208  26.512  1.00  0.00     0.262 C 
ATOM     21  H   UNL A   1      33.553  23.333  24.922  1.00  0.00     0.348 HD
ENDBRANCH  13  14
ENDBRANCH   7  13
ENDBRANCH   6   7
ENDBRANCH   3   6
ENDBRANCH   1   2
BRANCH   1  22
ATOM     22  C   UNL A   1      32.422  28.110  27.269  1.00  0.00     0.042 C 
BRANCH  22  23
ATOM     23  C   UNL A   1      33.405  29.050  26.598  1.00  0.00     0.118 C 
BRANCH  23  24
ATOM     24  N   UNL A   1      33.431  30.363  27.219  1.00  0.00    -0.352 N 
ATOM     25  C   UNL A   1      34.367  30.944  28.037  1.00  0.00     0.251 C 
ATOM     26  H   UNL A   1      32.650  30.927  27.021  1.00  0.00     0.163 HD
ATOM     27  O   UNL A   1      34.077  32.008  28.596  1.00  0.00    -0.269 OA
BRANCH  25  28
ATOM     28  C   UNL A   1      35.706  30.342  28.281  1.00  0.00     0.039 A 
ATOM     29  C   UNL A   1      35.943  29.718  29.513  1.00  0.00     0.014 A 
ATOM     30  C   UNL A   1      36.757  30.442  27.366  1.00  0.00     0.014 A 
ATOM     31  C   UNL A   1      37.208  29.200  29.814  1.00  0.00     0.010 A 
ATOM     32  C   UNL A   1      37.982  29.825  27.619  1.00  0.00     0.010 A 
ATOM     33  C   UNL A   1      38.240  29.242  28.866  1.00  0.00    -0.014 A 
BRANCH  33  34
ATOM     34  C   UNL A   1      39.611  28.771  29.192  1.00  0.00     0.031 A 
ATOM     35  C   UNL A   1      40.548  29.665  29.972  1.00  0.00     0.074 A 
ATOM     36  C   UNL A   1      40.034  27.563  28.770  1.00  0.00     0.049 A 
ATOM     37  N   UNL A   1      41.785  29.448  30.339  1.00  0.00    -0.248 NA
ATOM     38  C   UNL A   1      40.036  30.990  30.364  1.00  0.00     0.031 C 
ATOM     39  C   UNL A   1      39.251  26.623  27.965  1.00  0.00     0.029 A 
ATOM     40  N   UNL A   1      41.230  26.918  28.963  1.00  0.00    -0.354 N 
ATOM     41  C   UNL A   1      42.204  30.615  30.969  1.00  0.00     0.074 A 
ATOM     42  C   UNL A   1      41.110  31.556  30.891  1.00  0.00     0.031 C 
ATOM     43  C   UNL A   1      39.976  25.510  27.761  1.00  0.00     0.029 A 
ATOM     44  C   UNL A   1      41.281  25.668  28.394  1.00  0.00     0.049 A 
ATOM     45  H   UNL A   1      41.981  27.313  29.463  1.00  0.00     0.167 HD
ATOM     46  C   UNL A   1      43.383  30.876  31.584  1.00  0.00     0.031 A 
ATOM     47  C   UNL A   1      42.267  24.751  28.389  1.00  0.00     0.031 A 
ATOM     48  C   UNL A   1      44.456  29.928  31.703  1.00  0.00     0.049 A 
ATOM     49  C   UNL A   1      43.546  25.045  29.125  1.00  0.00     0.074 A 
ATOM     50  C   UNL A   1      45.661  30.069  32.369  1.00  0.00     0.029 A 
ATOM     51  N   UNL A   1      44.445  28.657  31.154  1.00  0.00    -0.354 N 
ATOM     52  N   UNL A   1      43.893  26.126  29.781  1.00  0.00    -0.248 NA
ATOM     53  C   UNL A   1      44.557  23.980  29.142  1.00  0.00     0.031 C 
ATOM     54  C   UNL A   1      46.398  28.894  32.188  1.00  0.00     0.029 A 
ATOM     55  C   UNL A   1      45.628  28.005  31.455  1.00  0.00     0.049 A 
ATOM     56  H   UNL A   1      43.707  28.273  30.627  1.00  0.00     0.167 HD
ATOM     57  C   UNL A   1      45.148  25.858  30.315  1.00  0.00     0.074 A 
ATOM     58  C   UNL A   1      45.490  24.507  29.922  1.00  0.00     0.031 C 
ATOM     59  C   UNL A   1      45.946  26.658  31.063  1.00  0.00     0.031 A 
BRANCH  46  60
ATOM     60  C   UNL A   1      43.572  32.246  32.177  1.00  0.00    -0.014 A 
ATOM     61  C   UNL A   1      43.240  32.515  33.515  1.00  0.00     0.009 A 
ATOM     62  C   UNL A   1      44.132  33.272  31.398  1.00  0.00     0.009 A 
ATOM     63  C   UNL A   1      43.433  33.791  34.050  1.00  0.00     0.001 A 
ATOM     64  C   UNL A   1      44.350  34.538  31.945  1.00  0.00     0.001 A 
ATOM     65  C   UNL A   1      43.993  34.799  33.266  1.00  0.00     0.000 A 
ENDBRANCH  46  60
BRANCH  47  66
ATOM     66  C   UNL A   1      42.078  23.451  27.691  1.00  0.00    -0.014 A 
ATOM     67  C   UNL A   1      42.532  23.274  26.375  1.00  0.00     0.009 A 
ATOM     68  C   UNL A   1      41.422  22.389  28.331  1.00  0.00     0.009 A 
ATOM     69  C   UNL A   1      42.301  22.071  25.702  1.00  0.00     0.001 A 
ATOM     70  C   UNL A   1      41.219  21.178  27.666  1.00  0.00     0.001 A 
ATOM     71  C   UNL A   1      41.647  21.024  26.349  1.00  0.00     0.000 A 
ENDBRANCH  47  66
BRANCH  59  72
ATOM     72  C   UNL A   1      47.243  26.073  31.543  1.00  0.00    -0.014 A 
ATOM     73  C   UNL A   1      48.394  26.084  30.740  1.00  0.00     0.009 A 
ATOM     74  C   UNL A   1      47.317  25.523  32.833  1.00  0.00     0.009 A 
ATOM     75  C   UNL A   1      49.581  25.516  31.204  1.00  0.00     0.001 A 
ATOM     76  C   UNL A   1      48.513  24.982  33.305  1.00  0.00     0.001 A 
ATOM     77  C   UNL A   1      49.641  24.968  32.485  1.00  0.00     0.000 A 
ENDBRANCH  59  72
ENDBRANCH  33  34
ENDBRANCH  25  28
ENDBRANCH  23  24
ENDBRANCH  22  23
ENDBRANCH   1  22
TORSDOF 13
ENDMDL
MODEL 2
REMARK VINA RESULT:     -10.5      2.339      3.693
REMARK SMILES CC1CC[NH+](CC2(CC(=O)NCCCNC(=O)c3ccc(-c4c5nc(c(-c6ccccc6)c6ccc([nH]6)c(-c6ccccc6)c6nc(c(-c7ccccc7)c7ccc4[nH]7)C=C6)C=C5)cc3)CCCCC2)CC1
REMARK SMILES IDX 12 1 11 2 9 3 10 4 8 6 7 7 66 8 70 9 67 10 69 11 68 12 6 13
REMARK SMILES IDX 5 14 1 15 2 16 3 17 72 18 4 19 71 20 13 22 14 23 15 24 16 25
REMARK SMILES IDX 17 27 18 28 19 29 65 30 20 31 64 32 21 33 22 34 23 35 58 36
REMARK SMILES IDX 24 37 63 38 57 39 59 40 25 41 62 42 56 43 55 44 26 46 48 47
REMARK SMILES IDX 33 48 47 49 34 50 37 51 46 52 60 53 35 54 36 55 45 57 61 58
REMARK SMILES IDX 38 59 27 60 28 61 32 62 29 63 31 64 30 65 49 66 50 67 54 68
REMARK SMILES IDX 51 69 53 70 52 71 39 72 40 73 44 74 41 75 43 76 42 77
REMARK H PARENT 11 5 5 21 15 26 59 45 37 56
REMARK Flexibility Score: inf
ROOT
ATOM      1  C   UNL A   1      31.540  29.828  25.510  1.00  0.00     0.117 C 
ENDROOT
BRANCH   1   2
ATOM      2  N   UNL A   1      32.456  29.736  24.385  1.00  0.00    -0.356 N 
ATOM      3  C   UNL A   1      33.090  28.670  23.820  1.00  0.00     0.220 C 
ATOM      4  O   UNL A   1      33.921  28.915  22.941  1.00  0.00    -0.275 OA
ATOM      5  H   UNL A   1      32.654  30.598  23.953  1.00  0.00     0.163 HD
BRANCH   3   6
ATOM      6  C   UNL A   1      32.777  27.226  24.198  1.00  0.00     0.112 C 
BRANCH   6   7
ATOM      7  C   UNL A   1      32.002  26.340  23.170  1.00  0.00     0.028 C 
ATOM      8  C   UNL A   1      31.018  27.244  22.357  1.00  0.00     0.013 C 
ATOM      9  C   UNL A   1      31.140  25.284  23.893  1.00  0.00     0.013 C 
ATOM     10  C   UNL A   1      29.777  27.719  23.121  1.00  0.00     0.001 C 
ATOM     11  C   UNL A   1      29.984  25.816  24.724  1.00  0.00     0.001 C 
ATOM     12  C   UNL A   1      29.039  26.575  23.809  1.00  0.00     0.000 C 
BRANCH   7  13
ATOM     13  C   UNL A   1      33.008  25.631  22.174  1.00  0.00     0.269 C 
BRANCH  13  14
ATOM     14  N   UNL A   1      33.380  24.312  22.662  1.00  0.00    -0.334 N 
ATOM     15  C   UNL A   1      32.282  21.635  25.254  1.00  0.00     0.008 C 
ATOM     16  C   UNL A   1      33.333  21.949  24.174  1.00  0.00    -0.003 C 
ATOM     17  C   UNL A   1      34.172  23.170  24.619  1.00  0.00     0.065 C 
ATOM     18  C   UNL A   1      32.627  22.049  22.799  1.00  0.00     0.065 C 
ATOM     19  C   UNL A   1      34.540  24.160  23.513  1.00  0.00     0.262 C 
ATOM     20  C   UNL A   1      33.141  23.137  21.857  1.00  0.00     0.262 C 
ATOM     21  H   UNL A   1      32.584  24.337  23.299  1.00  0.00     0.348 HD
ENDBRANCH  13  14
ENDBRANCH   7  13
ENDBRANCH   6   7
ENDBRANCH   3   6
ENDBRANCH   1   2
BRANCH   1  22
ATOM     22  C   UNL A   1      31.397  31.278  25.977  1.00  0.00     0.042 C 
BRANCH  22  23
ATOM     23  C   UNL A   1      32.217  31.667  27.191  1.00  0.00     0.118 C 
BRANCH  23  24
ATOM     24  N   UNL A   1      32.167  33.093  27.462  1.00  0.00    -0.352 N 
ATOM     25  C   UNL A   1      33.015  33.894  28.185  1.00  0.00     0.251 C 
ATOM     26  H   UNL A   1      31.399  33.561  27.062  1.00  0.00     0.163 HD
ATOM     27  O   UNL A   1      32.660  35.052  28.432  1.00  0.00    -0.269 OA
BRANCH  25  28
ATOM     28  C   UNL A   1      34.334  33.422  28.686  1.00  0.00     0.039 A 
ATOM     29  C   UNL A   1      35.477  33.700  27.925  1.00  0.00     0.014 A 
ATOM     30  C   UNL A   1      34.469  32.646  29.841  1.00  0.00     0.014 A 
ATOM     31  C   UNL A   1      36.729  33.216  28.321  1.00  0.00     0.010 A 
ATOM     32  C   UNL A   1      35.730  32.263  30.297  1.00  0.00     0.010 A 
ATOM     33  C   UNL A   1      36.869  32.497  29.517  1.00  0.00    -0.014 A 
BRANCH  33  34
ATOM     34  C   UNL A   1      38.173  31.906  29.916  1.00  0.00     0.031 A 
ATOM     35  C   UNL A   1      39.070  32.644  30.881  1.00  0.00     0.074 A 
ATOM     36  C   UNL A   1      38.572  30.727  29.398  1.00  0.00     0.049 A 
ATOM     37  N   UNL A   1      40.250  32.308  31.339  1.00  0.00    -0.248 NA
ATOM     38  C   UNL A   1      38.592  33.948  31.375  1.00  0.00     0.031 C 
ATOM     39  C   UNL A   1      37.828  29.935  28.416  1.00  0.00     0.029 A 
ATOM     40  N   UNL A   1      39.706  29.989  29.628  1.00  0.00    -0.354 N 
ATOM     41  C   UNL A   1      40.663  33.368  32.138  1.00  0.00     0.074 A 
ATOM     42  C   UNL A   1      39.635  34.381  32.067  1.00  0.00     0.031 C 
ATOM     43  C   UNL A   1      38.510  28.808  28.154  1.00  0.00     0.029 A 
ATOM     44  C   UNL A   1      39.749  28.809  28.925  1.00  0.00     0.049 A 
ATOM     45  H   UNL A   1      40.421  30.277  30.241  1.00  0.00     0.167 HD
ATOM     46  C   UNL A   1      41.784  33.483  32.890  1.00  0.00     0.031 A 
ATOM     47  C   UNL A   1      40.681  27.837  28.907  1.00  0.00     0.031 A 
ATOM     48  C   UNL A   1      42.787  32.460  33.000  1.00  0.00     0.049 A 
ATOM     49  C   UNL A   1      41.890  27.964  29.791  1.00  0.00     0.074 A 
ATOM     50  C   UNL A   1      43.924  32.448  33.791  1.00  0.00     0.029 A 
ATOM     51  N   UNL A   1      42.766  31.262  32.307  1.00  0.00    -0.354 N 
ATOM     52  N   UNL A   1      42.225  28.941  30.600  1.00  0.00    -0.248 NA
ATOM     53  C   UNL A   1      42.837  26.840  29.780  1.00  0.00     0.031 C 
ATOM     54  C   UNL A   1      44.612  31.255  33.545  1.00  0.00     0.029 A 
ATOM     55  C   UNL A   1      43.875  30.505  32.642  1.00  0.00     0.049 A 
ATOM     56  H   UNL A   1      42.067  30.988  31.671  1.00  0.00     0.167 HD
ATOM     57  C   UNL A   1      43.402  28.534  31.217  1.00  0.00     0.074 A 
ATOM     58  C   UNL A   1      43.711  27.216  30.703  1.00  0.00     0.031 C 
ATOM     59  C   UNL A   1      44.160  29.193  32.127  1.00  0.00     0.031 A 
BRANCH  46  60
ATOM     60  C   UNL A   1      41.984  34.763  33.655  1.00  0.00    -0.014 A 
ATOM     61  C   UNL A   1      41.482  34.922  34.957  1.00  0.00     0.009 A 
ATOM     62  C   UNL A   1      42.723  35.810  33.082  1.00  0.00     0.009 A 
ATOM     63  C   UNL A   1      41.686  36.115  35.655  1.00  0.00     0.001 A 
ATOM     64  C   UNL A   1      42.951  36.990  33.793  1.00  0.00     0.001 A 
ATOM     65  C   UNL A   1      42.426  37.145  35.074  1.00  0.00     0.000 A 
ENDBRANCH  46  60
BRANCH  47  66
ATOM     66  C   UNL A   1      40.495  26.638  28.046  1.00  0.00    -0.014 A 
ATOM     67  C   UNL A   1      39.755  25.537  28.504  1.00  0.00     0.009 A 
ATOM     68  C   UNL A   1      41.076  26.581  26.771  1.00  0.00     0.009 A 
ATOM     69  C   UNL A   1      39.631  24.389  27.716  1.00  0.00     0.001 A 
ATOM     70  C   UNL A   1      40.925  25.444  25.973  1.00  0.00     0.001 A 
ATOM     71  C   UNL A   1      40.214  24.345  26.451  1.00  0.00     0.000 A 
ENDBRANCH  47  66
BRANCH  59  72
ATOM     72  C   UNL A   1      45.367  28.475  32.658  1.00  0.00    -0.014 A 
ATOM     73  C   UNL A   1      45.288  27.641  33.783  1.00  0.00     0.009 A 
ATOM     74  C   UNL A   1      46.601  28.619  32.002  1.00  0.00     0.009 A 
ATOM     75  C   UNL A   1      46.430  27.000  34.268  1.00  0.00     0.001 A 
ATOM     76  C   UNL A   1      47.734  27.955  32.471  1.00  0.00     0.001 A 
ATOM     77  C   UNL A   1      47.650  27.156  33.610  1.00  0.00     0.000 A 
ENDBRANCH  59  72
ENDBRANCH  33  34
ENDBRANCH  25  28
ENDBRANCH  23  24
ENDBRANCH  22  23
ENDBRANCH   1  22
TORSDOF 13
ENDMDL
MODEL 3
REMARK VINA RESULT:     -10.4      2.496      7.125
REMARK SMILES CC1CC[NH+](CC2(CC(=O)NCCCNC(=O)c3ccc(-c4c5nc(c(-c6ccccc6)c6ccc([nH]6)c(-c6ccccc6)c6nc(c(-c7ccccc7)c7ccc4[nH]7)C=C6)C=C5)cc3)CCCCC2)CC1
REMARK SMILES IDX 12 1 11 2 9 3 10 4 8 6 7 7 66 8 70 9 67 10 69 11 68 12 6 13
REMARK SMILES IDX 5 14 1 15 2 16 3 17 72 18 4 19 71 20 13 22 14 23 15 24 16 25
REMARK SMILES IDX 17 27 18 28 19 29 65 30 20 31 64 32 21 33 22 34 23 35 58 36
REMARK SMILES IDX 24 37 63 38 57 39 59 40 25 41 62 42 56 43 55 44 26 46 48 47
REMARK SMILES IDX 33 48 47 49 34 50 37 51 46 52 60 53 35 54 36 55 45 57 61 58
REMARK SMILES IDX 38 59 27 60 28 61 32 62 29 63 31 64 30 65 49 66 50 67 54 68
REMARK SMILES IDX 51 69 53 70 52 71 39 72 40 73 44 74 41 75 43 76 42 77
REMARK H PARENT 11 5 5 21 15 26 59 45 37 56
REMARK Flexibility Score: inf
ROOT
ATOM      1  C   UNL A   1      31.479  29.975  25.792  1.00  0.00     0.117 C 
ENDROOT
BRANCH   1   2
ATOM      2  N   UNL A   1      32.438  29.870  24.705  1.00  0.00    -0.356 N 
ATOM      3  C   UNL A   1      33.047  28.793  24.136  1.00  0.00     0.220 C 
ATOM      4  O   UNL A   1      33.926  29.022  23.300  1.00  0.00    -0.275 OA
ATOM      5  H   UNL A   1      32.693  30.734  24.307  1.00  0.00     0.163 HD
BRANCH   3   6
ATOM      6  C   UNL A   1      32.653  27.354  24.458  1.00  0.00     0.112 C 
BRANCH   6   7
ATOM      7  C   UNL A   1      31.966  26.504  23.343  1.00  0.00     0.028 C 
ATOM      8  C   UNL A   1      31.022  27.428  22.505  1.00  0.00     0.013 C 
ATOM      9  C   UNL A   1      31.077  25.403  23.959  1.00  0.00     0.013 C 
ATOM     10  C   UNL A   1      29.723  27.849  23.204  1.00  0.00     0.001 C 
ATOM     11  C   UNL A   1      29.858  25.879  24.732  1.00  0.00     0.001 C 
ATOM     12  C   UNL A   1      28.963  26.664  23.790  1.00  0.00     0.000 C 
BRANCH   7  13
ATOM     13  C   UNL A   1      33.049  25.856  22.386  1.00  0.00     0.269 C 
BRANCH  13  14
ATOM     14  N   UNL A   1      33.382  24.507  22.817  1.00  0.00    -0.334 N 
ATOM     15  C   UNL A   1      32.073  21.667  25.120  1.00  0.00     0.008 C 
ATOM     16  C   UNL A   1      33.213  22.049  24.158  1.00  0.00    -0.003 C 
ATOM     17  C   UNL A   1      34.005  23.236  24.754  1.00  0.00     0.065 C 
ATOM     18  C   UNL A   1      32.628  22.242  22.737  1.00  0.00     0.065 C 
ATOM     19  C   UNL A   1      34.464  24.297  23.754  1.00  0.00     0.262 C 
ATOM     20  C   UNL A   1      33.219  23.389  21.917  1.00  0.00     0.262 C 
ATOM     21  H   UNL A   1      32.533  24.492  23.382  1.00  0.00     0.348 HD
ENDBRANCH  13  14
ENDBRANCH   7  13
ENDBRANCH   6   7
ENDBRANCH   3   6
ENDBRANCH   1   2
BRANCH   1  22
ATOM     22  C   UNL A   1      31.368  31.419  26.283  1.00  0.00     0.042 C 
BRANCH  22  23
ATOM     23  C   UNL A   1      32.616  32.002  26.917  1.00  0.00     0.118 C 
BRANCH  23  24
ATOM     24  N   UNL A   1      32.420  33.364  27.381  1.00  0.00    -0.352 N 
ATOM     25  C   UNL A   1      33.118  34.101  28.305  1.00  0.00     0.251 C 
ATOM     26  H   UNL A   1      31.663  33.836  26.965  1.00  0.00     0.163 HD
ATOM     27  O   UNL A   1      32.643  35.183  28.671  1.00  0.00    -0.269 OA
BRANCH  25  28
ATOM     28  C   UNL A   1      34.410  33.646  28.885  1.00  0.00     0.039 A 
ATOM     29  C   UNL A   1      35.599  34.033  28.252  1.00  0.00     0.014 A 
ATOM     30  C   UNL A   1      34.484  32.788  29.985  1.00  0.00     0.014 A 
ATOM     31  C   UNL A   1      36.835  33.573  28.720  1.00  0.00     0.010 A 
ATOM     32  C   UNL A   1      35.718  32.423  30.521  1.00  0.00     0.010 A 
ATOM     33  C   UNL A   1      36.907  32.767  29.866  1.00  0.00    -0.014 A 
BRANCH  33  34
ATOM     34  C   UNL A   1      38.199  32.201  30.334  1.00  0.00     0.031 A 
ATOM     35  C   UNL A   1      38.709  30.905  29.749  1.00  0.00     0.074 A 
ATOM     36  C   UNL A   1      38.904  32.823  31.300  1.00  0.00     0.049 A 
ATOM     37  N   UNL A   1      39.799  30.239  30.035  1.00  0.00    -0.248 NA
ATOM     38  C   UNL A   1      37.867  30.255  28.729  1.00  0.00     0.031 C 
ATOM     39  C   UNL A   1      38.501  34.052  31.988  1.00  0.00     0.029 A 
ATOM     40  N   UNL A   1      40.112  32.506  31.870  1.00  0.00    -0.354 N 
ATOM     41  C   UNL A   1      39.753  29.085  29.261  1.00  0.00     0.074 A 
ATOM     42  C   UNL A   1      38.507  29.113  28.530  1.00  0.00     0.031 C 
ATOM     43  C   UNL A   1      39.460  34.400  32.863  1.00  0.00     0.029 A 
ATOM     44  C   UNL A   1      40.529  33.407  32.819  1.00  0.00     0.049 A 
ATOM     45  H   UNL A   1      40.631  31.706  31.621  1.00  0.00     0.167 HD
ATOM     46  C   UNL A   1      40.675  28.099  29.143  1.00  0.00     0.031 A 
ATOM     47  C   UNL A   1      41.649  33.433  33.565  1.00  0.00     0.031 A 
ATOM     48  C   UNL A   1      41.936  28.090  29.832  1.00  0.00     0.049 A 
ATOM     49  C   UNL A   1      42.682  32.356  33.376  1.00  0.00     0.074 A 
ATOM     50  C   UNL A   1      42.970  27.176  29.727  1.00  0.00     0.029 A 
ATOM     51  N   UNL A   1      42.337  29.049  30.747  1.00  0.00    -0.354 N 
ATOM     52  N   UNL A   1      42.653  31.314  32.581  1.00  0.00    -0.248 NA
ATOM     53  C   UNL A   1      43.913  32.476  34.169  1.00  0.00     0.031 C 
ATOM     54  C   UNL A   1      43.983  27.562  30.610  1.00  0.00     0.029 A 
ATOM     55  C   UNL A   1      43.600  28.744  31.224  1.00  0.00     0.049 A 
ATOM     56  H   UNL A   1      41.804  29.831  31.019  1.00  0.00     0.167 HD
ATOM     57  C   UNL A   1      43.875  30.674  32.754  1.00  0.00     0.074 A 
ATOM     58  C   UNL A   1      44.626  31.455  33.714  1.00  0.00     0.031 C 
ATOM     59  C   UNL A   1      44.334  29.539  32.172  1.00  0.00     0.031 A 
BRANCH  46  60
ATOM     60  C   UNL A   1      40.353  26.947  28.230  1.00  0.00    -0.014 A 
ATOM     61  C   UNL A   1      40.844  26.898  26.915  1.00  0.00     0.009 A 
ATOM     62  C   UNL A   1      39.583  25.874  28.706  1.00  0.00     0.009 A 
ATOM     63  C   UNL A   1      40.542  25.814  26.086  1.00  0.00     0.001 A 
ATOM     64  C   UNL A   1      39.307  24.779  27.884  1.00  0.00     0.001 A 
ATOM     65  C   UNL A   1      39.779  24.754  26.574  1.00  0.00     0.000 A 
ENDBRANCH  46  60
BRANCH  47  66
ATOM     66  C   UNL A   1      41.874  34.534  34.540  1.00  0.00    -0.014 A 
ATOM     67  C   UNL A   1      41.437  34.414  35.868  1.00  0.00     0.009 A 
ATOM     68  C   UNL A   1      42.508  35.720  34.141  1.00  0.00     0.009 A 
ATOM     69  C   UNL A   1      41.598  35.472  36.766  1.00  0.00     0.001 A 
ATOM     70  C   UNL A   1      42.695  36.765  35.049  1.00  0.00     0.001 A 
ATOM     71  C   UNL A   1      42.229  36.645  36.357  1.00  0.00     0.000 A 
ENDBRANCH  47  66
BRANCH  59  72
ATOM     72  C   UNL A   1      45.729  29.107  32.522  1.00  0.00    -0.014 A 
ATOM     73  C   UNL A   1      45.978  28.228  33.587  1.00  0.00     0.009 A 
ATOM     74  C   UNL A   1      46.809  29.570  31.754  1.00  0.00     0.009 A 
ATOM     75  C   UNL A   1      47.286  27.858  33.904  1.00  0.00     0.001 A 
ATOM     76  C   UNL A   1      48.113  29.175  32.054  1.00  0.00     0.001 A 
ATOM     77  C   UNL A   1      48.351  28.329  33.136  1.00  0.00     0.000 A 
ENDBRANCH  59  72
ENDBRANCH  33  34
ENDBRANCH  25  28
ENDBRANCH  23  24
ENDBRANCH  22  23
ENDBRANCH   1  22
TORSDOF 13
ENDMDL
