MODEL 1
REMARK VINA RESULT:     -10.0      0.000      0.000
REMARK SMILES NS(=O)(=O)c1ccc(-n2nc(NC(=O)NCCCCCCCCCCC(=O)NCCCNC(=O)c3ccc(-c4c5nc(c(-c6ccccc6)c6ccc([nH]6)c(-c6ccccc6)c6nc(c(-c7ccccc7)c7ccc4[nH]7)C=C6)C=C5)cc3)cc2-c2ccccc2)cc1
REMARK SMILES IDX 22 1 21 2 20 3 19 4 18 5 17 6 16 7 15 8 12 9 13 10 14 12
REMARK SMILES IDX 11 14 9 15 10 16 84 17 83 18 8 19 5 20 6 21 92 22 7 23 91 24
REMARK SMILES IDX 2 25 3 26 4 27 1 28 85 31 86 32 90 33 87 34 89 35 88 36
REMARK SMILES IDX 23 37 24 38 25 39 26 40 27 41 28 42 29 44 30 45 31 46 32 47
REMARK SMILES IDX 33 48 34 50 35 51 36 52 82 53 37 54 81 55 38 56 39 57 40 58
REMARK SMILES IDX 75 59 41 60 80 61 74 62 76 63 42 64 79 65 73 66 72 67 43 69
REMARK SMILES IDX 65 70 50 71 64 72 51 73 54 74 63 75 77 76 52 77 53 78 62 80
REMARK SMILES IDX 78 81 55 82 44 83 45 84 49 85 46 86 48 87 47 88 66 89 67 90
REMARK SMILES IDX 71 91 68 92 70 93 69 94 56 95 57 96 61 97 58 98 60 99 59 100
REMARK H PARENT 12 11 15 13 1 29 1 30 28 43 32 49 76 68 54 79
REMARK Flexibility Score: inf
ROOT
ATOM      1  C   UNL A   1      31.450  28.797  25.669  1.00  0.00     0.000 C 
ENDROOT
BRANCH   1   2
ATOM      2  C   UNL A   1      31.595  29.335  24.263  1.00  0.00     0.000 C 
BRANCH   2   3
ATOM      3  C   UNL A   1      30.296  29.312  23.465  1.00  0.00     0.000 C 
BRANCH   3   4
ATOM      4  C   UNL A   1      30.038  28.093  22.572  1.00  0.00     0.000 C 
BRANCH   4   5
ATOM      5  C   UNL A   1      31.204  27.118  22.374  1.00  0.00     0.002 C 
BRANCH   5   6
ATOM      6  C   UNL A   1      31.267  25.919  23.320  1.00  0.00     0.021 C 
BRANCH   6   7
ATOM      7  C   UNL A   1      29.941  25.276  23.686  1.00  0.00     0.117 C 
BRANCH   7   8
ATOM      8  N   UNL A   1      29.293  25.760  24.877  1.00  0.00    -0.338 N 
ATOM      9  N   UNL A   1      30.037  24.133  26.455  1.00  0.00    -0.291 N 
ATOM     10  C   UNL A   1      29.330  25.241  26.127  1.00  0.00     0.320 C 
ATOM     11  H   UNL A   1      29.702  23.668  27.254  1.00  0.00     0.173 HD
ATOM     12  O   UNL A   1      28.583  25.737  26.977  1.00  0.00    -0.248 OA
ATOM     13  H   UNL A   1      28.753  26.576  24.769  1.00  0.00     0.165 HD
BRANCH   9  14
ATOM     14  C   UNL A   1      31.138  23.536  25.880  1.00  0.00     0.157 A 
ATOM     15  N   UNL A   1      32.437  22.029  25.143  1.00  0.00    -0.231 N 
ATOM     16  N   UNL A   1      31.136  22.383  25.207  1.00  0.00    -0.149 NA
ATOM     17  C   UNL A   1      33.267  23.121  25.353  1.00  0.00     0.076 A 
ATOM     18  C   UNL A   1      32.438  24.097  25.878  1.00  0.00     0.078 A 
BRANCH  15  19
ATOM     19  C   UNL A   1      32.805  20.670  24.947  1.00  0.00     0.065 A 
ATOM     20  C   UNL A   1      33.475  17.990  24.592  1.00  0.00     0.082 A 
ATOM     21  C   UNL A   1      32.870  18.689  23.545  1.00  0.00     0.024 A 
ATOM     22  C   UNL A   1      33.786  18.631  25.797  1.00  0.00     0.024 A 
ATOM     23  C   UNL A   1      32.522  20.028  23.729  1.00  0.00     0.030 A 
ATOM     24  C   UNL A   1      33.464  19.980  25.969  1.00  0.00     0.030 A 
BRANCH  20  25
ATOM     25  S   UNL A   1      33.929  16.295  24.371  1.00  0.00     0.238 S 
ATOM     26  O   UNL A   1      32.763  15.464  24.608  1.00  0.00    -0.207 OA
ATOM     27  O   UNL A   1      35.193  16.047  25.005  1.00  0.00    -0.207 OA
BRANCH  25  28
ATOM     28  N   UNL A   1      34.206  16.232  22.717  1.00  0.00    -0.225 NA
ATOM     29  H   UNL A   1      33.565  15.562  22.291  1.00  0.00     0.137 HD
ATOM     30  H   UNL A   1      35.167  15.940  22.544  1.00  0.00     0.137 HD
ENDBRANCH  25  28
ENDBRANCH  20  25
ENDBRANCH  15  19
BRANCH  17  31
ATOM     31  C   UNL A   1      34.686  23.130  25.009  1.00  0.00     0.000 A 
ATOM     32  C   UNL A   1      35.076  22.814  23.696  1.00  0.00     0.010 A 
ATOM     33  C   UNL A   1      35.668  23.382  25.969  1.00  0.00     0.010 A 
ATOM     34  C   UNL A   1      36.422  22.705  23.359  1.00  0.00     0.001 A 
ATOM     35  C   UNL A   1      37.019  23.279  25.626  1.00  0.00     0.001 A 
ATOM     36  C   UNL A   1      37.394  22.933  24.327  1.00  0.00     0.000 A 
ENDBRANCH  17  31
ENDBRANCH   9  14
ENDBRANCH   7   8
ENDBRANCH   6   7
ENDBRANCH   5   6
ENDBRANCH   4   5
ENDBRANCH   3   4
ENDBRANCH   2   3
ENDBRANCH   1   2
BRANCH   1  37
ATOM     37  C   UNL A   1      32.564  27.828  26.078  1.00  0.00     0.001 C 
BRANCH  37  38
ATOM     38  C   UNL A   1      33.459  28.352  27.193  1.00  0.00     0.010 C 
BRANCH  38  39
ATOM     39  C   UNL A   1      33.614  29.872  27.262  1.00  0.00     0.100 C 
BRANCH  39  40
ATOM     40  C   UNL A   1      35.047  30.346  27.401  1.00  0.00     0.219 C 
ATOM     41  O   UNL A   1      35.984  29.568  27.209  1.00  0.00    -0.275 OA
ATOM     42  N   UNL A   1      35.353  31.635  27.728  1.00  0.00    -0.356 N 
ATOM     43  H   UNL A   1      36.317  31.808  27.823  1.00  0.00     0.163 HD
BRANCH  42  44
ATOM     44  C   UNL A   1      34.510  32.803  27.962  1.00  0.00     0.117 C 
BRANCH  44  45
ATOM     45  C   UNL A   1      34.659  33.387  29.379  1.00  0.00     0.042 C 
BRANCH  45  46
ATOM     46  C   UNL A   1      35.939  33.002  30.076  1.00  0.00     0.118 C 
BRANCH  46  47
ATOM     47  N   UNL A   1      35.816  32.947  31.537  1.00  0.00    -0.352 N 
ATOM     48  C   UNL A   1      36.461  32.064  32.392  1.00  0.00     0.251 C 
ATOM     49  H   UNL A   1      35.213  33.603  31.954  1.00  0.00     0.163 HD
ATOM     50  O   UNL A   1      36.032  31.825  33.512  1.00  0.00    -0.269 OA
BRANCH  48  51
ATOM     51  C   UNL A   1      37.690  31.420  31.899  1.00  0.00     0.039 A 
ATOM     52  C   UNL A   1      38.939  32.043  31.907  1.00  0.00     0.014 A 
ATOM     53  C   UNL A   1      37.562  30.089  31.532  1.00  0.00     0.014 A 
ATOM     54  C   UNL A   1      40.061  31.268  31.617  1.00  0.00     0.010 A 
ATOM     55  C   UNL A   1      38.662  29.291  31.578  1.00  0.00     0.010 A 
ATOM     56  C   UNL A   1      39.907  29.881  31.474  1.00  0.00    -0.014 A 
BRANCH  56  57
ATOM     57  C   UNL A   1      41.025  28.980  31.254  1.00  0.00     0.031 A 
ATOM     58  C   UNL A   1      41.841  28.694  32.455  1.00  0.00     0.074 A 
ATOM     59  C   UNL A   1      41.169  28.277  30.106  1.00  0.00     0.049 A 
ATOM     60  N   UNL A   1      43.038  29.107  32.692  1.00  0.00    -0.248 NA
ATOM     61  C   UNL A   1      41.211  27.994  33.585  1.00  0.00     0.031 C 
ATOM     62  C   UNL A   1      40.258  28.182  28.954  1.00  0.00     0.029 A 
ATOM     63  N   UNL A   1      42.124  27.369  29.790  1.00  0.00    -0.354 N 
ATOM     64  C   UNL A   1      43.402  28.541  33.907  1.00  0.00     0.074 A 
ATOM     65  C   UNL A   1      42.185  28.042  34.498  1.00  0.00     0.031 C 
ATOM     66  C   UNL A   1      40.563  27.087  28.224  1.00  0.00     0.029 A 
ATOM     67  C   UNL A   1      41.793  26.521  28.742  1.00  0.00     0.049 A 
ATOM     68  H   UNL A   1      42.984  27.314  30.267  1.00  0.00     0.167 HD
ATOM     69  C   UNL A   1      44.710  28.290  34.199  1.00  0.00     0.031 A 
ATOM     70  C   UNL A   1      42.467  25.407  28.361  1.00  0.00     0.031 A 
ATOM     71  C   UNL A   1      45.595  28.950  33.268  1.00  0.00     0.049 A 
ATOM     72  C   UNL A   1      43.838  25.523  28.920  1.00  0.00     0.074 A 
ATOM     73  C   UNL A   1      45.771  30.260  32.864  1.00  0.00     0.029 A 
ATOM     74  N   UNL A   1      46.157  28.176  32.276  1.00  0.00    -0.354 N 
ATOM     75  N   UNL A   1      44.692  26.428  28.531  1.00  0.00    -0.248 NA
ATOM     76  C   UNL A   1      44.078  24.969  30.245  1.00  0.00     0.031 C 
ATOM     77  C   UNL A   1      45.937  30.183  31.450  1.00  0.00     0.029 A 
ATOM     78  C   UNL A   1      45.957  28.834  31.089  1.00  0.00     0.049 A 
ATOM     79  H   UNL A   1      46.616  27.313  32.397  1.00  0.00     0.167 HD
ATOM     80  C   UNL A   1      45.284  26.881  29.702  1.00  0.00     0.074 A 
ATOM     81  C   UNL A   1      44.937  25.881  30.713  1.00  0.00     0.031 C 
ATOM     82  C   UNL A   1      45.737  28.167  29.823  1.00  0.00     0.031 A 
BRANCH  69  83
ATOM     83  C   UNL A   1      45.170  27.124  35.036  1.00  0.00    -0.014 A 
ATOM     84  C   UNL A   1      45.160  25.841  34.459  1.00  0.00     0.009 A 
ATOM     85  C   UNL A   1      45.336  27.188  36.432  1.00  0.00     0.009 A 
ATOM     86  C   UNL A   1      45.226  24.687  35.250  1.00  0.00     0.001 A 
ATOM     87  C   UNL A   1      45.447  26.040  37.219  1.00  0.00     0.001 A 
ATOM     88  C   UNL A   1      45.359  24.789  36.630  1.00  0.00     0.000 A 
ENDBRANCH  69  83
BRANCH  70  89
ATOM     89  C   UNL A   1      41.921  24.149  27.806  1.00  0.00    -0.014 A 
ATOM     90  C   UNL A   1      42.739  23.021  27.638  1.00  0.00     0.009 A 
ATOM     91  C   UNL A   1      40.530  23.965  27.681  1.00  0.00     0.009 A 
ATOM     92  C   UNL A   1      42.184  21.755  27.396  1.00  0.00     0.001 A 
ATOM     93  C   UNL A   1      39.976  22.704  27.436  1.00  0.00     0.001 A 
ATOM     94  C   UNL A   1      40.803  21.595  27.310  1.00  0.00     0.000 A 
ENDBRANCH  70  89
BRANCH  82  95
ATOM     95  C   UNL A   1      45.768  29.045  28.592  1.00  0.00    -0.014 A 
ATOM     96  C   UNL A   1      44.616  29.613  28.017  1.00  0.00     0.009 A 
ATOM     97  C   UNL A   1      47.018  29.459  28.108  1.00  0.00     0.009 A 
ATOM     98  C   UNL A   1      44.715  30.543  26.976  1.00  0.00     0.001 A 
ATOM     99  C   UNL A   1      47.118  30.404  27.084  1.00  0.00     0.001 A 
ATOM    100  C   UNL A   1      45.968  30.942  26.514  1.00  0.00     0.000 A 
ENDBRANCH  82  95
ENDBRANCH  56  57
ENDBRANCH  48  51
ENDBRANCH  46  47
ENDBRANCH  45  46
ENDBRANCH  44  45
ENDBRANCH  42  44
ENDBRANCH  39  40
ENDBRANCH  38  39
ENDBRANCH  37  38
ENDBRANCH   1  37
TORSDOF 25
ENDMDL
MODEL 2
REMARK VINA RESULT:      -9.4      2.395      4.519
REMARK SMILES NS(=O)(=O)c1ccc(-n2nc(NC(=O)NCCCCCCCCCCC(=O)NCCCNC(=O)c3ccc(-c4c5nc(c(-c6ccccc6)c6ccc([nH]6)c(-c6ccccc6)c6nc(c(-c7ccccc7)c7ccc4[nH]7)C=C6)C=C5)cc3)cc2-c2ccccc2)cc1
REMARK SMILES IDX 22 1 21 2 20 3 19 4 18 5 17 6 16 7 15 8 12 9 13 10 14 12
REMARK SMILES IDX 11 14 9 15 10 16 84 17 83 18 8 19 5 20 6 21 92 22 7 23 91 24
REMARK SMILES IDX 2 25 3 26 4 27 1 28 85 31 86 32 90 33 87 34 89 35 88 36
REMARK SMILES IDX 23 37 24 38 25 39 26 40 27 41 28 42 29 44 30 45 31 46 32 47
REMARK SMILES IDX 33 48 34 50 35 51 36 52 82 53 37 54 81 55 38 56 39 57 40 58
REMARK SMILES IDX 75 59 41 60 80 61 74 62 76 63 42 64 79 65 73 66 72 67 43 69
REMARK SMILES IDX 65 70 50 71 64 72 51 73 54 74 63 75 77 76 52 77 53 78 62 80
REMARK SMILES IDX 78 81 55 82 44 83 45 84 49 85 46 86 48 87 47 88 66 89 67 90
REMARK SMILES IDX 71 91 68 92 70 93 69 94 56 95 57 96 61 97 58 98 60 99 59 100
REMARK H PARENT 12 11 15 13 1 29 1 30 28 43 32 49 76 68 54 79
REMARK Flexibility Score: inf
ROOT
ATOM      1  C   UNL A   1      31.509  28.884  25.759  1.00  0.00     0.000 C 
ENDROOT
BRANCH   1   2
ATOM      2  C   UNL A   1      31.729  29.317  24.327  1.00  0.00     0.000 C 
BRANCH   2   3
ATOM      3  C   UNL A   1      30.482  29.199  23.457  1.00  0.00     0.000 C 
BRANCH   3   4
ATOM      4  C   UNL A   1      30.290  27.896  22.673  1.00  0.00     0.000 C 
BRANCH   4   5
ATOM      5  C   UNL A   1      31.505  26.968  22.560  1.00  0.00     0.002 C 
BRANCH   5   6
ATOM      6  C   UNL A   1      31.406  25.617  23.268  1.00  0.00     0.021 C 
BRANCH   6   7
ATOM      7  C   UNL A   1      30.009  25.144  23.631  1.00  0.00     0.117 C 
BRANCH   7   8
ATOM      8  N   UNL A   1      29.414  25.724  24.807  1.00  0.00    -0.338 N 
ATOM      9  N   UNL A   1      30.179  24.194  26.468  1.00  0.00    -0.291 N 
ATOM     10  C   UNL A   1      29.484  25.292  26.088  1.00  0.00     0.320 C 
ATOM     11  H   UNL A   1      29.863  23.792  27.309  1.00  0.00     0.173 HD
ATOM     12  O   UNL A   1      28.778  25.863  26.926  1.00  0.00    -0.248 OA
ATOM     13  H   UNL A   1      28.887  26.543  24.660  1.00  0.00     0.165 HD
BRANCH   9  14
ATOM     14  C   UNL A   1      31.247  23.532  25.899  1.00  0.00     0.157 A 
ATOM     15  N   UNL A   1      32.462  21.952  25.175  1.00  0.00    -0.231 N 
ATOM     16  N   UNL A   1      31.182  22.378  25.233  1.00  0.00    -0.149 NA
ATOM     17  C   UNL A   1      33.351  22.997  25.381  1.00  0.00     0.076 A 
ATOM     18  C   UNL A   1      32.576  24.020  25.899  1.00  0.00     0.078 A 
BRANCH  15  19
ATOM     19  C   UNL A   1      32.754  20.573  24.986  1.00  0.00     0.065 A 
ATOM     20  C   UNL A   1      33.270  17.858  24.637  1.00  0.00     0.082 A 
ATOM     21  C   UNL A   1      32.948  18.643  23.526  1.00  0.00     0.024 A 
ATOM     22  C   UNL A   1      33.377  18.429  25.910  1.00  0.00     0.024 A 
ATOM     23  C   UNL A   1      32.676  20.001  23.705  1.00  0.00     0.030 A 
ATOM     24  C   UNL A   1      33.134  19.794  26.084  1.00  0.00     0.030 A 
BRANCH  20  25
ATOM     25  S   UNL A   1      33.625  16.139  24.424  1.00  0.00     0.238 S 
ATOM     26  O   UNL A   1      34.092  15.923  23.066  1.00  0.00    -0.207 OA
ATOM     27  O   UNL A   1      32.576  15.354  25.011  1.00  0.00    -0.207 OA
BRANCH  25  28
ATOM     28  N   UNL A   1      34.971  15.947  25.406  1.00  0.00    -0.225 NA
ATOM     29  H   UNL A   1      34.799  16.389  26.309  1.00  0.00     0.137 HD
ATOM     30  H   UNL A   1      35.780  16.381  24.962  1.00  0.00     0.137 HD
ENDBRANCH  25  28
ENDBRANCH  20  25
ENDBRANCH  15  19
BRANCH  17  31
ATOM     31  C   UNL A   1      34.769  22.925  25.041  1.00  0.00     0.000 A 
ATOM     32  C   UNL A   1      35.725  23.007  26.068  1.00  0.00     0.010 A 
ATOM     33  C   UNL A   1      35.199  22.841  23.715  1.00  0.00     0.010 A 
ATOM     34  C   UNL A   1      37.085  23.053  25.774  1.00  0.00     0.001 A 
ATOM     35  C   UNL A   1      36.565  22.879  23.423  1.00  0.00     0.001 A 
ATOM     36  C   UNL A   1      37.505  22.993  24.449  1.00  0.00     0.000 A 
ENDBRANCH  17  31
ENDBRANCH   9  14
ENDBRANCH   7   8
ENDBRANCH   6   7
ENDBRANCH   5   6
ENDBRANCH   4   5
ENDBRANCH   3   4
ENDBRANCH   2   3
ENDBRANCH   1   2
BRANCH   1  37
ATOM     37  C   UNL A   1      32.724  28.195  26.390  1.00  0.00     0.001 C 
BRANCH  37  38
ATOM     38  C   UNL A   1      33.424  29.031  27.453  1.00  0.00     0.010 C 
BRANCH  38  39
ATOM     39  C   UNL A   1      33.640  30.505  27.105  1.00  0.00     0.100 C 
BRANCH  39  40
ATOM     40  C   UNL A   1      34.819  31.145  27.810  1.00  0.00     0.219 C 
ATOM     41  O   UNL A   1      35.779  30.460  28.170  1.00  0.00    -0.275 OA
ATOM     42  N   UNL A   1      34.871  32.486  28.059  1.00  0.00    -0.356 N 
ATOM     43  H   UNL A   1      35.671  32.772  28.555  1.00  0.00     0.163 HD
BRANCH  42  44
ATOM     44  C   UNL A   1      33.955  33.571  27.725  1.00  0.00     0.117 C 
BRANCH  44  45
ATOM     45  C   UNL A   1      33.396  34.299  28.961  1.00  0.00     0.042 C 
BRANCH  45  46
ATOM     46  C   UNL A   1      34.358  34.380  30.120  1.00  0.00     0.118 C 
BRANCH  46  47
ATOM     47  N   UNL A   1      33.721  34.170  31.424  1.00  0.00    -0.352 N 
ATOM     48  C   UNL A   1      34.272  33.525  32.523  1.00  0.00     0.251 C 
ATOM     49  H   UNL A   1      32.809  34.523  31.532  1.00  0.00     0.163 HD
ATOM     50  O   UNL A   1      33.574  33.057  33.411  1.00  0.00    -0.269 OA
BRANCH  48  51
ATOM     51  C   UNL A   1      35.740  33.420  32.581  1.00  0.00     0.039 A 
ATOM     52  C   UNL A   1      36.475  33.591  33.755  1.00  0.00     0.014 A 
ATOM     53  C   UNL A   1      36.357  33.011  31.408  1.00  0.00     0.014 A 
ATOM     54  C   UNL A   1      37.829  33.262  33.734  1.00  0.00     0.010 A 
ATOM     55  C   UNL A   1      37.566  32.394  31.488  1.00  0.00     0.010 A 
ATOM     56  C   UNL A   1      38.358  32.640  32.593  1.00  0.00    -0.014 A 
BRANCH  56  57
ATOM     57  C   UNL A   1      39.734  32.184  32.507  1.00  0.00     0.031 A 
ATOM     58  C   UNL A   1      40.754  33.235  32.723  1.00  0.00     0.074 A 
ATOM     59  C   UNL A   1      40.058  30.870  32.468  1.00  0.00     0.049 A 
ATOM     60  N   UNL A   1      41.533  33.751  31.835  1.00  0.00    -0.248 NA
ATOM     61  C   UNL A   1      40.820  33.894  34.037  1.00  0.00     0.031 C 
ATOM     62  C   UNL A   1      39.184  29.694  32.598  1.00  0.00     0.029 A 
ATOM     63  N   UNL A   1      41.291  30.308  32.443  1.00  0.00    -0.354 N 
ATOM     64  C   UNL A   1      42.345  34.648  32.517  1.00  0.00     0.074 A 
ATOM     65  C   UNL A   1      41.733  34.842  33.808  1.00  0.00     0.031 C 
ATOM     66  C   UNL A   1      39.926  28.610  32.914  1.00  0.00     0.029 A 
ATOM     67  C   UNL A   1      41.326  28.972  32.820  1.00  0.00     0.049 A 
ATOM     68  H   UNL A   1      42.098  30.807  32.178  1.00  0.00     0.167 HD
ATOM     69  C   UNL A   1      43.594  34.947  32.062  1.00  0.00     0.031 A 
ATOM     70  C   UNL A   1      42.435  28.235  33.076  1.00  0.00     0.031 A 
ATOM     71  C   UNL A   1      43.791  34.478  30.710  1.00  0.00     0.049 A 
ATOM     72  C   UNL A   1      43.575  28.935  32.430  1.00  0.00     0.074 A 
ATOM     73  C   UNL A   1      43.133  34.680  29.512  1.00  0.00     0.029 A 
ATOM     74  N   UNL A   1      44.518  33.320  30.544  1.00  0.00    -0.354 N 
ATOM     75  N   UNL A   1      43.697  29.053  31.138  1.00  0.00    -0.248 NA
ATOM     76  C   UNL A   1      44.297  29.923  33.217  1.00  0.00     0.031 C 
ATOM     77  C   UNL A   1      43.080  33.390  28.906  1.00  0.00     0.029 A 
ATOM     78  C   UNL A   1      43.794  32.503  29.715  1.00  0.00     0.049 A 
ATOM     79  H   UNL A   1      45.395  33.117  30.946  1.00  0.00     0.167 HD
ATOM     80  C   UNL A   1      44.114  30.363  30.942  1.00  0.00     0.074 A 
ATOM     81  C   UNL A   1      44.559  30.819  32.260  1.00  0.00     0.031 C 
ATOM     82  C   UNL A   1      43.782  31.058  29.811  1.00  0.00     0.031 A 
BRANCH  69  83
ATOM     83  C   UNL A   1      44.759  35.263  32.965  1.00  0.00    -0.014 A 
ATOM     84  C   UNL A   1      45.403  34.200  33.625  1.00  0.00     0.009 A 
ATOM     85  C   UNL A   1      45.062  36.562  33.415  1.00  0.00     0.009 A 
ATOM     86  C   UNL A   1      46.236  34.425  34.727  1.00  0.00     0.001 A 
ATOM     87  C   UNL A   1      45.927  36.793  34.487  1.00  0.00     0.001 A 
ATOM     88  C   UNL A   1      46.489  35.721  35.163  1.00  0.00     0.000 A 
ENDBRANCH  69  83
BRANCH  70  89
ATOM     89  C   UNL A   1      42.607  27.149  34.067  1.00  0.00    -0.014 A 
ATOM     90  C   UNL A   1      41.744  27.036  35.168  1.00  0.00     0.009 A 
ATOM     91  C   UNL A   1      43.461  26.062  33.798  1.00  0.00     0.009 A 
ATOM     92  C   UNL A   1      41.707  25.865  35.940  1.00  0.00     0.001 A 
ATOM     93  C   UNL A   1      43.429  24.895  34.570  1.00  0.00     0.001 A 
ATOM     94  C   UNL A   1      42.539  24.790  35.632  1.00  0.00     0.000 A 
ENDBRANCH  70  89
BRANCH  82  95
ATOM     95  C   UNL A   1      43.113  30.319  28.674  1.00  0.00    -0.014 A 
ATOM     96  C   UNL A   1      43.807  29.836  27.550  1.00  0.00     0.009 A 
ATOM     97  C   UNL A   1      41.771  29.942  28.832  1.00  0.00     0.009 A 
ATOM     98  C   UNL A   1      43.170  29.024  26.605  1.00  0.00     0.001 A 
ATOM     99  C   UNL A   1      41.140  29.114  27.900  1.00  0.00     0.001 A 
ATOM    100  C   UNL A   1      41.837  28.659  26.784  1.00  0.00     0.000 A 
ENDBRANCH  82  95
ENDBRANCH  56  57
ENDBRANCH  48  51
ENDBRANCH  46  47
ENDBRANCH  45  46
ENDBRANCH  44  45
ENDBRANCH  42  44
ENDBRANCH  39  40
ENDBRANCH  38  39
ENDBRANCH  37  38
ENDBRANCH   1  37
TORSDOF 25
ENDMDL
MODEL 3
REMARK VINA RESULT:      -9.3      6.248     13.750
REMARK SMILES NS(=O)(=O)c1ccc(-n2nc(NC(=O)NCCCCCCCCCCC(=O)NCCCNC(=O)c3ccc(-c4c5nc(c(-c6ccccc6)c6ccc([nH]6)c(-c6ccccc6)c6nc(c(-c7ccccc7)c7ccc4[nH]7)C=C6)C=C5)cc3)cc2-c2ccccc2)cc1
REMARK SMILES IDX 22 1 21 2 20 3 19 4 18 5 17 6 16 7 15 8 12 9 13 10 14 12
REMARK SMILES IDX 11 14 9 15 10 16 84 17 83 18 8 19 5 20 6 21 92 22 7 23 91 24
REMARK SMILES IDX 2 25 3 26 4 27 1 28 85 31 86 32 90 33 87 34 89 35 88 36
REMARK SMILES IDX 23 37 24 38 25 39 26 40 27 41 28 42 29 44 30 45 31 46 32 47
REMARK SMILES IDX 33 48 34 50 35 51 36 52 82 53 37 54 81 55 38 56 39 57 40 58
REMARK SMILES IDX 75 59 41 60 80 61 74 62 76 63 42 64 79 65 73 66 72 67 43 69
REMARK SMILES IDX 65 70 50 71 64 72 51 73 54 74 63 75 77 76 52 77 53 78 62 80
REMARK SMILES IDX 78 81 55 82 44 83 45 84 49 85 46 86 48 87 47 88 66 89 67 90
REMARK SMILES IDX 71 91 68 92 70 93 69 94 56 95 57 96 61 97 58 98 60 99 59 100
REMARK H PARENT 12 11 15 13 1 29 1 30 28 43 32 49 76 68 54 79
REMARK Flexibility Score: inf
ROOT
ATOM      1  C   UNL A   1      44.989  25.897  31.461  1.00  0.00     0.000 C 
ENDROOT
BRANCH   1   2
ATOM      2  C   UNL A   1      44.151  24.644  31.585  1.00  0.00     0.000 C 
BRANCH   2   3
ATOM      3  C   UNL A   1      44.626  23.699  32.683  1.00  0.00     0.000 C 
BRANCH   3   4
ATOM      4  C   UNL A   1      43.556  23.070  33.583  1.00  0.00     0.000 C 
BRANCH   4   5
ATOM      5  C   UNL A   1      43.090  23.894  34.788  1.00  0.00     0.002 C 
BRANCH   5   6
ATOM      6  C   UNL A   1      44.027  25.003  35.266  1.00  0.00     0.021 C 
BRANCH   6   7
ATOM      7  C   UNL A   1      44.665  24.808  36.631  1.00  0.00     0.117 C 
BRANCH   7   8
ATOM      8  N   UNL A   1      44.864  23.450  37.064  1.00  0.00    -0.338 N 
ATOM      9  N   UNL A   1      46.790  22.873  35.782  1.00  0.00    -0.291 N 
ATOM     10  C   UNL A   1      45.819  22.572  36.676  1.00  0.00     0.320 C 
ATOM     11  H   UNL A   1      47.171  22.088  35.325  1.00  0.00     0.173 HD
ATOM     12  O   UNL A   1      45.720  21.405  37.070  1.00  0.00    -0.248 OA
ATOM     13  H   UNL A   1      44.221  23.115  37.730  1.00  0.00     0.165 HD
BRANCH   9  14
ATOM     14  C   UNL A   1      47.348  24.071  35.390  1.00  0.00     0.157 A 
ATOM     15  N   UNL A   1      47.896  26.121  35.408  1.00  0.00    -0.231 N 
ATOM     16  N   UNL A   1      47.764  25.040  36.208  1.00  0.00    -0.149 NA
ATOM     17  C   UNL A   1      48.008  25.751  34.076  1.00  0.00     0.076 A 
ATOM     18  C   UNL A   1      47.607  24.426  34.044  1.00  0.00     0.078 A 
BRANCH  15  19
ATOM     19  C   UNL A   1      47.848  27.431  35.956  1.00  0.00     0.065 A 
ATOM     20  C   UNL A   1      47.735  29.977  37.082  1.00  0.00     0.082 A 
ATOM     21  C   UNL A   1      48.972  29.343  36.945  1.00  0.00     0.024 A 
ATOM     22  C   UNL A   1      46.562  29.366  36.623  1.00  0.00     0.024 A 
ATOM     23  C   UNL A   1      49.026  28.061  36.392  1.00  0.00     0.030 A 
ATOM     24  C   UNL A   1      46.620  28.096  36.044  1.00  0.00     0.030 A 
BRANCH  20  25
ATOM     25  S   UNL A   1      47.653  31.603  37.772  1.00  0.00     0.238 S 
ATOM     26  O   UNL A   1      47.042  31.522  39.087  1.00  0.00    -0.207 OA
ATOM     27  O   UNL A   1      47.206  32.529  36.771  1.00  0.00    -0.207 OA
BRANCH  25  28
ATOM     28  N   UNL A   1      49.275  31.938  38.042  1.00  0.00    -0.225 NA
ATOM     29  H   UNL A   1      49.515  31.701  39.005  1.00  0.00     0.137 HD
ATOM     30  H   UNL A   1      49.448  32.931  37.883  1.00  0.00     0.137 HD
ENDBRANCH  25  28
ENDBRANCH  20  25
ENDBRANCH  15  19
BRANCH  17  31
ATOM     31  C   UNL A   1      48.499  26.645  33.032  1.00  0.00     0.000 A 
ATOM     32  C   UNL A   1      49.562  26.225  32.214  1.00  0.00     0.010 A 
ATOM     33  C   UNL A   1      47.981  27.931  32.869  1.00  0.00     0.010 A 
ATOM     34  C   UNL A   1      50.131  27.090  31.283  1.00  0.00     0.001 A 
ATOM     35  C   UNL A   1      48.548  28.796  31.928  1.00  0.00     0.001 A 
ATOM     36  C   UNL A   1      49.625  28.379  31.143  1.00  0.00     0.000 A 
ENDBRANCH  17  31
ENDBRANCH   9  14
ENDBRANCH   7   8
ENDBRANCH   6   7
ENDBRANCH   5   6
ENDBRANCH   4   5
ENDBRANCH   3   4
ENDBRANCH   2   3
ENDBRANCH   1   2
BRANCH   1  37
ATOM     37  C   UNL A   1      45.968  25.871  30.282  1.00  0.00     0.001 C 
BRANCH  37  38
ATOM     38  C   UNL A   1      45.649  24.808  29.239  1.00  0.00     0.010 C 
BRANCH  38  39
ATOM     39  C   UNL A   1      45.772  25.249  27.780  1.00  0.00     0.100 C 
BRANCH  39  40
ATOM     40  C   UNL A   1      46.651  24.353  26.930  1.00  0.00     0.219 C 
ATOM     41  O   UNL A   1      47.824  24.146  27.248  1.00  0.00    -0.275 OA
ATOM     42  N   UNL A   1      46.183  23.740  25.805  1.00  0.00    -0.356 N 
ATOM     43  H   UNL A   1      46.861  23.215  25.322  1.00  0.00     0.163 HD
BRANCH  42  44
ATOM     44  C   UNL A   1      44.861  23.722  25.187  1.00  0.00     0.117 C 
BRANCH  44  45
ATOM     45  C   UNL A   1      44.012  22.507  25.602  1.00  0.00     0.042 C 
BRANCH  45  46
ATOM     46  C   UNL A   1      42.573  22.574  25.155  1.00  0.00     0.118 C 
BRANCH  46  47
ATOM     47  N   UNL A   1      41.652  21.853  26.039  1.00  0.00    -0.352 N 
ATOM     48  C   UNL A   1      41.122  22.309  27.238  1.00  0.00     0.251 C 
ATOM     49  H   UNL A   1      41.381  20.951  25.753  1.00  0.00     0.163 HD
ATOM     50  O   UNL A   1      40.691  21.540  28.085  1.00  0.00    -0.269 OA
BRANCH  48  51
ATOM     51  C   UNL A   1      41.101  23.765  27.457  1.00  0.00     0.039 A 
ATOM     52  C   UNL A   1      40.031  24.581  27.086  1.00  0.00     0.014 A 
ATOM     53  C   UNL A   1      42.168  24.277  28.180  1.00  0.00     0.014 A 
ATOM     54  C   UNL A   1      40.027  25.901  27.531  1.00  0.00     0.010 A 
ATOM     55  C   UNL A   1      41.993  25.437  28.868  1.00  0.00     0.010 A 
ATOM     56  C   UNL A   1      41.010  26.311  28.445  1.00  0.00    -0.014 A 
BRANCH  56  57
ATOM     57  C   UNL A   1      41.041  27.640  29.030  1.00  0.00     0.031 A 
ATOM     58  C   UNL A   1      41.964  28.590  28.369  1.00  0.00     0.074 A 
ATOM     59  C   UNL A   1      40.134  28.045  29.948  1.00  0.00     0.049 A 
ATOM     60  N   UNL A   1      43.075  29.044  28.841  1.00  0.00    -0.248 NA
ATOM     61  C   UNL A   1      41.705  28.969  26.972  1.00  0.00     0.031 C 
ATOM     62  C   UNL A   1      38.944  27.342  30.452  1.00  0.00     0.029 A 
ATOM     63  N   UNL A   1      40.013  29.263  30.531  1.00  0.00    -0.354 N 
ATOM     64  C   UNL A   1      43.553  29.939  27.892  1.00  0.00     0.074 A 
ATOM     65  C   UNL A   1      42.788  29.700  26.694  1.00  0.00     0.031 C 
ATOM     66  C   UNL A   1      38.102  28.229  31.027  1.00  0.00     0.029 A 
ATOM     67  C   UNL A   1      38.772  29.511  31.102  1.00  0.00     0.049 A 
ATOM     68  H   UNL A   1      40.747  29.920  30.548  1.00  0.00     0.167 HD
ATOM     69  C   UNL A   1      44.353  30.981  28.255  1.00  0.00     0.031 A 
ATOM     70  C   UNL A   1      38.320  30.704  31.563  1.00  0.00     0.031 A 
ATOM     71  C   UNL A   1      44.843  30.828  29.604  1.00  0.00     0.049 A 
ATOM     72  C   UNL A   1      39.515  31.555  31.796  1.00  0.00     0.074 A 
ATOM     73  C   UNL A   1      45.553  29.845  30.268  1.00  0.00     0.029 A 
ATOM     74  N   UNL A   1      44.228  31.571  30.587  1.00  0.00    -0.354 N 
ATOM     75  N   UNL A   1      40.403  31.299  32.715  1.00  0.00    -0.248 NA
ATOM     76  C   UNL A   1      39.979  32.386  30.695  1.00  0.00     0.031 C 
ATOM     77  C   UNL A   1      44.910  29.730  31.536  1.00  0.00     0.029 A 
ATOM     78  C   UNL A   1      43.920  30.711  31.610  1.00  0.00     0.049 A 
ATOM     79  H   UNL A   1      44.044  32.538  30.560  1.00  0.00     0.167 HD
ATOM     80  C   UNL A   1      41.625  31.537  32.100  1.00  0.00     0.074 A 
ATOM     81  C   UNL A   1      41.299  32.295  30.891  1.00  0.00     0.031 C 
ATOM     82  C   UNL A   1      42.751  30.845  32.454  1.00  0.00     0.031 A 
BRANCH  69  83
ATOM     83  C   UNL A   1      44.338  32.323  27.567  1.00  0.00    -0.014 A 
ATOM     84  C   UNL A   1      43.807  33.425  28.262  1.00  0.00     0.009 A 
ATOM     85  C   UNL A   1      44.553  32.490  26.186  1.00  0.00     0.009 A 
ATOM     86  C   UNL A   1      43.434  34.597  27.592  1.00  0.00     0.001 A 
ATOM     87  C   UNL A   1      44.223  33.673  25.522  1.00  0.00     0.001 A 
ATOM     88  C   UNL A   1      43.633  34.715  26.221  1.00  0.00     0.000 A 
ENDBRANCH  69  83
BRANCH  70  89
ATOM     89  C   UNL A   1      36.939  31.235  31.535  1.00  0.00    -0.014 A 
ATOM     90  C   UNL A   1      36.324  31.705  32.706  1.00  0.00     0.009 A 
ATOM     91  C   UNL A   1      36.308  31.526  30.310  1.00  0.00     0.009 A 
ATOM     92  C   UNL A   1      35.149  32.470  32.648  1.00  0.00     0.001 A 
ATOM     93  C   UNL A   1      35.134  32.285  30.252  1.00  0.00     0.001 A 
ATOM     94  C   UNL A   1      34.563  32.772  31.421  1.00  0.00     0.000 A 
ENDBRANCH  70  89
BRANCH  82  95
ATOM     95  C   UNL A   1      42.699  29.945  33.669  1.00  0.00    -0.014 A 
ATOM     96  C   UNL A   1      43.117  30.350  34.950  1.00  0.00     0.009 A 
ATOM     97  C   UNL A   1      42.038  28.714  33.550  1.00  0.00     0.009 A 
ATOM     98  C   UNL A   1      42.903  29.535  36.067  1.00  0.00     0.001 A 
ATOM     99  C   UNL A   1      41.804  27.910  34.669  1.00  0.00     0.001 A 
ATOM    100  C   UNL A   1      42.241  28.317  35.926  1.00  0.00     0.000 A 
ENDBRANCH  82  95
ENDBRANCH  56  57
ENDBRANCH  48  51
ENDBRANCH  46  47
ENDBRANCH  45  46
ENDBRANCH  44  45
ENDBRANCH  42  44
ENDBRANCH  39  40
ENDBRANCH  38  39
ENDBRANCH  37  38
ENDBRANCH   1  37
TORSDOF 25
ENDMDL
