MODEL 1
REMARK VINA RESULT:     -13.0      0.000      0.000
REMARK SMILES O=C(NCCCNC(=O)c1nnn(-c2cccc(C(F)(F)F)c2)c1[C@H]1COc2ccccc2O1)c1ccc(-c2c3nc(c(-c4ccccc4)c4ccc([nH]4)c(-c4ccccc4)c4nc(c(-c5ccccc5)c5ccc2[nH]5)C=C4)C=C3)cc1
REMARK SMILES IDX 5 1 4 2 3 3 1 4 2 5 35 7 36 8 82 9 37 10 81 11 38 12 39 13
REMARK SMILES IDX 40 14 75 15 41 16 80 17 74 18 76 19 42 20 79 21 73 22 72 23
REMARK SMILES IDX 43 25 65 26 50 27 64 28 51 29 54 30 63 31 77 32 52 33 53 34
REMARK SMILES IDX 62 36 78 37 55 38 44 39 45 40 49 41 46 42 48 43 47 44 66 45
REMARK SMILES IDX 67 46 71 47 68 48 70 49 69 50 56 51 57 52 61 53 58 54 60 55
REMARK SMILES IDX 59 56 6 57 7 58 8 59 9 61 10 62 11 63 24 64 12 65 13 66
REMARK SMILES IDX 25 67 26 68 34 69 27 70 33 71 28 72 32 73 29 74 31 75 30 76
REMARK SMILES IDX 14 77 15 78 23 79 16 80 18 81 17 82 19 83 20 84 21 85 22 86
REMARK H PARENT 3 6 76 24 54 35 7 60
REMARK Flexibility Score: inf
ROOT
ATOM      1  C   UNL A   1      32.496  30.061  27.231  1.00  0.00     0.042 C 
ENDROOT
BRANCH   1   2
ATOM      2  C   UNL A   1      33.901  30.657  27.287  1.00  0.00     0.118 C 
BRANCH   2   3
ATOM      3  N   UNL A   1      34.146  31.582  28.378  1.00  0.00    -0.352 N 
ATOM      4  O   UNL A   1      35.241  33.216  29.388  1.00  0.00    -0.269 OA
ATOM      5  C   UNL A   1      35.289  32.059  28.961  1.00  0.00     0.251 C 
ATOM      6  H   UNL A   1      33.321  31.937  28.782  1.00  0.00     0.163 HD
BRANCH   5   7
ATOM      7  C   UNL A   1      36.522  31.263  29.224  1.00  0.00     0.039 A 
ATOM      8  C   UNL A   1      37.829  31.743  29.230  1.00  0.00     0.014 A 
ATOM      9  C   UNL A   1      36.320  29.874  29.385  1.00  0.00     0.014 A 
ATOM     10  C   UNL A   1      38.905  30.850  29.329  1.00  0.00     0.010 A 
ATOM     11  C   UNL A   1      37.386  28.983  29.479  1.00  0.00     0.010 A 
ATOM     12  C   UNL A   1      38.686  29.466  29.418  1.00  0.00    -0.014 A 
BRANCH  12  13
ATOM     13  C   UNL A   1      39.831  28.569  29.605  1.00  0.00     0.031 A 
ATOM     14  C   UNL A   1      40.303  28.455  31.016  1.00  0.00     0.074 A 
ATOM     15  C   UNL A   1      40.364  27.762  28.660  1.00  0.00     0.049 A 
ATOM     16  N   UNL A   1      41.452  28.802  31.499  1.00  0.00    -0.248 NA
ATOM     17  C   UNL A   1      39.350  27.973  32.026  1.00  0.00     0.031 C 
ATOM     18  C   UNL A   1      39.867  27.485  27.310  1.00  0.00     0.029 A 
ATOM     19  N   UNL A   1      41.448  26.933  28.757  1.00  0.00    -0.354 N 
ATOM     20  C   UNL A   1      41.431  28.447  32.848  1.00  0.00     0.074 A 
ATOM     21  C   UNL A   1      40.080  28.044  33.141  1.00  0.00     0.031 C 
ATOM     22  C   UNL A   1      40.511  26.406  26.803  1.00  0.00     0.029 A 
ATOM     23  C   UNL A   1      41.564  26.008  27.724  1.00  0.00     0.049 A 
ATOM     24  H   UNL A   1      42.093  26.985  29.497  1.00  0.00     0.167 HD
ATOM     25  C   UNL A   1      42.573  28.338  33.583  1.00  0.00     0.031 A 
ATOM     26  C   UNL A   1      42.440  24.972  27.645  1.00  0.00     0.031 A 
ATOM     27  C   UNL A   1      43.691  28.974  32.940  1.00  0.00     0.049 A 
ATOM     28  C   UNL A   1      43.558  25.258  28.569  1.00  0.00     0.074 A 
ATOM     29  C   UNL A   1      43.992  30.263  32.555  1.00  0.00     0.029 A 
ATOM     30  N   UNL A   1      44.576  28.165  32.272  1.00  0.00    -0.354 N 
ATOM     31  N   UNL A   1      44.420  26.213  28.382  1.00  0.00    -0.248 NA
ATOM     32  C   UNL A   1      43.476  24.738  29.924  1.00  0.00     0.031 C 
ATOM     33  C   UNL A   1      44.685  30.119  31.318  1.00  0.00     0.029 A 
ATOM     34  C   UNL A   1      44.820  28.755  31.062  1.00  0.00     0.049 A 
ATOM     35  H   UNL A   1      44.963  27.322  32.603  1.00  0.00     0.167 HD
ATOM     36  C   UNL A   1      44.662  26.715  29.651  1.00  0.00     0.074 A 
ATOM     37  C   UNL A   1      44.132  25.707  30.567  1.00  0.00     0.031 C 
ATOM     38  C   UNL A   1      45.017  28.019  29.834  1.00  0.00     0.031 A 
BRANCH  25  39
ATOM     39  C   UNL A   1      42.772  27.333  34.690  1.00  0.00    -0.014 A 
ATOM     40  C   UNL A   1      43.086  26.003  34.349  1.00  0.00     0.009 A 
ATOM     41  C   UNL A   1      42.371  27.568  36.017  1.00  0.00     0.009 A 
ATOM     42  C   UNL A   1      42.923  24.956  35.264  1.00  0.00     0.001 A 
ATOM     43  C   UNL A   1      42.247  26.530  36.946  1.00  0.00     0.001 A 
ATOM     44  C   UNL A   1      42.492  25.219  36.560  1.00  0.00     0.000 A 
ENDBRANCH  25  39
BRANCH  26  45
ATOM     45  C   UNL A   1      42.273  23.630  27.042  1.00  0.00    -0.014 A 
ATOM     46  C   UNL A   1      43.218  23.120  26.133  1.00  0.00     0.009 A 
ATOM     47  C   UNL A   1      41.349  22.727  27.595  1.00  0.00     0.009 A 
ATOM     48  C   UNL A   1      43.259  21.752  25.823  1.00  0.00     0.001 A 
ATOM     49  C   UNL A   1      41.391  21.361  27.287  1.00  0.00     0.001 A 
ATOM     50  C   UNL A   1      42.356  20.871  26.412  1.00  0.00     0.000 A 
ENDBRANCH  26  45
BRANCH  38  51
ATOM     51  C   UNL A   1      45.384  28.839  28.622  1.00  0.00    -0.014 A 
ATOM     52  C   UNL A   1      44.442  29.562  27.869  1.00  0.00     0.009 A 
ATOM     53  C   UNL A   1      46.746  29.026  28.345  1.00  0.00     0.009 A 
ATOM     54  C   UNL A   1      44.857  30.436  26.858  1.00  0.00     0.001 A 
ATOM     55  C   UNL A   1      47.160  29.913  27.351  1.00  0.00     0.001 A 
ATOM     56  C   UNL A   1      46.216  30.616  26.606  1.00  0.00     0.000 A 
ENDBRANCH  38  51
ENDBRANCH  12  13
ENDBRANCH   5   7
ENDBRANCH   2   3
ENDBRANCH   1   2
BRANCH   1  57
ATOM     57  C   UNL A   1      31.895  29.904  25.841  1.00  0.00     0.118 C 
BRANCH  57  58
ATOM     58  N   UNL A   1      32.814  29.979  24.729  1.00  0.00    -0.351 N 
ATOM     59  C   UNL A   1      33.488  28.931  24.120  1.00  0.00     0.273 C 
ATOM     60  H   UNL A   1      32.981  30.877  24.360  1.00  0.00     0.163 HD
ATOM     61  O   UNL A   1      34.157  29.159  23.125  1.00  0.00    -0.267 OA
BRANCH  59  62
ATOM     62  C   UNL A   1      33.406  27.595  24.714  1.00  0.00     0.178 A 
ATOM     63  N   UNL A   1      34.333  27.179  25.637  1.00  0.00    -0.124 NA
ATOM     64  C   UNL A   1      32.463  26.586  24.532  1.00  0.00     0.122 A 
ATOM     65  N   UNL A   1      33.972  25.984  26.078  1.00  0.00    -0.061 NA
ATOM     66  N   UNL A   1      32.933  25.554  25.332  1.00  0.00    -0.213 N 
BRANCH  64  67
ATOM     67  C   UNL A   1      31.149  26.558  23.810  1.00  0.00     0.262 C 
ATOM     68  C   UNL A   1      29.979  26.316  24.784  1.00  0.00     0.281 C 
ATOM     69  O   UNL A   1      31.075  27.797  23.109  1.00  0.00    -0.477 OA
ATOM     70  O   UNL A   1      28.699  26.520  24.188  1.00  0.00    -0.485 OA
ATOM     71  C   UNL A   1      29.809  28.248  22.891  1.00  0.00     0.162 A 
ATOM     72  C   UNL A   1      28.669  27.664  23.441  1.00  0.00     0.161 A 
ATOM     73  C   UNL A   1      29.709  29.403  22.120  1.00  0.00     0.050 A 
ATOM     74  C   UNL A   1      27.425  28.253  23.237  1.00  0.00     0.050 A 
ATOM     75  C   UNL A   1      28.465  29.994  21.915  1.00  0.00     0.004 A 
ATOM     76  C   UNL A   1      27.326  29.424  22.483  1.00  0.00     0.004 A 
ENDBRANCH  64  67
BRANCH  66  77
ATOM     77  C   UNL A   1      32.376  24.271  25.530  1.00  0.00     0.067 A 
ATOM     78  C   UNL A   1      31.360  24.101  26.477  1.00  0.00     0.028 A 
ATOM     79  C   UNL A   1      32.786  23.192  24.738  1.00  0.00     0.041 A 
ATOM     80  C   UNL A   1      30.684  22.883  26.546  1.00  0.00     0.003 A 
ATOM     81  C   UNL A   1      32.112  21.964  24.803  1.00  0.00     0.058 A 
ATOM     82  C   UNL A   1      31.044  21.828  25.702  1.00  0.00     0.013 A 
BRANCH  81  83
ATOM     83  C   UNL A   1      32.513  20.817  23.905  1.00  0.00     0.416 C 
ATOM     84  F   UNL A   1      33.834  20.512  23.998  1.00  0.00    -0.166 F 
ATOM     85  F   UNL A   1      31.835  19.673  24.197  1.00  0.00    -0.166 F 
ATOM     86  F   UNL A   1      32.275  21.061  22.587  1.00  0.00    -0.166 F 
ENDBRANCH  81  83
ENDBRANCH  66  77
ENDBRANCH  59  62
ENDBRANCH  57  58
ENDBRANCH   1  57
TORSDOF 13
ENDMDL
MODEL 2
REMARK VINA RESULT:     -13.0      3.121      7.819
REMARK SMILES O=C(NCCCNC(=O)c1nnn(-c2cccc(C(F)(F)F)c2)c1[C@H]1COc2ccccc2O1)c1ccc(-c2c3nc(c(-c4ccccc4)c4ccc([nH]4)c(-c4ccccc4)c4nc(c(-c5ccccc5)c5ccc2[nH]5)C=C4)C=C3)cc1
REMARK SMILES IDX 5 1 4 2 3 3 1 4 2 5 35 7 36 8 82 9 37 10 81 11 38 12 39 13
REMARK SMILES IDX 40 14 75 15 41 16 80 17 74 18 76 19 42 20 79 21 73 22 72 23
REMARK SMILES IDX 43 25 65 26 50 27 64 28 51 29 54 30 63 31 77 32 52 33 53 34
REMARK SMILES IDX 62 36 78 37 55 38 44 39 45 40 49 41 46 42 48 43 47 44 66 45
REMARK SMILES IDX 67 46 71 47 68 48 70 49 69 50 56 51 57 52 61 53 58 54 60 55
REMARK SMILES IDX 59 56 6 57 7 58 8 59 9 61 10 62 11 63 24 64 12 65 13 66
REMARK SMILES IDX 25 67 26 68 34 69 27 70 33 71 28 72 32 73 29 74 31 75 30 76
REMARK SMILES IDX 14 77 15 78 23 79 16 80 18 81 17 82 19 83 20 84 21 85 22 86
REMARK H PARENT 3 6 76 24 54 35 7 60
REMARK Flexibility Score: inf
ROOT
ATOM      1  C   UNL A   1      38.515  23.251  26.571  1.00  0.00     0.042 C 
ENDROOT
BRANCH   1   2
ATOM      2  C   UNL A   1      39.618  22.199  26.656  1.00  0.00     0.118 C 
BRANCH   2   3
ATOM      3  N   UNL A   1      40.819  22.489  25.894  1.00  0.00    -0.352 N 
ATOM      4  O   UNL A   1      42.979  22.907  25.676  1.00  0.00    -0.269 OA
ATOM      5  C   UNL A   1      41.898  23.301  26.122  1.00  0.00     0.251 C 
ATOM      6  H   UNL A   1      40.866  22.005  25.038  1.00  0.00     0.163 HD
BRANCH   5   7
ATOM      7  C   UNL A   1      41.846  24.653  26.748  1.00  0.00     0.039 A 
ATOM      8  C   UNL A   1      42.298  24.991  28.022  1.00  0.00     0.014 A 
ATOM      9  C   UNL A   1      41.183  25.643  25.991  1.00  0.00     0.014 A 
ATOM     10  C   UNL A   1      42.036  26.264  28.545  1.00  0.00     0.010 A 
ATOM     11  C   UNL A   1      40.915  26.908  26.508  1.00  0.00     0.010 A 
ATOM     12  C   UNL A   1      41.313  27.212  27.803  1.00  0.00    -0.014 A 
BRANCH  12  13
ATOM     13  C   UNL A   1      41.131  28.562  28.348  1.00  0.00     0.031 A 
ATOM     14  C   UNL A   1      42.249  29.504  28.053  1.00  0.00     0.074 A 
ATOM     15  C   UNL A   1      40.007  29.029  28.938  1.00  0.00     0.049 A 
ATOM     16  N   UNL A   1      43.043  30.083  28.895  1.00  0.00    -0.248 NA
ATOM     17  C   UNL A   1      42.575  29.769  26.644  1.00  0.00     0.031 C 
ATOM     18  C   UNL A   1      38.698  28.382  29.050  1.00  0.00     0.029 A 
ATOM     19  N   UNL A   1      39.783  30.258  29.497  1.00  0.00    -0.354 N 
ATOM     20  C   UNL A   1      43.879  30.906  28.141  1.00  0.00     0.074 A 
ATOM     21  C   UNL A   1      43.621  30.591  26.759  1.00  0.00     0.031 C 
ATOM     22  C   UNL A   1      37.774  29.294  29.437  1.00  0.00     0.029 A 
ATOM     23  C   UNL A   1      38.445  30.547  29.743  1.00  0.00     0.049 A 
ATOM     24  H   UNL A   1      40.510  30.887  29.707  1.00  0.00     0.167 HD
ATOM     25  C   UNL A   1      44.594  31.919  28.705  1.00  0.00     0.031 A 
ATOM     26  C   UNL A   1      37.923  31.737  30.141  1.00  0.00     0.031 A 
ATOM     27  C   UNL A   1      44.677  31.789  30.134  1.00  0.00     0.049 A 
ATOM     28  C   UNL A   1      39.019  32.532  30.736  1.00  0.00     0.074 A 
ATOM     29  C   UNL A   1      45.203  30.855  31.002  1.00  0.00     0.029 A 
ATOM     30  N   UNL A   1      43.833  32.568  30.886  1.00  0.00    -0.354 N 
ATOM     31  N   UNL A   1      39.601  32.229  31.858  1.00  0.00    -0.248 NA
ATOM     32  C   UNL A   1      39.749  33.444  29.872  1.00  0.00     0.031 C 
ATOM     33  C   UNL A   1      44.278  30.805  32.085  1.00  0.00     0.029 A 
ATOM     34  C   UNL A   1      43.285  31.755  31.841  1.00  0.00     0.049 A 
ATOM     35  H   UNL A   1      43.656  33.529  30.762  1.00  0.00     0.167 HD
ATOM     36  C   UNL A   1      40.935  32.540  31.652  1.00  0.00     0.074 A 
ATOM     37  C   UNL A   1      40.950  33.375  30.451  1.00  0.00     0.031 C 
ATOM     38  C   UNL A   1      41.923  31.868  32.310  1.00  0.00     0.031 A 
BRANCH  25  39
ATOM     39  C   UNL A   1      44.893  33.227  28.017  1.00  0.00    -0.014 A 
ATOM     40  C   UNL A   1      43.822  34.082  27.693  1.00  0.00     0.009 A 
ATOM     41  C   UNL A   1      46.131  33.509  27.413  1.00  0.00     0.009 A 
ATOM     42  C   UNL A   1      43.964  35.107  26.750  1.00  0.00     0.001 A 
ATOM     43  C   UNL A   1      46.287  34.558  26.501  1.00  0.00     0.001 A 
ATOM     44  C   UNL A   1      45.195  35.338  26.146  1.00  0.00     0.000 A 
ENDBRANCH  25  39
BRANCH  26  45
ATOM     45  C   UNL A   1      36.619  32.359  29.816  1.00  0.00    -0.014 A 
ATOM     46  C   UNL A   1      35.771  32.839  30.830  1.00  0.00     0.009 A 
ATOM     47  C   UNL A   1      36.347  32.759  28.496  1.00  0.00     0.009 A 
ATOM     48  C   UNL A   1      34.717  33.718  30.537  1.00  0.00     0.001 A 
ATOM     49  C   UNL A   1      35.296  33.638  28.204  1.00  0.00     0.001 A 
ATOM     50  C   UNL A   1      34.490  34.130  29.226  1.00  0.00     0.000 A 
ENDBRANCH  26  45
BRANCH  38  51
ATOM     51  C   UNL A   1      41.535  30.955  33.445  1.00  0.00    -0.014 A 
ATOM     52  C   UNL A   1      41.229  29.595  33.268  1.00  0.00     0.009 A 
ATOM     53  C   UNL A   1      41.658  31.447  34.753  1.00  0.00     0.009 A 
ATOM     54  C   UNL A   1      41.038  28.757  34.373  1.00  0.00     0.001 A 
ATOM     55  C   UNL A   1      41.488  30.607  35.854  1.00  0.00     0.001 A 
ATOM     56  C   UNL A   1      41.176  29.263  35.664  1.00  0.00     0.000 A 
ENDBRANCH  38  51
ENDBRANCH  12  13
ENDBRANCH   5   7
ENDBRANCH   2   3
ENDBRANCH   1   2
BRANCH   1  57
ATOM     57  C   UNL A   1      37.267  22.845  25.799  1.00  0.00     0.118 C 
BRANCH  57  58
ATOM     58  N   UNL A   1      37.384  22.800  24.360  1.00  0.00    -0.351 N 
ATOM     59  C   UNL A   1      36.365  22.919  23.427  1.00  0.00     0.273 C 
ATOM     60  H   UNL A   1      38.291  22.669  23.999  1.00  0.00     0.163 HD
ATOM     61  O   UNL A   1      36.652  22.953  22.241  1.00  0.00    -0.267 OA
BRANCH  59  62
ATOM     62  C   UNL A   1      34.977  22.959  23.894  1.00  0.00     0.178 A 
ATOM     63  N   UNL A   1      34.301  21.801  24.186  1.00  0.00    -0.124 NA
ATOM     64  C   UNL A   1      34.148  24.047  24.156  1.00  0.00     0.122 A 
ATOM     65  N   UNL A   1      33.114  22.125  24.673  1.00  0.00    -0.061 NA
ATOM     66  N   UNL A   1      32.950  23.458  24.537  1.00  0.00    -0.213 N 
BRANCH  64  67
ATOM     67  C   UNL A   1      34.412  25.523  24.206  1.00  0.00     0.262 C 
ATOM     68  C   UNL A   1      33.752  26.250  23.018  1.00  0.00     0.281 C 
ATOM     69  O   UNL A   1      33.941  25.948  25.483  1.00  0.00    -0.477 OA
ATOM     70  O   UNL A   1      33.767  27.671  23.150  1.00  0.00    -0.485 OA
ATOM     71  C   UNL A   1      33.530  27.245  25.529  1.00  0.00     0.162 A 
ATOM     72  C   UNL A   1      33.404  28.063  24.408  1.00  0.00     0.161 A 
ATOM     73  C   UNL A   1      33.163  27.712  26.789  1.00  0.00     0.050 A 
ATOM     74  C   UNL A   1      32.886  29.347  24.544  1.00  0.00     0.050 A 
ATOM     75  C   UNL A   1      32.643  28.997  26.927  1.00  0.00     0.004 A 
ATOM     76  C   UNL A   1      32.496  29.809  25.803  1.00  0.00     0.004 A 
ENDBRANCH  64  67
BRANCH  66  77
ATOM     77  C   UNL A   1      31.740  24.085  24.910  1.00  0.00     0.067 A 
ATOM     78  C   UNL A   1      31.146  23.759  26.134  1.00  0.00     0.028 A 
ATOM     79  C   UNL A   1      31.178  25.077  24.098  1.00  0.00     0.041 A 
ATOM     80  C   UNL A   1      30.058  24.504  26.587  1.00  0.00     0.003 A 
ATOM     81  C   UNL A   1      30.083  25.829  24.547  1.00  0.00     0.058 A 
ATOM     82  C   UNL A   1      29.542  25.544  25.808  1.00  0.00     0.013 A 
BRANCH  81  83
ATOM     83  C   UNL A   1      29.513  26.941  23.698  1.00  0.00     0.416 C 
ATOM     84  F   UNL A   1      29.713  28.172  24.238  1.00  0.00    -0.166 F 
ATOM     85  F   UNL A   1      30.067  26.975  22.455  1.00  0.00    -0.166 F 
ATOM     86  F   UNL A   1      28.170  26.829  23.501  1.00  0.00    -0.166 F 
ENDBRANCH  81  83
ENDBRANCH  66  77
ENDBRANCH  59  62
ENDBRANCH  57  58
ENDBRANCH   1  57
TORSDOF 13
ENDMDL
MODEL 3
REMARK VINA RESULT:     -12.9      3.287      6.987
REMARK SMILES O=C(NCCCNC(=O)c1nnn(-c2cccc(C(F)(F)F)c2)c1[C@H]1COc2ccccc2O1)c1ccc(-c2c3nc(c(-c4ccccc4)c4ccc([nH]4)c(-c4ccccc4)c4nc(c(-c5ccccc5)c5ccc2[nH]5)C=C4)C=C3)cc1
REMARK SMILES IDX 5 1 4 2 3 3 1 4 2 5 35 7 36 8 82 9 37 10 81 11 38 12 39 13
REMARK SMILES IDX 40 14 75 15 41 16 80 17 74 18 76 19 42 20 79 21 73 22 72 23
REMARK SMILES IDX 43 25 65 26 50 27 64 28 51 29 54 30 63 31 77 32 52 33 53 34
REMARK SMILES IDX 62 36 78 37 55 38 44 39 45 40 49 41 46 42 48 43 47 44 66 45
REMARK SMILES IDX 67 46 71 47 68 48 70 49 69 50 56 51 57 52 61 53 58 54 60 55
REMARK SMILES IDX 59 56 6 57 7 58 8 59 9 61 10 62 11 63 24 64 12 65 13 66
REMARK SMILES IDX 25 67 26 68 34 69 27 70 33 71 28 72 32 73 29 74 31 75 30 76
REMARK SMILES IDX 14 77 15 78 23 79 16 80 18 81 17 82 19 83 20 84 21 85 22 86
REMARK H PARENT 3 6 76 24 54 35 7 60
REMARK Flexibility Score: inf
ROOT
ATOM      1  C   UNL A   1      35.703  22.122  24.177  1.00  0.00     0.042 C 
ENDROOT
BRANCH   1   2
ATOM      2  C   UNL A   1      36.115  21.085  25.220  1.00  0.00     0.118 C 
BRANCH   2   3
ATOM      3  N   UNL A   1      37.226  20.229  24.846  1.00  0.00    -0.352 N 
ATOM      4  O   UNL A   1      38.894  18.841  25.272  1.00  0.00    -0.269 OA
ATOM      5  C   UNL A   1      38.449  19.984  25.412  1.00  0.00     0.251 C 
ATOM      6  H   UNL A   1      37.069  19.724  24.016  1.00  0.00     0.163 HD
BRANCH   5   7
ATOM      7  C   UNL A   1      39.320  21.003  26.064  1.00  0.00     0.039 A 
ATOM      8  C   UNL A   1      40.470  20.750  26.810  1.00  0.00     0.014 A 
ATOM      9  C   UNL A   1      38.857  22.335  25.980  1.00  0.00     0.014 A 
ATOM     10  C   UNL A   1      41.098  21.793  27.503  1.00  0.00     0.010 A 
ATOM     11  C   UNL A   1      39.476  23.372  26.671  1.00  0.00     0.010 A 
ATOM     12  C   UNL A   1      40.582  23.098  27.464  1.00  0.00    -0.014 A 
BRANCH  12  13
ATOM     13  C   UNL A   1      41.315  24.179  28.133  1.00  0.00     0.031 A 
ATOM     14  C   UNL A   1      40.597  25.487  28.162  1.00  0.00     0.074 A 
ATOM     15  C   UNL A   1      42.469  24.040  28.825  1.00  0.00     0.049 A 
ATOM     16  N   UNL A   1      40.954  26.600  27.608  1.00  0.00    -0.248 NA
ATOM     17  C   UNL A   1      39.281  25.539  28.816  1.00  0.00     0.031 C 
ATOM     18  C   UNL A   1      43.174  22.808  29.185  1.00  0.00     0.029 A 
ATOM     19  N   UNL A   1      43.218  25.006  29.438  1.00  0.00    -0.354 N 
ATOM     20  C   UNL A   1      39.988  27.541  27.965  1.00  0.00     0.074 A 
ATOM     21  C   UNL A   1      38.929  26.810  28.613  1.00  0.00     0.031 C 
ATOM     22  C   UNL A   1      44.111  23.082  30.125  1.00  0.00     0.029 A 
ATOM     23  C   UNL A   1      44.177  24.521  30.323  1.00  0.00     0.049 A 
ATOM     24  H   UNL A   1      43.090  25.966  29.269  1.00  0.00     0.167 HD
ATOM     25  C   UNL A   1      40.213  28.880  27.862  1.00  0.00     0.031 A 
ATOM     26  C   UNL A   1      44.945  25.246  31.177  1.00  0.00     0.031 A 
ATOM     27  C   UNL A   1      41.346  29.175  27.027  1.00  0.00     0.049 A 
ATOM     28  C   UNL A   1      44.964  26.642  30.691  1.00  0.00     0.074 A 
ATOM     29  C   UNL A   1      41.665  28.960  25.703  1.00  0.00     0.029 A 
ATOM     30  N   UNL A   1      42.527  29.480  27.656  1.00  0.00    -0.354 N 
ATOM     31  N   UNL A   1      45.551  27.014  29.592  1.00  0.00    -0.248 NA
ATOM     32  C   UNL A   1      43.974  27.564  31.221  1.00  0.00     0.031 C 
ATOM     33  C   UNL A   1      43.057  28.651  25.712  1.00  0.00     0.029 A 
ATOM     34  C   UNL A   1      43.509  28.762  27.028  1.00  0.00     0.049 A 
ATOM     35  H   UNL A   1      42.646  30.097  28.413  1.00  0.00     0.167 HD
ATOM     36  C   UNL A   1      44.708  27.975  29.057  1.00  0.00     0.074 A 
ATOM     37  C   UNL A   1      43.809  28.343  30.149  1.00  0.00     0.031 C 
ATOM     38  C   UNL A   1      44.642  28.179  27.710  1.00  0.00     0.031 A 
BRANCH  25  39
ATOM     39  C   UNL A   1      39.653  29.906  28.816  1.00  0.00    -0.014 A 
ATOM     40  C   UNL A   1      40.245  30.045  30.086  1.00  0.00     0.009 A 
ATOM     41  C   UNL A   1      38.399  30.518  28.632  1.00  0.00     0.009 A 
ATOM     42  C   UNL A   1      39.579  30.685  31.137  1.00  0.00     0.001 A 
ATOM     43  C   UNL A   1      37.749  31.194  29.669  1.00  0.00     0.001 A 
ATOM     44  C   UNL A   1      38.325  31.250  30.931  1.00  0.00     0.000 A 
ENDBRANCH  25  39
BRANCH  26  45
ATOM     45  C   UNL A   1      45.452  24.901  32.526  1.00  0.00    -0.014 A 
ATOM     46  C   UNL A   1      44.820  23.917  33.309  1.00  0.00     0.009 A 
ATOM     47  C   UNL A   1      46.736  25.318  32.916  1.00  0.00     0.009 A 
ATOM     48  C   UNL A   1      45.468  23.347  34.414  1.00  0.00     0.001 A 
ATOM     49  C   UNL A   1      47.383  24.747  34.020  1.00  0.00     0.001 A 
ATOM     50  C   UNL A   1      46.755  23.750  34.760  1.00  0.00     0.000 A 
ENDBRANCH  26  45
BRANCH  38  51
ATOM     51  C   UNL A   1      45.676  27.520  26.833  1.00  0.00    -0.014 A 
ATOM     52  C   UNL A   1      45.571  26.190  26.387  1.00  0.00     0.009 A 
ATOM     53  C   UNL A   1      46.692  28.325  26.299  1.00  0.00     0.009 A 
ATOM     54  C   UNL A   1      46.471  25.682  25.444  1.00  0.00     0.001 A 
ATOM     55  C   UNL A   1      47.576  27.823  25.343  1.00  0.00     0.001 A 
ATOM     56  C   UNL A   1      47.467  26.502  24.917  1.00  0.00     0.000 A 
ENDBRANCH  38  51
ENDBRANCH  12  13
ENDBRANCH   5   7
ENDBRANCH   2   3
ENDBRANCH   1   2
BRANCH   1  57
ATOM     57  C   UNL A   1      34.210  22.399  24.070  1.00  0.00     0.118 C 
BRANCH  57  58
ATOM     58  N   UNL A   1      33.412  22.099  25.235  1.00  0.00    -0.351 N 
ATOM     59  C   UNL A   1      32.169  22.620  25.563  1.00  0.00     0.273 C 
ATOM     60  H   UNL A   1      33.793  21.450  25.870  1.00  0.00     0.163 HD
ATOM     61  O   UNL A   1      31.588  22.185  26.544  1.00  0.00    -0.267 OA
BRANCH  59  62
ATOM     62  C   UNL A   1      31.616  23.702  24.746  1.00  0.00     0.178 A 
ATOM     63  N   UNL A   1      30.778  23.430  23.694  1.00  0.00    -0.124 NA
ATOM     64  C   UNL A   1      31.761  25.082  24.865  1.00  0.00     0.122 A 
ATOM     65  N   UNL A   1      30.353  24.579  23.194  1.00  0.00    -0.061 NA
ATOM     66  N   UNL A   1      31.034  25.579  23.792  1.00  0.00    -0.213 N 
BRANCH  64  67
ATOM     67  C   UNL A   1      32.385  25.939  25.926  1.00  0.00     0.262 C 
ATOM     68  C   UNL A   1      33.875  26.201  25.631  1.00  0.00     0.281 C 
ATOM     69  O   UNL A   1      31.586  27.119  25.977  1.00  0.00    -0.477 OA
ATOM     70  O   UNL A   1      34.448  27.201  26.471  1.00  0.00    -0.485 OA
ATOM     71  C   UNL A   1      32.251  28.233  26.391  1.00  0.00     0.162 A 
ATOM     72  C   UNL A   1      33.629  28.289  26.588  1.00  0.00     0.161 A 
ATOM     73  C   UNL A   1      31.468  29.374  26.546  1.00  0.00     0.050 A 
ATOM     74  C   UNL A   1      34.231  29.499  26.920  1.00  0.00     0.050 A 
ATOM     75  C   UNL A   1      32.068  30.586  26.878  1.00  0.00     0.004 A 
ATOM     76  C   UNL A   1      33.450  30.649  27.055  1.00  0.00     0.004 A 
ENDBRANCH  64  67
BRANCH  66  77
ATOM     77  C   UNL A   1      30.839  26.925  23.409  1.00  0.00     0.067 A 
ATOM     78  C   UNL A   1      31.922  27.666  22.926  1.00  0.00     0.028 A 
ATOM     79  C   UNL A   1      29.559  27.492  23.444  1.00  0.00     0.041 A 
ATOM     80  C   UNL A   1      31.699  28.929  22.378  1.00  0.00     0.003 A 
ATOM     81  C   UNL A   1      29.327  28.761  22.896  1.00  0.00     0.058 A 
ATOM     82  C   UNL A   1      30.408  29.465  22.345  1.00  0.00     0.013 A 
BRANCH  81  83
ATOM     83  C   UNL A   1      27.936  29.349  22.877  1.00  0.00     0.416 C 
ATOM     84  F   UNL A   1      26.974  28.435  23.173  1.00  0.00    -0.166 F 
ATOM     85  F   UNL A   1      27.792  30.360  23.777  1.00  0.00    -0.166 F 
ATOM     86  F   UNL A   1      27.594  29.877  21.670  1.00  0.00    -0.166 F 
ENDBRANCH  81  83
ENDBRANCH  66  77
ENDBRANCH  59  62
ENDBRANCH  57  58
ENDBRANCH   1  57
TORSDOF 13
ENDMDL
