MODEL 1
REMARK VINA RESULT:     -12.9      0.000      0.000
REMARK SMILES CC(C)CCn1nc(C(=O)NCCCNC(=O)c2ccc(-c3c4nc(c(-c5ccccc5)c5ccc([nH]5)c(-c5ccccc5)c5nc(c(-c6ccccc6)c6ccc3[nH]6)C=C5)C=C4)cc2)c2c1CCN(C(=O)[C@@H]1CCc3nn(C)c(=O)n3C1)C2
REMARK SMILES IDX 12 1 11 2 9 3 10 4 8 6 6 7 7 8 67 9 66 10 68 11 84 12 69 13
REMARK SMILES IDX 70 14 5 15 4 16 2 17 1 18 3 19 71 20 72 21 73 22 74 23 83 24
REMARK SMILES IDX 75 25 82 26 76 27 80 28 77 29 78 30 81 31 79 32 13 33 14 34
REMARK SMILES IDX 15 35 16 36 17 38 18 39 19 40 65 41 20 42 64 43 21 44 22 45
REMARK SMILES IDX 23 46 58 47 24 48 63 49 57 50 59 51 25 52 62 53 56 54 55 55
REMARK SMILES IDX 26 57 48 58 33 59 47 60 34 61 37 62 46 63 60 64 35 65 36 66
REMARK SMILES IDX 45 68 61 69 38 70 27 71 28 72 32 73 29 74 31 75 30 76 49 77
REMARK SMILES IDX 50 78 54 79 51 80 53 81 52 82 39 83 40 84 44 85 41 86 43 87
REMARK SMILES IDX 42 88
REMARK H PARENT 11 5 15 37 59 56 37 67
REMARK Flexibility Score: inf
ROOT
ATOM      1  C   UNL A   1      31.742  30.855  26.950  1.00  0.00     0.118 C 
ENDROOT
BRANCH   1   2
ATOM      2  N   UNL A   1      32.924  30.111  26.527  1.00  0.00    -0.351 N 
ATOM      3  C   UNL A   1      33.155  29.074  25.641  1.00  0.00     0.272 C 
ATOM      4  O   UNL A   1      34.353  28.812  25.477  1.00  0.00    -0.267 OA
ATOM      5  H   UNL A   1      33.745  30.417  26.976  1.00  0.00     0.163 HD
BRANCH   3   6
ATOM      6  C   UNL A   1      32.091  28.327  24.914  1.00  0.00     0.155 A 
ATOM      7  N   UNL A   1      30.378  28.098  23.616  1.00  0.00    -0.268 N 
ATOM      8  N   UNL A   1      31.160  29.019  24.217  1.00  0.00    -0.167 NA
ATOM      9  C   UNL A   1      30.657  26.836  24.038  1.00  0.00     0.046 A 
ATOM     10  C   UNL A   1      31.855  26.941  24.703  1.00  0.00     0.026 A 
ATOM     11  C   UNL A   1      29.959  25.543  23.779  1.00  0.00     0.078 C 
ATOM     12  C   UNL A   1      32.620  25.755  25.075  1.00  0.00     0.159 C 
ATOM     13  C   UNL A   1      30.668  24.418  24.581  1.00  0.00     0.126 C 
ATOM     14  N   UNL A   1      32.134  24.519  24.497  1.00  0.00    -0.338 N 
BRANCH   7  15
ATOM     15  C   UNL A   1      29.509  28.529  22.537  1.00  0.00     0.145 C 
BRANCH  15  16
ATOM     16  C   UNL A   1      28.072  28.864  22.934  1.00  0.00     0.027 C 
BRANCH  16  17
ATOM     17  C   UNL A   1      27.664  30.315  22.628  1.00  0.00    -0.016 C 
ATOM     18  C   UNL A   1      28.303  31.292  23.611  1.00  0.00     0.007 C 
ATOM     19  C   UNL A   1      28.035  30.667  21.188  1.00  0.00     0.007 C 
ENDBRANCH  16  17
ENDBRANCH  15  16
ENDBRANCH   7  15
BRANCH  14  20
ATOM     20  C   UNL A   1      33.068  23.495  24.547  1.00  0.00     0.227 C 
ATOM     21  O   UNL A   1      33.495  22.995  23.496  1.00  0.00    -0.274 OA
BRANCH  20  22
ATOM     22  C   UNL A   1      33.518  22.830  25.841  1.00  0.00     0.099 C 
ATOM     23  C   UNL A   1      35.023  22.846  26.106  1.00  0.00     0.023 C 
ATOM     24  C   UNL A   1      32.883  21.483  26.103  1.00  0.00     0.142 C 
ATOM     25  C   UNL A   1      35.787  21.721  25.426  1.00  0.00     0.078 C 
ATOM     26  N   UNL A   1      33.689  20.413  25.587  1.00  0.00    -0.278 N 
ATOM     27  C   UNL A   1      34.991  20.460  25.250  1.00  0.00     0.133 A 
ATOM     28  C   UNL A   1      33.218  19.192  25.180  1.00  0.00     0.345 A 
ATOM     29  N   UNL A   1      35.431  19.396  24.641  1.00  0.00    -0.155 NA
ATOM     30  N   UNL A   1      34.320  18.579  24.577  1.00  0.00    -0.216 N 
ATOM     31  O   UNL A   1      32.078  18.780  25.259  1.00  0.00    -0.246 OA
ATOM     32  C   UNL A   1      34.290  17.347  23.842  1.00  0.00     0.179 C 
ENDBRANCH  20  22
ENDBRANCH  14  20
ENDBRANCH   3   6
ENDBRANCH   1   2
BRANCH   1  33
ATOM     33  C   UNL A   1      31.953  32.370  26.846  1.00  0.00     0.042 C 
BRANCH  33  34
ATOM     34  C   UNL A   1      33.085  32.980  27.607  1.00  0.00     0.118 C 
BRANCH  34  35
ATOM     35  N   UNL A   1      32.744  34.284  28.194  1.00  0.00    -0.352 N 
ATOM     36  C   UNL A   1      33.242  34.824  29.377  1.00  0.00     0.251 C 
ATOM     37  H   UNL A   1      32.093  34.834  27.699  1.00  0.00     0.163 HD
ATOM     38  O   UNL A   1      32.640  35.674  30.001  1.00  0.00    -0.269 OA
BRANCH  36  39
ATOM     39  C   UNL A   1      34.538  34.297  29.846  1.00  0.00     0.039 A 
ATOM     40  C   UNL A   1      34.675  33.321  30.831  1.00  0.00     0.014 A 
ATOM     41  C   UNL A   1      35.628  34.695  29.099  1.00  0.00     0.014 A 
ATOM     42  C   UNL A   1      35.924  32.716  30.964  1.00  0.00     0.010 A 
ATOM     43  C   UNL A   1      36.610  33.781  28.916  1.00  0.00     0.010 A 
ATOM     44  C   UNL A   1      36.887  32.945  29.967  1.00  0.00    -0.014 A 
BRANCH  44  45
ATOM     45  C   UNL A   1      38.186  32.300  29.909  1.00  0.00     0.031 A 
ATOM     46  C   UNL A   1      38.117  30.909  29.437  1.00  0.00     0.074 A 
ATOM     47  C   UNL A   1      39.362  32.957  30.055  1.00  0.00     0.049 A 
ATOM     48  N   UNL A   1      38.014  29.860  30.178  1.00  0.00    -0.248 NA
ATOM     49  C   UNL A   1      37.914  30.660  28.002  1.00  0.00     0.031 C 
ATOM     50  C   UNL A   1      39.607  34.408  30.153  1.00  0.00     0.029 A 
ATOM     51  N   UNL A   1      40.625  32.450  30.071  1.00  0.00    -0.354 N 
ATOM     52  C   UNL A   1      38.041  28.794  29.293  1.00  0.00     0.074 A 
ATOM     53  C   UNL A   1      37.707  29.341  28.002  1.00  0.00     0.031 C 
ATOM     54  C   UNL A   1      40.926  34.667  30.005  1.00  0.00     0.029 A 
ATOM     55  C   UNL A   1      41.635  33.405  30.014  1.00  0.00     0.049 A 
ATOM     56  H   UNL A   1      40.810  31.485  30.118  1.00  0.00     0.167 HD
ATOM     57  C   UNL A   1      38.708  27.657  29.632  1.00  0.00     0.031 A 
ATOM     58  C   UNL A   1      42.968  33.174  30.018  1.00  0.00     0.031 A 
ATOM     59  C   UNL A   1      39.127  27.707  31.016  1.00  0.00     0.049 A 
ATOM     60  C   UNL A   1      43.172  31.846  30.630  1.00  0.00     0.074 A 
ATOM     61  C   UNL A   1      38.526  27.630  32.252  1.00  0.00     0.029 A 
ATOM     62  N   UNL A   1      40.344  28.321  31.189  1.00  0.00    -0.354 N 
ATOM     63  N   UNL A   1      42.902  31.592  31.879  1.00  0.00    -0.248 NA
ATOM     64  C   UNL A   1      43.323  30.676  29.774  1.00  0.00     0.031 C 
ATOM     65  C   UNL A   1      39.344  28.397  33.137  1.00  0.00     0.029 A 
ATOM     66  C   UNL A   1      40.451  28.875  32.437  1.00  0.00     0.049 A 
ATOM     67  H   UNL A   1      41.050  28.358  30.504  1.00  0.00     0.167 HD
ATOM     68  C   UNL A   1      42.409  30.301  31.866  1.00  0.00     0.074 A 
ATOM     69  C   UNL A   1      42.864  29.732  30.601  1.00  0.00     0.031 C 
ATOM     70  C   UNL A   1      41.415  29.921  32.719  1.00  0.00     0.031 A 
BRANCH  57  71
ATOM     71  C   UNL A   1      39.462  26.789  28.649  1.00  0.00    -0.014 A 
ATOM     72  C   UNL A   1      40.366  27.420  27.775  1.00  0.00     0.009 A 
ATOM     73  C   UNL A   1      39.122  25.458  28.348  1.00  0.00     0.009 A 
ATOM     74  C   UNL A   1      40.845  26.776  26.629  1.00  0.00     0.001 A 
ATOM     75  C   UNL A   1      39.622  24.800  27.221  1.00  0.00     0.001 A 
ATOM     76  C   UNL A   1      40.465  25.468  26.347  1.00  0.00     0.000 A 
ENDBRANCH  57  71
BRANCH  58  77
ATOM     77  C   UNL A   1      44.070  33.919  29.381  1.00  0.00    -0.014 A 
ATOM     78  C   UNL A   1      44.251  33.890  27.989  1.00  0.00     0.009 A 
ATOM     79  C   UNL A   1      44.748  34.909  30.114  1.00  0.00     0.009 A 
ATOM     80  C   UNL A   1      45.034  34.859  27.346  1.00  0.00     0.001 A 
ATOM     81  C   UNL A   1      45.526  35.878  29.471  1.00  0.00     0.001 A 
ATOM     82  C   UNL A   1      45.653  35.864  28.085  1.00  0.00     0.000 A 
ENDBRANCH  58  77
BRANCH  70  83
ATOM     83  C   UNL A   1      41.212  30.749  33.958  1.00  0.00    -0.014 A 
ATOM     84  C   UNL A   1      40.321  31.833  34.043  1.00  0.00     0.009 A 
ATOM     85  C   UNL A   1      41.907  30.364  35.114  1.00  0.00     0.009 A 
ATOM     86  C   UNL A   1      40.155  32.523  35.249  1.00  0.00     0.001 A 
ATOM     87  C   UNL A   1      41.725  31.040  36.321  1.00  0.00     0.001 A 
ATOM     88  C   UNL A   1      40.853  32.124  36.387  1.00  0.00     0.000 A 
ENDBRANCH  70  83
ENDBRANCH  44  45
ENDBRANCH  36  39
ENDBRANCH  34  35
ENDBRANCH  33  34
ENDBRANCH   1  33
TORSDOF 15
ENDMDL
MODEL 2
REMARK VINA RESULT:     -12.3      2.520      6.494
REMARK SMILES CC(C)CCn1nc(C(=O)NCCCNC(=O)c2ccc(-c3c4nc(c(-c5ccccc5)c5ccc([nH]5)c(-c5ccccc5)c5nc(c(-c6ccccc6)c6ccc3[nH]6)C=C5)C=C4)cc2)c2c1CCN(C(=O)[C@@H]1CCc3nn(C)c(=O)n3C1)C2
REMARK SMILES IDX 12 1 11 2 9 3 10 4 8 6 6 7 7 8 67 9 66 10 68 11 84 12 69 13
REMARK SMILES IDX 70 14 5 15 4 16 2 17 1 18 3 19 71 20 72 21 73 22 74 23 83 24
REMARK SMILES IDX 75 25 82 26 76 27 80 28 77 29 78 30 81 31 79 32 13 33 14 34
REMARK SMILES IDX 15 35 16 36 17 38 18 39 19 40 65 41 20 42 64 43 21 44 22 45
REMARK SMILES IDX 23 46 58 47 24 48 63 49 57 50 59 51 25 52 62 53 56 54 55 55
REMARK SMILES IDX 26 57 48 58 33 59 47 60 34 61 37 62 46 63 60 64 35 65 36 66
REMARK SMILES IDX 45 68 61 69 38 70 27 71 28 72 32 73 29 74 31 75 30 76 49 77
REMARK SMILES IDX 50 78 54 79 51 80 53 81 52 82 39 83 40 84 44 85 41 86 43 87
REMARK SMILES IDX 42 88
REMARK H PARENT 11 5 15 37 59 56 37 67
REMARK Flexibility Score: inf
ROOT
ATOM      1  C   UNL A   1      34.408  29.335  26.956  1.00  0.00     0.118 C 
ENDROOT
BRANCH   1   2
ATOM      2  N   UNL A   1      33.170  28.889  27.585  1.00  0.00    -0.351 N 
ATOM      3  C   UNL A   1      32.044  28.214  27.148  1.00  0.00     0.272 C 
ATOM      4  O   UNL A   1      31.257  27.913  28.053  1.00  0.00    -0.267 OA
ATOM      5  H   UNL A   1      33.126  29.120  28.541  1.00  0.00     0.163 HD
BRANCH   3   6
ATOM      6  C   UNL A   1      31.775  27.846  25.730  1.00  0.00     0.155 A 
ATOM      7  N   UNL A   1      31.123  28.177  23.696  1.00  0.00    -0.268 N 
ATOM      8  N   UNL A   1      31.178  28.748  24.918  1.00  0.00    -0.167 NA
ATOM      9  C   UNL A   1      31.501  26.871  23.724  1.00  0.00     0.046 A 
ATOM     10  C   UNL A   1      32.096  26.701  24.951  1.00  0.00     0.026 A 
ATOM     11  C   UNL A   1      31.446  25.815  22.672  1.00  0.00     0.078 C 
ATOM     12  C   UNL A   1      32.870  25.501  25.256  1.00  0.00     0.159 C 
ATOM     13  C   UNL A   1      31.936  24.473  23.278  1.00  0.00     0.126 C 
ATOM     14  N   UNL A   1      33.134  24.648  24.115  1.00  0.00    -0.338 N 
BRANCH   7  15
ATOM     15  C   UNL A   1      30.848  29.023  22.550  1.00  0.00     0.145 C 
BRANCH  15  16
ATOM     16  C   UNL A   1      29.742  30.059  22.739  1.00  0.00     0.027 C 
BRANCH  16  17
ATOM     17  C   UNL A   1      28.438  29.720  21.997  1.00  0.00    -0.016 C 
ATOM     18  C   UNL A   1      27.344  29.278  22.965  1.00  0.00     0.007 C 
ATOM     19  C   UNL A   1      27.982  30.920  21.168  1.00  0.00     0.007 C 
ENDBRANCH  16  17
ENDBRANCH  15  16
ENDBRANCH   7  15
BRANCH  14  20
ATOM     20  C   UNL A   1      34.162  23.745  24.342  1.00  0.00     0.227 C 
ATOM     21  O   UNL A   1      34.891  23.388  23.405  1.00  0.00    -0.274 OA
BRANCH  20  22
ATOM     22  C   UNL A   1      34.379  23.037  25.673  1.00  0.00     0.099 C 
ATOM     23  C   UNL A   1      35.832  22.717  26.023  1.00  0.00     0.023 C 
ATOM     24  C   UNL A   1      33.439  21.879  25.924  1.00  0.00     0.142 C 
ATOM     25  C   UNL A   1      36.351  21.426  25.411  1.00  0.00     0.078 C 
ATOM     26  N   UNL A   1      34.003  20.638  25.476  1.00  0.00    -0.278 N 
ATOM     27  C   UNL A   1      35.297  20.375  25.214  1.00  0.00     0.133 A 
ATOM     28  C   UNL A   1      33.286  19.544  25.066  1.00  0.00     0.345 A 
ATOM     29  N   UNL A   1      35.511  19.220  24.651  1.00  0.00    -0.155 NA
ATOM     30  N   UNL A   1      34.247  18.677  24.540  1.00  0.00    -0.216 N 
ATOM     31  O   UNL A   1      32.079  19.406  25.088  1.00  0.00    -0.246 OA
ATOM     32  C   UNL A   1      33.973  17.461  23.829  1.00  0.00     0.179 C 
ENDBRANCH  20  22
ENDBRANCH  14  20
ENDBRANCH   3   6
ENDBRANCH   1   2
BRANCH   1  33
ATOM     33  C   UNL A   1      35.591  29.301  27.932  1.00  0.00     0.042 C 
BRANCH  33  34
ATOM     34  C   UNL A   1      36.593  30.407  27.866  1.00  0.00     0.118 C 
BRANCH  34  35
ATOM     35  N   UNL A   1      35.982  31.717  27.597  1.00  0.00    -0.352 N 
ATOM     36  C   UNL A   1      35.502  32.625  28.539  1.00  0.00     0.251 C 
ATOM     37  H   UNL A   1      35.904  31.981  26.652  1.00  0.00     0.163 HD
ATOM     38  O   UNL A   1      34.666  33.460  28.260  1.00  0.00    -0.269 OA
BRANCH  36  39
ATOM     39  C   UNL A   1      36.050  32.508  29.903  1.00  0.00     0.039 A 
ATOM     40  C   UNL A   1      35.581  31.610  30.860  1.00  0.00     0.014 A 
ATOM     41  C   UNL A   1      37.210  33.223  30.123  1.00  0.00     0.014 A 
ATOM     42  C   UNL A   1      36.372  31.408  31.991  1.00  0.00     0.010 A 
ATOM     43  C   UNL A   1      38.139  32.649  30.924  1.00  0.00     0.010 A 
ATOM     44  C   UNL A   1      37.678  31.925  31.994  1.00  0.00    -0.014 A 
BRANCH  44  45
ATOM     45  C   UNL A   1      38.654  31.702  33.046  1.00  0.00     0.031 A 
ATOM     46  C   UNL A   1      38.501  32.631  34.176  1.00  0.00     0.074 A 
ATOM     47  C   UNL A   1      39.475  30.627  33.099  1.00  0.00     0.049 A 
ATOM     48  N   UNL A   1      39.112  33.756  34.322  1.00  0.00    -0.248 NA
ATOM     49  C   UNL A   1      37.403  32.408  35.128  1.00  0.00     0.031 C 
ATOM     50  C   UNL A   1      39.482  29.423  32.246  1.00  0.00     0.029 A 
ATOM     51  N   UNL A   1      40.454  30.345  34.001  1.00  0.00    -0.354 N 
ATOM     52  C   UNL A   1      38.688  34.235  35.552  1.00  0.00     0.074 A 
ATOM     53  C   UNL A   1      37.471  33.527  35.856  1.00  0.00     0.031 C 
ATOM     54  C   UNL A   1      40.263  28.468  32.798  1.00  0.00     0.029 A 
ATOM     55  C   UNL A   1      40.970  29.057  33.916  1.00  0.00     0.049 A 
ATOM     56  H   UNL A   1      40.772  31.001  34.663  1.00  0.00     0.167 HD
ATOM     57  C   UNL A   1      39.574  34.870  36.367  1.00  0.00     0.031 A 
ATOM     58  C   UNL A   1      41.946  28.523  34.687  1.00  0.00     0.031 A 
ATOM     59  C   UNL A   1      40.821  35.111  35.671  1.00  0.00     0.049 A 
ATOM     60  C   UNL A   1      42.728  29.651  35.233  1.00  0.00     0.074 A 
ATOM     61  C   UNL A   1      41.269  35.939  34.667  1.00  0.00     0.029 A 
ATOM     62  N   UNL A   1      41.696  34.055  35.754  1.00  0.00    -0.354 N 
ATOM     63  N   UNL A   1      43.445  30.442  34.487  1.00  0.00    -0.248 NA
ATOM     64  C   UNL A   1      42.428  30.153  36.567  1.00  0.00     0.031 C 
ATOM     65  C   UNL A   1      42.334  35.238  34.023  1.00  0.00     0.029 A 
ATOM     66  C   UNL A   1      42.548  34.028  34.682  1.00  0.00     0.049 A 
ATOM     67  H   UNL A   1      41.711  33.402  36.490  1.00  0.00     0.167 HD
ATOM     68  C   UNL A   1      43.297  31.687  35.069  1.00  0.00     0.074 A 
ATOM     69  C   UNL A   1      42.831  31.419  36.426  1.00  0.00     0.031 C 
ATOM     70  C   UNL A   1      43.252  32.817  34.308  1.00  0.00     0.031 A 
BRANCH  57  71
ATOM     71  C   UNL A   1      39.561  34.774  37.875  1.00  0.00    -0.014 A 
ATOM     72  C   UNL A   1      39.348  33.508  38.451  1.00  0.00     0.009 A 
ATOM     73  C   UNL A   1      39.458  35.882  38.737  1.00  0.00     0.009 A 
ATOM     74  C   UNL A   1      38.984  33.367  39.795  1.00  0.00     0.001 A 
ATOM     75  C   UNL A   1      39.125  35.744  40.087  1.00  0.00     0.001 A 
ATOM     76  C   UNL A   1      38.864  34.488  40.611  1.00  0.00     0.000 A 
ENDBRANCH  57  71
BRANCH  58  77
ATOM     77  C   UNL A   1      42.158  27.136  35.137  1.00  0.00    -0.014 A 
ATOM     78  C   UNL A   1      41.283  26.532  36.054  1.00  0.00     0.009 A 
ATOM     79  C   UNL A   1      43.039  26.305  34.422  1.00  0.00     0.009 A 
ATOM     80  C   UNL A   1      41.247  25.139  36.204  1.00  0.00     0.001 A 
ATOM     81  C   UNL A   1      42.999  24.913  34.569  1.00  0.00     0.001 A 
ATOM     82  C   UNL A   1      42.090  24.330  35.446  1.00  0.00     0.000 A 
ENDBRANCH  58  77
BRANCH  70  83
ATOM     83  C   UNL A   1      43.836  32.743  32.923  1.00  0.00    -0.014 A 
ATOM     84  C   UNL A   1      45.196  32.943  32.632  1.00  0.00     0.009 A 
ATOM     85  C   UNL A   1      42.975  32.383  31.876  1.00  0.00     0.009 A 
ATOM     86  C   UNL A   1      45.670  32.808  31.321  1.00  0.00     0.001 A 
ATOM     87  C   UNL A   1      43.452  32.229  30.574  1.00  0.00     0.001 A 
ATOM     88  C   UNL A   1      44.798  32.448  30.295  1.00  0.00     0.000 A 
ENDBRANCH  70  83
ENDBRANCH  44  45
ENDBRANCH  36  39
ENDBRANCH  34  35
ENDBRANCH  33  34
ENDBRANCH   1  33
TORSDOF 15
ENDMDL
MODEL 3
REMARK VINA RESULT:     -11.8      3.613      8.290
REMARK SMILES CC(C)CCn1nc(C(=O)NCCCNC(=O)c2ccc(-c3c4nc(c(-c5ccccc5)c5ccc([nH]5)c(-c5ccccc5)c5nc(c(-c6ccccc6)c6ccc3[nH]6)C=C5)C=C4)cc2)c2c1CCN(C(=O)[C@@H]1CCc3nn(C)c(=O)n3C1)C2
REMARK SMILES IDX 12 1 11 2 9 3 10 4 8 6 6 7 7 8 67 9 66 10 68 11 84 12 69 13
REMARK SMILES IDX 70 14 5 15 4 16 2 17 1 18 3 19 71 20 72 21 73 22 74 23 83 24
REMARK SMILES IDX 75 25 82 26 76 27 80 28 77 29 78 30 81 31 79 32 13 33 14 34
REMARK SMILES IDX 15 35 16 36 17 38 18 39 19 40 65 41 20 42 64 43 21 44 22 45
REMARK SMILES IDX 23 46 58 47 24 48 63 49 57 50 59 51 25 52 62 53 56 54 55 55
REMARK SMILES IDX 26 57 48 58 33 59 47 60 34 61 37 62 46 63 60 64 35 65 36 66
REMARK SMILES IDX 45 68 61 69 38 70 27 71 28 72 32 73 29 74 31 75 30 76 49 77
REMARK SMILES IDX 50 78 54 79 51 80 53 81 52 82 39 83 40 84 44 85 41 86 43 87
REMARK SMILES IDX 42 88
REMARK H PARENT 11 5 15 37 59 56 37 67
REMARK Flexibility Score: inf
ROOT
ATOM      1  C   UNL A   1      36.305  30.753  31.881  1.00  0.00     0.118 C 
ENDROOT
BRANCH   1   2
ATOM      2  N   UNL A   1      36.870  30.018  30.755  1.00  0.00    -0.351 N 
ATOM      3  C   UNL A   1      36.612  29.969  29.397  1.00  0.00     0.272 C 
ATOM      4  O   UNL A   1      37.424  29.292  28.755  1.00  0.00    -0.267 OA
ATOM      5  H   UNL A   1      37.604  29.419  31.023  1.00  0.00     0.163 HD
BRANCH   3   6
ATOM      6  C   UNL A   1      35.482  30.668  28.724  1.00  0.00     0.155 A 
ATOM      7  N   UNL A   1      34.312  32.373  28.095  1.00  0.00    -0.268 N 
ATOM      8  N   UNL A   1      35.368  32.010  28.853  1.00  0.00    -0.167 NA
ATOM      9  C   UNL A   1      33.629  31.298  27.620  1.00  0.00     0.046 A 
ATOM     10  C   UNL A   1      34.458  30.225  27.842  1.00  0.00     0.026 A 
ATOM     11  C   UNL A   1      32.331  31.209  26.889  1.00  0.00     0.078 C 
ATOM     12  C   UNL A   1      34.195  28.926  27.230  1.00  0.00     0.159 C 
ATOM     13  C   UNL A   1      31.983  29.714  26.660  1.00  0.00     0.126 C 
ATOM     14  N   UNL A   1      33.152  28.934  26.225  1.00  0.00    -0.338 N 
BRANCH   7  15
ATOM     15  C   UNL A   1      34.149  33.776  27.764  1.00  0.00     0.145 C 
BRANCH  15  16
ATOM     16  C   UNL A   1      34.412  34.762  28.901  1.00  0.00     0.027 C 
BRANCH  16  17
ATOM     17  C   UNL A   1      33.245  35.727  29.169  1.00  0.00    -0.016 C 
ATOM     18  C   UNL A   1      32.877  35.759  30.650  1.00  0.00     0.007 C 
ATOM     19  C   UNL A   1      33.598  37.125  28.664  1.00  0.00     0.007 C 
ENDBRANCH  16  17
ENDBRANCH  15  16
ENDBRANCH   7  15
BRANCH  14  20
ATOM     20  C   UNL A   1      33.180  27.814  25.408  1.00  0.00     0.227 C 
ATOM     21  O   UNL A   1      33.835  26.816  25.747  1.00  0.00    -0.274 OA
BRANCH  20  22
ATOM     22  C   UNL A   1      32.556  27.770  24.019  1.00  0.00     0.099 C 
ATOM     23  C   UNL A   1      31.029  27.723  23.980  1.00  0.00     0.023 C 
ATOM     24  C   UNL A   1      33.205  26.783  23.075  1.00  0.00     0.142 C 
ATOM     25  C   UNL A   1      30.444  26.329  24.135  1.00  0.00     0.078 C 
ATOM     26  N   UNL A   1      32.548  25.507  23.117  1.00  0.00    -0.278 N 
ATOM     27  C   UNL A   1      31.319  25.235  23.593  1.00  0.00     0.133 A 
ATOM     28  C   UNL A   1      33.140  24.303  22.837  1.00  0.00     0.345 A 
ATOM     29  N   UNL A   1      31.039  23.966  23.675  1.00  0.00    -0.155 NA
ATOM     30  N   UNL A   1      32.184  23.353  23.207  1.00  0.00    -0.216 N 
ATOM     31  O   UNL A   1      34.270  24.115  22.433  1.00  0.00    -0.246 OA
ATOM     32  C   UNL A   1      32.395  21.935  23.261  1.00  0.00     0.179 C 
ENDBRANCH  20  22
ENDBRANCH  14  20
ENDBRANCH   3   6
ENDBRANCH   1   2
BRANCH   1  33
ATOM     33  C   UNL A   1      37.010  32.097  32.098  1.00  0.00     0.042 C 
BRANCH  33  34
ATOM     34  C   UNL A   1      38.504  32.123  32.073  1.00  0.00     0.118 C 
BRANCH  34  35
ATOM     35  N   UNL A   1      39.045  33.342  31.453  1.00  0.00    -0.352 N 
ATOM     36  C   UNL A   1      40.312  33.506  30.899  1.00  0.00     0.251 C 
ATOM     37  H   UNL A   1      38.448  34.126  31.427  1.00  0.00     0.163 HD
ATOM     38  O   UNL A   1      40.831  34.598  30.789  1.00  0.00    -0.269 OA
BRANCH  36  39
ATOM     39  C   UNL A   1      41.005  32.278  30.466  1.00  0.00     0.039 A 
ATOM     40  C   UNL A   1      42.339  31.991  30.749  1.00  0.00     0.014 A 
ATOM     41  C   UNL A   1      40.183  31.314  29.917  1.00  0.00     0.014 A 
ATOM     42  C   UNL A   1      42.773  30.683  30.535  1.00  0.00     0.010 A 
ATOM     43  C   UNL A   1      40.481  30.023  30.201  1.00  0.00     0.010 A 
ATOM     44  C   UNL A   1      41.809  29.693  30.280  1.00  0.00    -0.014 A 
BRANCH  44  45
ATOM     45  C   UNL A   1      42.095  28.275  30.148  1.00  0.00     0.031 A 
ATOM     46  C   UNL A   1      42.799  27.721  31.313  1.00  0.00     0.074 A 
ATOM     47  C   UNL A   1      41.583  27.490  29.170  1.00  0.00     0.049 A 
ATOM     48  N   UNL A   1      44.075  27.613  31.449  1.00  0.00    -0.248 NA
ATOM     49  C   UNL A   1      42.035  27.466  32.544  1.00  0.00     0.031 C 
ATOM     50  C   UNL A   1      40.563  27.819  28.156  1.00  0.00     0.029 A 
ATOM     51  N   UNL A   1      41.822  26.173  28.922  1.00  0.00    -0.354 N 
ATOM     52  C   UNL A   1      44.253  26.988  32.674  1.00  0.00     0.074 A 
ATOM     53  C   UNL A   1      43.021  27.174  33.396  1.00  0.00     0.031 C 
ATOM     54  C   UNL A   1      40.127  26.689  27.554  1.00  0.00     0.029 A 
ATOM     55  C   UNL A   1      40.975  25.596  27.982  1.00  0.00     0.049 A 
ATOM     56  H   UNL A   1      42.537  25.669  29.372  1.00  0.00     0.167 HD
ATOM     57  C   UNL A   1      45.237  26.058  32.817  1.00  0.00     0.031 A 
ATOM     58  C   UNL A   1      40.997  24.313  27.553  1.00  0.00     0.031 A 
ATOM     59  C   UNL A   1      46.087  26.034  31.646  1.00  0.00     0.049 A 
ATOM     60  C   UNL A   1      42.356  23.797  27.811  1.00  0.00     0.074 A 
ATOM     61  C   UNL A   1      47.045  26.846  31.082  1.00  0.00     0.029 A 
ATOM     62  N   UNL A   1      45.620  25.203  30.657  1.00  0.00    -0.354 N 
ATOM     63  N   UNL A   1      43.414  24.251  27.201  1.00  0.00    -0.248 NA
ATOM     64  C   UNL A   1      42.614  23.031  29.023  1.00  0.00     0.031 C 
ATOM     65  C   UNL A   1      46.991  26.602  29.676  1.00  0.00     0.029 A 
ATOM     66  C   UNL A   1      46.046  25.609  29.421  1.00  0.00     0.049 A 
ATOM     67  H   UNL A   1      45.052  24.415  30.816  1.00  0.00     0.167 HD
ATOM     68  C   UNL A   1      44.401  24.224  28.167  1.00  0.00     0.074 A 
ATOM     69  C   UNL A   1      43.912  23.303  29.187  1.00  0.00     0.031 C 
ATOM     70  C   UNL A   1      45.365  25.188  28.211  1.00  0.00     0.031 A 
BRANCH  57  71
ATOM     71  C   UNL A   1      45.122  24.828  33.688  1.00  0.00    -0.014 A 
ATOM     72  C   UNL A   1      44.213  23.827  33.297  1.00  0.00     0.009 A 
ATOM     73  C   UNL A   1      45.634  24.735  34.995  1.00  0.00     0.009 A 
ATOM     74  C   UNL A   1      43.789  22.835  34.187  1.00  0.00     0.001 A 
ATOM     75  C   UNL A   1      45.237  23.727  35.878  1.00  0.00     0.001 A 
ATOM     76  C   UNL A   1      44.296  22.790  35.482  1.00  0.00     0.000 A 
ENDBRANCH  57  71
BRANCH  58  77
ATOM     77  C   UNL A   1      39.900  23.437  27.101  1.00  0.00    -0.014 A 
ATOM     78  C   UNL A   1      38.672  23.974  26.682  1.00  0.00     0.009 A 
ATOM     79  C   UNL A   1      40.176  22.095  26.783  1.00  0.00     0.009 A 
ATOM     80  C   UNL A   1      37.778  23.212  25.918  1.00  0.00     0.001 A 
ATOM     81  C   UNL A   1      39.284  21.337  26.016  1.00  0.00     0.001 A 
ATOM     82  C   UNL A   1      38.094  21.902  25.567  1.00  0.00     0.000 A 
ENDBRANCH  58  77
BRANCH  70  83
ATOM     83  C   UNL A   1      45.620  25.970  26.952  1.00  0.00    -0.014 A 
ATOM     84  C   UNL A   1      44.949  27.158  26.615  1.00  0.00     0.009 A 
ATOM     85  C   UNL A   1      46.642  25.516  26.104  1.00  0.00     0.009 A 
ATOM     86  C   UNL A   1      45.280  27.854  25.445  1.00  0.00     0.001 A 
ATOM     87  C   UNL A   1      46.983  26.221  24.950  1.00  0.00     0.001 A 
ATOM     88  C   UNL A   1      46.299  27.386  24.617  1.00  0.00     0.000 A 
ENDBRANCH  70  83
ENDBRANCH  44  45
ENDBRANCH  36  39
ENDBRANCH  34  35
ENDBRANCH  33  34
ENDBRANCH   1  33
TORSDOF 15
ENDMDL
