MODEL 1
REMARK VINA RESULT:      -9.5      0.000      0.000
REMARK SMILES O=C(Cc1ccc(=O)n(C(F)F)c1)NCCCNC(=O)c1ccc(-c2c3nc(c(-c4ccccc4)c4ccc([nH]4)c(-c4ccccc4)c4nc(c(-c5ccccc5)c5ccc2[nH]5)C=C4)C=C3)cc1
REMARK SMILES IDX 16 1 15 2 14 3 1 4 2 5 3 7 4 8 5 9 13 10 6 11 9 12 7 13 8 14
REMARK SMILES IDX 10 15 11 16 12 17 17 18 18 19 19 20 20 22 21 23 22 24 68 25
REMARK SMILES IDX 23 26 67 27 24 28 25 29 26 30 61 31 27 32 66 33 60 34 62 35
REMARK SMILES IDX 28 36 65 37 59 38 58 39 29 41 51 42 36 43 50 44 37 45 40 46
REMARK SMILES IDX 49 47 63 48 38 49 39 50 48 52 64 53 41 54 30 55 31 56 35 57
REMARK SMILES IDX 32 58 34 59 33 60 52 61 53 62 57 63 54 64 56 65 55 66 42 67
REMARK SMILES IDX 43 68 47 69 44 70 46 71 45 72
REMARK H PARENT 14 6 18 21 62 40 40 51
REMARK Flexibility Score: inf
ROOT
ATOM      1  C   UNL A   1      33.413  36.899  31.783  1.00  0.00     0.042 C 
ENDROOT
BRANCH   1   2
ATOM      2  C   UNL A   1      34.070  37.131  33.136  1.00  0.00     0.117 C 
BRANCH   2   3
ATOM      3  N   UNL A   1      34.254  35.903  33.884  1.00  0.00    -0.356 N 
ATOM      4  O   UNL A   1      36.247  35.338  32.901  1.00  0.00    -0.275 OA
ATOM      5  C   UNL A   1      35.373  35.114  33.732  1.00  0.00     0.224 C 
ATOM      6  H   UNL A   1      33.558  35.624  34.521  1.00  0.00     0.163 HD
BRANCH   5   7
ATOM      7  C   UNL A   1      35.441  33.901  34.659  1.00  0.00     0.137 C 
BRANCH   7   8
ATOM      8  C   UNL A   1      36.804  33.264  34.805  1.00  0.00    -0.022 A 
ATOM      9  C   UNL A   1      37.863  33.963  35.509  1.00  0.00     0.011 A 
ATOM     10  C   UNL A   1      37.080  32.065  34.262  1.00  0.00     0.099 A 
ATOM     11  C   UNL A   1      39.078  33.418  35.645  1.00  0.00     0.072 A 
ATOM     12  N   UNL A   1      38.338  31.492  34.360  1.00  0.00    -0.258 N 
ATOM     13  C   UNL A   1      39.385  32.095  35.038  1.00  0.00     0.254 A 
ATOM     14  O   UNL A   1      40.517  31.640  35.166  1.00  0.00    -0.269 OA
BRANCH  12  15
ATOM     15  C   UNL A   1      38.632  30.249  33.692  1.00  0.00     0.451 C 
ATOM     16  F   UNL A   1      37.655  29.936  32.806  1.00  0.00    -0.185 F 
ATOM     17  F   UNL A   1      39.807  30.315  33.021  1.00  0.00    -0.185 F 
ENDBRANCH  12  15
ENDBRANCH   7   8
ENDBRANCH   5   7
ENDBRANCH   2   3
ENDBRANCH   1   2
BRANCH   1  18
ATOM     18  C   UNL A   1      33.053  35.445  31.500  1.00  0.00     0.118 C 
BRANCH  18  19
ATOM     19  N   UNL A   1      32.613  35.204  30.132  1.00  0.00    -0.352 N 
ATOM     20  C   UNL A   1      33.210  34.501  29.111  1.00  0.00     0.251 C 
ATOM     21  H   UNL A   1      31.747  35.612  29.900  1.00  0.00     0.163 HD
ATOM     22  O   UNL A   1      32.708  34.522  27.990  1.00  0.00    -0.269 OA
BRANCH  20  23
ATOM     23  C   UNL A   1      34.470  33.758  29.337  1.00  0.00     0.039 A 
ATOM     24  C   UNL A   1      34.622  32.895  30.421  1.00  0.00     0.014 A 
ATOM     25  C   UNL A   1      35.527  33.937  28.439  1.00  0.00     0.014 A 
ATOM     26  C   UNL A   1      35.878  32.373  30.719  1.00  0.00     0.010 A 
ATOM     27  C   UNL A   1      36.763  33.330  28.684  1.00  0.00     0.010 A 
ATOM     28  C   UNL A   1      36.967  32.592  29.860  1.00  0.00    -0.014 A 
BRANCH  28  29
ATOM     29  C   UNL A   1      38.307  32.053  30.215  1.00  0.00     0.031 A 
ATOM     30  C   UNL A   1      38.770  30.724  29.674  1.00  0.00     0.074 A 
ATOM     31  C   UNL A   1      39.135  32.785  30.986  1.00  0.00     0.049 A 
ATOM     32  N   UNL A   1      39.917  30.118  29.857  1.00  0.00    -0.248 NA
ATOM     33  C   UNL A   1      37.831  29.978  28.822  1.00  0.00     0.031 C 
ATOM     34  C   UNL A   1      38.813  34.096  31.556  1.00  0.00     0.029 A 
ATOM     35  N   UNL A   1      40.421  32.548  31.405  1.00  0.00    -0.354 N 
ATOM     36  C   UNL A   1      39.830  28.920  29.158  1.00  0.00     0.074 A 
ATOM     37  C   UNL A   1      38.507  28.864  28.578  1.00  0.00     0.031 C 
ATOM     38  C   UNL A   1      39.889  34.571  32.198  1.00  0.00     0.029 A 
ATOM     39  C   UNL A   1      40.953  33.572  32.152  1.00  0.00     0.049 A 
ATOM     40  H   UNL A   1      40.914  31.724  31.189  1.00  0.00     0.167 HD
ATOM     41  C   UNL A   1      40.774  27.962  28.999  1.00  0.00     0.031 A 
ATOM     42  C   UNL A   1      42.155  33.696  32.748  1.00  0.00     0.031 A 
ATOM     43  C   UNL A   1      42.095  28.024  29.568  1.00  0.00     0.049 A 
ATOM     44  C   UNL A   1      43.162  32.589  32.608  1.00  0.00     0.074 A 
ATOM     45  C   UNL A   1      43.127  27.110  29.436  1.00  0.00     0.029 A 
ATOM     46  N   UNL A   1      42.568  29.049  30.372  1.00  0.00    -0.354 N 
ATOM     47  N   UNL A   1      43.072  31.477  31.921  1.00  0.00    -0.248 NA
ATOM     48  C   UNL A   1      44.437  32.754  33.322  1.00  0.00     0.031 C 
ATOM     49  C   UNL A   1      44.196  27.544  30.220  1.00  0.00     0.029 A 
ATOM     50  C   UNL A   1      43.864  28.771  30.772  1.00  0.00     0.049 A 
ATOM     51  H   UNL A   1      42.059  29.854  30.621  1.00  0.00     0.167 HD
ATOM     52  C   UNL A   1      44.281  30.818  32.102  1.00  0.00     0.074 A 
ATOM     53  C   UNL A   1      45.098  31.666  32.946  1.00  0.00     0.031 C 
ATOM     54  C   UNL A   1      44.675  29.618  31.612  1.00  0.00     0.031 A 
BRANCH  41  55
ATOM     55  C   UNL A   1      40.428  26.745  28.181  1.00  0.00    -0.014 A 
ATOM     56  C   UNL A   1      40.836  26.669  26.839  1.00  0.00     0.009 A 
ATOM     57  C   UNL A   1      39.606  25.731  28.696  1.00  0.00     0.009 A 
ATOM     58  C   UNL A   1      40.411  25.618  26.024  1.00  0.00     0.001 A 
ATOM     59  C   UNL A   1      39.210  24.662  27.888  1.00  0.00     0.001 A 
ATOM     60  C   UNL A   1      39.602  24.613  26.551  1.00  0.00     0.000 A 
ENDBRANCH  41  55
BRANCH  42  61
ATOM     61  C   UNL A   1      42.459  34.930  33.521  1.00  0.00    -0.014 A 
ATOM     62  C   UNL A   1      42.092  35.036  34.873  1.00  0.00     0.009 A 
ATOM     63  C   UNL A   1      43.062  36.034  32.897  1.00  0.00     0.009 A 
ATOM     64  C   UNL A   1      42.285  36.229  35.572  1.00  0.00     0.001 A 
ATOM     65  C   UNL A   1      43.289  37.213  33.611  1.00  0.00     0.001 A 
ATOM     66  C   UNL A   1      42.888  37.315  34.942  1.00  0.00     0.000 A 
ENDBRANCH  42  61
BRANCH  54  67
ATOM     67  C   UNL A   1      46.056  29.129  31.951  1.00  0.00    -0.014 A 
ATOM     68  C   UNL A   1      47.126  29.409  31.084  1.00  0.00     0.009 A 
ATOM     69  C   UNL A   1      46.279  28.291  33.054  1.00  0.00     0.009 A 
ATOM     70  C   UNL A   1      48.382  28.839  31.298  1.00  0.00     0.001 A 
ATOM     71  C   UNL A   1      47.546  27.751  33.285  1.00  0.00     0.001 A 
ATOM     72  C   UNL A   1      48.591  28.013  32.401  1.00  0.00     0.000 A 
ENDBRANCH  54  67
ENDBRANCH  28  29
ENDBRANCH  20  23
ENDBRANCH  18  19
ENDBRANCH   1  18
TORSDOF 12
ENDMDL
MODEL 2
REMARK VINA RESULT:      -9.4      0.673      6.267
REMARK SMILES O=C(Cc1ccc(=O)n(C(F)F)c1)NCCCNC(=O)c1ccc(-c2c3nc(c(-c4ccccc4)c4ccc([nH]4)c(-c4ccccc4)c4nc(c(-c5ccccc5)c5ccc2[nH]5)C=C4)C=C3)cc1
REMARK SMILES IDX 16 1 15 2 14 3 1 4 2 5 3 7 4 8 5 9 13 10 6 11 9 12 7 13 8 14
REMARK SMILES IDX 10 15 11 16 12 17 17 18 18 19 19 20 20 22 21 23 22 24 68 25
REMARK SMILES IDX 23 26 67 27 24 28 25 29 26 30 61 31 27 32 66 33 60 34 62 35
REMARK SMILES IDX 28 36 65 37 59 38 58 39 29 41 51 42 36 43 50 44 37 45 40 46
REMARK SMILES IDX 49 47 63 48 38 49 39 50 48 52 64 53 41 54 30 55 31 56 35 57
REMARK SMILES IDX 32 58 34 59 33 60 52 61 53 62 57 63 54 64 56 65 55 66 42 67
REMARK SMILES IDX 43 68 47 69 44 70 46 71 45 72
REMARK H PARENT 14 6 18 21 62 40 40 51
REMARK Flexibility Score: inf
ROOT
ATOM      1  C   UNL A   1      32.649  36.431  31.099  1.00  0.00     0.042 C 
ENDROOT
BRANCH   1   2
ATOM      2  C   UNL A   1      33.771  36.628  32.109  1.00  0.00     0.117 C 
BRANCH   2   3
ATOM      3  N   UNL A   1      33.921  35.496  33.004  1.00  0.00    -0.356 N 
ATOM      4  O   UNL A   1      36.212  35.444  32.917  1.00  0.00    -0.275 OA
ATOM      5  C   UNL A   1      35.157  35.016  33.375  1.00  0.00     0.224 C 
ATOM      6  H   UNL A   1      33.114  35.057  33.356  1.00  0.00     0.163 HD
BRANCH   5   7
ATOM      7  C   UNL A   1      35.130  33.871  34.388  1.00  0.00     0.137 C 
BRANCH   7   8
ATOM      8  C   UNL A   1      36.411  33.081  34.517  1.00  0.00    -0.022 A 
ATOM      9  C   UNL A   1      37.465  33.540  35.401  1.00  0.00     0.011 A 
ATOM     10  C   UNL A   1      36.622  31.964  33.797  1.00  0.00     0.099 A 
ATOM     11  C   UNL A   1      38.610  32.856  35.526  1.00  0.00     0.072 A 
ATOM     12  N   UNL A   1      37.810  31.255  33.882  1.00  0.00    -0.258 N 
ATOM     13  C   UNL A   1      38.845  31.625  34.724  1.00  0.00     0.254 A 
ATOM     14  O   UNL A   1      39.916  31.039  34.850  1.00  0.00    -0.269 OA
BRANCH  12  15
ATOM     15  C   UNL A   1      38.044  30.114  33.033  1.00  0.00     0.451 C 
ATOM     16  F   UNL A   1      39.367  29.969  32.776  1.00  0.00    -0.185 F 
ATOM     17  F   UNL A   1      37.597  28.971  33.606  1.00  0.00    -0.185 F 
ENDBRANCH  12  15
ENDBRANCH   7   8
ENDBRANCH   5   7
ENDBRANCH   2   3
ENDBRANCH   1   2
BRANCH   1  18
ATOM     18  C   UNL A   1      33.090  36.528  29.644  1.00  0.00     0.118 C 
BRANCH  18  19
ATOM     19  N   UNL A   1      32.567  35.461  28.800  1.00  0.00    -0.352 N 
ATOM     20  C   UNL A   1      33.144  34.283  28.387  1.00  0.00     0.251 C 
ATOM     21  H   UNL A   1      31.650  35.607  28.472  1.00  0.00     0.163 HD
ATOM     22  O   UNL A   1      32.553  33.573  27.576  1.00  0.00    -0.269 OA
BRANCH  20  23
ATOM     23  C   UNL A   1      34.483  33.883  28.872  1.00  0.00     0.039 A 
ATOM     24  C   UNL A   1      35.642  34.221  28.175  1.00  0.00     0.014 A 
ATOM     25  C   UNL A   1      34.578  33.143  30.056  1.00  0.00     0.014 A 
ATOM     26  C   UNL A   1      36.861  33.660  28.544  1.00  0.00     0.010 A 
ATOM     27  C   UNL A   1      35.820  32.662  30.483  1.00  0.00     0.010 A 
ATOM     28  C   UNL A   1      36.965  32.865  29.697  1.00  0.00    -0.014 A 
BRANCH  28  29
ATOM     29  C   UNL A   1      38.270  32.248  30.054  1.00  0.00     0.031 A 
ATOM     30  C   UNL A   1      39.193  32.917  31.040  1.00  0.00     0.074 A 
ATOM     31  C   UNL A   1      38.606  31.054  29.528  1.00  0.00     0.049 A 
ATOM     32  N   UNL A   1      40.353  32.505  31.488  1.00  0.00    -0.248 NA
ATOM     33  C   UNL A   1      38.765  34.210  31.596  1.00  0.00     0.031 C 
ATOM     34  C   UNL A   1      37.791  30.294  28.578  1.00  0.00     0.029 A 
ATOM     35  N   UNL A   1      39.705  30.256  29.734  1.00  0.00    -0.354 N 
ATOM     36  C   UNL A   1      40.796  33.492  32.361  1.00  0.00     0.074 A 
ATOM     37  C   UNL A   1      39.801  34.541  32.355  1.00  0.00     0.031 C 
ATOM     38  C   UNL A   1      38.387  29.120  28.328  1.00  0.00     0.029 A 
ATOM     39  C   UNL A   1      39.661  29.071  29.040  1.00  0.00     0.049 A 
ATOM     40  H   UNL A   1      40.452  30.510  30.324  1.00  0.00     0.167 HD
ATOM     41  C   UNL A   1      41.922  33.513  33.114  1.00  0.00     0.031 A 
ATOM     42  C   UNL A   1      40.547  28.059  28.967  1.00  0.00     0.031 A 
ATOM     43  C   UNL A   1      42.907  32.464  33.129  1.00  0.00     0.049 A 
ATOM     44  C   UNL A   1      41.818  28.136  29.765  1.00  0.00     0.074 A 
ATOM     45  C   UNL A   1      44.066  32.389  33.883  1.00  0.00     0.029 A 
ATOM     46  N   UNL A   1      42.853  31.311  32.360  1.00  0.00    -0.354 N 
ATOM     47  N   UNL A   1      42.207  29.064  30.606  1.00  0.00    -0.248 NA
ATOM     48  C   UNL A   1      42.772  27.029  29.608  1.00  0.00     0.031 C 
ATOM     49  C   UNL A   1      44.750  31.230  33.515  1.00  0.00     0.029 A 
ATOM     50  C   UNL A   1      43.977  30.538  32.596  1.00  0.00     0.049 A 
ATOM     51  H   UNL A   1      42.126  31.078  31.740  1.00  0.00     0.167 HD
ATOM     52  C   UNL A   1      43.438  28.645  31.092  1.00  0.00     0.074 A 
ATOM     53  C   UNL A   1      43.723  27.368  30.470  1.00  0.00     0.031 C 
ATOM     54  C   UNL A   1      44.257  29.266  31.975  1.00  0.00     0.031 A 
BRANCH  41  55
ATOM     55  C   UNL A   1      42.172  34.711  33.992  1.00  0.00    -0.014 A 
ATOM     56  C   UNL A   1      42.884  35.811  33.484  1.00  0.00     0.009 A 
ATOM     57  C   UNL A   1      41.809  34.710  35.348  1.00  0.00     0.009 A 
ATOM     58  C   UNL A   1      43.246  36.871  34.318  1.00  0.00     0.001 A 
ATOM     59  C   UNL A   1      42.144  35.787  36.172  1.00  0.00     0.001 A 
ATOM     60  C   UNL A   1      42.872  36.860  35.660  1.00  0.00     0.000 A 
ENDBRANCH  41  55
BRANCH  42  61
ATOM     61  C   UNL A   1      40.240  26.884  28.108  1.00  0.00    -0.014 A 
ATOM     62  C   UNL A   1      39.474  25.815  28.605  1.00  0.00     0.009 A 
ATOM     63  C   UNL A   1      40.761  26.793  26.808  1.00  0.00     0.009 A 
ATOM     64  C   UNL A   1      39.269  24.668  27.836  1.00  0.00     0.001 A 
ATOM     65  C   UNL A   1      40.522  25.659  26.028  1.00  0.00     0.001 A 
ATOM     66  C   UNL A   1      39.789  24.593  26.546  1.00  0.00     0.000 A 
ENDBRANCH  42  61
BRANCH  54  67
ATOM     67  C   UNL A   1      45.546  28.588  32.351  1.00  0.00    -0.014 A 
ATOM     68  C   UNL A   1      45.589  27.752  33.480  1.00  0.00     0.009 A 
ATOM     69  C   UNL A   1      46.739  28.868  31.670  1.00  0.00     0.009 A 
ATOM     70  C   UNL A   1      46.803  27.235  33.934  1.00  0.00     0.001 A 
ATOM     71  C   UNL A   1      47.947  28.320  32.106  1.00  0.00     0.001 A 
ATOM     72  C   UNL A   1      47.980  27.516  33.245  1.00  0.00     0.000 A 
ENDBRANCH  54  67
ENDBRANCH  28  29
ENDBRANCH  20  23
ENDBRANCH  18  19
ENDBRANCH   1  18
TORSDOF 12
ENDMDL
MODEL 3
REMARK VINA RESULT:      -9.0      6.418     12.011
REMARK SMILES O=C(Cc1ccc(=O)n(C(F)F)c1)NCCCNC(=O)c1ccc(-c2c3nc(c(-c4ccccc4)c4ccc([nH]4)c(-c4ccccc4)c4nc(c(-c5ccccc5)c5ccc2[nH]5)C=C4)C=C3)cc1
REMARK SMILES IDX 16 1 15 2 14 3 1 4 2 5 3 7 4 8 5 9 13 10 6 11 9 12 7 13 8 14
REMARK SMILES IDX 10 15 11 16 12 17 17 18 18 19 19 20 20 22 21 23 22 24 68 25
REMARK SMILES IDX 23 26 67 27 24 28 25 29 26 30 61 31 27 32 66 33 60 34 62 35
REMARK SMILES IDX 28 36 65 37 59 38 58 39 29 41 51 42 36 43 50 44 37 45 40 46
REMARK SMILES IDX 49 47 63 48 38 49 39 50 48 52 64 53 41 54 30 55 31 56 35 57
REMARK SMILES IDX 32 58 34 59 33 60 52 61 53 62 57 63 54 64 56 65 55 66 42 67
REMARK SMILES IDX 43 68 47 69 44 70 46 71 45 72
REMARK H PARENT 14 6 18 21 62 40 40 51
REMARK Flexibility Score: inf
ROOT
ATOM      1  C   UNL A   1      38.235  20.602  25.006  1.00  0.00     0.042 C 
ENDROOT
BRANCH   1   2
ATOM      2  C   UNL A   1      37.121  21.593  25.317  1.00  0.00     0.117 C 
BRANCH   2   3
ATOM      3  N   UNL A   1      35.846  20.943  25.548  1.00  0.00    -0.356 N 
ATOM      4  O   UNL A   1      34.927  22.670  26.744  1.00  0.00    -0.275 OA
ATOM      5  C   UNL A   1      34.817  21.566  26.219  1.00  0.00     0.224 C 
ATOM      6  H   UNL A   1      35.711  20.027  25.214  1.00  0.00     0.163 HD
BRANCH   5   7
ATOM      7  C   UNL A   1      33.517  20.767  26.299  1.00  0.00     0.137 C 
BRANCH   7   8
ATOM      8  C   UNL A   1      33.181  19.940  25.080  1.00  0.00    -0.022 A 
ATOM      9  C   UNL A   1      32.464  20.537  23.969  1.00  0.00     0.011 A 
ATOM     10  C   UNL A   1      33.500  18.635  25.008  1.00  0.00     0.099 A 
ATOM     11  C   UNL A   1      32.153  19.819  22.882  1.00  0.00     0.072 A 
ATOM     12  N   UNL A   1      33.162  17.861  23.909  1.00  0.00    -0.258 N 
ATOM     13  C   UNL A   1      32.500  18.375  22.806  1.00  0.00     0.254 A 
ATOM     14  O   UNL A   1      32.178  17.746  21.803  1.00  0.00    -0.269 OA
BRANCH  12  15
ATOM     15  C   UNL A   1      33.437  16.446  23.897  1.00  0.00     0.451 C 
ATOM     16  F   UNL A   1      34.328  16.137  22.924  1.00  0.00    -0.185 F 
ATOM     17  F   UNL A   1      33.943  16.031  25.083  1.00  0.00    -0.185 F 
ENDBRANCH  12  15
ENDBRANCH   7   8
ENDBRANCH   5   7
ENDBRANCH   2   3
ENDBRANCH   1   2
BRANCH   1  18
ATOM     18  C   UNL A   1      39.118  20.255  26.198  1.00  0.00     0.118 C 
BRANCH  18  19
ATOM     19  N   UNL A   1      40.260  19.416  25.857  1.00  0.00    -0.352 N 
ATOM     20  C   UNL A   1      41.610  19.669  25.934  1.00  0.00     0.251 C 
ATOM     21  H   UNL A   1      40.028  18.522  25.516  1.00  0.00     0.163 HD
ATOM     22  O   UNL A   1      42.405  18.848  25.483  1.00  0.00    -0.269 OA
BRANCH  20  23
ATOM     23  C   UNL A   1      42.113  20.936  26.512  1.00  0.00     0.039 A 
ATOM     24  C   UNL A   1      42.186  21.129  27.891  1.00  0.00     0.014 A 
ATOM     25  C   UNL A   1      42.516  21.958  25.646  1.00  0.00     0.014 A 
ATOM     26  C   UNL A   1      42.466  22.394  28.399  1.00  0.00     0.010 A 
ATOM     27  C   UNL A   1      42.896  23.201  26.162  1.00  0.00     0.010 A 
ATOM     28  C   UNL A   1      42.815  23.449  27.541  1.00  0.00    -0.014 A 
BRANCH  28  29
ATOM     29  C   UNL A   1      43.079  24.801  28.103  1.00  0.00     0.031 A 
ATOM     30  C   UNL A   1      44.486  25.245  28.412  1.00  0.00     0.074 A 
ATOM     31  C   UNL A   1      42.053  25.655  28.289  1.00  0.00     0.049 A 
ATOM     32  N   UNL A   1      44.900  26.397  28.877  1.00  0.00    -0.248 NA
ATOM     33  C   UNL A   1      45.568  24.277  28.171  1.00  0.00     0.031 C 
ATOM     34  C   UNL A   1      40.648  25.353  28.009  1.00  0.00     0.029 A 
ATOM     35  N   UNL A   1      42.032  26.955  28.730  1.00  0.00    -0.354 N 
ATOM     36  C   UNL A   1      46.280  26.286  28.997  1.00  0.00     0.074 A 
ATOM     37  C   UNL A   1      46.633  24.944  28.594  1.00  0.00     0.031 C 
ATOM     38  C   UNL A   1      39.911  26.451  28.231  1.00  0.00     0.029 A 
ATOM     39  C   UNL A   1      40.776  27.512  28.737  1.00  0.00     0.049 A 
ATOM     40  H   UNL A   1      42.840  27.440  29.014  1.00  0.00     0.167 HD
ATOM     41  C   UNL A   1      47.174  27.224  29.392  1.00  0.00     0.031 A 
ATOM     42  C   UNL A   1      40.356  28.734  29.119  1.00  0.00     0.031 A 
ATOM     43  C   UNL A   1      46.823  28.564  29.783  1.00  0.00     0.049 A 
ATOM     44  C   UNL A   1      41.362  29.736  29.612  1.00  0.00     0.074 A 
ATOM     45  C   UNL A   1      47.667  29.591  30.171  1.00  0.00     0.029 A 
ATOM     46  N   UNL A   1      45.531  29.065  29.837  1.00  0.00    -0.354 N 
ATOM     47  N   UNL A   1      42.665  29.622  29.693  1.00  0.00    -0.248 NA
ATOM     48  C   UNL A   1      40.842  31.035  30.064  1.00  0.00     0.031 C 
ATOM     49  C   UNL A   1      46.882  30.687  30.533  1.00  0.00     0.029 A 
ATOM     50  C   UNL A   1      45.555  30.374  30.287  1.00  0.00     0.049 A 
ATOM     51  H   UNL A   1      44.720  28.565  29.593  1.00  0.00     0.167 HD
ATOM     52  C   UNL A   1      43.124  30.837  30.185  1.00  0.00     0.074 A 
ATOM     53  C   UNL A   1      41.961  31.682  30.364  1.00  0.00     0.031 C 
ATOM     54  C   UNL A   1      44.395  31.213  30.463  1.00  0.00     0.031 A 
BRANCH  41  55
ATOM     55  C   UNL A   1      48.633  26.850  29.433  1.00  0.00    -0.014 A 
ATOM     56  C   UNL A   1      49.188  26.341  30.620  1.00  0.00     0.009 A 
ATOM     57  C   UNL A   1      49.481  27.104  28.344  1.00  0.00     0.009 A 
ATOM     58  C   UNL A   1      50.563  26.117  30.722  1.00  0.00     0.001 A 
ATOM     59  C   UNL A   1      50.851  26.847  28.439  1.00  0.00     0.001 A 
ATOM     60  C   UNL A   1      51.392  26.366  29.631  1.00  0.00     0.000 A 
ENDBRANCH  41  55
BRANCH  42  61
ATOM     61  C   UNL A   1      38.908  29.065  29.032  1.00  0.00    -0.014 A 
ATOM     62  C   UNL A   1      38.361  29.570  27.840  1.00  0.00     0.009 A 
ATOM     63  C   UNL A   1      38.077  28.939  30.155  1.00  0.00     0.009 A 
ATOM     64  C   UNL A   1      37.026  29.976  27.785  1.00  0.00     0.001 A 
ATOM     65  C   UNL A   1      36.732  29.311  30.086  1.00  0.00     0.001 A 
ATOM     66  C   UNL A   1      36.212  29.842  28.907  1.00  0.00     0.000 A 
ENDBRANCH  42  61
BRANCH  54  67
ATOM     67  C   UNL A   1      44.628  32.606  30.983  1.00  0.00    -0.014 A 
ATOM     68  C   UNL A   1      44.911  33.647  30.081  1.00  0.00     0.009 A 
ATOM     69  C   UNL A   1      44.692  32.866  32.359  1.00  0.00     0.009 A 
ATOM     70  C   UNL A   1      45.279  34.909  30.548  1.00  0.00     0.001 A 
ATOM     71  C   UNL A   1      45.026  34.141  32.822  1.00  0.00     0.001 A 
ATOM     72  C   UNL A   1      45.332  35.156  31.918  1.00  0.00     0.000 A 
ENDBRANCH  54  67
ENDBRANCH  28  29
ENDBRANCH  20  23
ENDBRANCH  18  19
ENDBRANCH   1  18
TORSDOF 12
ENDMDL
