MODEL 1
REMARK VINA RESULT:     -11.4      0.000      0.000
REMARK SMILES O=C(NCCCNC(=O)[C@@H]1CC[C@@H](CNC(=O)N2CC[NH2+]CC2)O1)c1ccc(-c2c3nc(c(-c4ccccc4)c4ccc([nH]4)c(-c4ccccc4)c4nc(c(-c5ccccc5)c5ccc2[nH]5)C=C4)C=C3)cc1
REMARK SMILES IDX 5 1 4 2 3 3 1 4 2 5 25 7 26 8 72 9 27 10 71 11 28 12 29 13
REMARK SMILES IDX 30 14 65 15 31 16 70 17 64 18 66 19 32 20 69 21 63 22 62 23
REMARK SMILES IDX 33 25 55 26 40 27 54 28 41 29 44 30 53 31 67 32 42 33 43 34
REMARK SMILES IDX 52 36 68 37 45 38 34 39 35 40 39 41 36 42 38 43 37 44 56 45
REMARK SMILES IDX 57 46 61 47 58 48 60 49 59 50 46 51 47 52 51 53 48 54 50 55
REMARK SMILES IDX 49 56 6 57 7 58 8 59 9 61 10 62 11 63 24 64 12 65 13 66
REMARK SMILES IDX 14 67 15 68 16 69 17 71 18 72 19 73 23 74 20 75 22 76 21 77
REMARK H PARENT 3 6 66 24 44 35 7 60 15 70 21 78 21 79
REMARK Flexibility Score: inf
ROOT
ATOM      1  C   UNL A   1      31.385  31.138  26.033  1.00  0.00     0.042 C 
ENDROOT
BRANCH   1   2
ATOM      2  C   UNL A   1      32.431  31.633  27.029  1.00  0.00     0.118 C 
BRANCH   2   3
ATOM      3  N   UNL A   1      32.279  33.054  27.297  1.00  0.00    -0.352 N 
ATOM      4  O   UNL A   1      32.525  34.969  28.445  1.00  0.00    -0.269 OA
ATOM      5  C   UNL A   1      32.991  33.869  28.136  1.00  0.00     0.251 C 
ATOM      6  H   UNL A   1      31.555  33.497  26.799  1.00  0.00     0.163 HD
BRANCH   5   7
ATOM      7  C   UNL A   1      34.306  33.459  28.672  1.00  0.00     0.039 A 
ATOM      8  C   UNL A   1      34.410  32.699  29.842  1.00  0.00     0.014 A 
ATOM      9  C   UNL A   1      35.454  33.757  27.931  1.00  0.00     0.014 A 
ATOM     10  C   UNL A   1      35.663  32.310  30.313  1.00  0.00     0.010 A 
ATOM     11  C   UNL A   1      36.703  33.311  28.370  1.00  0.00     0.010 A 
ATOM     12  C   UNL A   1      36.817  32.592  29.571  1.00  0.00    -0.014 A 
BRANCH  12  13
ATOM     13  C   UNL A   1      38.139  32.077  30.004  1.00  0.00     0.031 A 
ATOM     14  C   UNL A   1      38.661  30.772  29.480  1.00  0.00     0.074 A 
ATOM     15  C   UNL A   1      38.845  32.771  30.917  1.00  0.00     0.049 A 
ATOM     16  N   UNL A   1      39.748  30.124  29.817  1.00  0.00    -0.248 NA
ATOM     17  C   UNL A   1      37.852  30.102  28.451  1.00  0.00     0.031 C 
ATOM     18  C   UNL A   1      38.439  34.049  31.504  1.00  0.00     0.029 A 
ATOM     19  N   UNL A   1      40.043  32.490  31.521  1.00  0.00    -0.354 N 
ATOM     20  C   UNL A   1      39.740  28.958  29.062  1.00  0.00     0.074 A 
ATOM     21  C   UNL A   1      38.532  28.979  28.263  1.00  0.00     0.031 C 
ATOM     22  C   UNL A   1      39.374  34.445  32.380  1.00  0.00     0.029 A 
ATOM     23  C   UNL A   1      40.413  33.424  32.458  1.00  0.00     0.049 A 
ATOM     24  H   UNL A   1      40.586  31.697  31.306  1.00  0.00     0.167 HD
ATOM     25  C   UNL A   1      40.656  27.959  29.040  1.00  0.00     0.031 A 
ATOM     26  C   UNL A   1      41.453  33.444  33.311  1.00  0.00     0.031 A 
ATOM     27  C   UNL A   1      41.850  27.939  29.844  1.00  0.00     0.049 A 
ATOM     28  C   UNL A   1      42.436  32.311  33.298  1.00  0.00     0.074 A 
ATOM     29  C   UNL A   1      42.860  26.993  29.864  1.00  0.00     0.029 A 
ATOM     30  N   UNL A   1      42.187  28.905  30.780  1.00  0.00    -0.354 N 
ATOM     31  N   UNL A   1      42.439  31.235  32.549  1.00  0.00    -0.248 NA
ATOM     32  C   UNL A   1      43.557  32.394  34.244  1.00  0.00     0.031 C 
ATOM     33  C   UNL A   1      43.783  27.361  30.849  1.00  0.00     0.029 A 
ATOM     34  C   UNL A   1      43.376  28.564  31.403  1.00  0.00     0.049 A 
ATOM     35  H   UNL A   1      41.661  29.715  30.972  1.00  0.00     0.167 HD
ATOM     36  C   UNL A   1      43.572  30.523  32.914  1.00  0.00     0.074 A 
ATOM     37  C   UNL A   1      44.236  31.293  33.948  1.00  0.00     0.031 C 
ATOM     38  C   UNL A   1      44.024  29.341  32.430  1.00  0.00     0.031 A 
BRANCH  25  39
ATOM     39  C   UNL A   1      40.372  26.786  28.145  1.00  0.00    -0.014 A 
ATOM     40  C   UNL A   1      40.864  26.729  26.830  1.00  0.00     0.009 A 
ATOM     41  C   UNL A   1      39.611  25.711  28.631  1.00  0.00     0.009 A 
ATOM     42  C   UNL A   1      40.559  25.643  26.008  1.00  0.00     0.001 A 
ATOM     43  C   UNL A   1      39.332  24.613  27.815  1.00  0.00     0.001 A 
ATOM     44  C   UNL A   1      39.796  24.585  26.501  1.00  0.00     0.000 A 
ENDBRANCH  25  39
BRANCH  26  45
ATOM     45  C   UNL A   1      41.592  34.580  34.258  1.00  0.00    -0.014 A 
ATOM     46  C   UNL A   1      42.282  35.742  33.886  1.00  0.00     0.009 A 
ATOM     47  C   UNL A   1      40.978  34.527  35.521  1.00  0.00     0.009 A 
ATOM     48  C   UNL A   1      42.359  36.828  34.762  1.00  0.00     0.001 A 
ATOM     49  C   UNL A   1      41.035  35.623  36.383  1.00  0.00     0.001 A 
ATOM     50  C   UNL A   1      41.729  36.770  36.004  1.00  0.00     0.000 A 
ENDBRANCH  26  45
BRANCH  38  51
ATOM     51  C   UNL A   1      45.318  28.818  32.983  1.00  0.00    -0.014 A 
ATOM     52  C   UNL A   1      46.553  29.219  32.453  1.00  0.00     0.009 A 
ATOM     53  C   UNL A   1      45.297  27.962  34.096  1.00  0.00     0.009 A 
ATOM     54  C   UNL A   1      47.744  28.759  33.019  1.00  0.00     0.001 A 
ATOM     55  C   UNL A   1      46.489  27.523  34.673  1.00  0.00     0.001 A 
ATOM     56  C   UNL A   1      47.710  27.918  34.132  1.00  0.00     0.000 A 
ENDBRANCH  38  51
ENDBRANCH  12  13
ENDBRANCH   5   7
ENDBRANCH   2   3
ENDBRANCH   1   2
BRANCH   1  57
ATOM     57  C   UNL A   1      31.751  29.799  25.386  1.00  0.00     0.117 C 
BRANCH  57  58
ATOM     58  N   UNL A   1      30.955  29.562  24.198  1.00  0.00    -0.354 N 
ATOM     59  C   UNL A   1      31.077  28.624  23.212  1.00  0.00     0.249 C 
ATOM     60  H   UNL A   1      30.198  30.182  24.082  1.00  0.00     0.163 HD
ATOM     61  O   UNL A   1      30.344  28.773  22.228  1.00  0.00    -0.272 OA
BRANCH  59  62
ATOM     62  C   UNL A   1      32.026  27.407  23.359  1.00  0.00     0.207 C 
ATOM     63  C   UNL A   1      32.449  26.732  22.057  1.00  0.00     0.045 C 
ATOM     64  O   UNL A   1      31.409  26.364  24.153  1.00  0.00    -0.363 OA
ATOM     65  C   UNL A   1      32.374  25.258  22.364  1.00  0.00     0.037 C 
ATOM     66  C   UNL A   1      31.183  25.235  23.293  1.00  0.00     0.138 C 
BRANCH  66  67
ATOM     67  C   UNL A   1      30.946  23.934  24.071  1.00  0.00     0.149 C 
BRANCH  67  68
ATOM     68  N   UNL A   1      30.467  24.117  25.436  1.00  0.00    -0.335 N 
ATOM     69  C   UNL A   1      30.961  23.601  26.585  1.00  0.00     0.317 C 
ATOM     70  H   UNL A   1      29.676  24.695  25.535  1.00  0.00     0.165 HD
ATOM     71  O   UNL A   1      30.147  23.269  27.448  1.00  0.00    -0.249 OA
ATOM     72  N   UNL A   1      32.302  23.434  26.734  1.00  0.00    -0.314 N 
ATOM     73  C   UNL A   1      32.798  22.467  27.708  1.00  0.00     0.182 C 
ATOM     74  C   UNL A   1      33.334  24.323  26.208  1.00  0.00     0.182 C 
ATOM     75  C   UNL A   1      34.003  21.693  27.136  1.00  0.00     0.282 C 
ATOM     76  C   UNL A   1      34.501  23.509  25.626  1.00  0.00     0.282 C 
ATOM     77  N   UNL A   1      35.076  22.571  26.617  1.00  0.00    -0.343 N 
ATOM     78  H   UNL A   1      35.796  22.003  26.172  1.00  0.00     0.346 HD
ATOM     79  H   UNL A   1      35.490  23.097  27.386  1.00  0.00     0.346 HD
ENDBRANCH  67  68
ENDBRANCH  66  67
ENDBRANCH  59  62
ENDBRANCH  57  58
ENDBRANCH   1  57
TORSDOF 12
ENDMDL
MODEL 2
REMARK VINA RESULT:     -11.4      3.885      9.067
REMARK SMILES O=C(NCCCNC(=O)[C@@H]1CC[C@@H](CNC(=O)N2CC[NH2+]CC2)O1)c1ccc(-c2c3nc(c(-c4ccccc4)c4ccc([nH]4)c(-c4ccccc4)c4nc(c(-c5ccccc5)c5ccc2[nH]5)C=C4)C=C3)cc1
REMARK SMILES IDX 5 1 4 2 3 3 1 4 2 5 25 7 26 8 72 9 27 10 71 11 28 12 29 13
REMARK SMILES IDX 30 14 65 15 31 16 70 17 64 18 66 19 32 20 69 21 63 22 62 23
REMARK SMILES IDX 33 25 55 26 40 27 54 28 41 29 44 30 53 31 67 32 42 33 43 34
REMARK SMILES IDX 52 36 68 37 45 38 34 39 35 40 39 41 36 42 38 43 37 44 56 45
REMARK SMILES IDX 57 46 61 47 58 48 60 49 59 50 46 51 47 52 51 53 48 54 50 55
REMARK SMILES IDX 49 56 6 57 7 58 8 59 9 61 10 62 11 63 24 64 12 65 13 66
REMARK SMILES IDX 14 67 15 68 16 69 17 71 18 72 19 73 23 74 20 75 22 76 21 77
REMARK H PARENT 3 6 66 24 44 35 7 60 15 70 21 78 21 79
REMARK Flexibility Score: inf
ROOT
ATOM      1  C   UNL A   1      37.753  19.714  25.000  1.00  0.00     0.042 C 
ENDROOT
BRANCH   1   2
ATOM      2  C   UNL A   1      38.951  20.294  25.749  1.00  0.00     0.118 C 
BRANCH   2   3
ATOM      3  N   UNL A   1      40.017  19.315  25.885  1.00  0.00    -0.352 N 
ATOM      4  O   UNL A   1      42.133  18.563  25.871  1.00  0.00    -0.269 OA
ATOM      5  C   UNL A   1      41.360  19.502  26.075  1.00  0.00     0.251 C 
ATOM      6  H   UNL A   1      39.729  18.375  25.833  1.00  0.00     0.163 HD
BRANCH   5   7
ATOM      7  C   UNL A   1      41.899  20.803  26.524  1.00  0.00     0.039 A 
ATOM      8  C   UNL A   1      42.285  21.787  25.607  1.00  0.00     0.014 A 
ATOM      9  C   UNL A   1      41.921  21.082  27.895  1.00  0.00     0.014 A 
ATOM     10  C   UNL A   1      42.771  23.012  26.061  1.00  0.00     0.010 A 
ATOM     11  C   UNL A   1      42.347  22.333  28.345  1.00  0.00     0.010 A 
ATOM     12  C   UNL A   1      42.784  23.305  27.431  1.00  0.00    -0.014 A 
BRANCH  12  13
ATOM     13  C   UNL A   1      43.185  24.649  27.913  1.00  0.00     0.031 A 
ATOM     14  C   UNL A   1      42.152  25.694  28.216  1.00  0.00     0.074 A 
ATOM     15  C   UNL A   1      44.495  24.941  28.025  1.00  0.00     0.049 A 
ATOM     16  N   UNL A   1      42.321  26.947  28.556  1.00  0.00    -0.248 NA
ATOM     17  C   UNL A   1      40.745  25.279  28.116  1.00  0.00     0.031 C 
ATOM     18  C   UNL A   1      45.593  24.011  27.752  1.00  0.00     0.029 A 
ATOM     19  N   UNL A   1      45.124  26.106  28.380  1.00  0.00    -0.354 N 
ATOM     20  C   UNL A   1      41.045  27.478  28.682  1.00  0.00     0.074 A 
ATOM     21  C   UNL A   1      40.111  26.417  28.367  1.00  0.00     0.031 C 
ATOM     22  C   UNL A   1      46.760  24.639  27.956  1.00  0.00     0.029 A 
ATOM     23  C   UNL A   1      46.493  26.028  28.317  1.00  0.00     0.049 A 
ATOM     24  H   UNL A   1      44.642  26.920  28.655  1.00  0.00     0.167 HD
ATOM     25  C   UNL A   1      40.684  28.738  29.029  1.00  0.00     0.031 A 
ATOM     26  C   UNL A   1      47.434  26.974  28.493  1.00  0.00     0.031 A 
ATOM     27  C   UNL A   1      41.617  29.791  29.332  1.00  0.00     0.049 A 
ATOM     28  C   UNL A   1      47.014  28.371  28.839  1.00  0.00     0.074 A 
ATOM     29  C   UNL A   1      41.351  31.089  29.733  1.00  0.00     0.029 A 
ATOM     30  N   UNL A   1      42.996  29.670  29.256  1.00  0.00    -0.354 N 
ATOM     31  N   UNL A   1      45.804  28.850  28.998  1.00  0.00    -0.248 NA
ATOM     32  C   UNL A   1      48.085  29.358  29.032  1.00  0.00     0.031 C 
ATOM     33  C   UNL A   1      42.569  31.768  29.849  1.00  0.00     0.029 A 
ATOM     34  C   UNL A   1      43.594  30.877  29.575  1.00  0.00     0.049 A 
ATOM     35  H   UNL A   1      43.479  28.847  29.013  1.00  0.00     0.167 HD
ATOM     36  C   UNL A   1      45.966  30.187  29.332  1.00  0.00     0.074 A 
ATOM     37  C   UNL A   1      47.392  30.442  29.359  1.00  0.00     0.031 C 
ATOM     38  C   UNL A   1      45.016  31.115  29.598  1.00  0.00     0.031 A 
BRANCH  25  39
ATOM     39  C   UNL A   1      39.214  29.050  29.053  1.00  0.00    -0.014 A 
ATOM     40  C   UNL A   1      38.546  29.527  27.913  1.00  0.00     0.009 A 
ATOM     41  C   UNL A   1      38.482  28.851  30.234  1.00  0.00     0.009 A 
ATOM     42  C   UNL A   1      37.186  29.840  27.970  1.00  0.00     0.001 A 
ATOM     43  C   UNL A   1      37.117  29.139  30.280  1.00  0.00     0.001 A 
ATOM     44  C   UNL A   1      36.473  29.644  29.152  1.00  0.00     0.000 A 
ENDBRANCH  25  39
BRANCH  26  45
ATOM     45  C   UNL A   1      48.865  26.614  28.323  1.00  0.00    -0.014 A 
ATOM     46  C   UNL A   1      49.470  26.663  27.061  1.00  0.00     0.009 A 
ATOM     47  C   UNL A   1      49.647  26.276  29.442  1.00  0.00     0.009 A 
ATOM     48  C   UNL A   1      50.831  26.378  26.918  1.00  0.00     0.001 A 
ATOM     49  C   UNL A   1      51.011  26.017  29.300  1.00  0.00     0.001 A 
ATOM     50  C   UNL A   1      51.600  26.064  28.038  1.00  0.00     0.000 A 
ENDBRANCH  26  45
BRANCH  38  51
ATOM     51  C   UNL A   1      45.483  32.490  29.980  1.00  0.00    -0.014 A 
ATOM     52  C   UNL A   1      45.643  33.500  29.020  1.00  0.00     0.009 A 
ATOM     53  C   UNL A   1      45.701  32.793  31.334  1.00  0.00     0.009 A 
ATOM     54  C   UNL A   1      46.029  34.785  29.408  1.00  0.00     0.001 A 
ATOM     55  C   UNL A   1      46.063  34.084  31.720  1.00  0.00     0.001 A 
ATOM     56  C   UNL A   1      46.231  35.077  30.757  1.00  0.00     0.000 A 
ENDBRANCH  38  51
ENDBRANCH  12  13
ENDBRANCH   5   7
ENDBRANCH   2   3
ENDBRANCH   1   2
BRANCH   1  57
ATOM     57  C   UNL A   1      36.651  20.743  24.731  1.00  0.00     0.117 C 
BRANCH  57  58
ATOM     58  N   UNL A   1      35.613  20.670  25.740  1.00  0.00    -0.354 N 
ATOM     59  C   UNL A   1      34.648  21.567  26.097  1.00  0.00     0.249 C 
ATOM     60  H   UNL A   1      35.603  19.831  26.256  1.00  0.00     0.163 HD
ATOM     61  O   UNL A   1      34.005  21.295  27.116  1.00  0.00    -0.272 OA
BRANCH  59  62
ATOM     62  C   UNL A   1      34.333  22.814  25.228  1.00  0.00     0.207 C 
ATOM     63  C   UNL A   1      35.047  24.101  25.630  1.00  0.00     0.045 C 
ATOM     64  O   UNL A   1      32.919  23.126  25.268  1.00  0.00    -0.363 OA
ATOM     65  C   UNL A   1      33.987  25.165  25.505  1.00  0.00     0.037 C 
ATOM     66  C   UNL A   1      32.768  24.387  25.942  1.00  0.00     0.138 C 
BRANCH  66  67
ATOM     67  C   UNL A   1      31.406  25.042  25.678  1.00  0.00     0.149 C 
BRANCH  67  68
ATOM     68  N   UNL A   1      31.001  26.029  26.672  1.00  0.00    -0.335 N 
ATOM     69  C   UNL A   1      31.357  27.330  26.770  1.00  0.00     0.317 C 
ATOM     70  H   UNL A   1      30.383  25.704  27.367  1.00  0.00     0.165 HD
ATOM     71  O   UNL A   1      31.523  27.784  27.903  1.00  0.00    -0.249 OA
ATOM     72  N   UNL A   1      31.554  28.068  25.645  1.00  0.00    -0.314 N 
ATOM     73  C   UNL A   1      32.382  29.267  25.712  1.00  0.00     0.182 C 
ATOM     74  C   UNL A   1      30.796  27.944  24.403  1.00  0.00     0.182 C 
ATOM     75  C   UNL A   1      33.280  29.374  24.464  1.00  0.00     0.282 C 
ATOM     76  C   UNL A   1      31.734  28.030  23.189  1.00  0.00     0.282 C 
ATOM     77  N   UNL A   1      32.534  29.276  23.189  1.00  0.00    -0.343 N 
ATOM     78  H   UNL A   1      33.191  29.260  22.409  1.00  0.00     0.346 HD
ATOM     79  H   UNL A   1      31.916  30.080  23.091  1.00  0.00     0.346 HD
ENDBRANCH  67  68
ENDBRANCH  66  67
ENDBRANCH  59  62
ENDBRANCH  57  58
ENDBRANCH   1  57
TORSDOF 12
ENDMDL
MODEL 3
REMARK VINA RESULT:     -11.4      3.315      8.674
REMARK SMILES O=C(NCCCNC(=O)[C@@H]1CC[C@@H](CNC(=O)N2CC[NH2+]CC2)O1)c1ccc(-c2c3nc(c(-c4ccccc4)c4ccc([nH]4)c(-c4ccccc4)c4nc(c(-c5ccccc5)c5ccc2[nH]5)C=C4)C=C3)cc1
REMARK SMILES IDX 5 1 4 2 3 3 1 4 2 5 25 7 26 8 72 9 27 10 71 11 28 12 29 13
REMARK SMILES IDX 30 14 65 15 31 16 70 17 64 18 66 19 32 20 69 21 63 22 62 23
REMARK SMILES IDX 33 25 55 26 40 27 54 28 41 29 44 30 53 31 67 32 42 33 43 34
REMARK SMILES IDX 52 36 68 37 45 38 34 39 35 40 39 41 36 42 38 43 37 44 56 45
REMARK SMILES IDX 57 46 61 47 58 48 60 49 59 50 46 51 47 52 51 53 48 54 50 55
REMARK SMILES IDX 49 56 6 57 7 58 8 59 9 61 10 62 11 63 24 64 12 65 13 66
REMARK SMILES IDX 14 67 15 68 16 69 17 71 18 72 19 73 23 74 20 75 22 76 21 77
REMARK H PARENT 3 6 66 24 44 35 7 60 15 70 21 78 21 79
REMARK Flexibility Score: inf
ROOT
ATOM      1  C   UNL A   1      37.791  19.705  24.912  1.00  0.00     0.042 C 
ENDROOT
BRANCH   1   2
ATOM      2  C   UNL A   1      38.901  20.304  25.772  1.00  0.00     0.118 C 
BRANCH   2   3
ATOM      3  N   UNL A   1      40.036  19.401  25.880  1.00  0.00    -0.352 N 
ATOM      4  O   UNL A   1      42.201  18.805  25.841  1.00  0.00    -0.269 OA
ATOM      5  C   UNL A   1      41.363  19.680  26.072  1.00  0.00     0.251 C 
ATOM      6  H   UNL A   1      39.816  18.445  25.804  1.00  0.00     0.163 HD
BRANCH   5   7
ATOM      7  C   UNL A   1      41.808  21.005  26.554  1.00  0.00     0.039 A 
ATOM      8  C   UNL A   1      42.188  22.014  25.663  1.00  0.00     0.014 A 
ATOM      9  C   UNL A   1      41.744  21.274  27.925  1.00  0.00     0.014 A 
ATOM     10  C   UNL A   1      42.584  23.260  26.146  1.00  0.00     0.010 A 
ATOM     11  C   UNL A   1      42.079  22.543  28.403  1.00  0.00     0.010 A 
ATOM     12  C   UNL A   1      42.512  23.543  27.517  1.00  0.00    -0.014 A 
BRANCH  12  13
ATOM     13  C   UNL A   1      42.815  24.903  28.024  1.00  0.00     0.031 A 
ATOM     14  C   UNL A   1      44.205  25.265  28.460  1.00  0.00     0.074 A 
ATOM     15  C   UNL A   1      41.816  25.798  28.139  1.00  0.00     0.049 A 
ATOM     16  N   UNL A   1      44.633  26.371  29.014  1.00  0.00    -0.248 NA
ATOM     17  C   UNL A   1      45.247  24.248  28.255  1.00  0.00     0.031 C 
ATOM     18  C   UNL A   1      40.423  25.561  27.755  1.00  0.00     0.029 A 
ATOM     19  N   UNL A   1      41.815  27.079  28.629  1.00  0.00    -0.354 N 
ATOM     20  C   UNL A   1      45.987  26.174  29.250  1.00  0.00     0.074 A 
ATOM     21  C   UNL A   1      46.306  24.837  28.796  1.00  0.00     0.031 C 
ATOM     22  C   UNL A   1      39.703  26.662  28.017  1.00  0.00     0.029 A 
ATOM     23  C   UNL A   1      40.569  27.657  28.639  1.00  0.00     0.049 A 
ATOM     24  H   UNL A   1      42.627  27.539  28.942  1.00  0.00     0.167 HD
ATOM     25  C   UNL A   1      46.883  27.031  29.799  1.00  0.00     0.031 A 
ATOM     26  C   UNL A   1      40.158  28.842  29.125  1.00  0.00     0.031 A 
ATOM     27  C   UNL A   1      46.558  28.355  30.259  1.00  0.00     0.049 A 
ATOM     28  C   UNL A   1      41.157  29.761  29.763  1.00  0.00     0.074 A 
ATOM     29  C   UNL A   1      47.402  29.314  30.791  1.00  0.00     0.029 A 
ATOM     30  N   UNL A   1      45.284  28.903  30.250  1.00  0.00    -0.354 N 
ATOM     31  N   UNL A   1      42.443  29.579  29.941  1.00  0.00    -0.248 NA
ATOM     32  C   UNL A   1      40.652  31.046  30.265  1.00  0.00     0.031 C 
ATOM     33  C   UNL A   1      46.630  30.423  31.154  1.00  0.00     0.029 A 
ATOM     34  C   UNL A   1      45.314  30.176  30.795  1.00  0.00     0.049 A 
ATOM     35  H   UNL A   1      44.477  28.454  29.907  1.00  0.00     0.167 HD
ATOM     36  C   UNL A   1      42.907  30.734  30.554  1.00  0.00     0.074 A 
ATOM     37  C   UNL A   1      41.766  31.613  30.711  1.00  0.00     0.031 C 
ATOM     38  C   UNL A   1      44.169  31.039  30.944  1.00  0.00     0.031 A 
BRANCH  25  39
ATOM     39  C   UNL A   1      48.292  26.536  29.970  1.00  0.00    -0.014 A 
ATOM     40  C   UNL A   1      48.689  25.834  31.120  1.00  0.00     0.009 A 
ATOM     41  C   UNL A   1      49.235  26.764  28.956  1.00  0.00     0.009 A 
ATOM     42  C   UNL A   1      50.012  25.413  31.270  1.00  0.00     0.001 A 
ATOM     43  C   UNL A   1      50.550  26.317  29.096  1.00  0.00     0.001 A 
ATOM     44  C   UNL A   1      50.941  25.653  30.257  1.00  0.00     0.000 A 
ENDBRANCH  25  39
BRANCH  26  45
ATOM     45  C   UNL A   1      38.720  29.203  29.034  1.00  0.00    -0.014 A 
ATOM     46  C   UNL A   1      37.871  29.046  30.138  1.00  0.00     0.009 A 
ATOM     47  C   UNL A   1      38.206  29.766  27.853  1.00  0.00     0.009 A 
ATOM     48  C   UNL A   1      36.533  29.441  30.062  1.00  0.00     0.001 A 
ATOM     49  C   UNL A   1      36.875  30.183  27.789  1.00  0.00     0.001 A 
ATOM     50  C   UNL A   1      36.040  30.017  28.891  1.00  0.00     0.000 A 
ENDBRANCH  26  45
BRANCH  38  51
ATOM     51  C   UNL A   1      44.396  32.395  31.547  1.00  0.00    -0.014 A 
ATOM     52  C   UNL A   1      44.678  33.511  30.747  1.00  0.00     0.009 A 
ATOM     53  C   UNL A   1      44.257  32.565  32.934  1.00  0.00     0.009 A 
ATOM     54  C   UNL A   1      44.833  34.772  31.328  1.00  0.00     0.001 A 
ATOM     55  C   UNL A   1      44.389  33.830  33.508  1.00  0.00     0.001 A 
ATOM     56  C   UNL A   1      44.682  34.930  32.706  1.00  0.00     0.000 A 
ENDBRANCH  38  51
ENDBRANCH  12  13
ENDBRANCH   5   7
ENDBRANCH   2   3
ENDBRANCH   1   2
BRANCH   1  57
ATOM     57  C   UNL A   1      36.632  20.672  24.657  1.00  0.00     0.117 C 
BRANCH  57  58
ATOM     58  N   UNL A   1      35.761  20.755  25.814  1.00  0.00    -0.354 N 
ATOM     59  C   UNL A   1      34.894  21.732  26.211  1.00  0.00     0.249 C 
ATOM     60  H   UNL A   1      35.803  19.975  26.413  1.00  0.00     0.163 HD
ATOM     61  O   UNL A   1      34.408  21.599  27.339  1.00  0.00    -0.272 OA
BRANCH  59  62
ATOM     62  C   UNL A   1      34.492  22.897  25.270  1.00  0.00     0.207 C 
ATOM     63  C   UNL A   1      35.126  24.251  25.578  1.00  0.00     0.045 C 
ATOM     64  O   UNL A   1      33.061  23.122  25.309  1.00  0.00    -0.363 OA
ATOM     65  C   UNL A   1      33.999  25.236  25.400  1.00  0.00     0.037 C 
ATOM     66  C   UNL A   1      32.836  24.411  25.903  1.00  0.00     0.138 C 
BRANCH  66  67
ATOM     67  C   UNL A   1      31.433  24.961  25.618  1.00  0.00     0.149 C 
BRANCH  67  68
ATOM     68  N   UNL A   1      30.951  25.939  26.587  1.00  0.00    -0.335 N 
ATOM     69  C   UNL A   1      31.240  27.257  26.676  1.00  0.00     0.317 C 
ATOM     70  H   UNL A   1      30.330  25.592  27.268  1.00  0.00     0.165 HD
ATOM     71  O   UNL A   1      31.351  27.733  27.808  1.00  0.00    -0.249 OA
ATOM     72  N   UNL A   1      31.432  27.990  25.548  1.00  0.00    -0.314 N 
ATOM     73  C   UNL A   1      32.197  29.230  25.622  1.00  0.00     0.182 C 
ATOM     74  C   UNL A   1      30.716  27.814  24.287  1.00  0.00     0.182 C 
ATOM     75  C   UNL A   1      33.124  29.366  24.397  1.00  0.00     0.282 C 
ATOM     76  C   UNL A   1      31.683  27.931  23.098  1.00  0.00     0.282 C 
ATOM     77  N   UNL A   1      32.420  29.215  23.104  1.00  0.00    -0.343 N 
ATOM     78  H   UNL A   1      33.100  29.222  22.343  1.00  0.00     0.346 HD
ATOM     79  H   UNL A   1      31.766  29.987  22.978  1.00  0.00     0.346 HD
ENDBRANCH  67  68
ENDBRANCH  66  67
ENDBRANCH  59  62
ENDBRANCH  57  58
ENDBRANCH   1  57
TORSDOF 12
ENDMDL
