MODEL 1
REMARK VINA RESULT:      -9.5      0.000      0.000
REMARK SMILES C=CCN(CC(=O)NCCCNC(=O)c1ccc(-c2c3nc(c(-c4ccccc4)c4ccc([nH]4)c(-c4ccccc4)c4nc(c(-c5ccccc5)c5ccc2[nH]5)C=C4)C=C3)cc1)C(=O)NC
REMARK SMILES IDX 9 1 8 2 6 3 7 4 5 6 4 7 3 8 2 9 1 10 63 11 64 12 65 13 66 14
REMARK SMILES IDX 10 16 11 17 12 18 13 19 14 21 15 22 16 23 62 24 17 25 61 26
REMARK SMILES IDX 18 27 19 28 20 29 55 30 21 31 60 32 54 33 56 34 22 35 59 36
REMARK SMILES IDX 53 37 52 38 23 40 45 41 30 42 44 43 31 44 34 45 43 46 57 47
REMARK SMILES IDX 32 48 33 49 42 51 58 52 35 53 24 54 25 55 29 56 26 57 28 58
REMARK SMILES IDX 27 59 46 60 47 61 51 62 48 63 50 64 49 65 36 66 37 67 41 68
REMARK SMILES IDX 38 69 40 70 39 71
REMARK H PARENT 8 5 65 15 12 20 56 39 34 50
REMARK Flexibility Score: inf
ROOT
ATOM      1  C   UNL A   1      36.195  20.846  24.929  1.00  0.00     0.117 C 
ENDROOT
BRANCH   1   2
ATOM      2  N   UNL A   1      35.663  21.175  26.234  1.00  0.00    -0.354 N 
ATOM      3  C   UNL A   1      34.459  21.721  26.566  1.00  0.00     0.239 C 
ATOM      4  O   UNL A   1      34.114  21.646  27.749  1.00  0.00    -0.273 OA
ATOM      5  H   UNL A   1      36.258  20.975  26.993  1.00  0.00     0.163 HD
BRANCH   3   6
ATOM      6  C   UNL A   1      33.505  22.285  25.499  1.00  0.00     0.221 C 
BRANCH   6   7
ATOM      7  N   UNL A   1      32.906  23.579  25.832  1.00  0.00    -0.312 N 
BRANCH   7   8
ATOM      8  C   UNL A   1      33.824  24.712  25.971  1.00  0.00     0.149 C 
BRANCH   8   9
ATOM      9  C   UNL A   1      34.062  25.390  24.655  1.00  0.00    -0.013 C 
ATOM     10  C   UNL A   1      33.683  26.652  24.407  1.00  0.00     0.006 C 
ENDBRANCH   8   9
ENDBRANCH   7   8
BRANCH   7  11
ATOM     11  C   UNL A   1      31.580  23.826  26.058  1.00  0.00     0.317 C 
ATOM     12  O   UNL A   1      31.125  23.910  27.205  1.00  0.00    -0.249 OA
ATOM     13  N   UNL A   1      30.667  23.968  25.084  1.00  0.00    -0.341 N 
ATOM     14  C   UNL A   1      30.640  24.012  23.639  1.00  0.00     0.144 C 
ATOM     15  H   UNL A   1      29.763  24.073  25.459  1.00  0.00     0.165 HD
ENDBRANCH   7  11
ENDBRANCH   6   7
ENDBRANCH   3   6
ENDBRANCH   1   2
BRANCH   1  16
ATOM     16  C   UNL A   1      37.360  19.867  24.989  1.00  0.00     0.042 C 
BRANCH  16  17
ATOM     17  C   UNL A   1      38.644  20.466  25.554  1.00  0.00     0.118 C 
BRANCH  17  18
ATOM     18  N   UNL A   1      39.709  19.481  25.701  1.00  0.00    -0.352 N 
ATOM     19  C   UNL A   1      41.026  19.641  26.054  1.00  0.00     0.251 C 
ATOM     20  H   UNL A   1      39.441  18.552  25.516  1.00  0.00     0.163 HD
ATOM     21  O   UNL A   1      41.810  18.703  25.923  1.00  0.00    -0.269 OA
BRANCH  19  22
ATOM     22  C   UNL A   1      41.508  20.935  26.574  1.00  0.00     0.039 A 
ATOM     23  C   UNL A   1      42.087  21.850  25.690  1.00  0.00     0.014 A 
ATOM     24  C   UNL A   1      41.406  21.242  27.933  1.00  0.00     0.014 A 
ATOM     25  C   UNL A   1      42.489  23.103  26.156  1.00  0.00     0.010 A 
ATOM     26  C   UNL A   1      41.730  22.518  28.379  1.00  0.00     0.010 A 
ATOM     27  C   UNL A   1      42.273  23.464  27.495  1.00  0.00    -0.014 A 
BRANCH  27  28
ATOM     28  C   UNL A   1      42.589  24.824  27.997  1.00  0.00     0.031 A 
ATOM     29  C   UNL A   1      43.986  25.160  28.442  1.00  0.00     0.074 A 
ATOM     30  C   UNL A   1      41.600  25.730  28.134  1.00  0.00     0.049 A 
ATOM     31  N   UNL A   1      44.432  26.254  29.005  1.00  0.00    -0.248 NA
ATOM     32  C   UNL A   1      45.010  24.120  28.252  1.00  0.00     0.031 C 
ATOM     33  C   UNL A   1      40.196  25.515  27.772  1.00  0.00     0.029 A 
ATOM     34  N   UNL A   1      41.622  27.008  28.632  1.00  0.00    -0.354 N 
ATOM     35  C   UNL A   1      45.779  26.026  29.256  1.00  0.00     0.074 A 
ATOM     36  C   UNL A   1      46.066  24.675  28.827  1.00  0.00     0.031 C 
ATOM     37  C   UNL A   1      39.499  26.630  28.039  1.00  0.00     0.029 A 
ATOM     38  C   UNL A   1      40.390  27.617  28.640  1.00  0.00     0.049 A 
ATOM     39  H   UNL A   1      42.443  27.448  28.952  1.00  0.00     0.167 HD
ATOM     40  C   UNL A   1      46.697  26.872  29.782  1.00  0.00     0.031 A 
ATOM     41  C   UNL A   1      40.015  28.827  29.097  1.00  0.00     0.031 A 
ATOM     42  C   UNL A   1      46.410  28.216  30.203  1.00  0.00     0.049 A 
ATOM     43  C   UNL A   1      41.048  29.734  29.706  1.00  0.00     0.074 A 
ATOM     44  C   UNL A   1      47.284  29.169  30.696  1.00  0.00     0.029 A 
ATOM     45  N   UNL A   1      45.151  28.796  30.188  1.00  0.00    -0.354 N 
ATOM     46  N   UNL A   1      42.333  29.530  29.872  1.00  0.00    -0.248 NA
ATOM     47  C   UNL A   1      40.581  31.042  30.184  1.00  0.00     0.031 C 
ATOM     48  C   UNL A   1      46.543  30.305  31.037  1.00  0.00     0.029 A 
ATOM     49  C   UNL A   1      45.220  30.085  30.691  1.00  0.00     0.049 A 
ATOM     50  H   UNL A   1      44.330  28.358  29.866  1.00  0.00     0.167 HD
ATOM     51  C   UNL A   1      42.831  30.693  30.443  1.00  0.00     0.074 A 
ATOM     52  C   UNL A   1      41.714  31.605  30.580  1.00  0.00     0.031 C 
ATOM     53  C   UNL A   1      44.101  30.982  30.818  1.00  0.00     0.031 A 
BRANCH  40  54
ATOM     54  C   UNL A   1      48.102  26.357  29.944  1.00  0.00    -0.014 A 
ATOM     55  C   UNL A   1      49.045  26.468  28.910  1.00  0.00     0.009 A 
ATOM     56  C   UNL A   1      48.500  25.792  31.167  1.00  0.00     0.009 A 
ATOM     57  C   UNL A   1      50.346  25.989  29.083  1.00  0.00     0.001 A 
ATOM     58  C   UNL A   1      49.810  25.343  31.348  1.00  0.00     0.001 A 
ATOM     59  C   UNL A   1      50.728  25.432  30.304  1.00  0.00     0.000 A 
ENDBRANCH  40  54
BRANCH  41  60
ATOM     60  C   UNL A   1      38.595  29.256  28.997  1.00  0.00    -0.014 A 
ATOM     61  C   UNL A   1      38.094  29.797  27.803  1.00  0.00     0.009 A 
ATOM     62  C   UNL A   1      37.733  29.138  30.099  1.00  0.00     0.009 A 
ATOM     63  C   UNL A   1      36.772  30.240  27.725  1.00  0.00     0.001 A 
ATOM     64  C   UNL A   1      36.402  29.551  30.008  1.00  0.00     0.001 A 
ATOM     65  C   UNL A   1      35.926  30.112  28.825  1.00  0.00     0.000 A 
ENDBRANCH  41  60
BRANCH  53  66
ATOM     66  C   UNL A   1      44.365  32.355  31.371  1.00  0.00    -0.014 A 
ATOM     67  C   UNL A   1      44.678  33.436  30.532  1.00  0.00     0.009 A 
ATOM     68  C   UNL A   1      44.245  32.578  32.752  1.00  0.00     0.009 A 
ATOM     69  C   UNL A   1      44.893  34.707  31.072  1.00  0.00     0.001 A 
ATOM     70  C   UNL A   1      44.428  33.855  33.283  1.00  0.00     0.001 A 
ATOM     71  C   UNL A   1      44.762  34.916  32.444  1.00  0.00     0.000 A 
ENDBRANCH  53  66
ENDBRANCH  27  28
ENDBRANCH  19  22
ENDBRANCH  17  18
ENDBRANCH  16  17
ENDBRANCH   1  16
TORSDOF 14
ENDMDL
MODEL 2
REMARK VINA RESULT:      -9.4      0.960      1.436
REMARK SMILES C=CCN(CC(=O)NCCCNC(=O)c1ccc(-c2c3nc(c(-c4ccccc4)c4ccc([nH]4)c(-c4ccccc4)c4nc(c(-c5ccccc5)c5ccc2[nH]5)C=C4)C=C3)cc1)C(=O)NC
REMARK SMILES IDX 9 1 8 2 6 3 7 4 5 6 4 7 3 8 2 9 1 10 63 11 64 12 65 13 66 14
REMARK SMILES IDX 10 16 11 17 12 18 13 19 14 21 15 22 16 23 62 24 17 25 61 26
REMARK SMILES IDX 18 27 19 28 20 29 55 30 21 31 60 32 54 33 56 34 22 35 59 36
REMARK SMILES IDX 53 37 52 38 23 40 45 41 30 42 44 43 31 44 34 45 43 46 57 47
REMARK SMILES IDX 32 48 33 49 42 51 58 52 35 53 24 54 25 55 29 56 26 57 28 58
REMARK SMILES IDX 27 59 46 60 47 61 51 62 48 63 50 64 49 65 36 66 37 67 41 68
REMARK SMILES IDX 38 69 40 70 39 71
REMARK H PARENT 8 5 65 15 12 20 56 39 34 50
REMARK Flexibility Score: inf
ROOT
ATOM      1  C   UNL A   1      36.609  20.592  24.880  1.00  0.00     0.117 C 
ENDROOT
BRANCH   1   2
ATOM      2  N   UNL A   1      35.360  19.900  25.116  1.00  0.00    -0.354 N 
ATOM      3  C   UNL A   1      34.085  20.294  24.839  1.00  0.00     0.239 C 
ATOM      4  O   UNL A   1      33.209  19.424  24.868  1.00  0.00    -0.273 OA
ATOM      5  H   UNL A   1      35.444  19.015  25.541  1.00  0.00     0.163 HD
BRANCH   3   6
ATOM      6  C   UNL A   1      33.764  21.724  24.375  1.00  0.00     0.221 C 
BRANCH   6   7
ATOM      7  N   UNL A   1      33.501  22.677  25.456  1.00  0.00    -0.312 N 
BRANCH   7   8
ATOM      8  C   UNL A   1      33.877  24.071  25.210  1.00  0.00     0.149 C 
BRANCH   8   9
ATOM      9  C   UNL A   1      35.357  24.214  25.014  1.00  0.00    -0.013 C 
ATOM     10  C   UNL A   1      36.252  23.869  25.952  1.00  0.00     0.006 C 
ENDBRANCH   8   9
ENDBRANCH   7   8
BRANCH   7  11
ATOM     11  C   UNL A   1      32.972  22.387  26.684  1.00  0.00     0.317 C 
ATOM     12  O   UNL A   1      33.688  22.045  27.632  1.00  0.00    -0.249 OA
ATOM     13  N   UNL A   1      31.658  22.420  26.961  1.00  0.00    -0.341 N 
ATOM     14  C   UNL A   1      30.430  22.778  26.287  1.00  0.00     0.144 C 
ATOM     15  H   UNL A   1      31.483  22.114  27.879  1.00  0.00     0.165 HD
ENDBRANCH   7  11
ENDBRANCH   6   7
ENDBRANCH   3   6
ENDBRANCH   1   2
BRANCH   1  16
ATOM     16  C   UNL A   1      37.820  19.670  24.917  1.00  0.00     0.042 C 
BRANCH  16  17
ATOM     17  C   UNL A   1      39.010  20.242  25.680  1.00  0.00     0.118 C 
BRANCH  17  18
ATOM     18  N   UNL A   1      40.116  19.297  25.790  1.00  0.00    -0.352 N 
ATOM     19  C   UNL A   1      41.443  19.509  26.069  1.00  0.00     0.251 C 
ATOM     20  H   UNL A   1      39.871  18.355  25.640  1.00  0.00     0.163 HD
ATOM     21  O   UNL A   1      42.252  18.596  25.918  1.00  0.00    -0.269 OA
BRANCH  19  22
ATOM     22  C   UNL A   1      41.906  20.831  26.535  1.00  0.00     0.039 A 
ATOM     23  C   UNL A   1      42.406  21.744  25.602  1.00  0.00     0.014 A 
ATOM     24  C   UNL A   1      41.865  21.166  27.890  1.00  0.00     0.014 A 
ATOM     25  C   UNL A   1      42.788  23.021  26.018  1.00  0.00     0.010 A 
ATOM     26  C   UNL A   1      42.167  22.463  28.291  1.00  0.00     0.010 A 
ATOM     27  C   UNL A   1      42.629  23.406  27.359  1.00  0.00    -0.014 A 
BRANCH  27  28
ATOM     28  C   UNL A   1      42.924  24.787  27.813  1.00  0.00     0.031 A 
ATOM     29  C   UNL A   1      44.328  25.179  28.180  1.00  0.00     0.074 A 
ATOM     30  C   UNL A   1      41.913  25.663  27.977  1.00  0.00     0.049 A 
ATOM     31  N   UNL A   1      44.764  26.301  28.696  1.00  0.00    -0.248 NA
ATOM     32  C   UNL A   1      45.377  24.169  27.965  1.00  0.00     0.031 C 
ATOM     33  C   UNL A   1      40.501  25.395  27.690  1.00  0.00     0.029 A 
ATOM     34  N   UNL A   1      41.915  26.954  28.444  1.00  0.00    -0.354 N 
ATOM     35  C   UNL A   1      46.128  26.122  28.886  1.00  0.00     0.074 A 
ATOM     36  C   UNL A   1      46.440  24.771  28.474  1.00  0.00     0.031 C 
ATOM     37  C   UNL A   1      39.780  26.493  27.966  1.00  0.00     0.029 A 
ATOM     38  C   UNL A   1      40.666  27.523  28.499  1.00  0.00     0.049 A 
ATOM     39  H   UNL A   1      42.736  27.428  28.714  1.00  0.00     0.167 HD
ATOM     40  C   UNL A   1      47.042  27.010  29.346  1.00  0.00     0.031 A 
ATOM     41  C   UNL A   1      40.273  28.731  28.946  1.00  0.00     0.031 A 
ATOM     42  C   UNL A   1      46.730  28.354  29.750  1.00  0.00     0.049 A 
ATOM     43  C   UNL A   1      41.303  29.685  29.482  1.00  0.00     0.074 A 
ATOM     44  C   UNL A   1      47.595  29.347  30.178  1.00  0.00     0.029 A 
ATOM     45  N   UNL A   1      45.454  28.893  29.784  1.00  0.00    -0.354 N 
ATOM     46  N   UNL A   1      42.601  29.527  29.590  1.00  0.00    -0.248 NA
ATOM     47  C   UNL A   1      40.816  30.989  29.953  1.00  0.00     0.031 C 
ATOM     48  C   UNL A   1      46.834  30.466  30.528  1.00  0.00     0.029 A 
ATOM     49  C   UNL A   1      45.504  30.195  30.253  1.00  0.00     0.049 A 
ATOM     50  H   UNL A   1      44.634  28.421  29.513  1.00  0.00     0.167 HD
ATOM     51  C   UNL A   1      43.086  30.719  30.109  1.00  0.00     0.074 A 
ATOM     52  C   UNL A   1      41.947  31.598  30.280  1.00  0.00     0.031 C 
ATOM     53  C   UNL A   1      44.363  31.058  30.414  1.00  0.00     0.031 A 
BRANCH  40  54
ATOM     54  C   UNL A   1      48.470  26.545  29.451  1.00  0.00    -0.014 A 
ATOM     55  C   UNL A   1      49.352  26.644  28.364  1.00  0.00     0.009 A 
ATOM     56  C   UNL A   1      48.950  26.041  30.671  1.00  0.00     0.009 A 
ATOM     57  C   UNL A   1      50.675  26.212  28.484  1.00  0.00     0.001 A 
ATOM     58  C   UNL A   1      50.282  25.640  30.797  1.00  0.00     0.001 A 
ATOM     59  C   UNL A   1      51.140  25.716  29.701  1.00  0.00     0.000 A 
ENDBRANCH  40  54
BRANCH  41  60
ATOM     60  C   UNL A   1      38.836  29.110  28.907  1.00  0.00    -0.014 A 
ATOM     61  C   UNL A   1      37.998  28.849  30.001  1.00  0.00     0.009 A 
ATOM     62  C   UNL A   1      38.290  29.726  27.769  1.00  0.00     0.009 A 
ATOM     63  C   UNL A   1      36.639  29.166  29.946  1.00  0.00     0.001 A 
ATOM     64  C   UNL A   1      36.937  30.072  27.729  1.00  0.00     0.001 A 
ATOM     65  C   UNL A   1      36.111  29.782  28.812  1.00  0.00     0.000 A 
ENDBRANCH  41  60
BRANCH  53  66
ATOM     66  C   UNL A   1      44.606  32.452  30.923  1.00  0.00    -0.014 A 
ATOM     67  C   UNL A   1      44.616  32.740  32.297  1.00  0.00     0.009 A 
ATOM     68  C   UNL A   1      44.883  33.482  30.010  1.00  0.00     0.009 A 
ATOM     69  C   UNL A   1      44.869  34.040  32.742  1.00  0.00     0.001 A 
ATOM     70  C   UNL A   1      45.168  34.771  30.460  1.00  0.00     0.001 A 
ATOM     71  C   UNL A   1      45.152  35.051  31.825  1.00  0.00     0.000 A 
ENDBRANCH  53  66
ENDBRANCH  27  28
ENDBRANCH  19  22
ENDBRANCH  17  18
ENDBRANCH  16  17
ENDBRANCH   1  16
TORSDOF 14
ENDMDL
MODEL 3
REMARK VINA RESULT:      -9.3      3.938      9.013
REMARK SMILES C=CCN(CC(=O)NCCCNC(=O)c1ccc(-c2c3nc(c(-c4ccccc4)c4ccc([nH]4)c(-c4ccccc4)c4nc(c(-c5ccccc5)c5ccc2[nH]5)C=C4)C=C3)cc1)C(=O)NC
REMARK SMILES IDX 9 1 8 2 6 3 7 4 5 6 4 7 3 8 2 9 1 10 63 11 64 12 65 13 66 14
REMARK SMILES IDX 10 16 11 17 12 18 13 19 14 21 15 22 16 23 62 24 17 25 61 26
REMARK SMILES IDX 18 27 19 28 20 29 55 30 21 31 60 32 54 33 56 34 22 35 59 36
REMARK SMILES IDX 53 37 52 38 23 40 45 41 30 42 44 43 31 44 34 45 43 46 57 47
REMARK SMILES IDX 32 48 33 49 42 51 58 52 35 53 24 54 25 55 29 56 26 57 28 58
REMARK SMILES IDX 27 59 46 60 47 61 51 62 48 63 50 64 49 65 36 66 37 67 41 68
REMARK SMILES IDX 38 69 40 70 39 71
REMARK H PARENT 8 5 65 15 12 20 56 39 34 50
REMARK Flexibility Score: inf
ROOT
ATOM      1  C   UNL A   1      31.552  30.470  25.805  1.00  0.00     0.117 C 
ENDROOT
BRANCH   1   2
ATOM      2  N   UNL A   1      30.745  30.417  24.606  1.00  0.00    -0.354 N 
ATOM      3  C   UNL A   1      30.527  29.376  23.754  1.00  0.00     0.239 C 
ATOM      4  O   UNL A   1      29.582  29.482  22.965  1.00  0.00    -0.273 OA
ATOM      5  H   UNL A   1      30.286  31.256  24.370  1.00  0.00     0.163 HD
BRANCH   3   6
ATOM      6  C   UNL A   1      31.327  28.067  23.855  1.00  0.00     0.221 C 
BRANCH   6   7
ATOM      7  N   UNL A   1      30.651  26.986  24.575  1.00  0.00    -0.312 N 
BRANCH   7   8
ATOM      8  C   UNL A   1      31.103  26.724  25.943  1.00  0.00     0.149 C 
BRANCH   8   9
ATOM      9  C   UNL A   1      32.600  26.723  26.036  1.00  0.00    -0.013 C 
ATOM     10  C   UNL A   1      33.333  25.603  25.957  1.00  0.00     0.006 C 
ENDBRANCH   8   9
ENDBRANCH   7   8
BRANCH   7  11
ATOM     11  C   UNL A   1      29.664  26.176  24.085  1.00  0.00     0.317 C 
ATOM     12  O   UNL A   1      28.488  26.554  24.026  1.00  0.00    -0.249 OA
ATOM     13  N   UNL A   1      29.868  24.919  23.658  1.00  0.00    -0.341 N 
ATOM     14  C   UNL A   1      30.986  24.023  23.463  1.00  0.00     0.144 C 
ATOM     15  H   UNL A   1      29.019  24.488  23.408  1.00  0.00     0.165 HD
ENDBRANCH   7  11
ENDBRANCH   6   7
ENDBRANCH   3   6
ENDBRANCH   1   2
BRANCH   1  16
ATOM     16  C   UNL A   1      31.344  31.746  26.610  1.00  0.00     0.042 C 
BRANCH  16  17
ATOM     17  C   UNL A   1      32.632  32.343  27.167  1.00  0.00     0.118 C 
BRANCH  17  18
ATOM     18  N   UNL A   1      32.462  33.714  27.635  1.00  0.00    -0.352 N 
ATOM     19  C   UNL A   1      33.180  34.435  28.556  1.00  0.00     0.251 C 
ATOM     20  H   UNL A   1      31.711  34.200  27.225  1.00  0.00     0.163 HD
ATOM     21  O   UNL A   1      32.749  35.515  28.956  1.00  0.00    -0.269 OA
BRANCH  19  22
ATOM     22  C   UNL A   1      34.459  33.916  29.079  1.00  0.00     0.039 A 
ATOM     23  C   UNL A   1      34.452  33.134  30.238  1.00  0.00     0.014 A 
ATOM     24  C   UNL A   1      35.665  34.211  28.441  1.00  0.00     0.014 A 
ATOM     25  C   UNL A   1      35.645  32.582  30.708  1.00  0.00     0.010 A 
ATOM     26  C   UNL A   1      36.839  33.595  28.861  1.00  0.00     0.010 A 
ATOM     27  C   UNL A   1      36.841  32.771  29.998  1.00  0.00    -0.014 A 
BRANCH  27  28
ATOM     28  C   UNL A   1      38.105  32.112  30.411  1.00  0.00     0.031 A 
ATOM     29  C   UNL A   1      39.045  32.804  31.358  1.00  0.00     0.074 A 
ATOM     30  C   UNL A   1      38.447  30.928  29.864  1.00  0.00     0.049 A 
ATOM     31  N   UNL A   1      40.239  32.438  31.751  1.00  0.00    -0.248 NA
ATOM     32  C   UNL A   1      38.596  34.089  31.917  1.00  0.00     0.031 C 
ATOM     33  C   UNL A   1      37.638  30.170  28.905  1.00  0.00     0.029 A 
ATOM     34  N   UNL A   1      39.574  30.162  30.023  1.00  0.00    -0.354 N 
ATOM     35  C   UNL A   1      40.690  33.455  32.583  1.00  0.00     0.074 A 
ATOM     36  C   UNL A   1      39.663  34.473  32.601  1.00  0.00     0.031 C 
ATOM     37  C   UNL A   1      38.285  29.041  28.580  1.00  0.00     0.029 A 
ATOM     38  C   UNL A   1      39.575  29.018  29.263  1.00  0.00     0.049 A 
ATOM     39  H   UNL A   1      40.313  30.409  30.627  1.00  0.00     0.167 HD
ATOM     40  C   UNL A   1      41.848  33.526  33.281  1.00  0.00     0.031 A 
ATOM     41  C   UNL A   1      40.516  28.066  29.115  1.00  0.00     0.031 A 
ATOM     42  C   UNL A   1      42.866  32.510  33.264  1.00  0.00     0.049 A 
ATOM     43  C   UNL A   1      41.806  28.186  29.877  1.00  0.00     0.074 A 
ATOM     44  C   UNL A   1      44.049  32.465  33.981  1.00  0.00     0.029 A 
ATOM     45  N   UNL A   1      42.825  31.364  32.486  1.00  0.00    -0.354 N 
ATOM     46  N   UNL A   1      42.189  29.119  30.714  1.00  0.00    -0.248 NA
ATOM     47  C   UNL A   1      42.793  27.115  29.678  1.00  0.00     0.031 C 
ATOM     48  C   UNL A   1      44.752  31.322  33.590  1.00  0.00     0.029 A 
ATOM     49  C   UNL A   1      43.975  30.619  32.683  1.00  0.00     0.049 A 
ATOM     50  H   UNL A   1      42.086  31.115  31.884  1.00  0.00     0.167 HD
ATOM     51  C   UNL A   1      43.444  28.733  31.165  1.00  0.00     0.074 A 
ATOM     52  C   UNL A   1      43.752  27.473  30.522  1.00  0.00     0.031 C 
ATOM     53  C   UNL A   1      44.267  29.365  32.038  1.00  0.00     0.031 A 
BRANCH  40  54
ATOM     54  C   UNL A   1      42.083  34.758  34.113  1.00  0.00    -0.014 A 
ATOM     55  C   UNL A   1      41.704  34.810  35.463  1.00  0.00     0.009 A 
ATOM     56  C   UNL A   1      42.731  35.867  33.547  1.00  0.00     0.009 A 
ATOM     57  C   UNL A   1      41.936  35.961  36.221  1.00  0.00     0.001 A 
ATOM     58  C   UNL A   1      42.991  37.005  34.315  1.00  0.00     0.001 A 
ATOM     59  C   UNL A   1      42.583  37.055  35.647  1.00  0.00     0.000 A 
ENDBRANCH  40  54
BRANCH  41  60
ATOM     60  C   UNL A   1      40.275  26.911  28.209  1.00  0.00    -0.014 A 
ATOM     61  C   UNL A   1      39.592  25.775  28.667  1.00  0.00     0.009 A 
ATOM     62  C   UNL A   1      40.737  26.934  26.883  1.00  0.00     0.009 A 
ATOM     63  C   UNL A   1      39.405  24.674  27.828  1.00  0.00     0.001 A 
ATOM     64  C   UNL A   1      40.520  25.845  26.037  1.00  0.00     0.001 A 
ATOM     65  C   UNL A   1      39.865  24.712  26.512  1.00  0.00     0.000 A 
ENDBRANCH  41  60
BRANCH  53  66
ATOM     66  C   UNL A   1      45.562  28.684  32.385  1.00  0.00    -0.014 A 
ATOM     67  C   UNL A   1      45.643  27.755  33.434  1.00  0.00     0.009 A 
ATOM     68  C   UNL A   1      46.705  28.941  31.613  1.00  0.00     0.009 A 
ATOM     69  C   UNL A   1      46.854  27.118  33.718  1.00  0.00     0.001 A 
ATOM     70  C   UNL A   1      47.904  28.279  31.879  1.00  0.00     0.001 A 
ATOM     71  C   UNL A   1      47.980  27.376  32.937  1.00  0.00     0.000 A 
ENDBRANCH  53  66
ENDBRANCH  27  28
ENDBRANCH  19  22
ENDBRANCH  17  18
ENDBRANCH  16  17
ENDBRANCH   1  16
TORSDOF 14
ENDMDL
