MODEL 1
REMARK VINA RESULT:     -11.5      0.000      0.000
REMARK SMILES C[C@@H]1C[N@@H+](Cc2cccc(C(=O)NCCCNC(=O)c3ccc(-c4c5nc(c(-c6ccccc6)c6ccc([nH]6)c(-c6ccccc6)c6nc(c(-c7ccccc7)c7ccc4[nH]7)C=C6)C=C5)cc3)c2)CCN1C(=O)OC(C)(C)C
REMARK SMILES IDX 11 1 12 2 13 3 10 5 6 6 7 7 68 8 8 9 9 10 5 11 4 12 1 13
REMARK SMILES IDX 2 14 3 15 71 16 70 17 69 18 72 20 73 21 74 22 75 23 76 24
REMARK SMILES IDX 77 25 78 26 14 27 15 28 16 29 17 30 18 31 19 33 20 34 21 35
REMARK SMILES IDX 67 36 22 37 66 38 23 39 24 40 25 41 60 42 26 43 65 44 59 45
REMARK SMILES IDX 61 46 27 47 64 48 58 49 57 50 28 52 50 53 35 54 49 55 36 56
REMARK SMILES IDX 39 57 48 58 62 59 37 60 38 61 47 63 63 64 40 65 29 66 30 67
REMARK SMILES IDX 34 68 31 69 33 70 32 71 51 72 52 73 56 74 53 75 55 76 54 77
REMARK SMILES IDX 41 78 42 79 46 80 43 81 45 82 44 83
REMARK H PARENT 13 4 4 19 17 32 61 51 39 62
REMARK Flexibility Score: inf
ROOT
ATOM      1  C   UNL A   1      34.029  19.646  25.012  1.00  0.00     0.251 C 
ATOM      2  O   UNL A   1      33.385  18.615  24.815  1.00  0.00    -0.269 OA
ATOM      3  N   UNL A   1      35.399  19.546  24.970  1.00  0.00    -0.352 N 
ATOM      4  H   UNL A   1      35.733  18.623  24.886  1.00  0.00     0.163 HD
ENDROOT
BRANCH   1   5
ATOM      5  C   UNL A   1      33.294  20.932  25.216  1.00  0.00     0.040 A 
ATOM      6  C   UNL A   1      31.727  22.697  24.548  1.00  0.00     0.007 A 
ATOM      7  C   UNL A   1      31.838  23.262  25.824  1.00  0.00     0.009 A 
ATOM      8  C   UNL A   1      32.539  21.586  24.237  1.00  0.00     0.023 A 
ATOM      9  C   UNL A   1      32.684  22.694  26.777  1.00  0.00     0.001 A 
ATOM     10  C   UNL A   1      33.382  21.521  26.484  1.00  0.00     0.014 A 
BRANCH   6  11
ATOM     11  C   UNL A   1      30.735  23.263  23.538  1.00  0.00     0.299 C 
BRANCH  11  12
ATOM     12  N   UNL A   1      31.148  24.465  22.776  1.00  0.00    -0.328 N 
ATOM     13  C   UNL A   1      32.627  25.835  20.327  1.00  0.00     0.037 C 
ATOM     14  C   UNL A   1      33.046  25.868  21.801  1.00  0.00     0.140 C 
ATOM     15  C   UNL A   1      32.612  24.565  22.556  1.00  0.00     0.287 C 
ATOM     16  N   UNL A   1      32.464  27.043  22.475  1.00  0.00    -0.294 N 
ATOM     17  C   UNL A   1      31.015  26.993  22.625  1.00  0.00     0.185 C 
ATOM     18  C   UNL A   1      30.631  25.711  23.369  1.00  0.00     0.284 C 
ATOM     19  H   UNL A   1      30.720  24.344  21.857  1.00  0.00     0.348 HD
BRANCH  16  20
ATOM     20  C   UNL A   1      33.181  28.012  23.156  1.00  0.00     0.410 C 
ATOM     21  O   UNL A   1      34.223  28.490  22.727  1.00  0.00    -0.224 OA
BRANCH  20  22
ATOM     22  O   UNL A   1      32.611  28.368  24.340  1.00  0.00    -0.444 OA
BRANCH  22  23
ATOM     23  C   UNL A   1      33.166  27.886  25.597  1.00  0.00     0.106 C 
ATOM     24  C   UNL A   1      33.766  26.483  25.437  1.00  0.00     0.056 C 
ATOM     25  C   UNL A   1      34.179  28.872  26.193  1.00  0.00     0.056 C 
ATOM     26  C   UNL A   1      31.969  27.791  26.556  1.00  0.00     0.056 C 
ENDBRANCH  22  23
ENDBRANCH  20  22
ENDBRANCH  16  20
ENDBRANCH  11  12
ENDBRANCH   6  11
ENDBRANCH   1   5
BRANCH   3  27
ATOM     27  C   UNL A   1      36.444  20.548  25.026  1.00  0.00     0.118 C 
BRANCH  27  28
ATOM     28  C   UNL A   1      37.813  19.943  24.721  1.00  0.00     0.042 C 
BRANCH  28  29
ATOM     29  C   UNL A   1      38.840  20.261  25.798  1.00  0.00     0.118 C 
BRANCH  29  30
ATOM     30  N   UNL A   1      39.870  19.232  25.885  1.00  0.00    -0.352 N 
ATOM     31  C   UNL A   1      41.220  19.353  26.103  1.00  0.00     0.251 C 
ATOM     32  H   UNL A   1      39.548  18.309  25.768  1.00  0.00     0.163 HD
ATOM     33  O   UNL A   1      41.954  18.380  25.958  1.00  0.00    -0.269 OA
BRANCH  31  34
ATOM     34  C   UNL A   1      41.798  20.655  26.491  1.00  0.00     0.039 A 
ATOM     35  C   UNL A   1      42.100  21.583  25.488  1.00  0.00     0.014 A 
ATOM     36  C   UNL A   1      42.054  20.961  27.829  1.00  0.00     0.014 A 
ATOM     37  C   UNL A   1      42.600  22.839  25.836  1.00  0.00     0.010 A 
ATOM     38  C   UNL A   1      42.464  22.241  28.178  1.00  0.00     0.010 A 
ATOM     39  C   UNL A   1      42.750  23.190  27.186  1.00  0.00    -0.014 A 
BRANCH  39  40
ATOM     40  C   UNL A   1      43.216  24.540  27.590  1.00  0.00     0.031 A 
ATOM     41  C   UNL A   1      42.216  25.588  27.992  1.00  0.00     0.074 A 
ATOM     42  C   UNL A   1      44.527  24.841  27.524  1.00  0.00     0.049 A 
ATOM     43  N   UNL A   1      42.413  26.847  28.289  1.00  0.00    -0.248 NA
ATOM     44  C   UNL A   1      40.803  25.174  28.037  1.00  0.00     0.031 C 
ATOM     45  C   UNL A   1      45.591  23.919  27.123  1.00  0.00     0.029 A 
ATOM     46  N   UNL A   1      45.185  26.015  27.786  1.00  0.00    -0.354 N 
ATOM     47  C   UNL A   1      41.152  27.376  28.535  1.00  0.00     0.074 A 
ATOM     48  C   UNL A   1      40.194  26.321  28.295  1.00  0.00     0.031 C 
ATOM     49  C   UNL A   1      46.772  24.552  27.197  1.00  0.00     0.029 A 
ATOM     50  C   UNL A   1      46.544  25.936  27.598  1.00  0.00     0.049 A 
ATOM     51  H   UNL A   1      44.729  26.836  28.081  1.00  0.00     0.167 HD
ATOM     52  C   UNL A   1      40.822  28.624  28.945  1.00  0.00     0.031 A 
ATOM     53  C   UNL A   1      47.499  26.877  27.726  1.00  0.00     0.031 A 
ATOM     54  C   UNL A   1      41.779  29.671  29.183  1.00  0.00     0.049 A 
ATOM     55  C   UNL A   1      47.102  28.267  28.140  1.00  0.00     0.074 A 
ATOM     56  C   UNL A   1      41.554  30.957  29.643  1.00  0.00     0.029 A 
ATOM     57  N   UNL A   1      43.144  29.552  28.973  1.00  0.00    -0.354 N 
ATOM     58  N   UNL A   1      45.913  28.737  28.428  1.00  0.00    -0.248 NA
ATOM     59  C   UNL A   1      48.186  29.254  28.255  1.00  0.00     0.031 C 
ATOM     60  C   UNL A   1      42.776  31.635  29.652  1.00  0.00     0.029 A 
ATOM     61  C   UNL A   1      43.772  30.751  29.267  1.00  0.00     0.049 A 
ATOM     62  H   UNL A   1      43.599  28.737  28.662  1.00  0.00     0.167 HD
ATOM     63  C   UNL A   1      46.108  30.064  28.791  1.00  0.00     0.074 A 
ATOM     64  C   UNL A   1      47.531  30.319  28.699  1.00  0.00     0.031 C 
ATOM     65  C   UNL A   1      45.190  30.987  29.171  1.00  0.00     0.031 A 
BRANCH  52  66
ATOM     66  C   UNL A   1      39.360  28.920  29.146  1.00  0.00    -0.014 A 
ATOM     67  C   UNL A   1      38.564  29.414  28.099  1.00  0.00     0.009 A 
ATOM     68  C   UNL A   1      38.764  28.687  30.395  1.00  0.00     0.009 A 
ATOM     69  C   UNL A   1      37.218  29.716  28.313  1.00  0.00     0.001 A 
ATOM     70  C   UNL A   1      37.409  28.956  30.597  1.00  0.00     0.001 A 
ATOM     71  C   UNL A   1      36.640  29.483  29.560  1.00  0.00     0.000 A 
ENDBRANCH  52  66
BRANCH  53  72
ATOM     72  C   UNL A   1      48.922  26.532  27.474  1.00  0.00    -0.014 A 
ATOM     73  C   UNL A   1      49.740  26.083  28.523  1.00  0.00     0.009 A 
ATOM     74  C   UNL A   1      49.474  26.647  26.188  1.00  0.00     0.009 A 
ATOM     75  C   UNL A   1      51.085  25.783  28.294  1.00  0.00     0.001 A 
ATOM     76  C   UNL A   1      50.811  26.316  25.957  1.00  0.00     0.001 A 
ATOM     77  C   UNL A   1      51.617  25.894  27.011  1.00  0.00     0.000 A 
ENDBRANCH  53  72
BRANCH  65  78
ATOM     78  C   UNL A   1      45.699  32.346  29.563  1.00  0.00    -0.014 A 
ATOM     79  C   UNL A   1      46.110  32.626  30.874  1.00  0.00     0.009 A 
ATOM     80  C   UNL A   1      45.820  33.345  28.584  1.00  0.00     0.009 A 
ATOM     81  C   UNL A   1      46.603  33.891  31.204  1.00  0.00     0.001 A 
ATOM     82  C   UNL A   1      46.345  34.597  28.908  1.00  0.00     0.001 A 
ATOM     83  C   UNL A   1      46.727  34.872  30.220  1.00  0.00     0.000 A 
ENDBRANCH  65  78
ENDBRANCH  39  40
ENDBRANCH  31  34
ENDBRANCH  29  30
ENDBRANCH  28  29
ENDBRANCH  27  28
ENDBRANCH   3  27
TORSDOF 15
ENDMDL
MODEL 2
REMARK VINA RESULT:     -11.4      1.866      6.234
REMARK SMILES C[C@@H]1C[N@@H+](Cc2cccc(C(=O)NCCCNC(=O)c3ccc(-c4c5nc(c(-c6ccccc6)c6ccc([nH]6)c(-c6ccccc6)c6nc(c(-c7ccccc7)c7ccc4[nH]7)C=C6)C=C5)cc3)c2)CCN1C(=O)OC(C)(C)C
REMARK SMILES IDX 11 1 12 2 13 3 10 5 6 6 7 7 68 8 8 9 9 10 5 11 4 12 1 13
REMARK SMILES IDX 2 14 3 15 71 16 70 17 69 18 72 20 73 21 74 22 75 23 76 24
REMARK SMILES IDX 77 25 78 26 14 27 15 28 16 29 17 30 18 31 19 33 20 34 21 35
REMARK SMILES IDX 67 36 22 37 66 38 23 39 24 40 25 41 60 42 26 43 65 44 59 45
REMARK SMILES IDX 61 46 27 47 64 48 58 49 57 50 28 52 50 53 35 54 49 55 36 56
REMARK SMILES IDX 39 57 48 58 62 59 37 60 38 61 47 63 63 64 40 65 29 66 30 67
REMARK SMILES IDX 34 68 31 69 33 70 32 71 51 72 52 73 56 74 53 75 55 76 54 77
REMARK SMILES IDX 41 78 42 79 46 80 43 81 45 82 44 83
REMARK H PARENT 13 4 4 19 17 32 61 51 39 62
REMARK Flexibility Score: inf
ROOT
ATOM      1  C   UNL A   1      34.889  21.450  26.113  1.00  0.00     0.251 C 
ATOM      2  O   UNL A   1      34.472  21.450  27.271  1.00  0.00    -0.269 OA
ATOM      3  N   UNL A   1      36.231  21.214  25.930  1.00  0.00    -0.352 N 
ATOM      4  H   UNL A   1      36.749  21.170  26.767  1.00  0.00     0.163 HD
ENDROOT
BRANCH   1   5
ATOM      5  C   UNL A   1      33.917  21.638  24.992  1.00  0.00     0.040 A 
ATOM      6  C   UNL A   1      32.828  22.943  23.224  1.00  0.00     0.007 A 
ATOM      7  C   UNL A   1      32.185  21.782  22.779  1.00  0.00     0.009 A 
ATOM      8  C   UNL A   1      33.615  22.864  24.392  1.00  0.00     0.023 A 
ATOM      9  C   UNL A   1      32.377  20.570  23.443  1.00  0.00     0.001 A 
ATOM     10  C   UNL A   1      33.260  20.493  24.521  1.00  0.00     0.014 A 
BRANCH   6  11
ATOM     11  C   UNL A   1      32.690  24.246  22.445  1.00  0.00     0.299 C 
BRANCH  11  12
ATOM     12  N   UNL A   1      32.226  25.441  23.190  1.00  0.00    -0.328 N 
ATOM     13  C   UNL A   1      30.546  26.790  25.517  1.00  0.00     0.037 C 
ATOM     14  C   UNL A   1      30.267  26.858  24.011  1.00  0.00     0.140 C 
ATOM     15  C   UNL A   1      30.749  25.562  23.274  1.00  0.00     0.287 C 
ATOM     16  N   UNL A   1      30.927  28.035  23.418  1.00  0.00    -0.294 N 
ATOM     17  C   UNL A   1      32.383  27.963  23.403  1.00  0.00     0.185 C 
ATOM     18  C   UNL A   1      32.815  26.689  22.672  1.00  0.00     0.284 C 
ATOM     19  H   UNL A   1      32.564  25.296  24.142  1.00  0.00     0.348 HD
BRANCH  16  20
ATOM     20  C   UNL A   1      30.292  29.029  22.693  1.00  0.00     0.410 C 
ATOM     21  O   UNL A   1      30.501  29.219  21.502  1.00  0.00    -0.224 OA
BRANCH  20  22
ATOM     22  O   UNL A   1      29.423  29.764  23.440  1.00  0.00    -0.444 OA
BRANCH  22  23
ATOM     23  C   UNL A   1      28.113  30.114  22.911  1.00  0.00     0.106 C 
ATOM     24  C   UNL A   1      27.451  31.214  23.752  1.00  0.00     0.056 C 
ATOM     25  C   UNL A   1      28.174  30.494  21.426  1.00  0.00     0.056 C 
ATOM     26  C   UNL A   1      27.270  28.835  23.044  1.00  0.00     0.056 C 
ENDBRANCH  22  23
ENDBRANCH  20  22
ENDBRANCH  16  20
ENDBRANCH  11  12
ENDBRANCH   6  11
ENDBRANCH   1   5
BRANCH   3  27
ATOM     27  C   UNL A   1      37.025  21.019  24.734  1.00  0.00     0.118 C 
BRANCH  27  28
ATOM     28  C   UNL A   1      38.010  19.864  24.902  1.00  0.00     0.042 C 
BRANCH  28  29
ATOM     29  C   UNL A   1      39.011  20.114  26.021  1.00  0.00     0.118 C 
BRANCH  29  30
ATOM     30  N   UNL A   1      40.202  19.285  25.877  1.00  0.00    -0.352 N 
ATOM     31  C   UNL A   1      41.528  19.617  26.001  1.00  0.00     0.251 C 
ATOM     32  H   UNL A   1      40.028  18.341  25.655  1.00  0.00     0.163 HD
ATOM     33  O   UNL A   1      42.396  18.820  25.660  1.00  0.00    -0.269 OA
BRANCH  31  34
ATOM     34  C   UNL A   1      41.917  20.943  26.524  1.00  0.00     0.039 A 
ATOM     35  C   UNL A   1      42.285  21.942  25.617  1.00  0.00     0.014 A 
ATOM     36  C   UNL A   1      41.931  21.201  27.896  1.00  0.00     0.014 A 
ATOM     37  C   UNL A   1      42.607  23.217  26.086  1.00  0.00     0.010 A 
ATOM     38  C   UNL A   1      42.162  22.492  28.353  1.00  0.00     0.010 A 
ATOM     39  C   UNL A   1      42.512  23.511  27.454  1.00  0.00    -0.014 A 
BRANCH  39  40
ATOM     40  C   UNL A   1      42.783  24.873  27.977  1.00  0.00     0.031 A 
ATOM     41  C   UNL A   1      44.177  25.248  28.400  1.00  0.00     0.074 A 
ATOM     42  C   UNL A   1      41.767  25.741  28.139  1.00  0.00     0.049 A 
ATOM     43  N   UNL A   1      44.599  26.351  28.964  1.00  0.00    -0.248 NA
ATOM     44  C   UNL A   1      45.229  24.239  28.190  1.00  0.00     0.031 C 
ATOM     45  C   UNL A   1      40.368  25.485  27.791  1.00  0.00     0.029 A 
ATOM     46  N   UNL A   1      41.755  27.015  28.646  1.00  0.00    -0.354 N 
ATOM     47  C   UNL A   1      45.957  26.159  29.191  1.00  0.00     0.074 A 
ATOM     48  C   UNL A   1      46.274  24.816  28.761  1.00  0.00     0.031 C 
ATOM     49  C   UNL A   1      39.640  26.579  28.065  1.00  0.00     0.029 A 
ATOM     50  C   UNL A   1      40.509  27.591  28.655  1.00  0.00     0.049 A 
ATOM     51  H   UNL A   1      42.564  27.474  28.972  1.00  0.00     0.167 HD
ATOM     52  C   UNL A   1      46.863  27.030  29.694  1.00  0.00     0.031 A 
ATOM     53  C   UNL A   1      40.108  28.798  29.099  1.00  0.00     0.031 A 
ATOM     54  C   UNL A   1      46.543  28.366  30.121  1.00  0.00     0.049 A 
ATOM     55  C   UNL A   1      41.126  29.732  29.693  1.00  0.00     0.074 A 
ATOM     56  C   UNL A   1      47.395  29.345  30.602  1.00  0.00     0.029 A 
ATOM     57  N   UNL A   1      45.268  28.907  30.121  1.00  0.00    -0.354 N 
ATOM     58  N   UNL A   1      42.417  29.560  29.847  1.00  0.00    -0.248 NA
ATOM     59  C   UNL A   1      40.630  31.032  30.168  1.00  0.00     0.031 C 
ATOM     60  C   UNL A   1      46.624  30.457  30.952  1.00  0.00     0.029 A 
ATOM     61  C   UNL A   1      45.304  30.198  30.622  1.00  0.00     0.049 A 
ATOM     62  H   UNL A   1      44.457  28.444  29.811  1.00  0.00     0.167 HD
ATOM     63  C   UNL A   1      42.893  30.740  30.403  1.00  0.00     0.074 A 
ATOM     64  C   UNL A   1      41.753  31.624  30.548  1.00  0.00     0.031 C 
ATOM     65  C   UNL A   1      44.160  31.065  30.757  1.00  0.00     0.031 A 
BRANCH  52  66
ATOM     66  C   UNL A   1      48.285  26.551  29.820  1.00  0.00    -0.014 A 
ATOM     67  C   UNL A   1      49.231  26.796  28.812  1.00  0.00     0.009 A 
ATOM     68  C   UNL A   1      48.689  25.856  30.971  1.00  0.00     0.009 A 
ATOM     69  C   UNL A   1      50.536  26.314  28.930  1.00  0.00     0.001 A 
ATOM     70  C   UNL A   1      50.004  25.406  31.103  1.00  0.00     0.001 A 
ATOM     71  C   UNL A   1      50.923  25.623  30.078  1.00  0.00     0.000 A 
ENDBRANCH  52  66
BRANCH  53  72
ATOM     72  C   UNL A   1      38.681  29.198  28.983  1.00  0.00    -0.014 A 
ATOM     73  C   UNL A   1      37.818  29.076  30.084  1.00  0.00     0.009 A 
ATOM     74  C   UNL A   1      38.172  29.704  27.777  1.00  0.00     0.009 A 
ATOM     75  C   UNL A   1      36.471  29.427  29.971  1.00  0.00     0.001 A 
ATOM     76  C   UNL A   1      36.831  30.083  27.677  1.00  0.00     0.001 A 
ATOM     77  C   UNL A   1      35.980  29.936  28.770  1.00  0.00     0.000 A 
ENDBRANCH  53  72
BRANCH  65  78
ATOM     78  C   UNL A   1      44.395  32.450  31.294  1.00  0.00    -0.014 A 
ATOM     79  C   UNL A   1      44.262  32.739  32.659  1.00  0.00     0.009 A 
ATOM     80  C   UNL A   1      44.809  33.467  30.419  1.00  0.00     0.009 A 
ATOM     81  C   UNL A   1      44.511  34.029  33.134  1.00  0.00     0.001 A 
ATOM     82  C   UNL A   1      45.089  34.746  30.900  1.00  0.00     0.001 A 
ATOM     83  C   UNL A   1      44.931  35.029  32.256  1.00  0.00     0.000 A 
ENDBRANCH  65  78
ENDBRANCH  39  40
ENDBRANCH  31  34
ENDBRANCH  29  30
ENDBRANCH  28  29
ENDBRANCH  27  28
ENDBRANCH   3  27
TORSDOF 15
ENDMDL
MODEL 3
REMARK VINA RESULT:     -11.4      6.081     10.927
REMARK SMILES C[C@@H]1C[N@@H+](Cc2cccc(C(=O)NCCCNC(=O)c3ccc(-c4c5nc(c(-c6ccccc6)c6ccc([nH]6)c(-c6ccccc6)c6nc(c(-c7ccccc7)c7ccc4[nH]7)C=C6)C=C5)cc3)c2)CCN1C(=O)OC(C)(C)C
REMARK SMILES IDX 11 1 12 2 13 3 10 5 6 6 7 7 68 8 8 9 9 10 5 11 4 12 1 13
REMARK SMILES IDX 2 14 3 15 71 16 70 17 69 18 72 20 73 21 74 22 75 23 76 24
REMARK SMILES IDX 77 25 78 26 14 27 15 28 16 29 17 30 18 31 19 33 20 34 21 35
REMARK SMILES IDX 67 36 22 37 66 38 23 39 24 40 25 41 60 42 26 43 65 44 59 45
REMARK SMILES IDX 61 46 27 47 64 48 58 49 57 50 28 52 50 53 35 54 49 55 36 56
REMARK SMILES IDX 39 57 48 58 62 59 37 60 38 61 47 63 63 64 40 65 29 66 30 67
REMARK SMILES IDX 34 68 31 69 33 70 32 71 51 72 52 73 56 74 53 75 55 76 54 77
REMARK SMILES IDX 41 78 42 79 46 80 43 81 45 82 44 83
REMARK H PARENT 13 4 4 19 17 32 61 51 39 62
REMARK Flexibility Score: inf
ROOT
ATOM      1  C   UNL A   1      35.922  33.300  28.432  1.00  0.00     0.251 C 
ATOM      2  O   UNL A   1      37.096  33.673  28.455  1.00  0.00    -0.269 OA
ATOM      3  N   UNL A   1      34.958  34.251  28.664  1.00  0.00    -0.352 N 
ATOM      4  H   UNL A   1      35.316  35.130  28.930  1.00  0.00     0.163 HD
ENDROOT
BRANCH   1   5
ATOM      5  C   UNL A   1      35.621  31.874  28.096  1.00  0.00     0.040 A 
ATOM      6  C   UNL A   1      34.117  30.022  27.526  1.00  0.00     0.007 A 
ATOM      7  C   UNL A   1      35.231  29.208  27.284  1.00  0.00     0.009 A 
ATOM      8  C   UNL A   1      34.338  31.323  28.024  1.00  0.00     0.023 A 
ATOM      9  C   UNL A   1      36.522  29.704  27.471  1.00  0.00     0.001 A 
ATOM     10  C   UNL A   1      36.714  31.035  27.844  1.00  0.00     0.014 A 
BRANCH   6  11
ATOM     11  C   UNL A   1      32.712  29.510  27.234  1.00  0.00     0.299 C 
BRANCH  11  12
ATOM     12  N   UNL A   1      32.506  28.760  25.972  1.00  0.00    -0.328 N 
ATOM     13  C   UNL A   1      33.220  28.170  22.939  1.00  0.00     0.037 C 
ATOM     14  C   UNL A   1      31.943  28.821  23.482  1.00  0.00     0.140 C 
ATOM     15  C   UNL A   1      32.218  29.624  24.799  1.00  0.00     0.287 C 
ATOM     16  N   UNL A   1      30.912  27.799  23.735  1.00  0.00    -0.294 N 
ATOM     17  C   UNL A   1      31.222  26.893  24.835  1.00  0.00     0.185 C 
ATOM     18  C   UNL A   1      31.479  27.712  26.103  1.00  0.00     0.284 C 
ATOM     19  H   UNL A   1      33.404  28.311  25.792  1.00  0.00     0.348 HD
BRANCH  16  20
ATOM     20  C   UNL A   1      29.636  27.798  23.197  1.00  0.00     0.410 C 
ATOM     21  O   UNL A   1      28.789  26.969  23.501  1.00  0.00    -0.224 OA
BRANCH  20  22
ATOM     22  O   UNL A   1      29.432  28.803  22.303  1.00  0.00    -0.444 OA
BRANCH  22  23
ATOM     23  C   UNL A   1      28.454  29.845  22.579  1.00  0.00     0.106 C 
ATOM     24  C   UNL A   1      27.149  29.251  23.126  1.00  0.00     0.056 C 
ATOM     25  C   UNL A   1      29.015  30.930  23.507  1.00  0.00     0.056 C 
ATOM     26  C   UNL A   1      28.154  30.489  21.215  1.00  0.00     0.056 C 
ENDBRANCH  22  23
ENDBRANCH  20  22
ENDBRANCH  16  20
ENDBRANCH  11  12
ENDBRANCH   6  11
ENDBRANCH   1   5
BRANCH   3  27
ATOM     27  C   UNL A   1      33.512  34.201  28.589  1.00  0.00     0.118 C 
BRANCH  27  28
ATOM     28  C   UNL A   1      32.903  35.601  28.637  1.00  0.00     0.042 C 
BRANCH  28  29
ATOM     29  C   UNL A   1      33.424  36.420  29.809  1.00  0.00     0.118 C 
BRANCH  29  30
ATOM     30  N   UNL A   1      32.459  36.478  30.900  1.00  0.00    -0.352 N 
ATOM     31  C   UNL A   1      32.468  35.845  32.119  1.00  0.00     0.251 C 
ATOM     32  H   UNL A   1      31.681  37.059  30.739  1.00  0.00     0.163 HD
ATOM     33  O   UNL A   1      31.470  35.874  32.833  1.00  0.00    -0.269 OA
BRANCH  31  34
ATOM     34  C   UNL A   1      33.667  35.107  32.565  1.00  0.00     0.039 A 
ATOM     35  C   UNL A   1      33.520  33.787  33.005  1.00  0.00     0.014 A 
ATOM     36  C   UNL A   1      34.926  35.710  32.565  1.00  0.00     0.014 A 
ATOM     37  C   UNL A   1      34.647  33.055  33.383  1.00  0.00     0.010 A 
ATOM     38  C   UNL A   1      36.054  34.953  32.854  1.00  0.00     0.010 A 
ATOM     39  C   UNL A   1      35.926  33.621  33.275  1.00  0.00    -0.014 A 
BRANCH  39  40
ATOM     40  C   UNL A   1      37.148  32.848  33.606  1.00  0.00     0.031 A 
ATOM     41  C   UNL A   1      37.893  33.135  34.881  1.00  0.00     0.074 A 
ATOM     42  C   UNL A   1      37.625  31.944  32.729  1.00  0.00     0.049 A 
ATOM     43  N   UNL A   1      39.026  32.636  35.306  1.00  0.00    -0.248 NA
ATOM     44  C   UNL A   1      37.302  34.139  35.783  1.00  0.00     0.031 C 
ATOM     45  C   UNL A   1      37.007  31.596  31.448  1.00  0.00     0.029 A 
ATOM     46  N   UNL A   1      38.748  31.159  32.782  1.00  0.00    -0.354 N 
ATOM     47  C   UNL A   1      39.290  33.278  36.510  1.00  0.00     0.074 A 
ATOM     48  C   UNL A   1      38.233  34.242  36.717  1.00  0.00     0.031 C 
ATOM     49  C   UNL A   1      37.742  30.645  30.851  1.00  0.00     0.029 A 
ATOM     50  C   UNL A   1      38.906  30.353  31.680  1.00  0.00     0.049 A 
ATOM     51  H   UNL A   1      39.380  31.169  33.537  1.00  0.00     0.167 HD
ATOM     52  C   UNL A   1      40.309  33.068  37.376  1.00  0.00     0.031 A 
ATOM     53  C   UNL A   1      39.886  29.484  31.368  1.00  0.00     0.031 A 
ATOM     54  C   UNL A   1      41.358  32.106  37.165  1.00  0.00     0.049 A 
ATOM     55  C   UNL A   1      41.030  29.300  32.326  1.00  0.00     0.074 A 
ATOM     56  C   UNL A   1      42.412  31.783  38.001  1.00  0.00     0.029 A 
ATOM     57  N   UNL A   1      41.485  31.317  36.033  1.00  0.00    -0.354 N 
ATOM     58  N   UNL A   1      41.236  29.869  33.489  1.00  0.00    -0.248 NA
ATOM     59  C   UNL A   1      42.074  28.344  31.929  1.00  0.00     0.031 C 
ATOM     60  C   UNL A   1      43.212  30.842  37.346  1.00  0.00     0.029 A 
ATOM     61  C   UNL A   1      42.619  30.527  36.135  1.00  0.00     0.049 A 
ATOM     62  H   UNL A   1      40.864  31.317  35.270  1.00  0.00     0.167 HD
ATOM     63  C   UNL A   1      42.413  29.317  33.979  1.00  0.00     0.074 A 
ATOM     64  C   UNL A   1      42.868  28.359  32.991  1.00  0.00     0.031 C 
ATOM     65  C   UNL A   1      43.056  29.577  35.144  1.00  0.00     0.031 A 
BRANCH  52  66
ATOM     66  C   UNL A   1      40.339  33.910  38.623  1.00  0.00    -0.014 A 
ATOM     67  C   UNL A   1      39.859  33.419  39.849  1.00  0.00     0.009 A 
ATOM     68  C   UNL A   1      40.869  35.209  38.577  1.00  0.00     0.009 A 
ATOM     69  C   UNL A   1      39.863  34.227  40.987  1.00  0.00     0.001 A 
ATOM     70  C   UNL A   1      40.905  36.002  39.726  1.00  0.00     0.001 A 
ATOM     71  C   UNL A   1      40.390  35.516  40.926  1.00  0.00     0.000 A 
ENDBRANCH  52  66
BRANCH  53  72
ATOM     72  C   UNL A   1      39.819  28.710  30.101  1.00  0.00    -0.014 A 
ATOM     73  C   UNL A   1      39.298  27.407  30.091  1.00  0.00     0.009 A 
ATOM     74  C   UNL A   1      40.274  29.266  28.895  1.00  0.00     0.009 A 
ATOM     75  C   UNL A   1      39.258  26.669  28.906  1.00  0.00     0.001 A 
ATOM     76  C   UNL A   1      40.204  28.536  27.706  1.00  0.00     0.001 A 
ATOM     77  C   UNL A   1      39.705  27.236  27.714  1.00  0.00     0.000 A 
ENDBRANCH  53  72
BRANCH  65  78
ATOM     78  C   UNL A   1      44.297  28.782  35.439  1.00  0.00    -0.014 A 
ATOM     79  C   UNL A   1      45.572  29.262  35.109  1.00  0.00     0.009 A 
ATOM     80  C   UNL A   1      44.185  27.554  36.112  1.00  0.00     0.009 A 
ATOM     81  C   UNL A   1      46.710  28.514  35.418  1.00  0.00     0.001 A 
ATOM     82  C   UNL A   1      45.325  26.824  36.450  1.00  0.00     0.001 A 
ATOM     83  C   UNL A   1      46.586  27.300  36.095  1.00  0.00     0.000 A 
ENDBRANCH  65  78
ENDBRANCH  39  40
ENDBRANCH  31  34
ENDBRANCH  29  30
ENDBRANCH  28  29
ENDBRANCH  27  28
ENDBRANCH   3  27
TORSDOF 15
ENDMDL
