MODEL 1
REMARK VINA RESULT:     -11.3      0.000      0.000
REMARK SMILES CCC(CC)COc1cc2c(cc1Cl)C=C(C(=O)NCCCNC(=O)c1ccc(-c3c4nc(c(-c5ccccc5)c5ccc([nH]5)c(-c5ccccc5)c5nc(c(-c6ccccc6)c6ccc3[nH]6)C=C5)C=C4)cc1)[C@@H](C(F)(F)F)O2
REMARK SMILES IDX 20 1 19 2 17 3 18 4 16 6 8 7 9 8 13 9 10 10 12 11 14 12
REMARK SMILES IDX 11 13 79 14 15 15 74 16 7 17 6 18 3 19 2 20 1 21 4 22 5 23
REMARK SMILES IDX 75 24 76 25 77 26 78 27 21 28 22 29 23 30 24 31 25 33 26 34
REMARK SMILES IDX 27 35 73 36 28 37 72 38 29 39 30 40 31 41 66 42 32 43 71 44
REMARK SMILES IDX 65 45 67 46 33 47 70 48 64 49 63 50 34 52 56 53 41 54 55 55
REMARK SMILES IDX 42 56 45 57 54 58 68 59 43 60 44 61 53 63 69 64 46 65 35 66
REMARK SMILES IDX 36 67 40 68 37 69 39 70 38 71 57 72 58 73 62 74 59 75 61 76
REMARK SMILES IDX 60 77 47 78 48 79 52 80 49 81 51 82 50 83
REMARK H PARENT 19 5 23 32 67 51 45 62
REMARK Flexibility Score: inf
ROOT
ATOM      1  C   UNL A   1      36.655  21.206  24.757  1.00  0.00     0.118 C 
ENDROOT
BRANCH   1   2
ATOM      2  N   UNL A   1      35.827  21.178  25.950  1.00  0.00    -0.352 N 
ATOM      3  C   UNL A   1      34.765  21.871  26.418  1.00  0.00     0.251 C 
ATOM      4  O   UNL A   1      34.338  21.508  27.517  1.00  0.00    -0.270 OA
ATOM      5  H   UNL A   1      36.110  20.474  26.577  1.00  0.00     0.163 HD
BRANCH   3   6
ATOM      6  C   UNL A   1      34.120  23.004  25.711  1.00  0.00     0.067 C 
ATOM      7  C   UNL A   1      33.118  27.546  23.884  1.00  0.00     0.141 A 
ATOM      8  C   UNL A   1      33.128  26.273  23.314  1.00  0.00     0.095 A 
ATOM      9  C   UNL A   1      33.319  27.704  25.264  1.00  0.00     0.083 A 
ATOM     10  C   UNL A   1      33.468  25.188  24.110  1.00  0.00     0.131 A 
ATOM     11  C   UNL A   1      33.764  26.626  26.029  1.00  0.00     0.036 A 
ATOM     12  Cl  UNL A   1      33.114  29.229  26.044  1.00  0.00    -0.080 Cl
ATOM     13  C   UNL A   1      33.876  25.371  25.438  1.00  0.00     0.019 A 
ATOM     14  O   UNL A   1      33.396  23.936  23.554  1.00  0.00    -0.475 OA
ATOM     15  C   UNL A   1      34.438  24.233  26.155  1.00  0.00     0.025 C 
ATOM     16  C   UNL A   1      33.180  22.884  24.545  1.00  0.00     0.314 C 
BRANCH   7  17
ATOM     17  O   UNL A   1      32.921  28.639  23.086  1.00  0.00    -0.492 OA
BRANCH  17  18
ATOM     18  C   UNL A   1      31.615  28.631  22.461  1.00  0.00     0.233 C 
BRANCH  18  19
ATOM     19  C   UNL A   1      30.477  28.611  23.512  1.00  0.00     0.026 C 
BRANCH  19  20
ATOM     20  C   UNL A   1      29.621  29.899  23.463  1.00  0.00     0.003 C 
ATOM     21  C   UNL A   1      28.232  29.660  22.887  1.00  0.00     0.004 C 
ENDBRANCH  19  20
BRANCH  19  22
ATOM     22  C   UNL A   1      29.607  27.342  23.383  1.00  0.00     0.003 C 
ATOM     23  C   UNL A   1      29.693  26.368  24.550  1.00  0.00     0.004 C 
ENDBRANCH  19  22
ENDBRANCH  18  19
ENDBRANCH  17  18
ENDBRANCH   7  17
BRANCH  16  24
ATOM     24  C   UNL A   1      31.699  22.836  25.000  1.00  0.00     0.429 C 
ATOM     25  F   UNL A   1      30.882  23.248  24.000  1.00  0.00    -0.167 F 
ATOM     26  F   UNL A   1      31.307  21.578  25.325  1.00  0.00    -0.167 F 
ATOM     27  F   UNL A   1      31.439  23.605  26.079  1.00  0.00    -0.167 F 
ENDBRANCH  16  24
ENDBRANCH   3   6
ENDBRANCH   1   2
BRANCH   1  28
ATOM     28  C   UNL A   1      37.742  20.146  24.817  1.00  0.00     0.042 C 
BRANCH  28  29
ATOM     29  C   UNL A   1      38.843  20.513  25.798  1.00  0.00     0.118 C 
BRANCH  29  30
ATOM     30  N   UNL A   1      39.903  19.508  25.835  1.00  0.00    -0.352 N 
ATOM     31  C   UNL A   1      41.247  19.648  26.082  1.00  0.00     0.251 C 
ATOM     32  H   UNL A   1      39.607  18.586  25.653  1.00  0.00     0.163 HD
ATOM     33  O   UNL A   1      42.018  18.724  25.838  1.00  0.00    -0.269 OA
BRANCH  31  34
ATOM     34  C   UNL A   1      41.762  20.922  26.619  1.00  0.00     0.039 A 
ATOM     35  C   UNL A   1      41.768  21.145  27.995  1.00  0.00     0.014 A 
ATOM     36  C   UNL A   1      42.221  21.910  25.744  1.00  0.00     0.014 A 
ATOM     37  C   UNL A   1      42.020  22.419  28.480  1.00  0.00     0.010 A 
ATOM     38  C   UNL A   1      42.597  23.158  26.250  1.00  0.00     0.010 A 
ATOM     39  C   UNL A   1      42.447  23.439  27.617  1.00  0.00    -0.014 A 
BRANCH  39  40
ATOM     40  C   UNL A   1      42.740  24.781  28.182  1.00  0.00     0.031 A 
ATOM     41  C   UNL A   1      44.148  25.186  28.527  1.00  0.00     0.074 A 
ATOM     42  C   UNL A   1      41.729  25.662  28.319  1.00  0.00     0.049 A 
ATOM     43  N   UNL A   1      44.575  26.324  29.013  1.00  0.00    -0.248 NA
ATOM     44  C   UNL A   1      45.216  24.196  28.302  1.00  0.00     0.031 C 
ATOM     45  C   UNL A   1      40.324  25.385  28.003  1.00  0.00     0.029 A 
ATOM     46  N   UNL A   1      41.724  26.972  28.723  1.00  0.00    -0.354 N 
ATOM     47  C   UNL A   1      45.947  26.178  29.178  1.00  0.00     0.074 A 
ATOM     48  C   UNL A   1      46.285  24.837  28.758  1.00  0.00     0.031 C 
ATOM     49  C   UNL A   1      39.608  26.507  28.164  1.00  0.00     0.029 A 
ATOM     50  C   UNL A   1      40.480  27.556  28.677  1.00  0.00     0.049 A 
ATOM     51  H   UNL A   1      42.533  27.449  29.019  1.00  0.00     0.167 HD
ATOM     52  C   UNL A   1      46.841  27.086  29.631  1.00  0.00     0.031 A 
ATOM     53  C   UNL A   1      40.073  28.790  29.030  1.00  0.00     0.031 A 
ATOM     54  C   UNL A   1      46.501  28.429  30.019  1.00  0.00     0.049 A 
ATOM     55  C   UNL A   1      41.084  29.766  29.551  1.00  0.00     0.074 A 
ATOM     56  C   UNL A   1      47.348  29.428  30.469  1.00  0.00     0.029 A 
ATOM     57  N   UNL A   1      45.224  28.964  29.997  1.00  0.00    -0.354 N 
ATOM     58  N   UNL A   1      42.378  29.610  29.694  1.00  0.00    -0.248 NA
ATOM     59  C   UNL A   1      40.586  31.086  29.963  1.00  0.00     0.031 C 
ATOM     60  C   UNL A   1      46.575  30.548  30.775  1.00  0.00     0.029 A 
ATOM     61  C   UNL A   1      45.256  30.272  30.451  1.00  0.00     0.049 A 
ATOM     62  H   UNL A   1      44.414  28.486  29.703  1.00  0.00     0.167 HD
ATOM     63  C   UNL A   1      42.850  30.810  30.206  1.00  0.00     0.074 A 
ATOM     64  C   UNL A   1      41.709  31.695  30.321  1.00  0.00     0.031 C 
ATOM     65  C   UNL A   1      44.114  31.141  30.558  1.00  0.00     0.031 A 
BRANCH  52  66
ATOM     66  C   UNL A   1      48.284  26.681  29.748  1.00  0.00    -0.014 A 
ATOM     67  C   UNL A   1      49.143  26.858  28.650  1.00  0.00     0.009 A 
ATOM     68  C   UNL A   1      48.757  25.997  30.877  1.00  0.00     0.009 A 
ATOM     69  C   UNL A   1      50.435  26.333  28.668  1.00  0.00     0.001 A 
ATOM     70  C   UNL A   1      50.061  25.495  30.902  1.00  0.00     0.001 A 
ATOM     71  C   UNL A   1      50.893  25.651  29.794  1.00  0.00     0.000 A 
ENDBRANCH  52  66
BRANCH  53  72
ATOM     72  C   UNL A   1      38.630  29.138  28.924  1.00  0.00    -0.014 A 
ATOM     73  C   UNL A   1      38.107  29.615  27.709  1.00  0.00     0.009 A 
ATOM     74  C   UNL A   1      37.782  29.051  30.037  1.00  0.00     0.009 A 
ATOM     75  C   UNL A   1      36.777  30.028  27.620  1.00  0.00     0.001 A 
ATOM     76  C   UNL A   1      36.442  29.430  29.934  1.00  0.00     0.001 A 
ATOM     77  C   UNL A   1      35.943  29.930  28.731  1.00  0.00     0.000 A 
ENDBRANCH  53  72
BRANCH  65  78
ATOM     78  C   UNL A   1      44.353  32.523  31.098  1.00  0.00    -0.014 A 
ATOM     79  C   UNL A   1      44.782  33.544  30.234  1.00  0.00     0.009 A 
ATOM     80  C   UNL A   1      44.267  32.782  32.473  1.00  0.00     0.009 A 
ATOM     81  C   UNL A   1      45.141  34.793  30.740  1.00  0.00     0.001 A 
ATOM     82  C   UNL A   1      44.598  34.043  32.973  1.00  0.00     0.001 A 
ATOM     83  C   UNL A   1      45.045  35.042  32.109  1.00  0.00     0.000 A 
ENDBRANCH  65  78
ENDBRANCH  39  40
ENDBRANCH  31  34
ENDBRANCH  29  30
ENDBRANCH  28  29
ENDBRANCH   1  28
TORSDOF 16
ENDMDL
MODEL 2
REMARK VINA RESULT:     -11.3      1.312      6.052
REMARK SMILES CCC(CC)COc1cc2c(cc1Cl)C=C(C(=O)NCCCNC(=O)c1ccc(-c3c4nc(c(-c5ccccc5)c5ccc([nH]5)c(-c5ccccc5)c5nc(c(-c6ccccc6)c6ccc3[nH]6)C=C5)C=C4)cc1)[C@@H](C(F)(F)F)O2
REMARK SMILES IDX 20 1 19 2 17 3 18 4 16 6 8 7 9 8 13 9 10 10 12 11 14 12
REMARK SMILES IDX 11 13 79 14 15 15 74 16 7 17 6 18 3 19 2 20 1 21 4 22 5 23
REMARK SMILES IDX 75 24 76 25 77 26 78 27 21 28 22 29 23 30 24 31 25 33 26 34
REMARK SMILES IDX 27 35 73 36 28 37 72 38 29 39 30 40 31 41 66 42 32 43 71 44
REMARK SMILES IDX 65 45 67 46 33 47 70 48 64 49 63 50 34 52 56 53 41 54 55 55
REMARK SMILES IDX 42 56 45 57 54 58 68 59 43 60 44 61 53 63 69 64 46 65 35 66
REMARK SMILES IDX 36 67 40 68 37 69 39 70 38 71 57 72 58 73 62 74 59 75 61 76
REMARK SMILES IDX 60 77 47 78 48 79 52 80 49 81 51 82 50 83
REMARK H PARENT 19 5 23 32 67 51 45 62
REMARK Flexibility Score: inf
ROOT
ATOM      1  C   UNL A   1      36.427  20.712  25.235  1.00  0.00     0.118 C 
ENDROOT
BRANCH   1   2
ATOM      2  N   UNL A   1      35.280  19.844  25.035  1.00  0.00    -0.352 N 
ATOM      3  C   UNL A   1      33.956  20.010  24.823  1.00  0.00     0.251 C 
ATOM      4  O   UNL A   1      33.305  18.969  24.691  1.00  0.00    -0.270 OA
ATOM      5  H   UNL A   1      35.531  18.894  25.059  1.00  0.00     0.163 HD
BRANCH   3   6
ATOM      6  C   UNL A   1      33.270  21.323  24.753  1.00  0.00     0.067 C 
ATOM      7  C   UNL A   1      31.301  25.600  23.081  1.00  0.00     0.141 A 
ATOM      8  C   UNL A   1      30.819  24.596  23.921  1.00  0.00     0.095 A 
ATOM      9  C   UNL A   1      32.628  25.565  22.626  1.00  0.00     0.083 A 
ATOM     10  C   UNL A   1      31.632  23.503  24.188  1.00  0.00     0.131 A 
ATOM     11  C   UNL A   1      33.396  24.415  22.812  1.00  0.00     0.036 A 
ATOM     12  Cl  UNL A   1      33.327  26.881  21.758  1.00  0.00    -0.080 Cl
ATOM     13  C   UNL A   1      32.878  23.364  23.563  1.00  0.00     0.019 A 
ATOM     14  O   UNL A   1      31.173  22.565  25.078  1.00  0.00    -0.475 OA
ATOM     15  C   UNL A   1      33.586  22.097  23.700  1.00  0.00     0.025 C 
ATOM     16  C   UNL A   1      32.250  21.828  25.735  1.00  0.00     0.314 C 
BRANCH   7  17
ATOM     17  O   UNL A   1      30.466  26.614  22.696  1.00  0.00    -0.492 OA
BRANCH  17  18
ATOM     18  C   UNL A   1      29.965  27.367  23.826  1.00  0.00     0.233 C 
BRANCH  18  19
ATOM     19  C   UNL A   1      30.462  28.834  23.803  1.00  0.00     0.026 C 
BRANCH  19  20
ATOM     20  C   UNL A   1      31.776  29.013  24.600  1.00  0.00     0.003 C 
ATOM     21  C   UNL A   1      31.877  28.068  25.789  1.00  0.00     0.004 C 
ENDBRANCH  19  20
BRANCH  19  22
ATOM     22  C   UNL A   1      30.593  29.367  22.360  1.00  0.00     0.003 C 
ATOM     23  C   UNL A   1      29.386  30.129  21.831  1.00  0.00     0.004 C 
ENDBRANCH  19  22
ENDBRANCH  18  19
ENDBRANCH  17  18
ENDBRANCH   7  17
BRANCH  16  24
ATOM     24  C   UNL A   1      32.901  22.670  26.862  1.00  0.00     0.429 C 
ATOM     25  F   UNL A   1      33.083  21.915  27.973  1.00  0.00    -0.167 F 
ATOM     26  F   UNL A   1      34.126  23.135  26.507  1.00  0.00    -0.167 F 
ATOM     27  F   UNL A   1      32.174  23.750  27.220  1.00  0.00    -0.167 F 
ENDBRANCH  16  24
ENDBRANCH   3   6
ENDBRANCH   1   2
BRANCH   1  28
ATOM     28  C   UNL A   1      37.720  20.012  24.854  1.00  0.00     0.042 C 
BRANCH  28  29
ATOM     29  C   UNL A   1      38.882  20.443  25.734  1.00  0.00     0.118 C 
BRANCH  29  30
ATOM     30  N   UNL A   1      39.925  19.422  25.805  1.00  0.00    -0.352 N 
ATOM     31  C   UNL A   1      41.273  19.548  26.043  1.00  0.00     0.251 C 
ATOM     32  H   UNL A   1      39.613  18.499  25.659  1.00  0.00     0.163 HD
ATOM     33  O   UNL A   1      42.027  18.602  25.832  1.00  0.00    -0.269 OA
BRANCH  31  34
ATOM     34  C   UNL A   1      41.811  20.832  26.531  1.00  0.00     0.039 A 
ATOM     35  C   UNL A   1      41.798  21.118  27.895  1.00  0.00     0.014 A 
ATOM     36  C   UNL A   1      42.311  21.766  25.620  1.00  0.00     0.014 A 
ATOM     37  C   UNL A   1      42.075  22.407  28.326  1.00  0.00     0.010 A 
ATOM     38  C   UNL A   1      42.711  23.026  26.075  1.00  0.00     0.010 A 
ATOM     39  C   UNL A   1      42.544  23.375  27.424  1.00  0.00    -0.014 A 
BRANCH  39  40
ATOM     40  C   UNL A   1      42.862  24.733  27.933  1.00  0.00     0.031 A 
ATOM     41  C   UNL A   1      41.773  25.739  28.191  1.00  0.00     0.074 A 
ATOM     42  C   UNL A   1      44.144  25.032  28.227  1.00  0.00     0.049 A 
ATOM     43  N   UNL A   1      41.881  26.961  28.648  1.00  0.00    -0.248 NA
ATOM     44  C   UNL A   1      40.387  25.331  27.900  1.00  0.00     0.031 C 
ATOM     45  C   UNL A   1      45.284  24.130  28.032  1.00  0.00     0.029 A 
ATOM     46  N   UNL A   1      44.703  26.154  28.781  1.00  0.00    -0.354 N 
ATOM     47  C   UNL A   1      40.590  27.474  28.674  1.00  0.00     0.074 A 
ATOM     48  C   UNL A   1      39.712  26.442  28.170  1.00  0.00     0.031 C 
ATOM     49  C   UNL A   1      46.390  24.709  28.517  1.00  0.00     0.029 A 
ATOM     50  C   UNL A   1      46.060  26.053  28.976  1.00  0.00     0.049 A 
ATOM     51  H   UNL A   1      44.183  26.957  29.016  1.00  0.00     0.167 HD
ATOM     52  C   UNL A   1      40.178  28.694  29.089  1.00  0.00     0.031 A 
ATOM     53  C   UNL A   1      46.952  26.945  29.446  1.00  0.00     0.031 A 
ATOM     54  C   UNL A   1      41.054  29.705  29.618  1.00  0.00     0.049 A 
ATOM     55  C   UNL A   1      46.467  28.297  29.877  1.00  0.00     0.074 A 
ATOM     56  C   UNL A   1      40.719  30.964  30.086  1.00  0.00     0.029 A 
ATOM     57  N   UNL A   1      42.425  29.576  29.756  1.00  0.00    -0.354 N 
ATOM     58  N   UNL A   1      45.241  28.761  29.897  1.00  0.00    -0.248 NA
ATOM     59  C   UNL A   1      47.481  29.252  30.344  1.00  0.00     0.031 C 
ATOM     60  C   UNL A   1      41.895  31.618  30.453  1.00  0.00     0.029 A 
ATOM     61  C   UNL A   1      42.955  30.743  30.279  1.00  0.00     0.049 A 
ATOM     62  H   UNL A   1      42.946  28.774  29.519  1.00  0.00     0.167 HD
ATOM     63  C   UNL A   1      45.334  30.056  30.385  1.00  0.00     0.074 A 
ATOM     64  C   UNL A   1      46.733  30.296  30.675  1.00  0.00     0.031 C 
ATOM     65  C   UNL A   1      44.349  30.966  30.564  1.00  0.00     0.031 A 
BRANCH  52  66
ATOM     66  C   UNL A   1      38.716  29.032  28.994  1.00  0.00    -0.014 A 
ATOM     67  C   UNL A   1      38.219  29.629  27.823  1.00  0.00     0.009 A 
ATOM     68  C   UNL A   1      37.866  28.898  30.102  1.00  0.00     0.009 A 
ATOM     69  C   UNL A   1      36.911  30.113  27.774  1.00  0.00     0.001 A 
ATOM     70  C   UNL A   1      36.549  29.360  30.040  1.00  0.00     0.001 A 
ATOM     71  C   UNL A   1      36.077  29.979  28.882  1.00  0.00     0.000 A 
ENDBRANCH  52  66
BRANCH  53  72
ATOM     72  C   UNL A   1      48.392  26.577  29.497  1.00  0.00    -0.014 A 
ATOM     73  C   UNL A   1      48.940  26.029  30.670  1.00  0.00     0.009 A 
ATOM     74  C   UNL A   1      49.238  26.819  28.405  1.00  0.00     0.009 A 
ATOM     75  C   UNL A   1      50.307  25.761  30.760  1.00  0.00     0.001 A 
ATOM     76  C   UNL A   1      50.599  26.515  28.486  1.00  0.00     0.001 A 
ATOM     77  C   UNL A   1      51.135  25.999  29.666  1.00  0.00     0.000 A 
ENDBRANCH  53  72
BRANCH  65  78
ATOM     78  C   UNL A   1      44.728  32.315  31.107  1.00  0.00    -0.014 A 
ATOM     79  C   UNL A   1      44.684  32.545  32.493  1.00  0.00     0.009 A 
ATOM     80  C   UNL A   1      45.015  33.383  30.246  1.00  0.00     0.009 A 
ATOM     81  C   UNL A   1      44.899  33.825  33.003  1.00  0.00     0.001 A 
ATOM     82  C   UNL A   1      45.259  34.657  30.762  1.00  0.00     0.001 A 
ATOM     83  C   UNL A   1      45.190  34.879  32.137  1.00  0.00     0.000 A 
ENDBRANCH  65  78
ENDBRANCH  39  40
ENDBRANCH  31  34
ENDBRANCH  29  30
ENDBRANCH  28  29
ENDBRANCH   1  28
TORSDOF 16
ENDMDL
MODEL 3
REMARK VINA RESULT:     -11.2      1.724      2.190
REMARK SMILES CCC(CC)COc1cc2c(cc1Cl)C=C(C(=O)NCCCNC(=O)c1ccc(-c3c4nc(c(-c5ccccc5)c5ccc([nH]5)c(-c5ccccc5)c5nc(c(-c6ccccc6)c6ccc3[nH]6)C=C5)C=C4)cc1)[C@@H](C(F)(F)F)O2
REMARK SMILES IDX 20 1 19 2 17 3 18 4 16 6 8 7 9 8 13 9 10 10 12 11 14 12
REMARK SMILES IDX 11 13 79 14 15 15 74 16 7 17 6 18 3 19 2 20 1 21 4 22 5 23
REMARK SMILES IDX 75 24 76 25 77 26 78 27 21 28 22 29 23 30 24 31 25 33 26 34
REMARK SMILES IDX 27 35 73 36 28 37 72 38 29 39 30 40 31 41 66 42 32 43 71 44
REMARK SMILES IDX 65 45 67 46 33 47 70 48 64 49 63 50 34 52 56 53 41 54 55 55
REMARK SMILES IDX 42 56 45 57 54 58 68 59 43 60 44 61 53 63 69 64 46 65 35 66
REMARK SMILES IDX 36 67 40 68 37 69 39 70 38 71 57 72 58 73 62 74 59 75 61 76
REMARK SMILES IDX 60 77 47 78 48 79 52 80 49 81 51 82 50 83
REMARK H PARENT 19 5 23 32 67 51 45 62
REMARK Flexibility Score: inf
ROOT
ATOM      1  C   UNL A   1      36.515  20.627  25.113  1.00  0.00     0.118 C 
ENDROOT
BRANCH   1   2
ATOM      2  N   UNL A   1      35.360  19.752  25.002  1.00  0.00    -0.352 N 
ATOM      3  C   UNL A   1      34.027  19.910  24.854  1.00  0.00     0.251 C 
ATOM      4  O   UNL A   1      33.373  18.865  24.792  1.00  0.00    -0.270 OA
ATOM      5  H   UNL A   1      35.615  18.803  25.046  1.00  0.00     0.163 HD
BRANCH   3   6
ATOM      6  C   UNL A   1      33.335  21.220  24.776  1.00  0.00     0.067 C 
ATOM      7  C   UNL A   1      31.300  25.451  23.068  1.00  0.00     0.141 A 
ATOM      8  C   UNL A   1      30.849  24.467  23.947  1.00  0.00     0.095 A 
ATOM      9  C   UNL A   1      32.612  25.407  22.571  1.00  0.00     0.083 A 
ATOM     10  C   UNL A   1      31.673  23.382  24.213  1.00  0.00     0.131 A 
ATOM     11  C   UNL A   1      33.388  24.264  22.759  1.00  0.00     0.036 A 
ATOM     12  Cl  UNL A   1      33.278  26.704  21.649  1.00  0.00    -0.080 Cl
ATOM     13  C   UNL A   1      32.898  23.231  23.551  1.00  0.00     0.019 A 
ATOM     14  O   UNL A   1      31.246  22.465  25.140  1.00  0.00    -0.475 OA
ATOM     15  C   UNL A   1      33.614  21.969  23.695  1.00  0.00     0.025 C 
ATOM     16  C   UNL A   1      32.347  21.746  25.778  1.00  0.00     0.314 C 
BRANCH   7  17
ATOM     17  O   UNL A   1      30.450  26.453  22.686  1.00  0.00    -0.492 OA
BRANCH  17  18
ATOM     18  C   UNL A   1      30.014  27.256  23.809  1.00  0.00     0.233 C 
BRANCH  18  19
ATOM     19  C   UNL A   1      30.775  28.603  23.881  1.00  0.00     0.026 C 
BRANCH  19  20
ATOM     20  C   UNL A   1      29.872  29.801  23.500  1.00  0.00     0.003 C 
ATOM     21  C   UNL A   1      28.572  29.369  22.837  1.00  0.00     0.004 C 
ENDBRANCH  19  20
BRANCH  19  22
ATOM     22  C   UNL A   1      31.441  28.807  25.259  1.00  0.00     0.003 C 
ATOM     23  C   UNL A   1      31.537  27.562  26.131  1.00  0.00     0.004 C 
ENDBRANCH  19  22
ENDBRANCH  18  19
ENDBRANCH  17  18
ENDBRANCH   7  17
BRANCH  16  24
ATOM     24  C   UNL A   1      33.032  22.616  26.863  1.00  0.00     0.429 C 
ATOM     25  F   UNL A   1      32.215  23.627  27.245  1.00  0.00    -0.167 F 
ATOM     26  F   UNL A   1      33.315  21.904  27.982  1.00  0.00    -0.167 F 
ATOM     27  F   UNL A   1      34.197  23.167  26.458  1.00  0.00    -0.167 F 
ENDBRANCH  16  24
ENDBRANCH   3   6
ENDBRANCH   1   2
BRANCH   1  28
ATOM     28  C   UNL A   1      37.800  19.885  24.790  1.00  0.00     0.042 C 
BRANCH  28  29
ATOM     29  C   UNL A   1      38.927  20.258  25.740  1.00  0.00     0.118 C 
BRANCH  29  30
ATOM     30  N   UNL A   1      39.929  19.200  25.845  1.00  0.00    -0.352 N 
ATOM     31  C   UNL A   1      41.290  19.284  26.014  1.00  0.00     0.251 C 
ATOM     32  H   UNL A   1      39.573  18.283  25.784  1.00  0.00     0.163 HD
ATOM     33  O   UNL A   1      41.995  18.293  25.845  1.00  0.00    -0.269 OA
BRANCH  31  34
ATOM     34  C   UNL A   1      41.902  20.576  26.378  1.00  0.00     0.039 A 
ATOM     35  C   UNL A   1      42.003  20.945  27.719  1.00  0.00     0.014 A 
ATOM     36  C   UNL A   1      42.359  21.436  25.375  1.00  0.00     0.014 A 
ATOM     37  C   UNL A   1      42.351  22.247  28.045  1.00  0.00     0.010 A 
ATOM     38  C   UNL A   1      42.830  22.706  25.718  1.00  0.00     0.010 A 
ATOM     39  C   UNL A   1      42.778  23.141  27.052  1.00  0.00    -0.014 A 
BRANCH  39  40
ATOM     40  C   UNL A   1      43.175  24.517  27.448  1.00  0.00     0.031 A 
ATOM     41  C   UNL A   1      44.605  24.972  27.339  1.00  0.00     0.074 A 
ATOM     42  C   UNL A   1      42.217  25.379  27.844  1.00  0.00     0.049 A 
ATOM     43  N   UNL A   1      45.113  26.143  27.629  1.00  0.00    -0.248 NA
ATOM     44  C   UNL A   1      45.594  23.998  26.848  1.00  0.00     0.031 C 
ATOM     45  C   UNL A   1      40.793  25.054  27.973  1.00  0.00     0.029 A 
ATOM     46  N   UNL A   1      42.282  26.708  28.177  1.00  0.00    -0.354 N 
ATOM     47  C   UNL A   1      46.477  26.039  27.383  1.00  0.00     0.074 A 
ATOM     48  C   UNL A   1      46.726  24.686  26.936  1.00  0.00     0.031 C 
ATOM     49  C   UNL A   1      40.115  26.164  28.293  1.00  0.00     0.029 A 
ATOM     50  C   UNL A   1      41.060  27.259  28.479  1.00  0.00     0.049 A 
ATOM     51  H   UNL A   1      43.124  27.218  28.197  1.00  0.00     0.167 HD
ATOM     52  C   UNL A   1      47.430  26.990  27.511  1.00  0.00     0.031 A 
ATOM     53  C   UNL A   1      40.729  28.498  28.887  1.00  0.00     0.031 A 
ATOM     54  C   UNL A   1      47.170  28.342  27.926  1.00  0.00     0.049 A 
ATOM     55  C   UNL A   1      41.812  29.524  29.041  1.00  0.00     0.074 A 
ATOM     56  C   UNL A   1      48.074  29.383  28.061  1.00  0.00     0.029 A 
ATOM     57  N   UNL A   1      45.925  28.845  28.265  1.00  0.00    -0.354 N 
ATOM     58  N   UNL A   1      43.095  29.406  28.799  1.00  0.00    -0.248 NA
ATOM     59  C   UNL A   1      41.409  30.851  29.528  1.00  0.00     0.031 C 
ATOM     60  C   UNL A   1      47.385  30.498  28.537  1.00  0.00     0.029 A 
ATOM     61  C   UNL A   1      46.041  30.174  28.633  1.00  0.00     0.049 A 
ATOM     62  H   UNL A   1      45.083  28.333  28.246  1.00  0.00     0.167 HD
ATOM     63  C   UNL A   1      43.652  30.642  29.096  1.00  0.00     0.074 A 
ATOM     64  C   UNL A   1      42.564  31.504  29.510  1.00  0.00     0.031 C 
ATOM     65  C   UNL A   1      44.950  31.020  29.040  1.00  0.00     0.031 A 
BRANCH  52  66
ATOM     66  C   UNL A   1      48.857  26.626  27.208  1.00  0.00    -0.014 A 
ATOM     67  C   UNL A   1      49.337  26.745  25.893  1.00  0.00     0.009 A 
ATOM     68  C   UNL A   1      49.677  26.033  28.179  1.00  0.00     0.009 A 
ATOM     69  C   UNL A   1      50.596  26.251  25.549  1.00  0.00     0.001 A 
ATOM     70  C   UNL A   1      50.947  25.562  27.838  1.00  0.00     0.001 A 
ATOM     71  C   UNL A   1      51.400  25.659  26.522  1.00  0.00     0.000 A 
ENDBRANCH  52  66
BRANCH  53  72
ATOM     72  C   UNL A   1      39.309  28.806  29.201  1.00  0.00    -0.014 A 
ATOM     73  C   UNL A   1      38.468  29.350  28.214  1.00  0.00     0.009 A 
ATOM     74  C   UNL A   1      38.796  28.614  30.492  1.00  0.00     0.009 A 
ATOM     75  C   UNL A   1      37.159  29.725  28.520  1.00  0.00     0.001 A 
ATOM     76  C   UNL A   1      37.474  28.956  30.785  1.00  0.00     0.001 A 
ATOM     77  C   UNL A   1      36.661  29.522  29.804  1.00  0.00     0.000 A 
ENDBRANCH  53  72
BRANCH  65  78
ATOM     78  C   UNL A   1      45.286  32.433  29.427  1.00  0.00    -0.014 A 
ATOM     79  C   UNL A   1      45.553  32.742  30.771  1.00  0.00     0.009 A 
ATOM     80  C   UNL A   1      45.225  33.471  28.486  1.00  0.00     0.009 A 
ATOM     81  C   UNL A   1      45.731  34.066  31.169  1.00  0.00     0.001 A 
ATOM     82  C   UNL A   1      45.433  34.792  28.883  1.00  0.00     0.001 A 
ATOM     83  C   UNL A   1      45.675  35.090  30.224  1.00  0.00     0.000 A 
ENDBRANCH  65  78
ENDBRANCH  39  40
ENDBRANCH  31  34
ENDBRANCH  29  30
ENDBRANCH  28  29
ENDBRANCH   1  28
TORSDOF 16
ENDMDL
