MODEL 1
REMARK VINA RESULT:     -11.8      0.000      0.000
REMARK SMILES Cc1noc(C[N@H+]2CCC[C@@H](c3ccc(C(=O)NCCCNC(=O)c4ccc(-c5c6nc(c(-c7ccccc7)c7ccc([nH]7)c(-c7ccccc7)c7nc(c(-c8ccccc8)c8ccc5[nH]8)C=C7)C=C6)cc4)cc3)C2)n1
REMARK SMILES IDX 19 1 18 2 16 3 17 4 15 6 12 7 13 8 74 9 14 10 73 11 11 12
REMARK SMILES IDX 7 13 8 14 75 15 9 17 10 18 6 19 5 20 1 21 2 22 3 23 76 24
REMARK SMILES IDX 4 25 20 26 21 27 22 28 23 29 24 31 25 32 26 33 72 34 27 35
REMARK SMILES IDX 71 36 28 37 29 38 30 39 65 40 31 41 70 42 64 43 66 44 32 45
REMARK SMILES IDX 69 46 63 47 62 48 33 50 55 51 40 52 54 53 41 54 44 55 53 56
REMARK SMILES IDX 67 57 42 58 43 59 52 61 68 62 45 63 34 64 35 65 39 66 36 67
REMARK SMILES IDX 38 68 37 69 56 70 57 71 61 72 58 73 60 74 59 75 46 76 47 77
REMARK SMILES IDX 51 78 48 79 50 80 49 81
REMARK H PARENT 18 5 7 16 22 30 66 49 44 60
REMARK Flexibility Score: inf
ROOT
ATOM      1  C   UNL A   1      41.897  19.212  27.739  1.00  0.00     0.118 C 
ENDROOT
BRANCH   1   2
ATOM      2  N   UNL A   1      42.366  20.554  28.031  1.00  0.00    -0.352 N 
ATOM      3  C   UNL A   1      41.820  21.784  27.778  1.00  0.00     0.251 C 
ATOM      4  O   UNL A   1      42.420  22.775  28.197  1.00  0.00    -0.269 OA
ATOM      5  H   UNL A   1      43.233  20.585  28.494  1.00  0.00     0.163 HD
BRANCH   3   6
ATOM      6  C   UNL A   1      40.521  21.966  27.079  1.00  0.00     0.039 A 
ATOM      7  C   UNL A   1      38.016  22.464  25.867  1.00  0.00    -0.039 A 
ATOM      8  C   UNL A   1      38.661  23.456  26.624  1.00  0.00     0.005 A 
ATOM      9  C   UNL A   1      38.674  21.246  25.671  1.00  0.00     0.005 A 
ATOM     10  C   UNL A   1      39.892  23.205  27.231  1.00  0.00     0.014 A 
ATOM     11  C   UNL A   1      39.924  21.009  26.255  1.00  0.00     0.014 A 
BRANCH   7  12
ATOM     12  C   UNL A   1      36.643  22.693  25.252  1.00  0.00     0.074 C 
ATOM     13  N   UNL A   1      34.223  21.942  25.352  1.00  0.00    -0.327 N 
ATOM     14  C   UNL A   1      33.807  23.325  25.625  1.00  0.00     0.262 C 
ATOM     15  C   UNL A   1      35.604  21.691  25.804  1.00  0.00     0.270 C 
ATOM     16  H   UNL A   1      34.198  21.814  24.340  1.00  0.00     0.348 HD
ATOM     17  C   UNL A   1      34.757  24.330  24.972  1.00  0.00     0.062 C 
ATOM     18  C   UNL A   1      36.184  24.140  25.473  1.00  0.00     0.020 C 
BRANCH  13  19
ATOM     19  C   UNL A   1      33.280  20.961  25.962  1.00  0.00     0.364 C 
BRANCH  19  20
ATOM     20  C   UNL A   1      33.109  19.677  25.207  1.00  0.00     0.281 A 
ATOM     21  C   UNL A   1      34.011  16.882  23.293  1.00  0.00     0.093 C 
ATOM     22  C   UNL A   1      33.361  17.898  24.140  1.00  0.00     0.169 A 
ATOM     23  N   UNL A   1      32.320  17.627  24.938  1.00  0.00    -0.063 NA
ATOM     24  N   UNL A   1      33.850  19.172  24.243  1.00  0.00    -0.191 NA
ATOM     25  O   UNL A   1      32.146  18.818  25.652  1.00  0.00    -0.333 OA
ENDBRANCH  19  20
ENDBRANCH  13  19
ENDBRANCH   7  12
ENDBRANCH   3   6
ENDBRANCH   1   2
BRANCH   1  26
ATOM     26  C   UNL A   1      42.815  18.517  26.734  1.00  0.00     0.042 C 
BRANCH  26  27
ATOM     27  C   UNL A   1      42.827  19.182  25.363  1.00  0.00     0.118 C 
BRANCH  27  28
ATOM     28  N   UNL A   1      44.004  18.818  24.590  1.00  0.00    -0.352 N 
ATOM     29  C   UNL A   1      45.025  19.607  24.122  1.00  0.00     0.251 C 
ATOM     30  H   UNL A   1      44.079  17.862  24.368  1.00  0.00     0.163 HD
ATOM     31  O   UNL A   1      45.818  19.151  23.305  1.00  0.00    -0.269 OA
BRANCH  29  32
ATOM     32  C   UNL A   1      45.173  21.004  24.586  1.00  0.00     0.039 A 
ATOM     33  C   UNL A   1      44.911  22.040  23.685  1.00  0.00     0.014 A 
ATOM     34  C   UNL A   1      45.614  21.299  25.880  1.00  0.00     0.014 A 
ATOM     35  C   UNL A   1      45.047  23.369  24.094  1.00  0.00     0.010 A 
ATOM     36  C   UNL A   1      45.688  22.624  26.306  1.00  0.00     0.010 A 
ATOM     37  C   UNL A   1      45.414  23.670  25.414  1.00  0.00    -0.014 A 
BRANCH  37  38
ATOM     38  C   UNL A   1      45.524  25.076  25.877  1.00  0.00     0.031 A 
ATOM     39  C   UNL A   1      46.859  25.767  25.891  1.00  0.00     0.074 A 
ATOM     40  C   UNL A   1      44.431  25.712  26.339  1.00  0.00     0.049 A 
ATOM     41  N   UNL A   1      47.163  26.968  26.314  1.00  0.00    -0.248 NA
ATOM     42  C   UNL A   1      48.008  25.000  25.383  1.00  0.00     0.031 C 
ATOM     43  C   UNL A   1      43.084  25.141  26.411  1.00  0.00     0.029 A 
ATOM     44  N   UNL A   1      44.283  26.978  26.846  1.00  0.00    -0.354 N 
ATOM     45  C   UNL A   1      48.537  27.091  26.143  1.00  0.00     0.074 A 
ATOM     46  C   UNL A   1      49.013  25.832  25.616  1.00  0.00     0.031 C 
ATOM     47  C   UNL A   1      42.244  26.062  26.910  1.00  0.00     0.029 A 
ATOM     48  C   UNL A   1      42.997  27.271  27.227  1.00  0.00     0.049 A 
ATOM     49  H   UNL A   1      45.028  27.617  26.928  1.00  0.00     0.167 HD
ATOM     50  C   UNL A   1      49.329  28.163  26.389  1.00  0.00     0.031 A 
ATOM     51  C   UNL A   1      42.481  28.386  27.776  1.00  0.00     0.031 A 
ATOM     52  C   UNL A   1      48.854  29.421  26.899  1.00  0.00     0.049 A 
ATOM     53  C   UNL A   1      43.380  29.560  28.042  1.00  0.00     0.074 A 
ATOM     54  C   UNL A   1      49.570  30.584  27.129  1.00  0.00     0.029 A 
ATOM     55  N   UNL A   1      47.542  29.680  27.262  1.00  0.00    -0.354 N 
ATOM     56  N   UNL A   1      44.666  29.681  27.819  1.00  0.00    -0.248 NA
ATOM     57  C   UNL A   1      42.754  30.754  28.625  1.00  0.00     0.031 C 
ATOM     58  C   UNL A   1      48.697  31.534  27.669  1.00  0.00     0.029 A 
ATOM     59  C   UNL A   1      47.430  30.977  27.731  1.00  0.00     0.049 A 
ATOM     60  H   UNL A   1      46.800  29.036  27.195  1.00  0.00     0.167 HD
ATOM     61  C   UNL A   1      44.998  30.972  28.210  1.00  0.00     0.074 A 
ATOM     62  C   UNL A   1      43.776  31.598  28.672  1.00  0.00     0.031 C 
ATOM     63  C   UNL A   1      46.207  31.583  28.187  1.00  0.00     0.031 A 
BRANCH  50  64
ATOM     64  C   UNL A   1      50.799  28.013  26.112  1.00  0.00    -0.014 A 
ATOM     65  C   UNL A   1      51.680  27.541  27.099  1.00  0.00     0.009 A 
ATOM     66  C   UNL A   1      51.305  28.317  24.840  1.00  0.00     0.009 A 
ATOM     67  C   UNL A   1      53.043  27.412  26.827  1.00  0.00     0.001 A 
ATOM     68  C   UNL A   1      52.665  28.162  24.562  1.00  0.00     0.001 A 
ATOM     69  C   UNL A   1      53.534  27.719  25.558  1.00  0.00     0.000 A 
ENDBRANCH  50  64
BRANCH  51  70
ATOM     70  C   UNL A   1      41.032  28.454  28.095  1.00  0.00    -0.014 A 
ATOM     71  C   UNL A   1      40.554  27.985  29.329  1.00  0.00     0.009 A 
ATOM     72  C   UNL A   1      40.122  28.991  27.172  1.00  0.00     0.009 A 
ATOM     73  C   UNL A   1      39.189  28.030  29.621  1.00  0.00     0.001 A 
ATOM     74  C   UNL A   1      38.761  29.060  27.479  1.00  0.00     0.001 A 
ATOM     75  C   UNL A   1      38.295  28.571  28.698  1.00  0.00     0.000 A 
ENDBRANCH  51  70
BRANCH  63  76
ATOM     76  C   UNL A   1      46.258  33.012  28.646  1.00  0.00    -0.014 A 
ATOM     77  C   UNL A   1      46.463  33.335  29.996  1.00  0.00     0.009 A 
ATOM     78  C   UNL A   1      46.138  34.048  27.707  1.00  0.00     0.009 A 
ATOM     79  C   UNL A   1      46.516  34.671  30.400  1.00  0.00     0.001 A 
ATOM     80  C   UNL A   1      46.217  35.382  28.109  1.00  0.00     0.001 A 
ATOM     81  C   UNL A   1      46.398  35.692  29.457  1.00  0.00     0.000 A 
ENDBRANCH  63  76
ENDBRANCH  37  38
ENDBRANCH  29  32
ENDBRANCH  27  28
ENDBRANCH  26  27
ENDBRANCH   1  26
TORSDOF 13
ENDMDL
MODEL 2
REMARK VINA RESULT:     -11.7      5.557     10.553
REMARK SMILES Cc1noc(C[N@H+]2CCC[C@@H](c3ccc(C(=O)NCCCNC(=O)c4ccc(-c5c6nc(c(-c7ccccc7)c7ccc([nH]7)c(-c7ccccc7)c7nc(c(-c8ccccc8)c8ccc5[nH]8)C=C7)C=C6)cc4)cc3)C2)n1
REMARK SMILES IDX 19 1 18 2 16 3 17 4 15 6 12 7 13 8 74 9 14 10 73 11 11 12
REMARK SMILES IDX 7 13 8 14 75 15 9 17 10 18 6 19 5 20 1 21 2 22 3 23 76 24
REMARK SMILES IDX 4 25 20 26 21 27 22 28 23 29 24 31 25 32 26 33 72 34 27 35
REMARK SMILES IDX 71 36 28 37 29 38 30 39 65 40 31 41 70 42 64 43 66 44 32 45
REMARK SMILES IDX 69 46 63 47 62 48 33 50 55 51 40 52 54 53 41 54 44 55 53 56
REMARK SMILES IDX 67 57 42 58 43 59 52 61 68 62 45 63 34 64 35 65 39 66 36 67
REMARK SMILES IDX 38 68 37 69 56 70 57 71 61 72 58 73 60 74 59 75 46 76 47 77
REMARK SMILES IDX 51 78 48 79 50 80 49 81
REMARK H PARENT 18 5 7 16 22 30 66 49 44 60
REMARK Flexibility Score: inf
ROOT
ATOM      1  C   UNL A   1      31.518  30.353  26.175  1.00  0.00     0.118 C 
ENDROOT
BRANCH   1   2
ATOM      2  N   UNL A   1      31.147  30.068  24.802  1.00  0.00    -0.352 N 
ATOM      3  C   UNL A   1      31.040  28.888  24.112  1.00  0.00     0.251 C 
ATOM      4  O   UNL A   1      30.640  28.938  22.949  1.00  0.00    -0.269 OA
ATOM      5  H   UNL A   1      30.933  30.867  24.268  1.00  0.00     0.163 HD
BRANCH   3   6
ATOM      6  C   UNL A   1      31.328  27.564  24.725  1.00  0.00     0.039 A 
ATOM      7  C   UNL A   1      32.057  25.060  25.814  1.00  0.00    -0.039 A 
ATOM      8  C   UNL A   1      33.035  25.979  25.401  1.00  0.00     0.005 A 
ATOM      9  C   UNL A   1      30.714  25.441  25.736  1.00  0.00     0.005 A 
ATOM     10  C   UNL A   1      32.675  27.210  24.853  1.00  0.00     0.014 A 
ATOM     11  C   UNL A   1      30.356  26.690  25.215  1.00  0.00     0.014 A 
BRANCH   7  12
ATOM     12  C   UNL A   1      32.426  23.685  26.351  1.00  0.00     0.074 C 
ATOM     13  N   UNL A   1      32.610  21.238  25.714  1.00  0.00    -0.327 N 
ATOM     14  C   UNL A   1      34.028  21.246  26.098  1.00  0.00     0.262 C 
ATOM     15  C   UNL A   1      32.150  22.579  25.308  1.00  0.00     0.270 C 
ATOM     16  H   UNL A   1      32.076  20.961  26.538  1.00  0.00     0.348 HD
ATOM     17  C   UNL A   1      34.293  22.247  27.224  1.00  0.00     0.062 C 
ATOM     18  C   UNL A   1      33.890  23.657  26.809  1.00  0.00     0.020 C 
BRANCH  13  19
ATOM     19  C   UNL A   1      32.345  20.240  24.637  1.00  0.00     0.364 C 
BRANCH  19  20
ATOM     20  C   UNL A   1      32.824  18.847  24.919  1.00  0.00     0.281 A 
ATOM     21  C   UNL A   1      32.629  15.415  25.599  1.00  0.00     0.093 C 
ATOM     22  C   UNL A   1      33.016  16.795  25.258  1.00  0.00     0.169 A 
ATOM     23  N   UNL A   1      34.128  17.094  24.573  1.00  0.00    -0.063 NA
ATOM     24  N   UNL A   1      32.204  17.861  25.532  1.00  0.00    -0.191 NA
ATOM     25  O   UNL A   1      34.005  18.469  24.347  1.00  0.00    -0.333 OA
ENDBRANCH  19  20
ENDBRANCH  13  19
ENDBRANCH   7  12
ENDBRANCH   3   6
ENDBRANCH   1   2
BRANCH   1  26
ATOM     26  C   UNL A   1      31.418  31.848  26.470  1.00  0.00     0.042 C 
BRANCH  26  27
ATOM     27  C   UNL A   1      32.702  32.442  27.038  1.00  0.00     0.118 C 
BRANCH  27  28
ATOM     28  N   UNL A   1      32.489  33.766  27.600  1.00  0.00    -0.352 N 
ATOM     29  C   UNL A   1      33.180  34.421  28.589  1.00  0.00     0.251 C 
ATOM     30  H   UNL A   1      31.736  34.269  27.213  1.00  0.00     0.163 HD
ATOM     31  O   UNL A   1      32.716  35.448  29.074  1.00  0.00    -0.269 OA
BRANCH  29  32
ATOM     32  C   UNL A   1      34.472  33.896  29.081  1.00  0.00     0.039 A 
ATOM     33  C   UNL A   1      34.467  33.026  30.176  1.00  0.00     0.014 A 
ATOM     34  C   UNL A   1      35.685  34.292  28.510  1.00  0.00     0.014 A 
ATOM     35  C   UNL A   1      35.673  32.518  30.666  1.00  0.00     0.010 A 
ATOM     36  C   UNL A   1      36.881  33.735  28.958  1.00  0.00     0.010 A 
ATOM     37  C   UNL A   1      36.886  32.850  30.046  1.00  0.00    -0.014 A 
BRANCH  37  38
ATOM     38  C   UNL A   1      38.173  32.289  30.528  1.00  0.00     0.031 A 
ATOM     39  C   UNL A   1      38.703  31.005  29.952  1.00  0.00     0.074 A 
ATOM     40  C   UNL A   1      38.835  32.904  31.525  1.00  0.00     0.049 A 
ATOM     41  N   UNL A   1      39.774  30.331  30.285  1.00  0.00    -0.248 NA
ATOM     42  C   UNL A   1      37.914  30.386  28.875  1.00  0.00     0.031 C 
ATOM     43  C   UNL A   1      38.410  34.136  32.193  1.00  0.00     0.029 A 
ATOM     44  N   UNL A   1      40.006  32.570  32.159  1.00  0.00    -0.354 N 
ATOM     45  C   UNL A   1      39.776  29.201  29.476  1.00  0.00     0.074 A 
ATOM     46  C   UNL A   1      38.581  29.260  28.664  1.00  0.00     0.031 C 
ATOM     47  C   UNL A   1      39.317  34.466  33.126  1.00  0.00     0.029 A 
ATOM     48  C   UNL A   1      40.367  33.452  33.148  1.00  0.00     0.049 A 
ATOM     49  H   UNL A   1      40.537  31.774  31.926  1.00  0.00     0.167 HD
ATOM     50  C   UNL A   1      40.698  28.211  29.403  1.00  0.00     0.031 A 
ATOM     51  C   UNL A   1      41.421  33.442  33.983  1.00  0.00     0.031 A 
ATOM     52  C   UNL A   1      41.895  28.159  30.199  1.00  0.00     0.049 A 
ATOM     53  C   UNL A   1      42.428  32.333  33.886  1.00  0.00     0.074 A 
ATOM     54  C   UNL A   1      42.918  27.226  30.159  1.00  0.00     0.029 A 
ATOM     55  N   UNL A   1      42.228  29.078  31.181  1.00  0.00    -0.354 N 
ATOM     56  N   UNL A   1      42.446  31.303  33.074  1.00  0.00    -0.248 NA
ATOM     57  C   UNL A   1      43.567  32.389  34.813  1.00  0.00     0.031 C 
ATOM     58  C   UNL A   1      43.851  27.560  31.146  1.00  0.00     0.029 A 
ATOM     59  C   UNL A   1      43.432  28.725  31.768  1.00  0.00     0.049 A 
ATOM     60  H   UNL A   1      41.690  29.865  31.425  1.00  0.00     0.167 HD
ATOM     61  C   UNL A   1      43.608  30.604  33.374  1.00  0.00     0.074 A 
ATOM     62  C   UNL A   1      44.274  31.334  34.434  1.00  0.00     0.031 C 
ATOM     63  C   UNL A   1      44.080  29.462  32.821  1.00  0.00     0.031 A 
BRANCH  50  64
ATOM     64  C   UNL A   1      40.439  27.096  28.429  1.00  0.00    -0.014 A 
ATOM     65  C   UNL A   1      39.682  25.972  28.795  1.00  0.00     0.009 A 
ATOM     66  C   UNL A   1      40.931  27.186  27.118  1.00  0.00     0.009 A 
ATOM     67  C   UNL A   1      39.456  24.943  27.879  1.00  0.00     0.001 A 
ATOM     68  C   UNL A   1      40.680  26.168  26.195  1.00  0.00     0.001 A 
ATOM     69  C   UNL A   1      39.951  25.043  26.579  1.00  0.00     0.000 A 
ENDBRANCH  50  64
BRANCH  51  70
ATOM     70  C   UNL A   1      41.590  34.534  34.977  1.00  0.00    -0.014 A 
ATOM     71  C   UNL A   1      42.291  35.701  34.637  1.00  0.00     0.009 A 
ATOM     72  C   UNL A   1      41.050  34.416  36.266  1.00  0.00     0.009 A 
ATOM     73  C   UNL A   1      42.468  36.719  35.577  1.00  0.00     0.001 A 
ATOM     74  C   UNL A   1      41.205  35.447  37.196  1.00  0.00     0.001 A 
ATOM     75  C   UNL A   1      41.921  36.592  36.854  1.00  0.00     0.000 A 
ENDBRANCH  51  70
BRANCH  63  76
ATOM     76  C   UNL A   1      45.396  28.948  33.330  1.00  0.00    -0.014 A 
ATOM     77  C   UNL A   1      45.458  28.042  34.400  1.00  0.00     0.009 A 
ATOM     78  C   UNL A   1      46.587  29.349  32.705  1.00  0.00     0.009 A 
ATOM     79  C   UNL A   1      46.692  27.571  34.854  1.00  0.00     0.001 A 
ATOM     80  C   UNL A   1      47.817  28.857  33.143  1.00  0.00     0.001 A 
ATOM     81  C   UNL A   1      47.869  27.975  34.222  1.00  0.00     0.000 A 
ENDBRANCH  63  76
ENDBRANCH  37  38
ENDBRANCH  29  32
ENDBRANCH  27  28
ENDBRANCH  26  27
ENDBRANCH   1  26
TORSDOF 13
ENDMDL
MODEL 3
REMARK VINA RESULT:     -11.6      4.002      8.386
REMARK SMILES Cc1noc(C[N@H+]2CCC[C@@H](c3ccc(C(=O)NCCCNC(=O)c4ccc(-c5c6nc(c(-c7ccccc7)c7ccc([nH]7)c(-c7ccccc7)c7nc(c(-c8ccccc8)c8ccc5[nH]8)C=C7)C=C6)cc4)cc3)C2)n1
REMARK SMILES IDX 19 1 18 2 16 3 17 4 15 6 12 7 13 8 74 9 14 10 73 11 11 12
REMARK SMILES IDX 7 13 8 14 75 15 9 17 10 18 6 19 5 20 1 21 2 22 3 23 76 24
REMARK SMILES IDX 4 25 20 26 21 27 22 28 23 29 24 31 25 32 26 33 72 34 27 35
REMARK SMILES IDX 71 36 28 37 29 38 30 39 65 40 31 41 70 42 64 43 66 44 32 45
REMARK SMILES IDX 69 46 63 47 62 48 33 50 55 51 40 52 54 53 41 54 44 55 53 56
REMARK SMILES IDX 67 57 42 58 43 59 52 61 68 62 45 63 34 64 35 65 39 66 36 67
REMARK SMILES IDX 38 68 37 69 56 70 57 71 61 72 58 73 60 74 59 75 46 76 47 77
REMARK SMILES IDX 51 78 48 79 50 80 49 81
REMARK H PARENT 18 5 7 16 22 30 66 49 44 60
REMARK Flexibility Score: inf
ROOT
ATOM      1  C   UNL A   1      35.937  20.689  24.921  1.00  0.00     0.118 C 
ENDROOT
BRANCH   1   2
ATOM      2  N   UNL A   1      34.666  20.021  25.129  1.00  0.00    -0.352 N 
ATOM      3  C   UNL A   1      33.376  20.430  24.915  1.00  0.00     0.251 C 
ATOM      4  O   UNL A   1      32.474  19.620  25.130  1.00  0.00    -0.269 OA
ATOM      5  H   UNL A   1      34.745  19.109  25.490  1.00  0.00     0.163 HD
BRANCH   3   6
ATOM      6  C   UNL A   1      33.031  21.776  24.384  1.00  0.00     0.039 A 
ATOM      7  C   UNL A   1      32.435  24.271  23.197  1.00  0.00    -0.039 A 
ATOM      8  C   UNL A   1      32.587  23.117  22.412  1.00  0.00     0.005 A 
ATOM      9  C   UNL A   1      32.519  24.143  24.587  1.00  0.00     0.005 A 
ATOM     10  C   UNL A   1      32.893  21.888  22.997  1.00  0.00     0.014 A 
ATOM     11  C   UNL A   1      32.794  22.903  25.174  1.00  0.00     0.014 A 
BRANCH   7  12
ATOM     12  C   UNL A   1      32.168  25.634  22.575  1.00  0.00     0.074 C 
ATOM     13  N   UNL A   1      30.606  27.629  22.648  1.00  0.00    -0.327 N 
ATOM     14  C   UNL A   1      31.748  28.510  22.933  1.00  0.00     0.262 C 
ATOM     15  C   UNL A   1      30.856  26.251  23.108  1.00  0.00     0.270 C 
ATOM     16  H   UNL A   1      30.491  27.604  21.635  1.00  0.00     0.348 HD
ATOM     17  C   UNL A   1      33.033  27.977  22.298  1.00  0.00     0.062 C 
ATOM     18  C   UNL A   1      33.356  26.577  22.808  1.00  0.00     0.020 C 
BRANCH  13  19
ATOM     19  C   UNL A   1      29.347  28.164  23.241  1.00  0.00     0.364 C 
BRANCH  19  20
ATOM     20  C   UNL A   1      28.929  29.518  22.751  1.00  0.00     0.281 A 
ATOM     21  C   UNL A   1      28.622  33.009  22.703  1.00  0.00     0.093 C 
ATOM     22  C   UNL A   1      28.644  31.562  22.425  1.00  0.00     0.169 A 
ATOM     23  N   UNL A   1      28.637  31.055  21.186  1.00  0.00    -0.063 NA
ATOM     24  N   UNL A   1      28.776  30.638  23.425  1.00  0.00    -0.191 NA
ATOM     25  O   UNL A   1      28.824  29.685  21.399  1.00  0.00    -0.333 OA
ENDBRANCH  19  20
ENDBRANCH  13  19
ENDBRANCH   7  12
ENDBRANCH   3   6
ENDBRANCH   1   2
BRANCH   1  26
ATOM     26  C   UNL A   1      37.097  19.699  25.010  1.00  0.00     0.042 C 
BRANCH  26  27
ATOM     27  C   UNL A   1      38.434  20.358  25.331  1.00  0.00     0.118 C 
BRANCH  27  28
ATOM     28  N   UNL A   1      39.467  19.379  25.628  1.00  0.00    -0.352 N 
ATOM     29  C   UNL A   1      40.749  19.568  26.082  1.00  0.00     0.251 C 
ATOM     30  H   UNL A   1      39.210  18.441  25.481  1.00  0.00     0.163 HD
ATOM     31  O   UNL A   1      41.541  18.631  26.067  1.00  0.00    -0.269 OA
BRANCH  29  32
ATOM     32  C   UNL A   1      41.186  20.890  26.580  1.00  0.00     0.039 A 
ATOM     33  C   UNL A   1      41.140  21.137  27.956  1.00  0.00     0.014 A 
ATOM     34  C   UNL A   1      41.590  21.902  25.704  1.00  0.00     0.014 A 
ATOM     35  C   UNL A   1      41.542  22.378  28.455  1.00  0.00     0.010 A 
ATOM     36  C   UNL A   1      42.051  23.117  26.207  1.00  0.00     0.010 A 
ATOM     37  C   UNL A   1      42.023  23.369  27.585  1.00  0.00    -0.014 A 
BRANCH  37  38
ATOM     38  C   UNL A   1      42.492  24.679  28.102  1.00  0.00     0.031 A 
ATOM     39  C   UNL A   1      41.509  25.788  28.359  1.00  0.00     0.074 A 
ATOM     40  C   UNL A   1      43.809  24.890  28.284  1.00  0.00     0.049 A 
ATOM     41  N   UNL A   1      41.735  27.016  28.753  1.00  0.00    -0.248 NA
ATOM     42  C   UNL A   1      40.089  25.484  28.122  1.00  0.00     0.031 C 
ATOM     43  C   UNL A   1      44.867  23.907  28.038  1.00  0.00     0.029 A 
ATOM     44  N   UNL A   1      44.484  26.006  28.710  1.00  0.00    -0.354 N 
ATOM     45  C   UNL A   1      40.491  27.634  28.790  1.00  0.00     0.074 A 
ATOM     46  C   UNL A   1      39.520  26.661  28.342  1.00  0.00     0.031 C 
ATOM     47  C   UNL A   1      46.054  24.457  28.339  1.00  0.00     0.029 A 
ATOM     48  C   UNL A   1      45.846  25.838  28.764  1.00  0.00     0.049 A 
ATOM     49  H   UNL A   1      44.034  26.846  28.957  1.00  0.00     0.167 HD
ATOM     50  C   UNL A   1      40.182  28.896  29.177  1.00  0.00     0.031 A 
ATOM     51  C   UNL A   1      46.819  26.700  29.109  1.00  0.00     0.031 A 
ATOM     52  C   UNL A   1      41.145  29.860  29.636  1.00  0.00     0.049 A 
ATOM     53  C   UNL A   1      46.452  28.094  29.531  1.00  0.00     0.074 A 
ATOM     54  C   UNL A   1      40.923  31.145  30.103  1.00  0.00     0.029 A 
ATOM     55  N   UNL A   1      42.513  29.647  29.685  1.00  0.00    -0.354 N 
ATOM     56  N   UNL A   1      45.265  28.644  29.618  1.00  0.00    -0.248 NA
ATOM     57  C   UNL A   1      47.558  28.982  29.914  1.00  0.00     0.031 C 
ATOM     58  C   UNL A   1      42.163  31.723  30.396  1.00  0.00     0.029 A 
ATOM     59  C   UNL A   1      43.151  30.781  30.156  1.00  0.00     0.049 A 
ATOM     60  H   UNL A   1      42.964  28.811  29.424  1.00  0.00     0.167 HD
ATOM     61  C   UNL A   1      45.479  29.933  30.089  1.00  0.00     0.074 A 
ATOM     62  C   UNL A   1      46.907  30.078  30.281  1.00  0.00     0.031 C 
ATOM     63  C   UNL A   1      44.573  30.908  30.340  1.00  0.00     0.031 A 
BRANCH  50  64
ATOM     64  C   UNL A   1      38.737  29.304  29.111  1.00  0.00    -0.014 A 
ATOM     65  C   UNL A   1      38.193  29.867  27.945  1.00  0.00     0.009 A 
ATOM     66  C   UNL A   1      37.900  29.094  30.217  1.00  0.00     0.009 A 
ATOM     67  C   UNL A   1      36.850  30.246  27.903  1.00  0.00     0.001 A 
ATOM     68  C   UNL A   1      36.551  29.448  30.163  1.00  0.00     0.001 A 
ATOM     69  C   UNL A   1      36.029  30.032  29.009  1.00  0.00     0.000 A 
ENDBRANCH  50  64
BRANCH  51  70
ATOM     70  C   UNL A   1      48.239  26.264  29.088  1.00  0.00    -0.014 A 
ATOM     71  C   UNL A   1      49.019  26.442  27.935  1.00  0.00     0.009 A 
ATOM     72  C   UNL A   1      48.821  25.672  30.219  1.00  0.00     0.009 A 
ATOM     73  C   UNL A   1      50.348  26.014  27.908  1.00  0.00     0.001 A 
ATOM     74  C   UNL A   1      50.158  25.269  30.197  1.00  0.00     0.001 A 
ATOM     75  C   UNL A   1      50.917  25.432  29.040  1.00  0.00     0.000 A 
ENDBRANCH  51  70
BRANCH  63  76
ATOM     76  C   UNL A   1      45.099  32.207  30.882  1.00  0.00    -0.014 A 
ATOM     77  C   UNL A   1      45.455  33.260  30.025  1.00  0.00     0.009 A 
ATOM     78  C   UNL A   1      45.202  32.390  32.269  1.00  0.00     0.009 A 
ATOM     79  C   UNL A   1      45.934  34.462  30.550  1.00  0.00     0.001 A 
ATOM     80  C   UNL A   1      45.657  33.601  32.791  1.00  0.00     0.001 A 
ATOM     81  C   UNL A   1      46.030  34.633  31.931  1.00  0.00     0.000 A 
ENDBRANCH  63  76
ENDBRANCH  37  38
ENDBRANCH  29  32
ENDBRANCH  27  28
ENDBRANCH  26  27
ENDBRANCH   1  26
TORSDOF 13
ENDMDL
