MODEL 1
REMARK VINA RESULT:     -12.0      0.000      0.000
REMARK SMILES C[C@H](C[N@H+]1[C@@H]2CC[C@H]1C[C@H](CC(=O)NCCCNC(=O)c1ccc(-c3c4nc(c(-c5ccccc5)c5ccc([nH]5)c(-c5ccccc5)c5nc(c(-c6ccccc6)c6ccc3[nH]6)C=C5)C=C4)cc1)C2)c1ccccc1
REMARK SMILES IDX 15 1 14 2 12 3 13 4 11 6 10 7 4 8 5 9 8 10 6 12 69 13 7 14
REMARK SMILES IDX 9 15 3 16 2 17 1 18 70 19 71 20 75 21 72 22 74 23 73 24
REMARK SMILES IDX 16 25 17 26 18 27 19 28 20 30 21 31 22 32 68 33 23 34 67 35
REMARK SMILES IDX 24 36 25 37 26 38 61 39 27 40 66 41 60 42 62 43 28 44 65 45
REMARK SMILES IDX 59 46 58 47 29 49 51 50 36 51 50 52 37 53 40 54 49 55 63 56
REMARK SMILES IDX 38 57 39 58 48 60 64 61 41 62 30 63 31 64 35 65 32 66 34 67
REMARK SMILES IDX 33 68 52 69 53 70 57 71 54 72 56 73 55 74 42 75 43 76 47 77
REMARK SMILES IDX 44 78 46 79 45 80
REMARK H PARENT 14 5 4 11 18 29 62 48 40 59
REMARK Flexibility Score: inf
ROOT
ATOM      1  C   UNL A   1      32.314  27.221  25.301  1.00  0.00     0.117 C 
ENDROOT
BRANCH   1   2
ATOM      2  N   UNL A   1      31.761  26.302  26.286  1.00  0.00    -0.356 N 
ATOM      3  C   UNL A   1      31.741  24.940  26.331  1.00  0.00     0.220 C 
ATOM      4  O   UNL A   1      31.075  24.406  27.222  1.00  0.00    -0.275 OA
ATOM      5  H   UNL A   1      31.327  26.741  27.054  1.00  0.00     0.163 HD
BRANCH   3   6
ATOM      6  C   UNL A   1      32.522  24.095  25.344  1.00  0.00     0.104 C 
BRANCH   6   7
ATOM      7  C   UNL A   1      34.062  24.194  25.497  1.00  0.00     0.010 C 
ATOM      8  N   UNL A   1      35.741  21.912  24.984  1.00  0.00    -0.330 N 
ATOM      9  C   UNL A   1      35.975  23.055  24.130  1.00  0.00     0.184 C 
ATOM     10  C   UNL A   1      35.774  22.401  26.338  1.00  0.00     0.184 C 
ATOM     11  H   UNL A   1      36.327  21.081  24.904  1.00  0.00     0.348 HD
ATOM     12  C   UNL A   1      37.155  23.723  24.853  1.00  0.00     0.071 C 
ATOM     13  C   UNL A   1      34.749  23.973  24.127  1.00  0.00     0.069 C 
ATOM     14  C   UNL A   1      37.005  23.318  26.318  1.00  0.00     0.071 C 
ATOM     15  C   UNL A   1      34.532  23.242  26.611  1.00  0.00     0.069 C 
BRANCH   8  16
ATOM     16  C   UNL A   1      35.204  20.647  24.512  1.00  0.00     0.270 C 
BRANCH  16  17
ATOM     17  C   UNL A   1      33.771  20.036  24.764  1.00  0.00     0.071 C 
ATOM     18  C   UNL A   1      32.669  20.809  24.014  1.00  0.00     0.019 C 
BRANCH  17  19
ATOM     19  C   UNL A   1      33.561  18.517  24.823  1.00  0.00    -0.040 A 
ATOM     20  C   UNL A   1      32.666  17.902  25.703  1.00  0.00     0.004 A 
ATOM     21  C   UNL A   1      34.171  17.678  23.865  1.00  0.00     0.004 A 
ATOM     22  C   UNL A   1      32.511  16.509  25.741  1.00  0.00     0.000 A 
ATOM     23  C   UNL A   1      33.996  16.289  23.873  1.00  0.00     0.000 A 
ATOM     24  C   UNL A   1      33.187  15.699  24.835  1.00  0.00     0.000 A 
ENDBRANCH  17  19
ENDBRANCH  16  17
ENDBRANCH   8  16
ENDBRANCH   6   7
ENDBRANCH   3   6
ENDBRANCH   1   2
BRANCH   1  25
ATOM     25  C   UNL A   1      33.462  28.040  25.894  1.00  0.00     0.042 C 
BRANCH  25  26
ATOM     26  C   UNL A   1      33.269  28.414  27.355  1.00  0.00     0.118 C 
BRANCH  26  27
ATOM     27  N   UNL A   1      33.339  29.850  27.564  1.00  0.00    -0.352 N 
ATOM     28  C   UNL A   1      34.338  30.649  28.059  1.00  0.00     0.251 C 
ATOM     29  H   UNL A   1      32.523  30.337  27.305  1.00  0.00     0.163 HD
ATOM     30  O   UNL A   1      34.064  31.823  28.337  1.00  0.00    -0.269 OA
BRANCH  28  31
ATOM     31  C   UNL A   1      35.722  30.162  28.291  1.00  0.00     0.039 A 
ATOM     32  C   UNL A   1      36.051  29.665  29.560  1.00  0.00     0.014 A 
ATOM     33  C   UNL A   1      36.729  30.254  27.328  1.00  0.00     0.014 A 
ATOM     34  C   UNL A   1      37.352  29.231  29.841  1.00  0.00     0.010 A 
ATOM     35  C   UNL A   1      37.996  29.720  27.572  1.00  0.00     0.010 A 
ATOM     36  C   UNL A   1      38.335  29.226  28.839  1.00  0.00    -0.014 A 
BRANCH  36  37
ATOM     37  C   UNL A   1      39.724  28.757  29.109  1.00  0.00     0.031 A 
ATOM     38  C   UNL A   1      40.724  29.674  29.774  1.00  0.00     0.074 A 
ATOM     39  C   UNL A   1      40.114  27.529  28.712  1.00  0.00     0.049 A 
ATOM     40  N   UNL A   1      41.995  29.471  30.024  1.00  0.00    -0.248 NA
ATOM     41  C   UNL A   1      40.243  31.005  30.180  1.00  0.00     0.031 C 
ATOM     42  C   UNL A   1      39.273  26.554  28.014  1.00  0.00     0.029 A 
ATOM     43  N   UNL A   1      41.325  26.892  28.833  1.00  0.00    -0.354 N 
ATOM     44  C   UNL A   1      42.467  30.657  30.575  1.00  0.00     0.074 A 
ATOM     45  C   UNL A   1      41.361  31.589  30.583  1.00  0.00     0.031 C 
ATOM     46  C   UNL A   1      39.982  25.435  27.798  1.00  0.00     0.029 A 
ATOM     47  C   UNL A   1      41.338  25.624  28.304  1.00  0.00     0.049 A 
ATOM     48  H   UNL A   1      42.110  27.306  29.260  1.00  0.00     0.167 HD
ATOM     49  C   UNL A   1      43.703  30.945  31.051  1.00  0.00     0.031 A 
ATOM     50  C   UNL A   1      42.327  24.714  28.229  1.00  0.00     0.031 A 
ATOM     51  C   UNL A   1      44.794  30.009  31.091  1.00  0.00     0.049 A 
ATOM     52  C   UNL A   1      43.679  25.043  28.800  1.00  0.00     0.074 A 
ATOM     53  C   UNL A   1      46.057  30.181  31.633  1.00  0.00     0.029 A 
ATOM     54  N   UNL A   1      44.751  28.724  30.576  1.00  0.00    -0.354 N 
ATOM     55  N   UNL A   1      44.084  26.145  29.381  1.00  0.00    -0.248 NA
ATOM     56  C   UNL A   1      44.705  23.993  28.714  1.00  0.00     0.031 C 
ATOM     57  C   UNL A   1      46.792  29.013  31.409  1.00  0.00     0.029 A 
ATOM     58  C   UNL A   1      45.971  28.098  30.770  1.00  0.00     0.049 A 
ATOM     59  H   UNL A   1      43.969  28.316  30.138  1.00  0.00     0.167 HD
ATOM     60  C   UNL A   1      45.404  25.915  29.748  1.00  0.00     0.074 A 
ATOM     61  C   UNL A   1      45.724  24.562  29.344  1.00  0.00     0.031 C 
ATOM     62  C   UNL A   1      46.275  26.752  30.362  1.00  0.00     0.031 A 
BRANCH  49  63
ATOM     63  C   UNL A   1      43.942  32.336  31.572  1.00  0.00    -0.014 A 
ATOM     64  C   UNL A   1      44.381  33.367  30.727  1.00  0.00     0.009 A 
ATOM     65  C   UNL A   1      43.685  32.627  32.922  1.00  0.00     0.009 A 
ATOM     66  C   UNL A   1      44.592  34.653  31.231  1.00  0.00     0.001 A 
ATOM     67  C   UNL A   1      43.869  33.920  33.415  1.00  0.00     0.001 A 
ATOM     68  C   UNL A   1      44.333  34.929  32.572  1.00  0.00     0.000 A 
ENDBRANCH  49  63
BRANCH  50  69
ATOM     69  C   UNL A   1      42.077  23.391  27.598  1.00  0.00    -0.014 A 
ATOM     70  C   UNL A   1      41.482  22.354  28.333  1.00  0.00     0.009 A 
ATOM     71  C   UNL A   1      42.439  23.156  26.263  1.00  0.00     0.009 A 
ATOM     72  C   UNL A   1      41.280  21.100  27.752  1.00  0.00     0.001 A 
ATOM     73  C   UNL A   1      42.210  21.910  25.676  1.00  0.00     0.001 A 
ATOM     74  C   UNL A   1      41.640  20.881  26.424  1.00  0.00     0.000 A 
ENDBRANCH  50  69
BRANCH  62  75
ATOM     75  C   UNL A   1      47.647  26.218  30.657  1.00  0.00    -0.014 A 
ATOM     76  C   UNL A   1      48.652  26.218  29.677  1.00  0.00     0.009 A 
ATOM     77  C   UNL A   1      47.947  25.741  31.943  1.00  0.00     0.009 A 
ATOM     78  C   UNL A   1      49.922  25.718  29.971  1.00  0.00     0.001 A 
ATOM     79  C   UNL A   1      49.225  25.268  32.241  1.00  0.00     0.001 A 
ATOM     80  C   UNL A   1      50.209  25.247  31.253  1.00  0.00     0.000 A 
ENDBRANCH  62  75
ENDBRANCH  36  37
ENDBRANCH  28  31
ENDBRANCH  26  27
ENDBRANCH  25  26
ENDBRANCH   1  25
TORSDOF 14
ENDMDL
MODEL 2
REMARK VINA RESULT:     -11.9      2.168      7.194
REMARK SMILES C[C@H](C[N@H+]1[C@@H]2CC[C@H]1C[C@H](CC(=O)NCCCNC(=O)c1ccc(-c3c4nc(c(-c5ccccc5)c5ccc([nH]5)c(-c5ccccc5)c5nc(c(-c6ccccc6)c6ccc3[nH]6)C=C5)C=C4)cc1)C2)c1ccccc1
REMARK SMILES IDX 15 1 14 2 12 3 13 4 11 6 10 7 4 8 5 9 8 10 6 12 69 13 7 14
REMARK SMILES IDX 9 15 3 16 2 17 1 18 70 19 71 20 75 21 72 22 74 23 73 24
REMARK SMILES IDX 16 25 17 26 18 27 19 28 20 30 21 31 22 32 68 33 23 34 67 35
REMARK SMILES IDX 24 36 25 37 26 38 61 39 27 40 66 41 60 42 62 43 28 44 65 45
REMARK SMILES IDX 59 46 58 47 29 49 51 50 36 51 50 52 37 53 40 54 49 55 63 56
REMARK SMILES IDX 38 57 39 58 48 60 64 61 41 62 30 63 31 64 35 65 32 66 34 67
REMARK SMILES IDX 33 68 52 69 53 70 57 71 54 72 56 73 55 74 42 75 43 76 47 77
REMARK SMILES IDX 44 78 46 79 45 80
REMARK H PARENT 14 5 4 11 18 29 62 48 40 59
REMARK Flexibility Score: inf
ROOT
ATOM      1  C   UNL A   1      37.412  20.885  24.781  1.00  0.00     0.117 C 
ENDROOT
BRANCH   1   2
ATOM      2  N   UNL A   1      38.135  22.101  25.128  1.00  0.00    -0.356 N 
ATOM      3  C   UNL A   1      37.707  23.279  25.663  1.00  0.00     0.220 C 
ATOM      4  O   UNL A   1      38.516  24.207  25.727  1.00  0.00    -0.275 OA
ATOM      5  H   UNL A   1      39.103  22.065  24.945  1.00  0.00     0.163 HD
BRANCH   3   6
ATOM      6  C   UNL A   1      36.294  23.452  26.187  1.00  0.00     0.104 C 
BRANCH   6   7
ATOM      7  C   UNL A   1      35.397  24.366  25.315  1.00  0.00     0.010 C 
ATOM      8  N   UNL A   1      33.081  23.306  23.971  1.00  0.00    -0.330 N 
ATOM      9  C   UNL A   1      32.811  24.342  24.942  1.00  0.00     0.184 C 
ATOM     10  C   UNL A   1      34.109  23.820  23.102  1.00  0.00     0.184 C 
ATOM     11  H   UNL A   1      32.324  22.913  23.413  1.00  0.00     0.348 HD
ATOM     12  C   UNL A   1      32.733  25.581  24.035  1.00  0.00     0.071 C 
ATOM     13  C   UNL A   1      33.978  24.462  25.927  1.00  0.00     0.069 C 
ATOM     14  C   UNL A   1      33.616  25.249  22.833  1.00  0.00     0.071 C 
ATOM     15  C   UNL A   1      35.433  23.883  23.854  1.00  0.00     0.069 C 
BRANCH   8  16
ATOM     16  C   UNL A   1      32.662  21.924  24.126  1.00  0.00     0.270 C 
BRANCH  16  17
ATOM     17  C   UNL A   1      33.425  20.744  24.845  1.00  0.00     0.071 C 
ATOM     18  C   UNL A   1      33.240  20.779  26.375  1.00  0.00     0.019 C 
BRANCH  17  19
ATOM     19  C   UNL A   1      33.453  19.336  24.236  1.00  0.00    -0.040 A 
ATOM     20  C   UNL A   1      32.570  18.917  23.236  1.00  0.00     0.004 A 
ATOM     21  C   UNL A   1      34.491  18.438  24.569  1.00  0.00     0.004 A 
ATOM     22  C   UNL A   1      32.613  17.616  22.713  1.00  0.00     0.000 A 
ATOM     23  C   UNL A   1      34.563  17.149  24.027  1.00  0.00     0.000 A 
ATOM     24  C   UNL A   1      33.601  16.726  23.119  1.00  0.00     0.000 A 
ENDBRANCH  17  19
ENDBRANCH  16  17
ENDBRANCH   8  16
ENDBRANCH   6   7
ENDBRANCH   3   6
ENDBRANCH   1   2
BRANCH   1  25
ATOM     25  C   UNL A   1      38.292  19.647  24.965  1.00  0.00     0.042 C 
BRANCH  25  26
ATOM     26  C   UNL A   1      39.212  19.714  26.174  1.00  0.00     0.118 C 
BRANCH  26  27
ATOM     27  N   UNL A   1      40.513  19.126  25.900  1.00  0.00    -0.352 N 
ATOM     28  C   UNL A   1      41.773  19.668  25.899  1.00  0.00     0.251 C 
ATOM     29  H   UNL A   1      40.485  18.168  25.675  1.00  0.00     0.163 HD
ATOM     30  O   UNL A   1      42.696  19.000  25.419  1.00  0.00    -0.269 OA
BRANCH  28  31
ATOM     31  C   UNL A   1      42.071  21.024  26.431  1.00  0.00     0.039 A 
ATOM     32  C   UNL A   1      42.026  21.223  27.818  1.00  0.00     0.014 A 
ATOM     33  C   UNL A   1      42.313  22.123  25.605  1.00  0.00     0.014 A 
ATOM     34  C   UNL A   1      42.260  22.490  28.364  1.00  0.00     0.010 A 
ATOM     35  C   UNL A   1      42.656  23.361  26.154  1.00  0.00     0.010 A 
ATOM     36  C   UNL A   1      42.608  23.570  27.539  1.00  0.00    -0.014 A 
BRANCH  36  37
ATOM     37  C   UNL A   1      42.875  24.926  28.098  1.00  0.00     0.031 A 
ATOM     38  C   UNL A   1      44.272  25.316  28.521  1.00  0.00     0.074 A 
ATOM     39  C   UNL A   1      41.861  25.795  28.282  1.00  0.00     0.049 A 
ATOM     40  N   UNL A   1      44.686  26.419  29.095  1.00  0.00    -0.248 NA
ATOM     41  C   UNL A   1      45.337  24.324  28.301  1.00  0.00     0.031 C 
ATOM     42  C   UNL A   1      40.453  25.539  27.968  1.00  0.00     0.029 A 
ATOM     43  N   UNL A   1      41.858  27.073  28.786  1.00  0.00    -0.354 N 
ATOM     44  C   UNL A   1      46.042  26.235  29.339  1.00  0.00     0.074 A 
ATOM     45  C   UNL A   1      46.373  24.900  28.893  1.00  0.00     0.031 C 
ATOM     46  C   UNL A   1      39.731  26.633  28.256  1.00  0.00     0.029 A 
ATOM     47  C   UNL A   1      40.613  27.654  28.813  1.00  0.00     0.049 A 
ATOM     48  H   UNL A   1      42.673  27.529  29.100  1.00  0.00     0.167 HD
ATOM     49  C   UNL A   1      46.940  27.100  29.869  1.00  0.00     0.031 A 
ATOM     50  C   UNL A   1      40.220  28.869  29.239  1.00  0.00     0.031 A 
ATOM     51  C   UNL A   1      46.629  28.446  30.270  1.00  0.00     0.049 A 
ATOM     52  C   UNL A   1      41.242  29.827  29.786  1.00  0.00     0.074 A 
ATOM     53  C   UNL A   1      47.489  29.426  30.737  1.00  0.00     0.029 A 
ATOM     54  N   UNL A   1      45.361  29.004  30.245  1.00  0.00    -0.354 N 
ATOM     55  N   UNL A   1      42.532  29.658  29.942  1.00  0.00    -0.248 NA
ATOM     56  C   UNL A   1      40.751  31.149  30.204  1.00  0.00     0.031 C 
ATOM     57  C   UNL A   1      46.734  30.566  31.033  1.00  0.00     0.029 A 
ATOM     58  C   UNL A   1      45.413  30.308  30.707  1.00  0.00     0.049 A 
ATOM     59  H   UNL A   1      44.546  28.542  29.945  1.00  0.00     0.167 HD
ATOM     60  C   UNL A   1      43.010  30.857  30.456  1.00  0.00     0.074 A 
ATOM     61  C   UNL A   1      41.877  31.751  30.565  1.00  0.00     0.031 C 
ATOM     62  C   UNL A   1      44.276  31.186  30.810  1.00  0.00     0.031 A 
BRANCH  49  63
ATOM     63  C   UNL A   1      48.354  26.618  30.044  1.00  0.00    -0.014 A 
ATOM     64  C   UNL A   1      48.750  25.921  31.196  1.00  0.00     0.009 A 
ATOM     65  C   UNL A   1      49.293  26.827  29.021  1.00  0.00     0.009 A 
ATOM     66  C   UNL A   1      50.067  25.477  31.337  1.00  0.00     0.001 A 
ATOM     67  C   UNL A   1      50.600  26.356  29.152  1.00  0.00     0.001 A 
ATOM     68  C   UNL A   1      50.990  25.691  30.314  1.00  0.00     0.000 A 
ENDBRANCH  49  63
BRANCH  50  69
ATOM     69  C   UNL A   1      38.789  29.262  29.154  1.00  0.00    -0.014 A 
ATOM     70  C   UNL A   1      37.937  29.091  30.257  1.00  0.00     0.009 A 
ATOM     71  C   UNL A   1      38.264  29.798  27.968  1.00  0.00     0.009 A 
ATOM     72  C   UNL A   1      36.584  29.424  30.165  1.00  0.00     0.001 A 
ATOM     73  C   UNL A   1      36.917  30.157  27.889  1.00  0.00     0.001 A 
ATOM     74  C   UNL A   1      36.077  29.961  28.984  1.00  0.00     0.000 A 
ENDBRANCH  50  69
BRANCH  62  75
ATOM     75  C   UNL A   1      44.505  32.578  31.323  1.00  0.00    -0.014 A 
ATOM     76  C   UNL A   1      44.797  33.636  30.447  1.00  0.00     0.009 A 
ATOM     77  C   UNL A   1      44.392  32.841  32.697  1.00  0.00     0.009 A 
ATOM     78  C   UNL A   1      45.005  34.924  30.944  1.00  0.00     0.001 A 
ATOM     79  C   UNL A   1      44.574  34.135  33.187  1.00  0.00     0.001 A 
ATOM     80  C   UNL A   1      44.889  35.173  32.312  1.00  0.00     0.000 A 
ENDBRANCH  62  75
ENDBRANCH  36  37
ENDBRANCH  28  31
ENDBRANCH  26  27
ENDBRANCH  25  26
ENDBRANCH   1  25
TORSDOF 14
ENDMDL
MODEL 3
REMARK VINA RESULT:     -11.9      2.315      7.104
REMARK SMILES C[C@H](C[N@H+]1[C@@H]2CC[C@H]1C[C@H](CC(=O)NCCCNC(=O)c1ccc(-c3c4nc(c(-c5ccccc5)c5ccc([nH]5)c(-c5ccccc5)c5nc(c(-c6ccccc6)c6ccc3[nH]6)C=C5)C=C4)cc1)C2)c1ccccc1
REMARK SMILES IDX 15 1 14 2 12 3 13 4 11 6 10 7 4 8 5 9 8 10 6 12 69 13 7 14
REMARK SMILES IDX 9 15 3 16 2 17 1 18 70 19 71 20 75 21 72 22 74 23 73 24
REMARK SMILES IDX 16 25 17 26 18 27 19 28 20 30 21 31 22 32 68 33 23 34 67 35
REMARK SMILES IDX 24 36 25 37 26 38 61 39 27 40 66 41 60 42 62 43 28 44 65 45
REMARK SMILES IDX 59 46 58 47 29 49 51 50 36 51 50 52 37 53 40 54 49 55 63 56
REMARK SMILES IDX 38 57 39 58 48 60 64 61 41 62 30 63 31 64 35 65 32 66 34 67
REMARK SMILES IDX 33 68 52 69 53 70 57 71 54 72 56 73 55 74 42 75 43 76 47 77
REMARK SMILES IDX 44 78 46 79 45 80
REMARK H PARENT 14 5 4 11 18 29 62 48 40 59
REMARK Flexibility Score: inf
ROOT
ATOM      1  C   UNL A   1      37.399  21.064  24.642  1.00  0.00     0.117 C 
ENDROOT
BRANCH   1   2
ATOM      2  N   UNL A   1      38.114  22.241  25.114  1.00  0.00    -0.356 N 
ATOM      3  C   UNL A   1      37.666  23.387  25.702  1.00  0.00     0.220 C 
ATOM      4  O   UNL A   1      38.481  24.297  25.877  1.00  0.00    -0.275 OA
ATOM      5  H   UNL A   1      39.090  22.203  24.988  1.00  0.00     0.163 HD
BRANCH   3   6
ATOM      6  C   UNL A   1      36.227  23.547  26.150  1.00  0.00     0.104 C 
BRANCH   6   7
ATOM      7  C   UNL A   1      35.362  24.433  25.219  1.00  0.00     0.010 C 
ATOM      8  N   UNL A   1      33.011  23.370  23.941  1.00  0.00    -0.330 N 
ATOM      9  C   UNL A   1      32.777  24.475  24.843  1.00  0.00     0.184 C 
ATOM     10  C   UNL A   1      34.055  23.791  23.043  1.00  0.00     0.184 C 
ATOM     11  H   UNL A   1      32.240  22.968  23.408  1.00  0.00     0.348 HD
ATOM     12  C   UNL A   1      32.742  25.654  23.858  1.00  0.00     0.071 C 
ATOM     13  C   UNL A   1      33.947  24.618  25.821  1.00  0.00     0.069 C 
ATOM     14  C   UNL A   1      33.613  25.215  22.682  1.00  0.00     0.071 C 
ATOM     15  C   UNL A   1      35.381  23.856  23.792  1.00  0.00     0.069 C 
BRANCH   8  16
ATOM     16  C   UNL A   1      32.544  22.016  24.185  1.00  0.00     0.270 C 
BRANCH  16  17
ATOM     17  C   UNL A   1      33.292  20.839  24.924  1.00  0.00     0.071 C 
ATOM     18  C   UNL A   1      33.019  20.839  26.441  1.00  0.00     0.019 C 
BRANCH  17  19
ATOM     19  C   UNL A   1      33.389  19.445  24.292  1.00  0.00    -0.040 A 
ATOM     20  C   UNL A   1      32.531  19.002  23.281  1.00  0.00     0.004 A 
ATOM     21  C   UNL A   1      34.467  18.591  24.615  1.00  0.00     0.004 A 
ATOM     22  C   UNL A   1      32.638  17.714  22.737  1.00  0.00     0.000 A 
ATOM     23  C   UNL A   1      34.602  17.316  24.052  1.00  0.00     0.000 A 
ATOM     24  C   UNL A   1      33.665  16.864  23.133  1.00  0.00     0.000 A 
ENDBRANCH  17  19
ENDBRANCH  16  17
ENDBRANCH   8  16
ENDBRANCH   6   7
ENDBRANCH   3   6
ENDBRANCH   1   2
BRANCH   1  25
ATOM     25  C   UNL A   1      38.194  19.787  24.919  1.00  0.00     0.042 C 
BRANCH  25  26
ATOM     26  C   UNL A   1      39.101  19.872  26.137  1.00  0.00     0.118 C 
BRANCH  26  27
ATOM     27  N   UNL A   1      40.374  19.207  25.915  1.00  0.00    -0.352 N 
ATOM     28  C   UNL A   1      41.663  19.671  25.969  1.00  0.00     0.251 C 
ATOM     29  H   UNL A   1      40.297  18.252  25.685  1.00  0.00     0.163 HD
ATOM     30  O   UNL A   1      42.563  18.949  25.524  1.00  0.00    -0.269 OA
BRANCH  28  31
ATOM     31  C   UNL A   1      42.021  21.005  26.517  1.00  0.00     0.039 A 
ATOM     32  C   UNL A   1      42.261  22.055  25.619  1.00  0.00     0.014 A 
ATOM     33  C   UNL A   1      42.206  21.238  27.881  1.00  0.00     0.014 A 
ATOM     34  C   UNL A   1      42.639  23.319  26.084  1.00  0.00     0.010 A 
ATOM     35  C   UNL A   1      42.474  22.526  28.352  1.00  0.00     0.010 A 
ATOM     36  C   UNL A   1      42.722  23.578  27.461  1.00  0.00    -0.014 A 
BRANCH  36  37
ATOM     37  C   UNL A   1      43.109  24.920  27.982  1.00  0.00     0.031 A 
ATOM     38  C   UNL A   1      42.051  25.951  28.299  1.00  0.00     0.074 A 
ATOM     39  C   UNL A   1      44.410  25.243  28.121  1.00  0.00     0.049 A 
ATOM     40  N   UNL A   1      42.196  27.194  28.689  1.00  0.00    -0.248 NA
ATOM     41  C   UNL A   1      40.647  25.543  28.122  1.00  0.00     0.031 C 
ATOM     42  C   UNL A   1      45.543  24.368  27.805  1.00  0.00     0.029 A 
ATOM     43  N   UNL A   1      45.003  26.403  28.559  1.00  0.00    -0.354 N 
ATOM     44  C   UNL A   1      40.912  27.721  28.763  1.00  0.00     0.074 A 
ATOM     45  C   UNL A   1      40.003  26.680  28.337  1.00  0.00     0.031 C 
ATOM     46  C   UNL A   1      46.687  25.010  28.089  1.00  0.00     0.029 A 
ATOM     47  C   UNL A   1      46.376  26.353  28.568  1.00  0.00     0.049 A 
ATOM     48  H   UNL A   1      44.490  27.196  28.839  1.00  0.00     0.167 HD
ATOM     49  C   UNL A   1      40.517  28.952  29.168  1.00  0.00     0.031 A 
ATOM     50  C   UNL A   1      47.286  27.282  28.917  1.00  0.00     0.031 A 
ATOM     51  C   UNL A   1      41.410  29.976  29.640  1.00  0.00     0.049 A 
ATOM     52  C   UNL A   1      46.821  28.627  29.400  1.00  0.00     0.074 A 
ATOM     53  C   UNL A   1      41.095  31.224  30.152  1.00  0.00     0.029 A 
ATOM     54  N   UNL A   1      42.790  29.868  29.665  1.00  0.00    -0.354 N 
ATOM     55  N   UNL A   1      45.599  29.081  29.530  1.00  0.00    -0.248 NA
ATOM     56  C   UNL A   1      47.865  29.584  29.797  1.00  0.00     0.031 C 
ATOM     57  C   UNL A   1      42.290  31.888  30.450  1.00  0.00     0.029 A 
ATOM     58  C   UNL A   1      43.344  31.035  30.166  1.00  0.00     0.049 A 
ATOM     59  H   UNL A   1      43.302  29.080  29.371  1.00  0.00     0.167 HD
ATOM     60  C   UNL A   1      45.725  30.366  30.042  1.00  0.00     0.074 A 
ATOM     61  C   UNL A   1      47.141  30.612  30.220  1.00  0.00     0.031 C 
ATOM     62  C   UNL A   1      44.754  31.265  30.336  1.00  0.00     0.031 A 
BRANCH  49  63
ATOM     63  C   UNL A   1      39.045  29.262  29.120  1.00  0.00    -0.014 A 
ATOM     64  C   UNL A   1      38.428  29.693  27.935  1.00  0.00     0.009 A 
ATOM     65  C   UNL A   1      38.257  29.081  30.268  1.00  0.00     0.009 A 
ATOM     66  C   UNL A   1      37.059  29.971  27.911  1.00  0.00     0.001 A 
ATOM     67  C   UNL A   1      36.885  29.331  30.233  1.00  0.00     0.001 A 
ATOM     68  C   UNL A   1      36.288  29.786  29.057  1.00  0.00     0.000 A 
ENDBRANCH  49  63
BRANCH  50  69
ATOM     69  C   UNL A   1      48.738  26.969  28.838  1.00  0.00    -0.014 A 
ATOM     70  C   UNL A   1      49.402  26.390  29.930  1.00  0.00     0.009 A 
ATOM     71  C   UNL A   1      49.468  27.258  27.674  1.00  0.00     0.009 A 
ATOM     72  C   UNL A   1      50.773  26.131  29.868  1.00  0.00     0.001 A 
ATOM     73  C   UNL A   1      50.833  26.972  27.606  1.00  0.00     0.001 A 
ATOM     74  C   UNL A   1      51.485  26.418  28.706  1.00  0.00     0.000 A 
ENDBRANCH  50  69
BRANCH  62  75
ATOM     75  C   UNL A   1      45.191  32.585  30.903  1.00  0.00    -0.014 A 
ATOM     76  C   UNL A   1      45.348  32.765  32.286  1.00  0.00     0.009 A 
ATOM     77  C   UNL A   1      45.481  33.652  30.038  1.00  0.00     0.009 A 
ATOM     78  C   UNL A   1      45.755  34.000  32.794  1.00  0.00     0.001 A 
ATOM     79  C   UNL A   1      45.914  34.876  30.547  1.00  0.00     0.001 A 
ATOM     80  C   UNL A   1      46.042  35.053  31.925  1.00  0.00     0.000 A 
ENDBRANCH  62  75
ENDBRANCH  36  37
ENDBRANCH  28  31
ENDBRANCH  26  27
ENDBRANCH  25  26
ENDBRANCH   1  25
TORSDOF 14
ENDMDL
