MODEL 1
REMARK VINA RESULT:     -13.0      0.000      0.000
REMARK SMILES O=C(CCC(=O)N1N=C(c2ccc(F)cc2)C[C@@H]1c1ccc2nccnc2c1)NCCCNC(=O)c1ccc(-c2c3nc(c(-c4ccccc4)c4ccc([nH]4)c(-c4ccccc4)c4nc(c(-c5ccccc5)c5ccc2[nH]5)C=C4)C=C3)cc1
REMARK SMILES IDX 30 1 29 2 1 3 2 4 3 6 4 7 5 8 6 9 7 10 8 11 18 12 9 13 17 14
REMARK SMILES IDX 19 15 20 16 28 17 21 18 27 19 22 20 26 21 23 22 25 23 24 24
REMARK SMILES IDX 10 25 11 26 16 27 12 28 15 29 13 30 14 31 31 32 32 33 33 34
REMARK SMILES IDX 34 35 35 37 36 38 37 39 83 40 38 41 82 42 39 43 40 44 41 45
REMARK SMILES IDX 76 46 42 47 81 48 75 49 77 50 43 51 80 52 74 53 73 54 44 56
REMARK SMILES IDX 66 57 51 58 65 59 52 60 55 61 64 62 78 63 53 64 54 65 63 67
REMARK SMILES IDX 79 68 56 69 45 70 46 71 50 72 47 73 49 74 48 75 67 76 68 77
REMARK SMILES IDX 72 78 69 79 71 80 70 81 57 82 58 83 62 84 59 85 61 86 60 87
REMARK H PARENT 29 5 33 36 77 55 55 66
REMARK Flexibility Score: inf
ROOT
ATOM      1  C   UNL A   1      32.283  29.457  25.846  1.00  0.00     0.117 C 
ENDROOT
BRANCH   1   2
ATOM      2  N   UNL A   1      32.789  28.079  25.933  1.00  0.00    -0.356 N 
ATOM      3  O   UNL A   1      31.315  27.446  27.570  1.00  0.00    -0.275 OA
ATOM      4  C   UNL A   1      32.125  27.127  26.704  1.00  0.00     0.220 C 
ATOM      5  H   UNL A   1      33.603  27.826  25.441  1.00  0.00     0.163 HD
BRANCH   4   6
ATOM      6  C   UNL A   1      32.373  25.658  26.323  1.00  0.00     0.110 C 
BRANCH   6   7
ATOM      7  C   UNL A   1      31.377  24.709  27.019  1.00  0.00     0.112 C 
BRANCH   7   8
ATOM      8  C   UNL A   1      30.898  23.345  26.463  1.00  0.00     0.243 C 
ATOM      9  O   UNL A   1      29.878  22.847  26.956  1.00  0.00    -0.273 OA
BRANCH   8  10
ATOM     10  N   UNL A   1      31.475  22.814  25.322  1.00  0.00    -0.225 N 
ATOM     11  N   UNL A   1      32.261  21.658  25.431  1.00  0.00    -0.174 NA
ATOM     12  C   UNL A   1      31.093  23.073  23.953  1.00  0.00     0.147 C 
ATOM     13  C   UNL A   1      32.385  21.179  24.231  1.00  0.00     0.071 C 
ATOM     14  C   UNL A   1      31.723  21.966  23.151  1.00  0.00     0.091 C 
BRANCH  12  15
ATOM     15  C   UNL A   1      31.275  24.485  23.415  1.00  0.00    -0.021 A 
ATOM     16  C   UNL A   1      30.209  25.386  23.525  1.00  0.00     0.008 A 
ATOM     17  C   UNL A   1      32.479  25.011  22.935  1.00  0.00     0.036 A 
ATOM     18  C   UNL A   1      30.314  26.736  23.221  1.00  0.00     0.031 A 
ATOM     19  C   UNL A   1      32.625  26.380  22.653  1.00  0.00     0.089 A 
ATOM     20  C   UNL A   1      31.515  27.250  22.814  1.00  0.00     0.089 A 
ATOM     21  N   UNL A   1      33.815  26.882  22.280  1.00  0.00    -0.253 NA
ATOM     22  N   UNL A   1      31.581  28.576  22.625  1.00  0.00    -0.253 NA
ATOM     23  C   UNL A   1      33.878  28.225  22.102  1.00  0.00     0.132 A 
ATOM     24  C   UNL A   1      32.788  29.054  22.274  1.00  0.00     0.132 A 
ENDBRANCH  12  15
BRANCH  13  25
ATOM     25  C   UNL A   1      32.985  19.893  23.828  1.00  0.00    -0.002 A 
ATOM     26  C   UNL A   1      32.358  19.157  22.814  1.00  0.00     0.013 A 
ATOM     27  C   UNL A   1      33.972  19.299  24.624  1.00  0.00     0.013 A 
ATOM     28  C   UNL A   1      32.707  17.824  22.600  1.00  0.00     0.040 A 
ATOM     29  C   UNL A   1      34.314  17.958  24.406  1.00  0.00     0.040 A 
ATOM     30  C   UNL A   1      33.673  17.232  23.405  1.00  0.00     0.123 A 
ATOM     31  F   UNL A   1      33.979  15.941  23.224  1.00  0.00    -0.207 F 
ENDBRANCH  13  25
ENDBRANCH   8  10
ENDBRANCH   7   8
ENDBRANCH   6   7
ENDBRANCH   4   6
ENDBRANCH   1   2
BRANCH   1  32
ATOM     32  C   UNL A   1      32.671  30.457  26.972  1.00  0.00     0.042 C 
BRANCH  32  33
ATOM     33  C   UNL A   1      34.137  30.699  27.435  1.00  0.00     0.118 C 
BRANCH  33  34
ATOM     34  N   UNL A   1      34.348  31.365  28.701  1.00  0.00    -0.352 N 
ATOM     35  C   UNL A   1      35.384  31.240  29.611  1.00  0.00     0.251 C 
ATOM     36  H   UNL A   1      33.647  32.008  28.955  1.00  0.00     0.163 HD
ATOM     37  O   UNL A   1      35.327  31.938  30.623  1.00  0.00    -0.269 OA
BRANCH  35  38
ATOM     38  C   UNL A   1      36.526  30.274  29.481  1.00  0.00     0.039 A 
ATOM     39  C   UNL A   1      37.190  30.263  28.243  1.00  0.00     0.014 A 
ATOM     40  C   UNL A   1      36.957  29.369  30.457  1.00  0.00     0.014 A 
ATOM     41  C   UNL A   1      38.321  29.462  28.028  1.00  0.00     0.010 A 
ATOM     42  C   UNL A   1      38.115  28.582  30.256  1.00  0.00     0.010 A 
ATOM     43  C   UNL A   1      38.843  28.663  29.057  1.00  0.00    -0.014 A 
BRANCH  43  44
ATOM     44  C   UNL A   1      40.237  28.137  28.922  1.00  0.00     0.031 A 
ATOM     45  C   UNL A   1      40.562  26.728  28.508  1.00  0.00     0.074 A 
ATOM     46  C   UNL A   1      41.250  29.000  29.155  1.00  0.00     0.049 A 
ATOM     47  N   UNL A   1      41.730  26.210  28.201  1.00  0.00    -0.248 NA
ATOM     48  C   UNL A   1      39.449  25.775  28.443  1.00  0.00     0.031 C 
ATOM     49  C   UNL A   1      41.078  30.385  29.604  1.00  0.00     0.029 A 
ATOM     50  N   UNL A   1      42.611  28.864  29.020  1.00  0.00    -0.354 N 
ATOM     51  C   UNL A   1      41.493  24.875  27.892  1.00  0.00     0.074 A 
ATOM     52  C   UNL A   1      40.073  24.655  28.094  1.00  0.00     0.031 C 
ATOM     53  C   UNL A   1      42.275  30.987  29.645  1.00  0.00     0.029 A 
ATOM     54  C   UNL A   1      43.305  30.027  29.267  1.00  0.00     0.049 A 
ATOM     55  H   UNL A   1      43.047  28.017  28.772  1.00  0.00     0.167 HD
ATOM     56  C   UNL A   1      42.371  23.927  27.475  1.00  0.00     0.031 A 
ATOM     57  C   UNL A   1      44.620  30.307  29.182  1.00  0.00     0.031 A 
ATOM     58  C   UNL A   1      43.791  24.137  27.308  1.00  0.00     0.049 A 
ATOM     59  C   UNL A   1      45.569  29.237  28.726  1.00  0.00     0.074 A 
ATOM     60  C   UNL A   1      44.752  23.246  26.858  1.00  0.00     0.029 A 
ATOM     61  N   UNL A   1      44.458  25.320  27.600  1.00  0.00    -0.354 N 
ATOM     62  N   UNL A   1      45.310  28.007  28.353  1.00  0.00    -0.248 NA
ATOM     63  C   UNL A   1      46.992  29.601  28.661  1.00  0.00     0.031 C 
ATOM     64  C   UNL A   1      46.005  23.868  26.935  1.00  0.00     0.029 A 
ATOM     65  C   UNL A   1      45.817  25.170  27.368  1.00  0.00     0.049 A 
ATOM     66  H   UNL A   1      44.028  26.143  27.924  1.00  0.00     0.167 HD
ATOM     67  C   UNL A   1      46.531  27.459  27.989  1.00  0.00     0.074 A 
ATOM     68  C   UNL A   1      47.526  28.498  28.158  1.00  0.00     0.031 C 
ATOM     69  C   UNL A   1      46.805  26.204  27.554  1.00  0.00     0.031 A 
BRANCH  56  70
ATOM     70  C   UNL A   1      41.825  22.551  27.179  1.00  0.00    -0.014 A 
ATOM     71  C   UNL A   1      42.125  21.455  28.004  1.00  0.00     0.009 A 
ATOM     72  C   UNL A   1      40.956  22.356  26.093  1.00  0.00     0.009 A 
ATOM     73  C   UNL A   1      41.606  20.189  27.723  1.00  0.00     0.001 A 
ATOM     74  C   UNL A   1      40.415  21.094  25.830  1.00  0.00     0.001 A 
ATOM     75  C   UNL A   1      40.750  20.009  26.638  1.00  0.00     0.000 A 
ENDBRANCH  56  70
BRANCH  57  76
ATOM     76  C   UNL A   1      45.114  31.671  29.515  1.00  0.00    -0.014 A 
ATOM     77  C   UNL A   1      45.230  32.657  28.523  1.00  0.00     0.009 A 
ATOM     78  C   UNL A   1      45.479  31.993  30.833  1.00  0.00     0.009 A 
ATOM     79  C   UNL A   1      45.727  33.924  28.837  1.00  0.00     0.001 A 
ATOM     80  C   UNL A   1      45.942  33.271  31.150  1.00  0.00     0.001 A 
ATOM     81  C   UNL A   1      46.077  34.232  30.150  1.00  0.00     0.000 A 
ENDBRANCH  57  76
BRANCH  69  82
ATOM     82  C   UNL A   1      48.238  25.900  27.209  1.00  0.00    -0.014 A 
ATOM     83  C   UNL A   1      49.105  25.304  28.140  1.00  0.00     0.009 A 
ATOM     84  C   UNL A   1      48.728  26.211  25.931  1.00  0.00     0.009 A 
ATOM     85  C   UNL A   1      50.443  25.069  27.813  1.00  0.00     0.001 A 
ATOM     86  C   UNL A   1      50.056  25.944  25.595  1.00  0.00     0.001 A 
ATOM     87  C   UNL A   1      50.916  25.387  26.540  1.00  0.00     0.000 A 
ENDBRANCH  69  82
ENDBRANCH  43  44
ENDBRANCH  35  38
ENDBRANCH  33  34
ENDBRANCH  32  33
ENDBRANCH   1  32
TORSDOF 15
ENDMDL
MODEL 2
REMARK VINA RESULT:     -12.6      5.510      8.549
REMARK SMILES O=C(CCC(=O)N1N=C(c2ccc(F)cc2)C[C@@H]1c1ccc2nccnc2c1)NCCCNC(=O)c1ccc(-c2c3nc(c(-c4ccccc4)c4ccc([nH]4)c(-c4ccccc4)c4nc(c(-c5ccccc5)c5ccc2[nH]5)C=C4)C=C3)cc1
REMARK SMILES IDX 30 1 29 2 1 3 2 4 3 6 4 7 5 8 6 9 7 10 8 11 18 12 9 13 17 14
REMARK SMILES IDX 19 15 20 16 28 17 21 18 27 19 22 20 26 21 23 22 25 23 24 24
REMARK SMILES IDX 10 25 11 26 16 27 12 28 15 29 13 30 14 31 31 32 32 33 33 34
REMARK SMILES IDX 34 35 35 37 36 38 37 39 83 40 38 41 82 42 39 43 40 44 41 45
REMARK SMILES IDX 76 46 42 47 81 48 75 49 77 50 43 51 80 52 74 53 73 54 44 56
REMARK SMILES IDX 66 57 51 58 65 59 52 60 55 61 64 62 78 63 53 64 54 65 63 67
REMARK SMILES IDX 79 68 56 69 45 70 46 71 50 72 47 73 49 74 48 75 67 76 68 77
REMARK SMILES IDX 72 78 69 79 71 80 70 81 57 82 58 83 62 84 59 85 61 86 60 87
REMARK H PARENT 29 5 33 36 77 55 55 66
REMARK Flexibility Score: inf
ROOT
ATOM      1  C   UNL A   1      34.473  33.091  29.085  1.00  0.00     0.117 C 
ENDROOT
BRANCH   1   2
ATOM      2  N   UNL A   1      34.361  31.798  28.393  1.00  0.00    -0.356 N 
ATOM      3  O   UNL A   1      36.617  31.581  28.047  1.00  0.00    -0.275 OA
ATOM      4  C   UNL A   1      35.502  31.067  28.070  1.00  0.00     0.220 C 
ATOM      5  H   UNL A   1      33.473  31.447  28.158  1.00  0.00     0.163 HD
BRANCH   4   6
ATOM      6  C   UNL A   1      35.298  29.555  27.867  1.00  0.00     0.110 C 
BRANCH   6   7
ATOM      7  C   UNL A   1      34.439  29.255  26.622  1.00  0.00     0.112 C 
BRANCH   7   8
ATOM      8  C   UNL A   1      33.045  28.579  26.637  1.00  0.00     0.243 C 
ATOM      9  O   UNL A   1      32.551  28.300  27.737  1.00  0.00    -0.273 OA
BRANCH   8  10
ATOM     10  N   UNL A   1      32.301  28.485  25.473  1.00  0.00    -0.225 N 
ATOM     11  N   UNL A   1      31.138  29.257  25.344  1.00  0.00    -0.174 NA
ATOM     12  C   UNL A   1      32.740  27.965  24.199  1.00  0.00     0.147 C 
ATOM     13  C   UNL A   1      30.832  29.260  24.082  1.00  0.00     0.071 C 
ATOM     14  C   UNL A   1      31.733  28.464  23.199  1.00  0.00     0.091 C 
BRANCH  12  15
ATOM     15  C   UNL A   1      33.100  26.488  24.116  1.00  0.00    -0.021 A 
ATOM     16  C   UNL A   1      34.123  26.000  24.939  1.00  0.00     0.008 A 
ATOM     17  C   UNL A   1      32.397  25.532  23.375  1.00  0.00     0.036 A 
ATOM     18  C   UNL A   1      34.423  24.651  25.067  1.00  0.00     0.031 A 
ATOM     19  C   UNL A   1      32.655  24.158  23.511  1.00  0.00     0.089 A 
ATOM     20  C   UNL A   1      33.685  23.722  24.386  1.00  0.00     0.089 A 
ATOM     21  N   UNL A   1      31.908  23.250  22.860  1.00  0.00    -0.253 NA
ATOM     22  N   UNL A   1      33.958  22.431  24.620  1.00  0.00    -0.253 NA
ATOM     23  C   UNL A   1      32.181  21.946  23.110  1.00  0.00     0.132 A 
ATOM     24  C   UNL A   1      33.181  21.545  23.973  1.00  0.00     0.132 A 
ENDBRANCH  12  15
BRANCH  13  25
ATOM     25  C   UNL A   1      29.789  30.054  23.406  1.00  0.00    -0.002 A 
ATOM     26  C   UNL A   1      29.476  29.742  22.077  1.00  0.00     0.013 A 
ATOM     27  C   UNL A   1      29.338  31.250  23.976  1.00  0.00     0.013 A 
ATOM     28  C   UNL A   1      28.722  30.630  21.309  1.00  0.00     0.040 A 
ATOM     29  C   UNL A   1      28.585  32.139  23.198  1.00  0.00     0.040 A 
ATOM     30  C   UNL A   1      28.291  31.826  21.873  1.00  0.00     0.123 A 
ATOM     31  F   UNL A   1      27.601  32.695  21.123  1.00  0.00    -0.207 F 
ENDBRANCH  13  25
ENDBRANCH   8  10
ENDBRANCH   7   8
ENDBRANCH   6   7
ENDBRANCH   4   6
ENDBRANCH   1   2
BRANCH   1  32
ATOM     32  C   UNL A   1      33.450  34.208  28.732  1.00  0.00     0.042 C 
BRANCH  32  33
ATOM     33  C   UNL A   1      33.465  35.620  29.385  1.00  0.00     0.118 C 
BRANCH  33  34
ATOM     34  N   UNL A   1      32.505  35.895  30.431  1.00  0.00    -0.352 N 
ATOM     35  C   UNL A   1      32.615  35.740  31.802  1.00  0.00     0.251 C 
ATOM     36  H   UNL A   1      31.640  36.247  30.121  1.00  0.00     0.163 HD
ATOM     37  O   UNL A   1      31.639  36.060  32.482  1.00  0.00    -0.269 OA
BRANCH  35  38
ATOM     38  C   UNL A   1      33.805  35.155  32.506  1.00  0.00     0.039 A 
ATOM     39  C   UNL A   1      33.687  33.815  32.912  1.00  0.00     0.014 A 
ATOM     40  C   UNL A   1      34.990  35.828  32.823  1.00  0.00     0.014 A 
ATOM     41  C   UNL A   1      34.759  33.135  33.508  1.00  0.00     0.010 A 
ATOM     42  C   UNL A   1      36.085  35.138  33.396  1.00  0.00     0.010 A 
ATOM     43  C   UNL A   1      35.999  33.768  33.692  1.00  0.00    -0.014 A 
BRANCH  43  44
ATOM     44  C   UNL A   1      37.204  32.922  33.961  1.00  0.00     0.031 A 
ATOM     45  C   UNL A   1      37.765  31.933  32.977  1.00  0.00     0.074 A 
ATOM     46  C   UNL A   1      37.830  33.095  35.145  1.00  0.00     0.049 A 
ATOM     47  N   UNL A   1      38.896  31.267  33.037  1.00  0.00    -0.248 NA
ATOM     48  C   UNL A   1      36.960  31.640  31.787  1.00  0.00     0.031 C 
ATOM     49  C   UNL A   1      37.369  33.992  36.209  1.00  0.00     0.029 A 
ATOM     50  N   UNL A   1      38.994  32.563  35.645  1.00  0.00    -0.354 N 
ATOM     51  C   UNL A   1      38.947  30.484  31.888  1.00  0.00     0.074 A 
ATOM     52  C   UNL A   1      37.708  30.730  31.173  1.00  0.00     0.031 C 
ATOM     53  C   UNL A   1      38.269  33.996  37.203  1.00  0.00     0.029 A 
ATOM     54  C   UNL A   1      39.350  33.077  36.872  1.00  0.00     0.049 A 
ATOM     55  H   UNL A   1      39.522  31.879  35.172  1.00  0.00     0.167 HD
ATOM     56  C   UNL A   1      39.932  29.650  31.467  1.00  0.00     0.031 A 
ATOM     57  C   UNL A   1      40.431  32.855  37.643  1.00  0.00     0.031 A 
ATOM     58  C   UNL A   1      41.149  29.379  32.197  1.00  0.00     0.049 A 
ATOM     59  C   UNL A   1      41.501  31.921  37.157  1.00  0.00     0.074 A 
ATOM     60  C   UNL A   1      42.217  28.574  31.833  1.00  0.00     0.029 A 
ATOM     61  N   UNL A   1      41.454  29.894  33.449  1.00  0.00    -0.354 N 
ATOM     62  N   UNL A   1      41.569  31.262  36.025  1.00  0.00    -0.248 NA
ATOM     63  C   UNL A   1      42.652  31.714  38.047  1.00  0.00     0.031 C 
ATOM     64  C   UNL A   1      43.138  28.555  32.888  1.00  0.00     0.029 A 
ATOM     65  C   UNL A   1      42.677  29.401  33.883  1.00  0.00     0.049 A 
ATOM     66  H   UNL A   1      40.886  30.517  33.956  1.00  0.00     0.167 HD
ATOM     67  C   UNL A   1      42.778  30.581  36.058  1.00  0.00     0.074 A 
ATOM     68  C   UNL A   1      43.423  30.930  37.307  1.00  0.00     0.031 C 
ATOM     69  C   UNL A   1      43.306  29.741  35.135  1.00  0.00     0.031 A 
BRANCH  56  70
ATOM     70  C   UNL A   1      39.731  28.944  30.148  1.00  0.00    -0.014 A 
ATOM     71  C   UNL A   1      39.261  27.621  30.094  1.00  0.00     0.009 A 
ATOM     72  C   UNL A   1      39.963  29.623  28.942  1.00  0.00     0.009 A 
ATOM     73  C   UNL A   1      39.073  26.982  28.866  1.00  0.00     0.001 A 
ATOM     74  C   UNL A   1      39.746  28.992  27.713  1.00  0.00     0.001 A 
ATOM     75  C   UNL A   1      39.313  27.668  27.676  1.00  0.00     0.000 A 
ENDBRANCH  56  70
BRANCH  57  76
ATOM     76  C   UNL A   1      40.568  33.552  38.952  1.00  0.00    -0.014 A 
ATOM     77  C   UNL A   1      39.987  33.022  40.114  1.00  0.00     0.009 A 
ATOM     78  C   UNL A   1      41.280  34.759  39.043  1.00  0.00     0.009 A 
ATOM     79  C   UNL A   1      40.091  33.699  41.332  1.00  0.00     0.001 A 
ATOM     80  C   UNL A   1      41.412  35.416  40.268  1.00  0.00     0.001 A 
ATOM     81  C   UNL A   1      40.808  34.891  41.409  1.00  0.00     0.000 A 
ENDBRANCH  57  76
BRANCH  69  82
ATOM     82  C   UNL A   1      44.662  29.161  35.438  1.00  0.00    -0.014 A 
ATOM     83  C   UNL A   1      44.801  27.941  36.122  1.00  0.00     0.009 A 
ATOM     84  C   UNL A   1      45.818  29.844  35.029  1.00  0.00     0.009 A 
ATOM     85  C   UNL A   1      46.070  27.443  36.430  1.00  0.00     0.001 A 
ATOM     86  C   UNL A   1      47.084  29.326  35.309  1.00  0.00     0.001 A 
ATOM     87  C   UNL A   1      47.209  28.135  36.021  1.00  0.00     0.000 A 
ENDBRANCH  69  82
ENDBRANCH  43  44
ENDBRANCH  35  38
ENDBRANCH  33  34
ENDBRANCH  32  33
ENDBRANCH   1  32
TORSDOF 15
ENDMDL
MODEL 3
REMARK VINA RESULT:     -12.5      4.275      9.416
REMARK SMILES O=C(CCC(=O)N1N=C(c2ccc(F)cc2)C[C@@H]1c1ccc2nccnc2c1)NCCCNC(=O)c1ccc(-c2c3nc(c(-c4ccccc4)c4ccc([nH]4)c(-c4ccccc4)c4nc(c(-c5ccccc5)c5ccc2[nH]5)C=C4)C=C3)cc1
REMARK SMILES IDX 30 1 29 2 1 3 2 4 3 6 4 7 5 8 6 9 7 10 8 11 18 12 9 13 17 14
REMARK SMILES IDX 19 15 20 16 28 17 21 18 27 19 22 20 26 21 23 22 25 23 24 24
REMARK SMILES IDX 10 25 11 26 16 27 12 28 15 29 13 30 14 31 31 32 32 33 33 34
REMARK SMILES IDX 34 35 35 37 36 38 37 39 83 40 38 41 82 42 39 43 40 44 41 45
REMARK SMILES IDX 76 46 42 47 81 48 75 49 77 50 43 51 80 52 74 53 73 54 44 56
REMARK SMILES IDX 66 57 51 58 65 59 52 60 55 61 64 62 78 63 53 64 54 65 63 67
REMARK SMILES IDX 79 68 56 69 45 70 46 71 50 72 47 73 49 74 48 75 67 76 68 77
REMARK SMILES IDX 72 78 69 79 71 80 70 81 57 82 58 83 62 84 59 85 61 86 60 87
REMARK H PARENT 29 5 33 36 77 55 55 66
REMARK Flexibility Score: inf
ROOT
ATOM      1  C   UNL A   1      41.741  21.895  26.284  1.00  0.00     0.117 C 
ENDROOT
BRANCH   1   2
ATOM      2  N   UNL A   1      40.752  22.953  26.035  1.00  0.00    -0.356 N 
ATOM      3  O   UNL A   1      38.940  21.588  26.364  1.00  0.00    -0.275 OA
ATOM      4  C   UNL A   1      39.396  22.724  26.264  1.00  0.00     0.220 C 
ATOM      5  H   UNL A   1      41.048  23.831  25.706  1.00  0.00     0.163 HD
BRANCH   4   6
ATOM      6  C   UNL A   1      38.532  23.973  26.507  1.00  0.00     0.110 C 
BRANCH   6   7
ATOM      7  C   UNL A   1      37.046  23.712  26.189  1.00  0.00     0.112 C 
BRANCH   7   8
ATOM      8  C   UNL A   1      36.413  23.735  24.776  1.00  0.00     0.243 C 
ATOM      9  O   UNL A   1      37.081  23.282  23.838  1.00  0.00    -0.273 OA
BRANCH   8  10
ATOM     10  N   UNL A   1      35.077  24.059  24.613  1.00  0.00    -0.225 N 
ATOM     11  N   UNL A   1      34.665  25.381  24.835  1.00  0.00    -0.174 NA
ATOM     12  C   UNL A   1      34.080  23.303  23.890  1.00  0.00     0.147 C 
ATOM     13  C   UNL A   1      33.490  25.500  24.293  1.00  0.00     0.071 C 
ATOM     14  C   UNL A   1      32.944  24.263  23.662  1.00  0.00     0.091 C 
BRANCH  12  15
ATOM     15  C   UNL A   1      33.705  21.926  24.419  1.00  0.00    -0.021 A 
ATOM     16  C   UNL A   1      32.413  21.730  24.920  1.00  0.00     0.008 A 
ATOM     17  C   UNL A   1      34.509  20.785  24.323  1.00  0.00     0.036 A 
ATOM     18  C   UNL A   1      31.911  20.486  25.275  1.00  0.00     0.031 A 
ATOM     19  C   UNL A   1      34.016  19.508  24.640  1.00  0.00     0.089 A 
ATOM     20  C   UNL A   1      32.685  19.369  25.115  1.00  0.00     0.089 A 
ATOM     21  N   UNL A   1      34.773  18.413  24.455  1.00  0.00    -0.253 NA
ATOM     22  N   UNL A   1      32.117  18.185  25.384  1.00  0.00    -0.253 NA
ATOM     23  C   UNL A   1      34.189  17.218  24.718  1.00  0.00     0.132 A 
ATOM     24  C   UNL A   1      32.889  17.106  25.168  1.00  0.00     0.132 A 
ENDBRANCH  12  15
BRANCH  13  25
ATOM     25  C   UNL A   1      32.697  26.729  24.116  1.00  0.00    -0.002 A 
ATOM     26  C   UNL A   1      33.325  27.962  24.337  1.00  0.00     0.013 A 
ATOM     27  C   UNL A   1      31.303  26.657  24.013  1.00  0.00     0.013 A 
ATOM     28  C   UNL A   1      32.562  29.123  24.468  1.00  0.00     0.040 A 
ATOM     29  C   UNL A   1      30.542  27.825  24.149  1.00  0.00     0.040 A 
ATOM     30  C   UNL A   1      31.177  29.043  24.384  1.00  0.00     0.123 A 
ATOM     31  F   UNL A   1      30.444  30.152  24.549  1.00  0.00    -0.207 F 
ENDBRANCH  13  25
ENDBRANCH   8  10
ENDBRANCH   7   8
ENDBRANCH   6   7
ENDBRANCH   4   6
ENDBRANCH   1   2
BRANCH   1  32
ATOM     32  C   UNL A   1      43.149  22.035  25.639  1.00  0.00     0.042 C 
BRANCH  32  33
ATOM     33  C   UNL A   1      43.506  23.129  24.591  1.00  0.00     0.118 C 
BRANCH  33  34
ATOM     34  N   UNL A   1      44.820  23.729  24.656  1.00  0.00    -0.352 N 
ATOM     35  C   UNL A   1      45.236  24.896  25.273  1.00  0.00     0.251 C 
ATOM     36  H   UNL A   1      45.529  23.231  24.189  1.00  0.00     0.163 HD
ATOM     37  O   UNL A   1      46.430  25.183  25.183  1.00  0.00    -0.269 OA
BRANCH  35  38
ATOM     38  C   UNL A   1      44.329  25.861  25.982  1.00  0.00     0.039 A 
ATOM     39  C   UNL A   1      43.508  25.317  26.984  1.00  0.00     0.014 A 
ATOM     40  C   UNL A   1      44.203  27.227  25.709  1.00  0.00     0.014 A 
ATOM     41  C   UNL A   1      42.677  26.130  27.769  1.00  0.00     0.010 A 
ATOM     42  C   UNL A   1      43.390  28.056  26.519  1.00  0.00     0.010 A 
ATOM     43  C   UNL A   1      42.661  27.523  27.594  1.00  0.00    -0.014 A 
BRANCH  43  44
ATOM     44  C   UNL A   1      42.078  28.376  28.676  1.00  0.00     0.031 A 
ATOM     45  C   UNL A   1      40.678  28.924  28.644  1.00  0.00     0.074 A 
ATOM     46  C   UNL A   1      42.856  28.630  29.751  1.00  0.00     0.049 A 
ATOM     47  N   UNL A   1      40.014  29.537  29.598  1.00  0.00    -0.248 NA
ATOM     48  C   UNL A   1      39.932  28.785  27.390  1.00  0.00     0.031 C 
ATOM     49  C   UNL A   1      44.249  28.194  29.894  1.00  0.00     0.029 A 
ATOM     50  N   UNL A   1      42.591  29.277  30.934  1.00  0.00    -0.354 N 
ATOM     51  C   UNL A   1      38.767  29.846  29.066  1.00  0.00     0.074 A 
ATOM     52  C   UNL A   1      38.787  29.390  27.689  1.00  0.00     0.031 C 
ATOM     53  C   UNL A   1      44.692  28.528  31.114  1.00  0.00     0.029 A 
ATOM     54  C   UNL A   1      43.636  29.235  31.829  1.00  0.00     0.049 A 
ATOM     55  H   UNL A   1      41.736  29.727  31.123  1.00  0.00     0.167 HD
ATOM     56  C   UNL A   1      37.706  30.443  29.668  1.00  0.00     0.031 A 
ATOM     57  C   UNL A   1      43.739  29.694  33.091  1.00  0.00     0.031 A 
ATOM     58  C   UNL A   1      37.699  30.929  31.029  1.00  0.00     0.049 A 
ATOM     59  C   UNL A   1      42.554  30.359  33.728  1.00  0.00     0.074 A 
ATOM     60  C   UNL A   1      36.661  31.518  31.733  1.00  0.00     0.029 A 
ATOM     61  N   UNL A   1      38.788  30.897  31.889  1.00  0.00    -0.354 N 
ATOM     62  N   UNL A   1      41.355  30.558  33.235  1.00  0.00    -0.248 NA
ATOM     63  C   UNL A   1      42.731  30.845  35.104  1.00  0.00     0.031 C 
ATOM     64  C   UNL A   1      37.139  31.895  32.994  1.00  0.00     0.029 A 
ATOM     65  C   UNL A   1      38.455  31.481  33.102  1.00  0.00     0.049 A 
ATOM     66  H   UNL A   1      39.668  30.516  31.669  1.00  0.00     0.167 HD
ATOM     67  C   UNL A   1      40.630  31.172  34.247  1.00  0.00     0.074 A 
ATOM     68  C   UNL A   1      41.514  31.285  35.389  1.00  0.00     0.031 C 
ATOM     69  C   UNL A   1      39.345  31.605  34.230  1.00  0.00     0.031 A 
BRANCH  56  70
ATOM     70  C   UNL A   1      36.451  30.626  28.849  1.00  0.00    -0.014 A 
ATOM     71  C   UNL A   1      36.005  31.905  28.476  1.00  0.00     0.009 A 
ATOM     72  C   UNL A   1      35.733  29.507  28.400  1.00  0.00     0.009 A 
ATOM     73  C   UNL A   1      34.845  32.059  27.711  1.00  0.00     0.001 A 
ATOM     74  C   UNL A   1      34.589  29.661  27.611  1.00  0.00     0.001 A 
ATOM     75  C   UNL A   1      34.140  30.937  27.277  1.00  0.00     0.000 A 
ENDBRANCH  56  70
BRANCH  57  76
ATOM     76  C   UNL A   1      45.010  29.518  33.847  1.00  0.00    -0.014 A 
ATOM     77  C   UNL A   1      46.023  30.487  33.786  1.00  0.00     0.009 A 
ATOM     78  C   UNL A   1      45.217  28.372  34.631  1.00  0.00     0.009 A 
ATOM     79  C   UNL A   1      47.226  30.298  34.471  1.00  0.00     0.001 A 
ATOM     80  C   UNL A   1      46.406  28.202  35.342  1.00  0.00     0.001 A 
ATOM     81  C   UNL A   1      47.415  29.160  35.252  1.00  0.00     0.000 A 
ENDBRANCH  57  76
BRANCH  69  82
ATOM     82  C   UNL A   1      38.816  32.219  35.498  1.00  0.00    -0.014 A 
ATOM     83  C   UNL A   1      38.848  33.608  35.709  1.00  0.00     0.009 A 
ATOM     84  C   UNL A   1      38.274  31.396  36.497  1.00  0.00     0.009 A 
ATOM     85  C   UNL A   1      38.392  34.153  36.912  1.00  0.00     0.001 A 
ATOM     86  C   UNL A   1      37.787  31.946  37.684  1.00  0.00     0.001 A 
ATOM     87  C   UNL A   1      37.859  33.321  37.896  1.00  0.00     0.000 A 
ENDBRANCH  69  82
ENDBRANCH  43  44
ENDBRANCH  35  38
ENDBRANCH  33  34
ENDBRANCH  32  33
ENDBRANCH   1  32
TORSDOF 15
ENDMDL
