MODEL 1
REMARK VINA RESULT:     -11.4      0.000      0.000
REMARK SMILES Cc1onc(-c2ccccc2Cl)c1C(=O)N1CCCC[C@@H]1C(=O)NCCCNC(=O)c1ccc(-c2c3nc(c(-c4ccccc4)c4ccc([nH]4)c(-c4ccccc4)c4nc(c(-c5ccccc5)c5ccc2[nH]5)C=C4)C=C3)cc1
REMARK SMILES IDX 25 1 24 2 22 3 23 4 21 6 16 7 17 8 18 9 20 10 19 11 14 12
REMARK SMILES IDX 15 13 13 14 1 15 2 16 3 17 4 18 5 19 6 20 7 21 11 22 8 23
REMARK SMILES IDX 10 24 12 25 9 26 26 27 27 28 28 29 29 30 30 32 31 33 32 34
REMARK SMILES IDX 78 35 33 36 77 37 34 38 35 39 36 40 71 41 37 42 76 43 70 44
REMARK SMILES IDX 72 45 38 46 75 47 69 48 68 49 39 51 61 52 46 53 60 54 47 55
REMARK SMILES IDX 50 56 59 57 73 58 48 59 49 60 58 62 74 63 51 64 40 65 41 66
REMARK SMILES IDX 45 67 42 68 44 69 43 70 62 71 63 72 67 73 64 74 66 75 65 76
REMARK SMILES IDX 52 77 53 78 57 79 54 80 56 81 55 82
REMARK H PARENT 24 5 28 31 72 50 50 61
REMARK Flexibility Score: inf
ROOT
ATOM      1  C   UNL A   1      34.003  26.542  24.665  1.00  0.00     0.117 C 
ENDROOT
BRANCH   1   2
ATOM      2  N   UNL A   1      33.843  25.612  25.772  1.00  0.00    -0.354 N 
ATOM      3  C   UNL A   1      34.520  24.465  26.051  1.00  0.00     0.242 C 
ATOM      4  O   UNL A   1      34.051  23.697  26.895  1.00  0.00    -0.273 OA
ATOM      5  H   UNL A   1      33.139  25.849  26.418  1.00  0.00     0.163 HD
BRANCH   3   6
ATOM      6  C   UNL A   1      35.773  24.079  25.249  1.00  0.00     0.174 C 
ATOM      7  N   UNL A   1      35.550  23.010  24.242  1.00  0.00    -0.326 N 
ATOM      8  C   UNL A   1      36.755  22.371  23.718  1.00  0.00     0.120 C 
ATOM      9  C   UNL A   1      37.661  21.849  24.818  1.00  0.00     0.022 C 
ATOM     10  C   UNL A   1      36.858  23.705  26.300  1.00  0.00     0.035 C 
ATOM     11  C   UNL A   1      38.077  22.992  25.730  1.00  0.00     0.004 C 
BRANCH   7  12
ATOM     12  C   UNL A   1      34.361  22.707  23.547  1.00  0.00     0.260 C 
ATOM     13  O   UNL A   1      34.199  23.181  22.421  1.00  0.00    -0.269 OA
BRANCH  12  14
ATOM     14  C   UNL A   1      33.307  21.875  24.109  1.00  0.00     0.110 A 
ATOM     15  C   UNL A   1      34.391  19.513  24.640  1.00  0.00     0.092 C 
ATOM     16  C   UNL A   1      33.368  20.570  24.562  1.00  0.00     0.147 A 
ATOM     17  O   UNL A   1      32.181  20.228  25.128  1.00  0.00    -0.360 OA
ATOM     18  N   UNL A   1      31.325  21.301  25.116  1.00  0.00    -0.079 NA
ATOM     19  C   UNL A   1      31.989  22.299  24.518  1.00  0.00     0.128 A 
BRANCH  19  20
ATOM     20  C   UNL A   1      31.347  23.603  24.383  1.00  0.00     0.023 A 
ATOM     21  C   UNL A   1      31.391  24.267  23.147  1.00  0.00     0.012 A 
ATOM     22  C   UNL A   1      30.721  24.237  25.466  1.00  0.00     0.050 A 
ATOM     23  C   UNL A   1      30.757  25.505  22.982  1.00  0.00     0.001 A 
ATOM     24  C   UNL A   1      30.040  25.446  25.285  1.00  0.00     0.021 A 
ATOM     25  Cl  UNL A   1      30.837  23.615  27.075  1.00  0.00    -0.084 Cl
ATOM     26  C   UNL A   1      30.054  26.076  24.042  1.00  0.00     0.002 A 
ENDBRANCH  19  20
ENDBRANCH  12  14
ENDBRANCH   7  12
ENDBRANCH   3   6
ENDBRANCH   1   2
BRANCH   1  27
ATOM     27  C   UNL A   1      33.824  27.980  25.131  1.00  0.00     0.042 C 
BRANCH  27  28
ATOM     28  C   UNL A   1      34.082  28.176  26.617  1.00  0.00     0.118 C 
BRANCH  28  29
ATOM     29  N   UNL A   1      33.787  29.529  27.060  1.00  0.00    -0.352 N 
ATOM     30  C   UNL A   1      34.523  30.391  27.826  1.00  0.00     0.251 C 
ATOM     31  H   UNL A   1      32.920  29.883  26.760  1.00  0.00     0.163 HD
ATOM     32  O   UNL A   1      34.020  31.438  28.230  1.00  0.00    -0.269 OA
BRANCH  30  33
ATOM     33  C   UNL A   1      35.912  30.048  28.184  1.00  0.00     0.039 A 
ATOM     34  C   UNL A   1      36.171  29.533  29.454  1.00  0.00     0.014 A 
ATOM     35  C   UNL A   1      36.953  30.234  27.271  1.00  0.00     0.014 A 
ATOM     36  C   UNL A   1      37.469  29.154  29.787  1.00  0.00     0.010 A 
ATOM     37  C   UNL A   1      38.223  29.756  27.564  1.00  0.00     0.010 A 
ATOM     38  C   UNL A   1      38.498  29.230  28.833  1.00  0.00    -0.014 A 
BRANCH  38  39
ATOM     39  C   UNL A   1      39.870  28.779  29.162  1.00  0.00     0.031 A 
ATOM     40  C   UNL A   1      40.340  27.415  28.744  1.00  0.00     0.074 A 
ATOM     41  C   UNL A   1      40.684  29.595  29.858  1.00  0.00     0.049 A 
ATOM     42  N   UNL A   1      41.519  26.867  28.895  1.00  0.00    -0.248 NA
ATOM     43  C   UNL A   1      39.350  26.538  28.096  1.00  0.00     0.031 C 
ATOM     44  C   UNL A   1      40.324  30.925  30.358  1.00  0.00     0.029 A 
ATOM     45  N   UNL A   1      41.987  29.434  30.250  1.00  0.00    -0.354 N 
ATOM     46  C   UNL A   1      41.407  25.586  28.369  1.00  0.00     0.074 A 
ATOM     47  C   UNL A   1      40.031  25.410  27.966  1.00  0.00     0.031 C 
ATOM     48  C   UNL A   1      41.403  31.484  30.927  1.00  0.00     0.029 A 
ATOM     49  C   UNL A   1      42.512  30.540  30.872  1.00  0.00     0.049 A 
ATOM     50  H   UNL A   1      42.499  28.606  30.098  1.00  0.00     0.167 HD
ATOM     51  C   UNL A   1      42.370  24.646  28.209  1.00  0.00     0.031 A 
ATOM     52  C   UNL A   1      43.755  30.771  31.332  1.00  0.00     0.031 A 
ATOM     53  C   UNL A   1      43.738  24.823  28.621  1.00  0.00     0.049 A 
ATOM     54  C   UNL A   1      44.801  29.704  31.173  1.00  0.00     0.074 A 
ATOM     55  C   UNL A   1      44.805  23.956  28.467  1.00  0.00     0.029 A 
ATOM     56  N   UNL A   1      44.221  25.944  29.281  1.00  0.00    -0.354 N 
ATOM     57  N   UNL A   1      44.702  28.527  30.602  1.00  0.00    -0.248 NA
ATOM     58  C   UNL A   1      46.133  30.006  31.711  1.00  0.00     0.031 C 
ATOM     59  C   UNL A   1      45.920  24.527  29.091  1.00  0.00     0.029 A 
ATOM     60  C   UNL A   1      45.565  25.780  29.568  1.00  0.00     0.049 A 
ATOM     61  H   UNL A   1      43.687  26.738  29.510  1.00  0.00     0.167 HD
ATOM     62  C   UNL A   1      45.969  27.962  30.680  1.00  0.00     0.074 A 
ATOM     63  C   UNL A   1      46.818  28.933  31.342  1.00  0.00     0.031 C 
ATOM     64  C   UNL A   1      46.393  26.753  30.235  1.00  0.00     0.031 A 
BRANCH  51  65
ATOM     65  C   UNL A   1      41.957  23.343  27.576  1.00  0.00    -0.014 A 
ATOM     66  C   UNL A   1      42.167  23.094  26.209  1.00  0.00     0.009 A 
ATOM     67  C   UNL A   1      41.338  22.354  28.355  1.00  0.00     0.009 A 
ATOM     68  C   UNL A   1      41.710  21.910  25.624  1.00  0.00     0.001 A 
ATOM     69  C   UNL A   1      40.917  21.155  27.777  1.00  0.00     0.001 A 
ATOM     70  C   UNL A   1      41.087  20.941  26.410  1.00  0.00     0.000 A 
ENDBRANCH  51  65
BRANCH  52  71
ATOM     71  C   UNL A   1      44.092  32.090  31.931  1.00  0.00    -0.014 A 
ATOM     72  C   UNL A   1      43.969  32.287  33.315  1.00  0.00     0.009 A 
ATOM     73  C   UNL A   1      44.551  33.148  31.132  1.00  0.00     0.009 A 
ATOM     74  C   UNL A   1      44.277  33.525  33.884  1.00  0.00     0.001 A 
ATOM     75  C   UNL A   1      44.886  34.375  31.708  1.00  0.00     0.001 A 
ATOM     76  C   UNL A   1      44.741  34.566  33.080  1.00  0.00     0.000 A 
ENDBRANCH  52  71
BRANCH  64  77
ATOM     77  C   UNL A   1      47.851  26.431  30.415  1.00  0.00    -0.014 A 
ATOM     78  C   UNL A   1      48.798  26.730  29.422  1.00  0.00     0.009 A 
ATOM     79  C   UNL A   1      48.286  25.845  31.614  1.00  0.00     0.009 A 
ATOM     80  C   UNL A   1      50.144  26.410  29.613  1.00  0.00     0.001 A 
ATOM     81  C   UNL A   1      49.636  25.559  31.816  1.00  0.00     0.001 A 
ATOM     82  C   UNL A   1      50.562  25.830  30.811  1.00  0.00     0.000 A 
ENDBRANCH  64  77
ENDBRANCH  38  39
ENDBRANCH  30  33
ENDBRANCH  28  29
ENDBRANCH  27  28
ENDBRANCH   1  27
TORSDOF 13
ENDMDL
MODEL 2
REMARK VINA RESULT:     -11.4      1.825      6.829
REMARK SMILES Cc1onc(-c2ccccc2Cl)c1C(=O)N1CCCC[C@@H]1C(=O)NCCCNC(=O)c1ccc(-c2c3nc(c(-c4ccccc4)c4ccc([nH]4)c(-c4ccccc4)c4nc(c(-c5ccccc5)c5ccc2[nH]5)C=C4)C=C3)cc1
REMARK SMILES IDX 25 1 24 2 22 3 23 4 21 6 16 7 17 8 18 9 20 10 19 11 14 12
REMARK SMILES IDX 15 13 13 14 1 15 2 16 3 17 4 18 5 19 6 20 7 21 11 22 8 23
REMARK SMILES IDX 10 24 12 25 9 26 26 27 27 28 28 29 29 30 30 32 31 33 32 34
REMARK SMILES IDX 78 35 33 36 77 37 34 38 35 39 36 40 71 41 37 42 76 43 70 44
REMARK SMILES IDX 72 45 38 46 75 47 69 48 68 49 39 51 61 52 46 53 60 54 47 55
REMARK SMILES IDX 50 56 59 57 73 58 48 59 49 60 58 62 74 63 51 64 40 65 41 66
REMARK SMILES IDX 45 67 42 68 44 69 43 70 62 71 63 72 67 73 64 74 66 75 65 76
REMARK SMILES IDX 52 77 53 78 57 79 54 80 56 81 55 82
REMARK H PARENT 24 5 28 31 72 50 50 61
REMARK Flexibility Score: inf
ROOT
ATOM      1  C   UNL A   1      35.825  21.793  25.037  1.00  0.00     0.117 C 
ENDROOT
BRANCH   1   2
ATOM      2  N   UNL A   1      34.504  21.324  24.652  1.00  0.00    -0.354 N 
ATOM      3  C   UNL A   1      33.571  21.908  23.851  1.00  0.00     0.242 C 
ATOM      4  O   UNL A   1      32.421  21.461  23.866  1.00  0.00    -0.273 OA
ATOM      5  H   UNL A   1      34.245  20.451  25.026  1.00  0.00     0.163 HD
BRANCH   3   6
ATOM      6  C   UNL A   1      33.912  23.166  23.038  1.00  0.00     0.174 C 
ATOM      7  N   UNL A   1      33.509  24.441  23.685  1.00  0.00    -0.326 N 
ATOM      8  C   UNL A   1      33.486  25.615  22.815  1.00  0.00     0.120 C 
ATOM      9  C   UNL A   1      32.652  25.395  21.566  1.00  0.00     0.022 C 
ATOM     10  C   UNL A   1      33.262  22.965  21.639  1.00  0.00     0.035 C 
ATOM     11  C   UNL A   1      33.204  24.219  20.777  1.00  0.00     0.004 C 
BRANCH   7  12
ATOM     12  C   UNL A   1      33.391  24.715  25.063  1.00  0.00     0.260 C 
ATOM     13  O   UNL A   1      34.392  25.087  25.678  1.00  0.00    -0.269 OA
BRANCH  12  14
ATOM     14  C   UNL A   1      32.143  24.558  25.797  1.00  0.00     0.110 A 
ATOM     15  C   UNL A   1      32.489  22.538  27.481  1.00  0.00     0.092 C 
ATOM     16  C   UNL A   1      31.821  23.659  26.797  1.00  0.00     0.147 A 
ATOM     17  O   UNL A   1      30.591  23.952  27.294  1.00  0.00    -0.360 OA
ATOM     18  N   UNL A   1      30.089  25.074  26.684  1.00  0.00    -0.079 NA
ATOM     19  C   UNL A   1      31.013  25.455  25.791  1.00  0.00     0.128 A 
BRANCH  19  20
ATOM     20  C   UNL A   1      30.781  26.657  24.994  1.00  0.00     0.023 A 
ATOM     21  C   UNL A   1      29.949  26.585  23.866  1.00  0.00     0.012 A 
ATOM     22  C   UNL A   1      31.402  27.877  25.297  1.00  0.00     0.050 A 
ATOM     23  C   UNL A   1      29.687  27.729  23.102  1.00  0.00     0.001 A 
ATOM     24  C   UNL A   1      31.094  29.031  24.567  1.00  0.00     0.021 A 
ATOM     25  Cl  UNL A   1      32.632  27.997  26.507  1.00  0.00    -0.084 Cl
ATOM     26  C   UNL A   1      30.233  28.957  23.474  1.00  0.00     0.002 A 
ENDBRANCH  19  20
ENDBRANCH  12  14
ENDBRANCH   7  12
ENDBRANCH   3   6
ENDBRANCH   1   2
BRANCH   1  27
ATOM     27  C   UNL A   1      36.838  20.658  25.001  1.00  0.00     0.042 C 
BRANCH  27  28
ATOM     28  C   UNL A   1      38.276  21.117  25.183  1.00  0.00     0.118 C 
BRANCH  28  29
ATOM     29  N   UNL A   1      39.189  20.012  25.424  1.00  0.00    -0.352 N 
ATOM     30  C   UNL A   1      40.448  20.002  25.958  1.00  0.00     0.251 C 
ATOM     31  H   UNL A   1      38.846  19.128  25.161  1.00  0.00     0.163 HD
ATOM     32  O   UNL A   1      41.123  18.974  25.923  1.00  0.00    -0.269 OA
BRANCH  30  33
ATOM     33  C   UNL A   1      41.000  21.232  26.554  1.00  0.00     0.039 A 
ATOM     34  C   UNL A   1      41.592  22.178  25.717  1.00  0.00     0.014 A 
ATOM     35  C   UNL A   1      40.933  21.452  27.933  1.00  0.00     0.014 A 
ATOM     36  C   UNL A   1      42.069  23.369  26.259  1.00  0.00     0.010 A 
ATOM     37  C   UNL A   1      41.308  22.682  28.456  1.00  0.00     0.010 A 
ATOM     38  C   UNL A   1      41.899  23.645  27.627  1.00  0.00    -0.014 A 
BRANCH  38  39
ATOM     39  C   UNL A   1      42.355  24.931  28.201  1.00  0.00     0.031 A 
ATOM     40  C   UNL A   1      41.370  26.037  28.460  1.00  0.00     0.074 A 
ATOM     41  C   UNL A   1      43.662  25.109  28.468  1.00  0.00     0.049 A 
ATOM     42  N   UNL A   1      41.572  27.209  29.006  1.00  0.00    -0.248 NA
ATOM     43  C   UNL A   1      39.982  25.808  28.027  1.00  0.00     0.031 C 
ATOM     44  C   UNL A   1      44.719  24.125  28.216  1.00  0.00     0.029 A 
ATOM     45  N   UNL A   1      44.323  26.171  29.026  1.00  0.00    -0.354 N 
ATOM     46  C   UNL A   1      40.343  27.855  28.972  1.00  0.00     0.074 A 
ATOM     47  C   UNL A   1      39.421  26.979  28.288  1.00  0.00     0.031 C 
ATOM     48  C   UNL A   1      45.882  24.604  28.684  1.00  0.00     0.029 A 
ATOM     49  C   UNL A   1      45.662  25.940  29.224  1.00  0.00     0.049 A 
ATOM     50  H   UNL A   1      43.881  27.018  29.265  1.00  0.00     0.167 HD
ATOM     51  C   UNL A   1      40.001  29.060  29.491  1.00  0.00     0.031 A 
ATOM     52  C   UNL A   1      46.603  26.714  29.796  1.00  0.00     0.031 A 
ATOM     53  C   UNL A   1      40.926  29.933  30.163  1.00  0.00     0.049 A 
ATOM     54  C   UNL A   1      46.211  28.060  30.335  1.00  0.00     0.074 A 
ATOM     55  C   UNL A   1      40.680  31.154  30.765  1.00  0.00     0.029 A 
ATOM     56  N   UNL A   1      42.282  29.678  30.312  1.00  0.00    -0.354 N 
ATOM     57  N   UNL A   1      45.028  28.625  30.368  1.00  0.00    -0.248 NA
ATOM     58  C   UNL A   1      47.284  28.867  30.929  1.00  0.00     0.031 C 
ATOM     59  C   UNL A   1      41.899  31.667  31.222  1.00  0.00     0.029 A 
ATOM     60  C   UNL A   1      42.892  30.732  30.970  1.00  0.00     0.049 A 
ATOM     61  H   UNL A   1      42.742  28.867  29.996  1.00  0.00     0.167 HD
ATOM     62  C   UNL A   1      45.208  29.840  31.019  1.00  0.00     0.074 A 
ATOM     63  C   UNL A   1      46.611  29.919  31.372  1.00  0.00     0.031 C 
ATOM     64  C   UNL A   1      44.292  30.798  31.306  1.00  0.00     0.031 A 
BRANCH  51  65
ATOM     65  C   UNL A   1      38.569  29.496  29.324  1.00  0.00    -0.014 A 
ATOM     66  C   UNL A   1      37.628  29.327  30.354  1.00  0.00     0.009 A 
ATOM     67  C   UNL A   1      38.151  30.072  28.115  1.00  0.00     0.009 A 
ATOM     68  C   UNL A   1      36.288  29.669  30.155  1.00  0.00     0.001 A 
ATOM     69  C   UNL A   1      36.819  30.449  27.932  1.00  0.00     0.001 A 
ATOM     70  C   UNL A   1      35.886  30.232  28.944  1.00  0.00     0.000 A 
ENDBRANCH  51  65
BRANCH  52  71
ATOM     71  C   UNL A   1      47.994  26.207  29.938  1.00  0.00    -0.014 A 
ATOM     72  C   UNL A   1      48.429  25.676  31.162  1.00  0.00     0.009 A 
ATOM     73  C   UNL A   1      48.886  26.236  28.855  1.00  0.00     0.009 A 
ATOM     74  C   UNL A   1      49.736  25.204  31.305  1.00  0.00     0.001 A 
ATOM     75  C   UNL A   1      50.183  25.737  28.994  1.00  0.00     0.001 A 
ATOM     76  C   UNL A   1      50.609  25.230  30.219  1.00  0.00     0.000 A 
ENDBRANCH  52  71
BRANCH  64  77
ATOM     77  C   UNL A   1      44.774  31.997  32.076  1.00  0.00    -0.014 A 
ATOM     78  C   UNL A   1      44.783  32.016  33.479  1.00  0.00     0.009 A 
ATOM     79  C   UNL A   1      45.258  33.116  31.378  1.00  0.00     0.009 A 
ATOM     80  C   UNL A   1      45.227  33.146  34.166  1.00  0.00     0.001 A 
ATOM     81  C   UNL A   1      45.734  34.231  32.068  1.00  0.00     0.001 A 
ATOM     82  C   UNL A   1      45.707  34.250  33.461  1.00  0.00     0.000 A 
ENDBRANCH  64  77
ENDBRANCH  38  39
ENDBRANCH  30  33
ENDBRANCH  28  29
ENDBRANCH  27  28
ENDBRANCH   1  27
TORSDOF 13
ENDMDL
MODEL 3
REMARK VINA RESULT:     -11.3      2.846      7.339
REMARK SMILES Cc1onc(-c2ccccc2Cl)c1C(=O)N1CCCC[C@@H]1C(=O)NCCCNC(=O)c1ccc(-c2c3nc(c(-c4ccccc4)c4ccc([nH]4)c(-c4ccccc4)c4nc(c(-c5ccccc5)c5ccc2[nH]5)C=C4)C=C3)cc1
REMARK SMILES IDX 25 1 24 2 22 3 23 4 21 6 16 7 17 8 18 9 20 10 19 11 14 12
REMARK SMILES IDX 15 13 13 14 1 15 2 16 3 17 4 18 5 19 6 20 7 21 11 22 8 23
REMARK SMILES IDX 10 24 12 25 9 26 26 27 27 28 28 29 29 30 30 32 31 33 32 34
REMARK SMILES IDX 78 35 33 36 77 37 34 38 35 39 36 40 71 41 37 42 76 43 70 44
REMARK SMILES IDX 72 45 38 46 75 47 69 48 68 49 39 51 61 52 46 53 60 54 47 55
REMARK SMILES IDX 50 56 59 57 73 58 48 59 49 60 58 62 74 63 51 64 40 65 41 66
REMARK SMILES IDX 45 67 42 68 44 69 43 70 62 71 63 72 67 73 64 74 66 75 65 76
REMARK SMILES IDX 52 77 53 78 57 79 54 80 56 81 55 82
REMARK H PARENT 24 5 28 31 72 50 50 61
REMARK Flexibility Score: inf
ROOT
ATOM      1  C   UNL A   1      32.080  29.119  25.590  1.00  0.00     0.117 C 
ENDROOT
BRANCH   1   2
ATOM      2  N   UNL A   1      31.127  28.541  24.655  1.00  0.00    -0.354 N 
ATOM      3  C   UNL A   1      30.593  27.290  24.616  1.00  0.00     0.242 C 
ATOM      4  O   UNL A   1      30.005  26.934  23.592  1.00  0.00    -0.273 OA
ATOM      5  H   UNL A   1      30.820  29.149  23.943  1.00  0.00     0.163 HD
BRANCH   3   6
ATOM      6  C   UNL A   1      30.821  26.305  25.773  1.00  0.00     0.174 C 
ATOM      7  N   UNL A   1      31.952  25.364  25.563  1.00  0.00    -0.326 N 
ATOM      8  C   UNL A   1      31.984  24.202  26.448  1.00  0.00     0.120 C 
ATOM      9  C   UNL A   1      30.676  23.431  26.440  1.00  0.00     0.022 C 
ATOM     10  C   UNL A   1      29.462  25.578  25.993  1.00  0.00     0.035 C 
ATOM     11  C   UNL A   1      29.539  24.339  26.876  1.00  0.00     0.004 C 
BRANCH   7  12
ATOM     12  C   UNL A   1      33.122  25.571  24.803  1.00  0.00     0.260 C 
ATOM     13  O   UNL A   1      34.089  26.109  25.345  1.00  0.00    -0.269 OA
BRANCH  12  14
ATOM     14  C   UNL A   1      33.231  25.196  23.401  1.00  0.00     0.110 A 
ATOM     15  C   UNL A   1      33.318  27.450  22.004  1.00  0.00     0.092 C 
ATOM     16  C   UNL A   1      33.327  26.003  22.282  1.00  0.00     0.147 A 
ATOM     17  O   UNL A   1      33.545  25.234  21.183  1.00  0.00    -0.360 OA
ATOM     18  N   UNL A   1      33.653  23.914  21.543  1.00  0.00    -0.079 NA
ATOM     19  C   UNL A   1      33.478  23.876  22.871  1.00  0.00     0.128 A 
BRANCH  19  20
ATOM     20  C   UNL A   1      33.571  22.596  23.567  1.00  0.00     0.023 A 
ATOM     21  C   UNL A   1      32.456  21.743  23.592  1.00  0.00     0.012 A 
ATOM     22  C   UNL A   1      34.732  22.207  24.250  1.00  0.00     0.050 A 
ATOM     23  C   UNL A   1      32.528  20.497  24.227  1.00  0.00     0.001 A 
ATOM     24  C   UNL A   1      34.821  20.938  24.834  1.00  0.00     0.021 A 
ATOM     25  Cl  UNL A   1      36.056  23.293  24.486  1.00  0.00    -0.084 Cl
ATOM     26  C   UNL A   1      33.721  20.082  24.817  1.00  0.00     0.002 A 
ENDBRANCH  19  20
ENDBRANCH  12  14
ENDBRANCH   7  12
ENDBRANCH   3   6
ENDBRANCH   1   2
BRANCH   1  27
ATOM     27  C   UNL A   1      31.702  30.551  25.939  1.00  0.00     0.042 C 
BRANCH  27  28
ATOM     28  C   UNL A   1      32.483  31.119  27.114  1.00  0.00     0.118 C 
BRANCH  28  29
ATOM     29  N   UNL A   1      32.301  32.553  27.264  1.00  0.00    -0.352 N 
ATOM     30  C   UNL A   1      33.038  33.473  27.958  1.00  0.00     0.251 C 
ATOM     31  H   UNL A   1      31.522  32.923  26.789  1.00  0.00     0.163 HD
ATOM     32  O   UNL A   1      32.618  34.621  28.095  1.00  0.00    -0.269 OA
BRANCH  30  33
ATOM     33  C   UNL A   1      34.324  33.077  28.559  1.00  0.00     0.039 A 
ATOM     34  C   UNL A   1      34.315  32.328  29.736  1.00  0.00     0.014 A 
ATOM     35  C   UNL A   1      35.535  33.441  27.963  1.00  0.00     0.014 A 
ATOM     36  C   UNL A   1      35.521  31.900  30.285  1.00  0.00     0.010 A 
ATOM     37  C   UNL A   1      36.728  32.923  28.449  1.00  0.00     0.010 A 
ATOM     38  C   UNL A   1      36.734  32.165  29.627  1.00  0.00    -0.014 A 
BRANCH  38  39
ATOM     39  C   UNL A   1      38.017  31.667  30.176  1.00  0.00     0.031 A 
ATOM     40  C   UNL A   1      38.636  32.329  31.375  1.00  0.00     0.074 A 
ATOM     41  C   UNL A   1      38.633  30.631  29.577  1.00  0.00     0.049 A 
ATOM     42  N   UNL A   1      39.722  32.002  32.027  1.00  0.00    -0.248 NA
ATOM     43  C   UNL A   1      37.963  33.531  31.894  1.00  0.00     0.031 C 
ATOM     44  C   UNL A   1      38.152  29.936  28.379  1.00  0.00     0.029 A 
ATOM     45  N   UNL A   1      39.787  29.969  29.904  1.00  0.00    -0.354 N 
ATOM     46  C   UNL A   1      39.864  32.960  33.024  1.00  0.00     0.074 A 
ATOM     47  C   UNL A   1      38.799  33.920  32.844  1.00  0.00     0.031 C 
ATOM     48  C   UNL A   1      38.967  28.904  28.116  1.00  0.00     0.029 A 
ATOM     49  C   UNL A   1      40.047  28.891  29.095  1.00  0.00     0.049 A 
ATOM     50  H   UNL A   1      40.373  30.239  30.649  1.00  0.00     0.167 HD
ATOM     51  C   UNL A   1      40.781  33.021  34.019  1.00  0.00     0.031 A 
ATOM     52  C   UNL A   1      41.039  27.982  29.149  1.00  0.00     0.031 A 
ATOM     53  C   UNL A   1      41.845  32.067  34.187  1.00  0.00     0.049 A 
ATOM     54  C   UNL A   1      42.065  28.087  30.241  1.00  0.00     0.074 A 
ATOM     55  C   UNL A   1      42.802  32.008  35.184  1.00  0.00     0.029 A 
ATOM     56  N   UNL A   1      42.096  31.009  33.325  1.00  0.00    -0.354 N 
ATOM     57  N   UNL A   1      42.141  28.951  31.224  1.00  0.00    -0.248 NA
ATOM     58  C   UNL A   1      43.133  27.079  30.236  1.00  0.00     0.031 C 
ATOM     59  C   UNL A   1      43.671  30.951  34.889  1.00  0.00     0.029 A 
ATOM     60  C   UNL A   1      43.211  30.308  33.749  1.00  0.00     0.049 A 
ATOM     61  H   UNL A   1      41.559  30.790  32.529  1.00  0.00     0.167 HD
ATOM     62  C   UNL A   1      43.245  28.570  31.977  1.00  0.00     0.074 A 
ATOM     63  C   UNL A   1      43.796  27.390  31.341  1.00  0.00     0.031 C 
ATOM     64  C   UNL A   1      43.750  29.140  33.099  1.00  0.00     0.031 A 
BRANCH  51  65
ATOM     65  C   UNL A   1      40.670  34.174  34.982  1.00  0.00    -0.014 A 
ATOM     66  C   UNL A   1      39.862  34.095  36.129  1.00  0.00     0.009 A 
ATOM     67  C   UNL A   1      41.374  35.363  34.732  1.00  0.00     0.009 A 
ATOM     68  C   UNL A   1      39.713  35.201  36.970  1.00  0.00     0.001 A 
ATOM     69  C   UNL A   1      41.254  36.453  35.596  1.00  0.00     0.001 A 
ATOM     70  C   UNL A   1      40.411  36.378  36.704  1.00  0.00     0.000 A 
ENDBRANCH  51  65
BRANCH  52  71
ATOM     71  C   UNL A   1      41.072  26.862  28.171  1.00  0.00    -0.014 A 
ATOM     72  C   UNL A   1      40.424  25.651  28.464  1.00  0.00     0.009 A 
ATOM     73  C   UNL A   1      41.733  26.998  26.941  1.00  0.00     0.009 A 
ATOM     74  C   UNL A   1      40.457  24.592  27.554  1.00  0.00     0.001 A 
ATOM     75  C   UNL A   1      41.739  25.947  26.021  1.00  0.00     0.001 A 
ATOM     76  C   UNL A   1      41.109  24.744  26.331  1.00  0.00     0.000 A 
ENDBRANCH  52  71
BRANCH  64  77
ATOM     77  C   UNL A   1      44.938  28.468  33.733  1.00  0.00    -0.014 A 
ATOM     78  C   UNL A   1      44.785  27.468  34.705  1.00  0.00     0.009 A 
ATOM     79  C   UNL A   1      46.232  28.825  33.323  1.00  0.00     0.009 A 
ATOM     80  C   UNL A   1      45.905  26.868  35.283  1.00  0.00     0.001 A 
ATOM     81  C   UNL A   1      47.350  28.201  33.877  1.00  0.00     0.001 A 
ATOM     82  C   UNL A   1      47.186  27.231  34.865  1.00  0.00     0.000 A 
ENDBRANCH  64  77
ENDBRANCH  38  39
ENDBRANCH  30  33
ENDBRANCH  28  29
ENDBRANCH  27  28
ENDBRANCH   1  27
TORSDOF 13
ENDMDL
