MODEL 1
REMARK VINA RESULT:     -12.0      0.000      0.000
REMARK SMILES O=CN[C@@H](CCS[C@@H]1CCO[C@]2(CCOC2)C1)C(=O)NCCCNC(=O)c1ccc(-c2c3nc(c(-c4ccccc4)c4ccc([nH]4)c(-c4ccccc4)c4nc(c(-c5ccccc5)c5ccc2[nH]5)C=C4)C=C3)cc1
REMARK SMILES IDX 21 1 20 2 18 3 19 4 4 6 3 7 1 8 2 9 5 11 6 12 7 13 8 14 9 15
REMARK SMILES IDX 17 16 10 17 12 18 11 19 13 20 16 21 14 22 15 23 22 24 23 25
REMARK SMILES IDX 24 26 25 27 26 29 27 30 28 31 74 32 29 33 73 34 30 35 31 36
REMARK SMILES IDX 32 37 67 38 33 39 72 40 66 41 68 42 34 43 71 44 65 45 64 46
REMARK SMILES IDX 35 48 57 49 42 50 56 51 43 52 46 53 55 54 69 55 44 56 45 57
REMARK SMILES IDX 54 59 70 60 47 61 36 62 37 63 41 64 38 65 40 66 39 67 58 68
REMARK SMILES IDX 59 69 63 70 60 71 62 72 61 73 48 74 49 75 53 76 50 77 52 78
REMARK SMILES IDX 51 79
REMARK H PARENT 20 5 3 10 24 28 68 47 46 58
REMARK Flexibility Score: inf
ROOT
ATOM      1  C   UNL A   1      35.803  20.759  24.838  1.00  0.00     0.117 C 
ENDROOT
BRANCH   1   2
ATOM      2  N   UNL A   1      34.612  20.170  25.446  1.00  0.00    -0.354 N 
ATOM      3  C   UNL A   1      33.655  19.217  25.204  1.00  0.00     0.242 C 
ATOM      4  O   UNL A   1      32.682  19.050  25.937  1.00  0.00    -0.273 OA
ATOM      5  H   UNL A   1      34.438  20.599  26.316  1.00  0.00     0.163 HD
BRANCH   3   6
ATOM      6  C   UNL A   1      33.775  18.143  24.218  1.00  0.00     0.171 C 
BRANCH   6   7
ATOM      7  N   UNL A   1      34.335  17.065  24.994  1.00  0.00    -0.347 N 
ATOM      8  O   UNL A   1      34.029  14.791  25.250  1.00  0.00    -0.279 OA
ATOM      9  C   UNL A   1      33.553  15.922  25.110  1.00  0.00     0.337 C 
ATOM     10  H   UNL A   1      35.221  17.135  25.417  1.00  0.00     0.164 HD
ENDBRANCH   6   7
BRANCH   6  11
ATOM     11  C   UNL A   1      32.440  18.289  23.545  1.00  0.00     0.046 C 
BRANCH  11  12
ATOM     12  C   UNL A   1      32.298  19.650  22.642  1.00  0.00     0.072 C 
BRANCH  12  13
ATOM     13  S   UNL A   1      32.129  21.739  22.858  1.00  0.00    -0.158 SA
BRANCH  13  14
ATOM     14  C   UNL A   1      32.127  22.790  24.696  1.00  0.00     0.052 C 
ATOM     15  C   UNL A   1      31.371  22.199  25.900  1.00  0.00     0.043 C 
ATOM     16  C   UNL A   1      32.424  24.324  24.949  1.00  0.00     0.052 C 
ATOM     17  C   UNL A   1      30.400  23.178  26.603  1.00  0.00     0.162 C 
ATOM     18  C   UNL A   1      31.406  25.204  25.747  1.00  0.00     0.095 C 
ATOM     19  O   UNL A   1      30.963  24.457  26.881  1.00  0.00    -0.372 OA
ATOM     20  C   UNL A   1      30.291  26.013  25.039  1.00  0.00     0.066 C 
ATOM     21  C   UNL A   1      32.150  26.447  26.295  1.00  0.00     0.195 C 
ATOM     22  C   UNL A   1      30.901  27.350  24.620  1.00  0.00     0.163 C 
ATOM     23  O   UNL A   1      32.192  27.403  25.226  1.00  0.00    -0.378 OA
ENDBRANCH  13  14
ENDBRANCH  12  13
ENDBRANCH  11  12
ENDBRANCH   6  11
ENDBRANCH   3   6
ENDBRANCH   1   2
BRANCH   1  24
ATOM     24  C   UNL A   1      37.084  19.873  24.977  1.00  0.00     0.042 C 
BRANCH  24  25
ATOM     25  C   UNL A   1      38.431  20.536  25.362  1.00  0.00     0.118 C 
BRANCH  25  26
ATOM     26  N   UNL A   1      39.495  19.575  25.571  1.00  0.00    -0.352 N 
ATOM     27  C   UNL A   1      40.801  19.708  25.973  1.00  0.00     0.251 C 
ATOM     28  H   UNL A   1      39.231  18.645  25.388  1.00  0.00     0.163 HD
ATOM     29  O   UNL A   1      41.526  18.716  25.869  1.00  0.00    -0.269 OA
BRANCH  27  30
ATOM     30  C   UNL A   1      41.410  20.961  26.506  1.00  0.00     0.039 A 
ATOM     31  C   UNL A   1      41.193  21.237  27.864  1.00  0.00     0.014 A 
ATOM     32  C   UNL A   1      41.975  21.963  25.710  1.00  0.00     0.014 A 
ATOM     33  C   UNL A   1      41.528  22.483  28.417  1.00  0.00     0.010 A 
ATOM     34  C   UNL A   1      42.350  23.205  26.279  1.00  0.00     0.010 A 
ATOM     35  C   UNL A   1      42.117  23.491  27.637  1.00  0.00    -0.014 A 
BRANCH  35  36
ATOM     36  C   UNL A   1      42.448  24.822  28.257  1.00  0.00     0.031 A 
ATOM     37  C   UNL A   1      43.857  25.169  28.688  1.00  0.00     0.074 A 
ATOM     38  C   UNL A   1      41.486  25.761  28.408  1.00  0.00     0.049 A 
ATOM     39  N   UNL A   1      44.317  26.286  29.207  1.00  0.00    -0.248 NA
ATOM     40  C   UNL A   1      44.882  24.129  28.522  1.00  0.00     0.031 C 
ATOM     41  C   UNL A   1      40.078  25.591  28.051  1.00  0.00     0.029 A 
ATOM     42  N   UNL A   1      41.549  27.049  28.891  1.00  0.00    -0.354 N 
ATOM     43  C   UNL A   1      45.673  26.077  29.440  1.00  0.00     0.074 A 
ATOM     44  C   UNL A   1      45.953  24.713  29.043  1.00  0.00     0.031 C 
ATOM     45  C   UNL A   1      39.420  26.736  28.293  1.00  0.00     0.029 A 
ATOM     46  C   UNL A   1      40.343  27.713  28.865  1.00  0.00     0.049 A 
ATOM     47  H   UNL A   1      42.380  27.458  29.225  1.00  0.00     0.167 HD
ATOM     48  C   UNL A   1      46.607  26.936  29.923  1.00  0.00     0.031 A 
ATOM     49  C   UNL A   1      40.004  28.957  29.261  1.00  0.00     0.031 A 
ATOM     50  C   UNL A   1      46.353  28.300  30.316  1.00  0.00     0.049 A 
ATOM     51  C   UNL A   1      41.052  29.876  29.833  1.00  0.00     0.074 A 
ATOM     52  C   UNL A   1      47.255  29.247  30.778  1.00  0.00     0.029 A 
ATOM     53  N   UNL A   1      45.112  28.913  30.298  1.00  0.00    -0.354 N 
ATOM     54  N   UNL A   1      42.335  29.670  29.992  1.00  0.00    -0.248 NA
ATOM     55  C   UNL A   1      40.600  31.206  30.272  1.00  0.00     0.031 C 
ATOM     56  C   UNL A   1      46.550  30.412  31.094  1.00  0.00     0.029 A 
ATOM     57  C   UNL A   1      45.219  30.214  30.765  1.00  0.00     0.049 A 
ATOM     58  H   UNL A   1      44.275  28.488  29.998  1.00  0.00     0.167 HD
ATOM     59  C   UNL A   1      42.847  30.852  30.518  1.00  0.00     0.074 A 
ATOM     60  C   UNL A   1      41.741  31.777  30.632  1.00  0.00     0.031 C 
ATOM     61  C   UNL A   1      44.122  31.140  30.873  1.00  0.00     0.031 A 
BRANCH  48  62
ATOM     62  C   UNL A   1      48.020  26.426  30.066  1.00  0.00    -0.014 A 
ATOM     63  C   UNL A   1      48.454  25.805  31.246  1.00  0.00     0.009 A 
ATOM     64  C   UNL A   1      48.907  26.504  28.978  1.00  0.00     0.009 A 
ATOM     65  C   UNL A   1      49.757  25.307  31.349  1.00  0.00     0.001 A 
ATOM     66  C   UNL A   1      50.197  25.979  29.073  1.00  0.00     0.001 A 
ATOM     67  C   UNL A   1      50.625  25.390  30.261  1.00  0.00     0.000 A 
ENDBRANCH  48  62
BRANCH  49  68
ATOM     68  C   UNL A   1      38.593  29.426  29.143  1.00  0.00    -0.014 A 
ATOM     69  C   UNL A   1      37.704  29.305  30.223  1.00  0.00     0.009 A 
ATOM     70  C   UNL A   1      38.118  29.955  27.934  1.00  0.00     0.009 A 
ATOM     71  C   UNL A   1      36.363  29.673  30.083  1.00  0.00     0.001 A 
ATOM     72  C   UNL A   1      36.786  30.355  27.807  1.00  0.00     0.001 A 
ATOM     73  C   UNL A   1      35.906  30.202  28.877  1.00  0.00     0.000 A 
ENDBRANCH  49  68
BRANCH  61  74
ATOM     74  C   UNL A   1      44.409  32.529  31.377  1.00  0.00    -0.014 A 
ATOM     75  C   UNL A   1      44.351  32.841  32.745  1.00  0.00     0.009 A 
ATOM     76  C   UNL A   1      44.781  33.535  30.470  1.00  0.00     0.009 A 
ATOM     77  C   UNL A   1      44.624  34.138  33.188  1.00  0.00     0.001 A 
ATOM     78  C   UNL A   1      45.085  34.822  30.918  1.00  0.00     0.001 A 
ATOM     79  C   UNL A   1      44.997  35.125  32.275  1.00  0.00     0.000 A 
ENDBRANCH  61  74
ENDBRANCH  35  36
ENDBRANCH  27  30
ENDBRANCH  25  26
ENDBRANCH  24  25
ENDBRANCH   1  24
TORSDOF 15
ENDMDL
MODEL 2
REMARK VINA RESULT:     -11.8      3.434      8.960
REMARK SMILES O=CN[C@@H](CCS[C@@H]1CCO[C@]2(CCOC2)C1)C(=O)NCCCNC(=O)c1ccc(-c2c3nc(c(-c4ccccc4)c4ccc([nH]4)c(-c4ccccc4)c4nc(c(-c5ccccc5)c5ccc2[nH]5)C=C4)C=C3)cc1
REMARK SMILES IDX 21 1 20 2 18 3 19 4 4 6 3 7 1 8 2 9 5 11 6 12 7 13 8 14 9 15
REMARK SMILES IDX 17 16 10 17 12 18 11 19 13 20 16 21 14 22 15 23 22 24 23 25
REMARK SMILES IDX 24 26 25 27 26 29 27 30 28 31 74 32 29 33 73 34 30 35 31 36
REMARK SMILES IDX 32 37 67 38 33 39 72 40 66 41 68 42 34 43 71 44 65 45 64 46
REMARK SMILES IDX 35 48 57 49 42 50 56 51 43 52 46 53 55 54 69 55 44 56 45 57
REMARK SMILES IDX 54 59 70 60 47 61 36 62 37 63 41 64 38 65 40 66 39 67 58 68
REMARK SMILES IDX 59 69 63 70 60 71 62 72 61 73 48 74 49 75 53 76 50 77 52 78
REMARK SMILES IDX 51 79
REMARK H PARENT 20 5 3 10 24 28 68 47 46 58
REMARK Flexibility Score: inf
ROOT
ATOM      1  C   UNL A   1      31.486  29.786  25.019  1.00  0.00     0.117 C 
ENDROOT
BRANCH   1   2
ATOM      2  N   UNL A   1      30.800  29.942  23.738  1.00  0.00    -0.354 N 
ATOM      3  C   UNL A   1      30.507  29.239  22.595  1.00  0.00     0.242 C 
ATOM      4  O   UNL A   1      29.963  29.753  21.620  1.00  0.00    -0.273 OA
ATOM      5  H   UNL A   1      30.424  30.850  23.672  1.00  0.00     0.163 HD
BRANCH   3   6
ATOM      6  C   UNL A   1      30.574  27.783  22.469  1.00  0.00     0.171 C 
BRANCH   6   7
ATOM      7  N   UNL A   1      31.994  27.535  22.439  1.00  0.00    -0.347 N 
ATOM      8  O   UNL A   1      33.488  26.240  21.249  1.00  0.00    -0.279 OA
ATOM      9  C   UNL A   1      32.398  26.361  21.816  1.00  0.00     0.337 C 
ATOM     10  H   UNL A   1      32.640  28.162  22.838  1.00  0.00     0.164 HD
ENDBRANCH   6   7
BRANCH   6  11
ATOM     11  C   UNL A   1      29.525  27.410  23.476  1.00  0.00     0.046 C 
BRANCH  11  12
ATOM     12  C   UNL A   1      30.019  26.290  24.567  1.00  0.00     0.072 C 
BRANCH  12  13
ATOM     13  S   UNL A   1      31.529  25.966  26.000  1.00  0.00    -0.158 SA
BRANCH  13  14
ATOM     14  C   UNL A   1      33.206  24.697  25.756  1.00  0.00     0.052 C 
ATOM     15  C   UNL A   1      34.351  25.135  24.825  1.00  0.00     0.043 C 
ATOM     16  C   UNL A   1      33.312  23.145  26.044  1.00  0.00     0.052 C 
ATOM     17  C   UNL A   1      34.783  24.075  23.782  1.00  0.00     0.162 C 
ATOM     18  C   UNL A   1      33.842  22.172  24.940  1.00  0.00     0.095 C 
ATOM     19  O   UNL A   1      34.982  22.773  24.325  1.00  0.00    -0.372 OA
ATOM     20  C   UNL A   1      32.888  21.453  23.955  1.00  0.00     0.066 C 
ATOM     21  C   UNL A   1      34.337  20.872  25.623  1.00  0.00     0.195 C 
ATOM     22  C   UNL A   1      32.403  20.179  24.644  1.00  0.00     0.163 C 
ATOM     23  O   UNL A   1      33.178  20.054  25.837  1.00  0.00    -0.378 OA
ENDBRANCH  13  14
ENDBRANCH  12  13
ENDBRANCH  11  12
ENDBRANCH   6  11
ENDBRANCH   3   6
ENDBRANCH   1   2
BRANCH   1  24
ATOM     24  C   UNL A   1      31.247  30.972  26.010  1.00  0.00     0.042 C 
BRANCH  24  25
ATOM     25  C   UNL A   1      32.420  31.480  26.886  1.00  0.00     0.118 C 
BRANCH  25  26
ATOM     26  N   UNL A   1      32.281  32.872  27.265  1.00  0.00    -0.352 N 
ATOM     27  C   UNL A   1      33.009  33.685  28.097  1.00  0.00     0.251 C 
ATOM     28  H   UNL A   1      31.514  33.322  26.844  1.00  0.00     0.163 HD
ATOM     29  O   UNL A   1      32.526  34.785  28.374  1.00  0.00    -0.269 OA
BRANCH  27  30
ATOM     30  C   UNL A   1      34.326  33.332  28.703  1.00  0.00     0.039 A 
ATOM     31  C   UNL A   1      35.461  33.545  27.908  1.00  0.00     0.014 A 
ATOM     32  C   UNL A   1      34.477  32.612  29.893  1.00  0.00     0.014 A 
ATOM     33  C   UNL A   1      36.719  33.050  28.287  1.00  0.00     0.010 A 
ATOM     34  C   UNL A   1      35.754  32.149  30.293  1.00  0.00     0.010 A 
ATOM     35  C   UNL A   1      36.893  32.345  29.488  1.00  0.00    -0.014 A 
BRANCH  35  36
ATOM     36  C   UNL A   1      38.251  31.812  29.856  1.00  0.00     0.031 A 
ATOM     37  C   UNL A   1      39.173  32.564  30.793  1.00  0.00     0.074 A 
ATOM     38  C   UNL A   1      38.665  30.616  29.380  1.00  0.00     0.049 A 
ATOM     39  N   UNL A   1      40.363  32.226  31.239  1.00  0.00    -0.248 NA
ATOM     40  C   UNL A   1      38.703  33.866  31.289  1.00  0.00     0.031 C 
ATOM     41  C   UNL A   1      37.907  29.764  28.465  1.00  0.00     0.029 A 
ATOM     42  N   UNL A   1      39.823  29.905  29.608  1.00  0.00    -0.354 N 
ATOM     43  C   UNL A   1      40.785  33.274  32.052  1.00  0.00     0.074 A 
ATOM     44  C   UNL A   1      39.742  34.277  32.005  1.00  0.00     0.031 C 
ATOM     45  C   UNL A   1      38.598  28.635  28.238  1.00  0.00     0.029 A 
ATOM     46  C   UNL A   1      39.871  28.695  28.951  1.00  0.00     0.049 A 
ATOM     47  H   UNL A   1      40.549  30.230  30.188  1.00  0.00     0.167 HD
ATOM     48  C   UNL A   1      41.923  33.393  32.783  1.00  0.00     0.031 A 
ATOM     49  C   UNL A   1      40.824  27.742  28.912  1.00  0.00     0.031 A 
ATOM     50  C   UNL A   1      42.970  32.405  32.851  1.00  0.00     0.049 A 
ATOM     51  C   UNL A   1      42.097  27.918  29.700  1.00  0.00     0.074 A 
ATOM     52  C   UNL A   1      44.136  32.434  33.600  1.00  0.00     0.029 A 
ATOM     53  N   UNL A   1      42.984  31.214  32.145  1.00  0.00    -0.354 N 
ATOM     54  N   UNL A   1      42.446  28.894  30.501  1.00  0.00    -0.248 NA
ATOM     55  C   UNL A   1      43.104  26.852  29.581  1.00  0.00     0.031 C 
ATOM     56  C   UNL A   1      44.882  31.289  33.304  1.00  0.00     0.029 A 
ATOM     57  C   UNL A   1      44.149  30.514  32.420  1.00  0.00     0.049 A 
ATOM     58  H   UNL A   1      42.272  30.908  31.537  1.00  0.00     0.167 HD
ATOM     59  C   UNL A   1      43.694  28.543  31.005  1.00  0.00     0.074 A 
ATOM     60  C   UNL A   1      44.033  27.257  30.436  1.00  0.00     0.031 C 
ATOM     61  C   UNL A   1      44.485  29.230  31.862  1.00  0.00     0.031 A 
BRANCH  48  62
ATOM     62  C   UNL A   1      42.112  34.658  33.584  1.00  0.00    -0.014 A 
ATOM     63  C   UNL A   1      42.749  35.780  33.033  1.00  0.00     0.009 A 
ATOM     64  C   UNL A   1      41.581  34.752  34.882  1.00  0.00     0.009 A 
ATOM     65  C   UNL A   1      42.885  36.956  33.777  1.00  0.00     0.001 A 
ATOM     66  C   UNL A   1      41.691  35.938  35.611  1.00  0.00     0.001 A 
ATOM     67  C   UNL A   1      42.352  37.036  35.063  1.00  0.00     0.000 A 
ENDBRANCH  48  62
BRANCH  49  68
ATOM     68  C   UNL A   1      40.630  26.517  28.085  1.00  0.00    -0.014 A 
ATOM     69  C   UNL A   1      41.215  26.408  26.813  1.00  0.00     0.009 A 
ATOM     70  C   UNL A   1      39.820  25.469  28.546  1.00  0.00     0.009 A 
ATOM     71  C   UNL A   1      40.966  25.292  26.010  1.00  0.00     0.001 A 
ATOM     72  C   UNL A   1      39.601  24.338  27.755  1.00  0.00     0.001 A 
ATOM     73  C   UNL A   1      40.163  24.256  26.483  1.00  0.00     0.000 A 
ENDBRANCH  49  68
BRANCH  61  74
ATOM     74  C   UNL A   1      45.781  28.587  32.282  1.00  0.00    -0.014 A 
ATOM     75  C   UNL A   1      46.977  28.820  31.584  1.00  0.00     0.009 A 
ATOM     76  C   UNL A   1      45.812  27.766  33.421  1.00  0.00     0.009 A 
ATOM     77  C   UNL A   1      48.167  28.214  31.996  1.00  0.00     0.001 A 
ATOM     78  C   UNL A   1      47.008  27.187  33.850  1.00  0.00     0.001 A 
ATOM     79  C   UNL A   1      48.183  27.403  33.131  1.00  0.00     0.000 A 
ENDBRANCH  61  74
ENDBRANCH  35  36
ENDBRANCH  27  30
ENDBRANCH  25  26
ENDBRANCH  24  25
ENDBRANCH   1  24
TORSDOF 15
ENDMDL
MODEL 3
REMARK VINA RESULT:     -11.6      3.526      8.799
REMARK SMILES O=CN[C@@H](CCS[C@@H]1CCO[C@]2(CCOC2)C1)C(=O)NCCCNC(=O)c1ccc(-c2c3nc(c(-c4ccccc4)c4ccc([nH]4)c(-c4ccccc4)c4nc(c(-c5ccccc5)c5ccc2[nH]5)C=C4)C=C3)cc1
REMARK SMILES IDX 21 1 20 2 18 3 19 4 4 6 3 7 1 8 2 9 5 11 6 12 7 13 8 14 9 15
REMARK SMILES IDX 17 16 10 17 12 18 11 19 13 20 16 21 14 22 15 23 22 24 23 25
REMARK SMILES IDX 24 26 25 27 26 29 27 30 28 31 74 32 29 33 73 34 30 35 31 36
REMARK SMILES IDX 32 37 67 38 33 39 72 40 66 41 68 42 34 43 71 44 65 45 64 46
REMARK SMILES IDX 35 48 57 49 42 50 56 51 43 52 46 53 55 54 69 55 44 56 45 57
REMARK SMILES IDX 54 59 70 60 47 61 36 62 37 63 41 64 38 65 40 66 39 67 58 68
REMARK SMILES IDX 59 69 63 70 60 71 62 72 61 73 48 74 49 75 53 76 50 77 52 78
REMARK SMILES IDX 51 79
REMARK H PARENT 20 5 3 10 24 28 68 47 46 58
REMARK Flexibility Score: inf
ROOT
ATOM      1  C   UNL A   1      31.430  29.797  25.149  1.00  0.00     0.117 C 
ENDROOT
BRANCH   1   2
ATOM      2  N   UNL A   1      30.812  29.869  23.826  1.00  0.00    -0.354 N 
ATOM      3  C   UNL A   1      30.615  29.106  22.702  1.00  0.00     0.242 C 
ATOM      4  O   UNL A   1      30.107  29.553  21.676  1.00  0.00    -0.273 OA
ATOM      5  H   UNL A   1      30.404  30.756  23.700  1.00  0.00     0.163 HD
BRANCH   3   6
ATOM      6  C   UNL A   1      30.748  27.650  22.645  1.00  0.00     0.171 C 
BRANCH   6   7
ATOM      7  N   UNL A   1      32.172  27.461  22.760  1.00  0.00    -0.347 N 
ATOM      8  O   UNL A   1      33.859  26.369  21.622  1.00  0.00    -0.279 OA
ATOM      9  C   UNL A   1      32.706  26.383  22.063  1.00  0.00     0.337 C 
ATOM     10  H   UNL A   1      32.735  28.061  23.300  1.00  0.00     0.164 HD
ENDBRANCH   6   7
BRANCH   6  11
ATOM     11  C   UNL A   1      29.622  27.273  23.564  1.00  0.00     0.046 C 
BRANCH  11  12
ATOM     12  C   UNL A   1      30.076  26.307  24.808  1.00  0.00     0.072 C 
BRANCH  12  13
ATOM     13  S   UNL A   1      31.795  25.726  25.879  1.00  0.00    -0.158 SA
BRANCH  13  14
ATOM     14  C   UNL A   1      32.575  23.761  25.982  1.00  0.00     0.052 C 
ATOM     15  C   UNL A   1      32.421  22.957  27.287  1.00  0.00     0.043 C 
ATOM     16  C   UNL A   1      33.687  23.097  25.072  1.00  0.00     0.052 C 
ATOM     17  C   UNL A   1      33.729  22.323  27.819  1.00  0.00     0.162 C 
ATOM     18  C   UNL A   1      34.931  22.408  25.723  1.00  0.00     0.095 C 
ATOM     19  O   UNL A   1      34.481  21.626  26.830  1.00  0.00    -0.372 OA
ATOM     20  C   UNL A   1      36.254  23.174  25.976  1.00  0.00     0.066 C 
ATOM     21  C   UNL A   1      35.542  21.419  24.697  1.00  0.00     0.195 C 
ATOM     22  C   UNL A   1      37.069  23.107  24.686  1.00  0.00     0.163 C 
ATOM     23  O   UNL A   1      36.380  22.194  23.830  1.00  0.00    -0.378 OA
ENDBRANCH  13  14
ENDBRANCH  12  13
ENDBRANCH  11  12
ENDBRANCH   6  11
ENDBRANCH   3   6
ENDBRANCH   1   2
BRANCH   1  24
ATOM     24  C   UNL A   1      31.244  31.095  26.002  1.00  0.00     0.042 C 
BRANCH  24  25
ATOM     25  C   UNL A   1      32.419  31.607  26.873  1.00  0.00     0.118 C 
BRANCH  25  26
ATOM     26  N   UNL A   1      32.282  33.002  27.242  1.00  0.00    -0.352 N 
ATOM     27  C   UNL A   1      32.991  33.812  28.095  1.00  0.00     0.251 C 
ATOM     28  H   UNL A   1      31.534  33.459  26.793  1.00  0.00     0.163 HD
ATOM     29  O   UNL A   1      32.511  34.918  28.350  1.00  0.00    -0.269 OA
BRANCH  27  30
ATOM     30  C   UNL A   1      34.282  33.447  28.746  1.00  0.00     0.039 A 
ATOM     31  C   UNL A   1      35.453  33.785  28.052  1.00  0.00     0.014 A 
ATOM     32  C   UNL A   1      34.392  32.613  29.863  1.00  0.00     0.014 A 
ATOM     33  C   UNL A   1      36.706  33.300  28.459  1.00  0.00     0.010 A 
ATOM     34  C   UNL A   1      35.662  32.159  30.296  1.00  0.00     0.010 A 
ATOM     35  C   UNL A   1      36.838  32.481  29.592  1.00  0.00    -0.014 A 
BRANCH  35  36
ATOM     36  C   UNL A   1      38.193  31.964  29.991  1.00  0.00     0.031 A 
ATOM     37  C   UNL A   1      38.722  30.640  29.480  1.00  0.00     0.074 A 
ATOM     38  C   UNL A   1      38.993  32.701  30.795  1.00  0.00     0.049 A 
ATOM     39  N   UNL A   1      39.885  30.068  29.701  1.00  0.00    -0.248 NA
ATOM     40  C   UNL A   1      37.830  29.854  28.616  1.00  0.00     0.031 C 
ATOM     41  C   UNL A   1      38.640  33.995  31.379  1.00  0.00     0.029 A 
ATOM     42  N   UNL A   1      40.273  32.473  31.251  1.00  0.00    -0.354 N 
ATOM     43  C   UNL A   1      39.857  28.856  29.018  1.00  0.00     0.074 A 
ATOM     44  C   UNL A   1      38.547  28.757  28.408  1.00  0.00     0.031 C 
ATOM     45  C   UNL A   1      39.684  34.461  32.084  1.00  0.00     0.029 A 
ATOM     46  C   UNL A   1      40.768  33.484  32.045  1.00  0.00     0.049 A 
ATOM     47  H   UNL A   1      40.786  31.663  31.031  1.00  0.00     0.167 HD
ATOM     48  C   UNL A   1      40.828  27.915  28.891  1.00  0.00     0.031 A 
ATOM     49  C   UNL A   1      41.951  33.617  32.679  1.00  0.00     0.031 A 
ATOM     50  C   UNL A   1      42.141  27.996  29.482  1.00  0.00     0.049 A 
ATOM     51  C   UNL A   1      42.996  32.538  32.556  1.00  0.00     0.074 A 
ATOM     52  C   UNL A   1      43.194  27.102  29.367  1.00  0.00     0.029 A 
ATOM     53  N   UNL A   1      42.581  29.023  30.299  1.00  0.00    -0.354 N 
ATOM     54  N   UNL A   1      42.963  31.429  31.861  1.00  0.00    -0.248 NA
ATOM     55  C   UNL A   1      44.248  32.739  33.303  1.00  0.00     0.031 C 
ATOM     56  C   UNL A   1      44.251  27.559  30.160  1.00  0.00     0.029 A 
ATOM     57  C   UNL A   1      43.880  28.772  30.716  1.00  0.00     0.049 A 
ATOM     58  H   UNL A   1      42.052  29.815  30.547  1.00  0.00     0.167 HD
ATOM     59  C   UNL A   1      44.197  30.818  32.061  1.00  0.00     0.074 A 
ATOM     60  C   UNL A   1      44.963  31.689  32.925  1.00  0.00     0.031 C 
ATOM     61  C   UNL A   1      44.649  29.640  31.569  1.00  0.00     0.031 A 
BRANCH  48  62
ATOM     62  C   UNL A   1      40.511  26.687  28.074  1.00  0.00    -0.014 A 
ATOM     63  C   UNL A   1      39.720  25.651  28.593  1.00  0.00     0.009 A 
ATOM     64  C   UNL A   1      40.950  26.598  26.741  1.00  0.00     0.009 A 
ATOM     65  C   UNL A   1      39.407  24.536  27.810  1.00  0.00     0.001 A 
ATOM     66  C   UNL A   1      40.610  25.497  25.952  1.00  0.00     0.001 A 
ATOM     67  C   UNL A   1      39.848  24.462  26.490  1.00  0.00     0.000 A 
ENDBRANCH  48  62
BRANCH  49  68
ATOM     68  C   UNL A   1      42.228  34.823  33.510  1.00  0.00    -0.014 A 
ATOM     69  C   UNL A   1      41.772  34.902  34.837  1.00  0.00     0.009 A 
ATOM     70  C   UNL A   1      42.910  35.921  32.966  1.00  0.00     0.009 A 
ATOM     71  C   UNL A   1      41.966  36.066  35.585  1.00  0.00     0.001 A 
ATOM     72  C   UNL A   1      43.133  37.071  33.728  1.00  0.00     0.001 A 
ATOM     73  C   UNL A   1      42.649  37.147  35.033  1.00  0.00     0.000 A 
ENDBRANCH  49  68
BRANCH  61  74
ATOM     74  C   UNL A   1      46.058  29.237  31.912  1.00  0.00    -0.014 A 
ATOM     75  C   UNL A   1      46.343  28.442  33.034  1.00  0.00     0.009 A 
ATOM     76  C   UNL A   1      47.116  29.627  31.074  1.00  0.00     0.009 A 
ATOM     77  C   UNL A   1      47.660  28.079  33.329  1.00  0.00     0.001 A 
ATOM     78  C   UNL A   1      48.427  29.236  31.353  1.00  0.00     0.001 A 
ATOM     79  C   UNL A   1      48.699  28.470  32.486  1.00  0.00     0.000 A 
ENDBRANCH  61  74
ENDBRANCH  35  36
ENDBRANCH  27  30
ENDBRANCH  25  26
ENDBRANCH  24  25
ENDBRANCH   1  24
TORSDOF 15
ENDMDL
