MODEL 1
REMARK VINA RESULT:     -12.4      0.000      0.000
REMARK SMILES CC1(C)Cc2c(-c3ccccc3)c(-c3ccc(Cl)cc3)c(CC(=O)NCCCNC(=O)c3ccc(-c4c5nc(c(-c6ccccc6)c6ccc([nH]6)c(-c6ccccc6)c6nc(c(-c7ccccc7)c7ccc4[nH]7)C=C6)C=C5)cc3)n2C1
REMARK SMILES IDX 27 1 26 2 25 3 23 4 24 5 22 7 21 8 1 9 2 10 3 11 4 12 81 13
REMARK SMILES IDX 5 14 80 15 6 16 13 17 7 18 8 19 12 20 9 21 11 22 10 23 14 24
REMARK SMILES IDX 15 25 20 26 16 27 19 28 17 29 18 30 28 31 29 32 30 33 31 35
REMARK SMILES IDX 32 36 33 37 79 38 34 39 78 40 35 41 36 42 37 43 72 44 38 45
REMARK SMILES IDX 77 46 71 47 73 48 39 49 76 50 70 51 69 52 40 54 62 55 47 56
REMARK SMILES IDX 61 57 48 58 51 59 60 60 74 61 49 62 50 63 59 65 75 66 52 67
REMARK SMILES IDX 41 68 42 69 46 70 43 71 45 72 44 73 63 74 64 75 68 76 65 77
REMARK SMILES IDX 67 78 66 79 53 80 54 81 58 82 55 83 57 84 56 85
REMARK H PARENT 25 6 29 34 73 53 51 64
REMARK Flexibility Score: inf
ROOT
ATOM      1  C   UNL A   1      37.415  20.581  25.552  1.00  0.00     0.042 C 
ENDROOT
BRANCH   1   2
ATOM      2  C   UNL A   1      36.680  21.919  25.496  1.00  0.00     0.117 C 
BRANCH   2   3
ATOM      3  N   UNL A   1      35.682  22.092  26.530  1.00  0.00    -0.356 N 
ATOM      4  C   UNL A   1      34.815  23.135  26.709  1.00  0.00     0.225 C 
ATOM      5  O   UNL A   1      33.906  22.982  27.530  1.00  0.00    -0.275 OA
ATOM      6  H   UNL A   1      35.618  21.365  27.190  1.00  0.00     0.163 HD
BRANCH   4   7
ATOM      7  C   UNL A   1      34.945  24.410  25.886  1.00  0.00     0.154 C 
BRANCH   7   8
ATOM      8  C   UNL A   1      33.702  24.751  25.110  1.00  0.00     0.036 A 
ATOM      9  C   UNL A   1      31.874  20.951  22.443  1.00  0.00     0.013 C 
ATOM     10  C   UNL A   1      32.424  22.373  22.548  1.00  0.00    -0.012 C 
ATOM     11  C   UNL A   1      33.139  22.708  21.227  1.00  0.00     0.013 C 
ATOM     12  C   UNL A   1      31.299  23.422  22.800  1.00  0.00     0.063 C 
ATOM     13  C   UNL A   1      33.364  22.515  23.786  1.00  0.00     0.129 C 
ATOM     14  C   UNL A   1      31.955  24.377  23.726  1.00  0.00     0.027 A 
ATOM     15  N   UNL A   1      33.095  23.863  24.266  1.00  0.00    -0.346 N 
ATOM     16  C   UNL A   1      31.787  25.651  24.200  1.00  0.00     0.011 A 
ATOM     17  C   UNL A   1      32.890  25.895  25.095  1.00  0.00     0.011 A 
BRANCH  16  18
ATOM     18  C   UNL A   1      30.702  26.518  23.787  1.00  0.00    -0.016 A 
ATOM     19  C   UNL A   1      30.956  27.665  23.026  1.00  0.00     0.009 A 
ATOM     20  C   UNL A   1      29.386  26.216  24.157  1.00  0.00     0.009 A 
ATOM     21  C   UNL A   1      29.908  28.506  22.652  1.00  0.00     0.001 A 
ATOM     22  C   UNL A   1      28.339  27.056  23.779  1.00  0.00     0.001 A 
ATOM     23  C   UNL A   1      28.601  28.203  23.032  1.00  0.00     0.000 A 
ENDBRANCH  16  18
BRANCH  17  24
ATOM     24  C   UNL A   1      33.108  27.111  25.875  1.00  0.00    -0.016 A 
ATOM     25  C   UNL A   1      32.152  27.500  26.825  1.00  0.00     0.010 A 
ATOM     26  C   UNL A   1      34.168  27.977  25.587  1.00  0.00     0.010 A 
ATOM     27  C   UNL A   1      32.257  28.735  27.476  1.00  0.00     0.021 A 
ATOM     28  C   UNL A   1      34.289  29.200  26.254  1.00  0.00     0.021 A 
ATOM     29  C   UNL A   1      33.327  29.578  27.188  1.00  0.00     0.041 A 
ATOM     30  Cl  UNL A   1      33.446  31.110  27.962  1.00  0.00    -0.084 Cl
ENDBRANCH  17  24
ENDBRANCH   7   8
ENDBRANCH   4   7
ENDBRANCH   2   3
ENDBRANCH   1   2
BRANCH   1  31
ATOM     31  C   UNL A   1      38.825  20.653  25.019  1.00  0.00     0.118 C 
BRANCH  31  32
ATOM     32  N   UNL A   1      39.649  19.509  25.441  1.00  0.00    -0.352 N 
ATOM     33  C   UNL A   1      40.936  19.502  25.947  1.00  0.00     0.251 C 
ATOM     34  H   UNL A   1      39.224  18.624  25.352  1.00  0.00     0.163 HD
ATOM     35  O   UNL A   1      41.609  18.466  25.941  1.00  0.00    -0.269 OA
BRANCH  33  36
ATOM     36  C   UNL A   1      41.493  20.748  26.493  1.00  0.00     0.039 A 
ATOM     37  C   UNL A   1      42.318  21.618  25.778  1.00  0.00     0.014 A 
ATOM     38  C   UNL A   1      41.092  21.074  27.776  1.00  0.00     0.014 A 
ATOM     39  C   UNL A   1      42.698  22.814  26.389  1.00  0.00     0.010 A 
ATOM     40  C   UNL A   1      41.110  22.373  28.157  1.00  0.00     0.010 A 
ATOM     41  C   UNL A   1      42.082  23.170  27.598  1.00  0.00    -0.014 A 
BRANCH  41  42
ATOM     42  C   UNL A   1      42.321  24.409  28.311  1.00  0.00     0.031 A 
ATOM     43  C   UNL A   1      41.280  25.419  28.049  1.00  0.00     0.074 A 
ATOM     44  C   UNL A   1      43.213  24.504  29.327  1.00  0.00     0.049 A 
ATOM     45  N   UNL A   1      41.375  26.441  27.271  1.00  0.00    -0.248 NA
ATOM     46  C   UNL A   1      39.910  25.146  28.522  1.00  0.00     0.031 C 
ATOM     47  C   UNL A   1      44.049  23.450  29.924  1.00  0.00     0.029 A 
ATOM     48  N   UNL A   1      43.477  25.565  30.134  1.00  0.00    -0.354 N 
ATOM     49  C   UNL A   1      40.156  27.094  27.381  1.00  0.00     0.074 A 
ATOM     50  C   UNL A   1      39.236  26.127  27.919  1.00  0.00     0.031 C 
ATOM     51  C   UNL A   1      44.535  23.868  31.117  1.00  0.00     0.029 A 
ATOM     52  C   UNL A   1      44.185  25.265  31.294  1.00  0.00     0.049 A 
ATOM     53  H   UNL A   1      43.188  26.480  29.914  1.00  0.00     0.167 HD
ATOM     54  C   UNL A   1      40.103  28.456  27.366  1.00  0.00     0.031 A 
ATOM     55  C   UNL A   1      44.441  26.106  32.331  1.00  0.00     0.031 A 
ATOM     56  C   UNL A   1      41.367  29.017  26.940  1.00  0.00     0.049 A 
ATOM     57  C   UNL A   1      44.242  27.485  31.826  1.00  0.00     0.074 A 
ATOM     58  C   UNL A   1      42.167  28.900  25.821  1.00  0.00     0.029 A 
ATOM     59  N   UNL A   1      42.181  29.502  27.940  1.00  0.00    -0.354 N 
ATOM     60  N   UNL A   1      45.011  28.034  30.931  1.00  0.00    -0.248 NA
ATOM     61  C   UNL A   1      42.916  28.069  31.955  1.00  0.00     0.031 C 
ATOM     62  C   UNL A   1      43.503  28.881  26.322  1.00  0.00     0.029 A 
ATOM     63  C   UNL A   1      43.460  29.078  27.704  1.00  0.00     0.049 A 
ATOM     64  H   UNL A   1      41.891  30.061  28.695  1.00  0.00     0.167 HD
ATOM     65  C   UNL A   1      44.136  28.691  30.077  1.00  0.00     0.074 A 
ATOM     66  C   UNL A   1      42.875  28.768  30.816  1.00  0.00     0.031 C 
ATOM     67  C   UNL A   1      44.429  28.832  28.750  1.00  0.00     0.031 A 
BRANCH  54  68
ATOM     68  C   UNL A   1      39.137  29.262  28.207  1.00  0.00    -0.014 A 
ATOM     69  C   UNL A   1      39.322  29.256  29.602  1.00  0.00     0.009 A 
ATOM     70  C   UNL A   1      37.908  29.764  27.741  1.00  0.00     0.009 A 
ATOM     71  C   UNL A   1      38.289  29.607  30.477  1.00  0.00     0.001 A 
ATOM     72  C   UNL A   1      36.887  30.157  28.611  1.00  0.00     0.001 A 
ATOM     73  C   UNL A   1      37.066  30.043  29.981  1.00  0.00     0.000 A 
ENDBRANCH  54  68
BRANCH  55  74
ATOM     74  C   UNL A   1      44.572  25.825  33.780  1.00  0.00    -0.014 A 
ATOM     75  C   UNL A   1      43.544  25.174  34.486  1.00  0.00     0.009 A 
ATOM     76  C   UNL A   1      45.827  25.923  34.407  1.00  0.00     0.009 A 
ATOM     77  C   UNL A   1      43.777  24.602  35.745  1.00  0.00     0.001 A 
ATOM     78  C   UNL A   1      46.061  25.352  35.665  1.00  0.00     0.001 A 
ATOM     79  C   UNL A   1      45.040  24.676  36.326  1.00  0.00     0.000 A 
ENDBRANCH  55  74
BRANCH  67  80
ATOM     80  C   UNL A   1      45.829  28.493  28.297  1.00  0.00    -0.014 A 
ATOM     81  C   UNL A   1      46.246  27.193  27.954  1.00  0.00     0.009 A 
ATOM     82  C   UNL A   1      46.716  29.555  28.070  1.00  0.00     0.009 A 
ATOM     83  C   UNL A   1      47.522  26.967  27.425  1.00  0.00     0.001 A 
ATOM     84  C   UNL A   1      47.981  29.331  27.523  1.00  0.00     0.001 A 
ATOM     85  C   UNL A   1      48.386  28.037  27.207  1.00  0.00     0.000 A 
ENDBRANCH  67  80
ENDBRANCH  41  42
ENDBRANCH  33  36
ENDBRANCH  31  32
ENDBRANCH   1  31
TORSDOF 13
ENDMDL
MODEL 2
REMARK VINA RESULT:     -12.1      2.308      5.786
REMARK SMILES CC1(C)Cc2c(-c3ccccc3)c(-c3ccc(Cl)cc3)c(CC(=O)NCCCNC(=O)c3ccc(-c4c5nc(c(-c6ccccc6)c6ccc([nH]6)c(-c6ccccc6)c6nc(c(-c7ccccc7)c7ccc4[nH]7)C=C6)C=C5)cc3)n2C1
REMARK SMILES IDX 27 1 26 2 25 3 23 4 24 5 22 7 21 8 1 9 2 10 3 11 4 12 81 13
REMARK SMILES IDX 5 14 80 15 6 16 13 17 7 18 8 19 12 20 9 21 11 22 10 23 14 24
REMARK SMILES IDX 15 25 20 26 16 27 19 28 17 29 18 30 28 31 29 32 30 33 31 35
REMARK SMILES IDX 32 36 33 37 79 38 34 39 78 40 35 41 36 42 37 43 72 44 38 45
REMARK SMILES IDX 77 46 71 47 73 48 39 49 76 50 70 51 69 52 40 54 62 55 47 56
REMARK SMILES IDX 61 57 48 58 51 59 60 60 74 61 49 62 50 63 59 65 75 66 52 67
REMARK SMILES IDX 41 68 42 69 46 70 43 71 45 72 44 73 63 74 64 75 68 76 65 77
REMARK SMILES IDX 67 78 66 79 53 80 54 81 58 82 55 83 57 84 56 85
REMARK H PARENT 25 6 29 34 73 53 51 64
REMARK Flexibility Score: inf
ROOT
ATOM      1  C   UNL A   1      38.243  21.549  25.613  1.00  0.00     0.042 C 
ENDROOT
BRANCH   1   2
ATOM      2  C   UNL A   1      36.924  22.225  25.249  1.00  0.00     0.117 C 
BRANCH   2   3
ATOM      3  N   UNL A   1      35.969  22.291  26.335  1.00  0.00    -0.356 N 
ATOM      4  C   UNL A   1      35.052  23.269  26.605  1.00  0.00     0.225 C 
ATOM      5  O   UNL A   1      34.196  23.026  27.459  1.00  0.00    -0.275 OA
ATOM      6  H   UNL A   1      35.982  21.533  26.963  1.00  0.00     0.163 HD
BRANCH   4   7
ATOM      7  C   UNL A   1      35.066  24.586  25.837  1.00  0.00     0.154 C 
BRANCH   7   8
ATOM      8  C   UNL A   1      33.778  24.870  25.115  1.00  0.00     0.036 A 
ATOM      9  C   UNL A   1      32.012  20.991  22.522  1.00  0.00     0.013 C 
ATOM     10  C   UNL A   1      32.502  22.436  22.605  1.00  0.00    -0.012 C 
ATOM     11  C   UNL A   1      33.146  22.802  21.255  1.00  0.00     0.013 C 
ATOM     12  C   UNL A   1      31.343  23.434  22.905  1.00  0.00     0.063 C 
ATOM     13  C   UNL A   1      33.485  22.620  23.803  1.00  0.00     0.129 C 
ATOM     14  C   UNL A   1      31.993  24.419  23.804  1.00  0.00     0.027 A 
ATOM     15  N   UNL A   1      33.177  23.956  24.295  1.00  0.00    -0.346 N 
ATOM     16  C   UNL A   1      31.789  25.684  24.285  1.00  0.00     0.011 A 
ATOM     17  C   UNL A   1      32.917  25.978  25.134  1.00  0.00     0.011 A 
BRANCH  16  18
ATOM     18  C   UNL A   1      30.650  26.502  23.919  1.00  0.00    -0.016 A 
ATOM     19  C   UNL A   1      29.358  26.146  24.322  1.00  0.00     0.009 A 
ATOM     20  C   UNL A   1      30.837  27.655  23.148  1.00  0.00     0.009 A 
ATOM     21  C   UNL A   1      28.265  26.927  23.946  1.00  0.00     0.001 A 
ATOM     22  C   UNL A   1      29.744  28.437  22.775  1.00  0.00     0.001 A 
ATOM     23  C   UNL A   1      28.459  28.069  23.170  1.00  0.00     0.000 A 
ENDBRANCH  16  18
BRANCH  17  24
ATOM     24  C   UNL A   1      33.112  27.203  25.905  1.00  0.00    -0.016 A 
ATOM     25  C   UNL A   1      32.046  27.721  26.656  1.00  0.00     0.010 A 
ATOM     26  C   UNL A   1      34.287  27.953  25.789  1.00  0.00     0.010 A 
ATOM     27  C   UNL A   1      32.156  28.969  27.280  1.00  0.00     0.021 A 
ATOM     28  C   UNL A   1      34.408  29.189  26.433  1.00  0.00     0.021 A 
ATOM     29  C   UNL A   1      33.339  29.696  27.166  1.00  0.00     0.041 A 
ATOM     30  Cl  UNL A   1      33.470  31.245  27.906  1.00  0.00    -0.084 Cl
ENDBRANCH  17  24
ENDBRANCH   7   8
ENDBRANCH   4   7
ENDBRANCH   2   3
ENDBRANCH   1   2
BRANCH   1  31
ATOM     31  C   UNL A   1      39.182  22.447  26.380  1.00  0.00     0.118 C 
BRANCH  31  32
ATOM     32  N   UNL A   1      40.597  22.109  26.158  1.00  0.00    -0.352 N 
ATOM     33  C   UNL A   1      41.683  22.953  26.013  1.00  0.00     0.251 C 
ATOM     34  H   UNL A   1      40.801  21.146  26.105  1.00  0.00     0.163 HD
ATOM     35  O   UNL A   1      42.734  22.547  25.508  1.00  0.00    -0.269 OA
BRANCH  33  36
ATOM     36  C   UNL A   1      41.566  24.345  26.473  1.00  0.00     0.039 A 
ATOM     37  C   UNL A   1      40.616  25.251  25.997  1.00  0.00     0.014 A 
ATOM     38  C   UNL A   1      42.428  24.717  27.488  1.00  0.00     0.014 A 
ATOM     39  C   UNL A   1      40.558  26.513  26.590  1.00  0.00     0.010 A 
ATOM     40  C   UNL A   1      42.075  25.739  28.304  1.00  0.00     0.010 A 
ATOM     41  C   UNL A   1      41.313  26.741  27.749  1.00  0.00    -0.014 A 
BRANCH  41  42
ATOM     42  C   UNL A   1      41.301  27.973  28.512  1.00  0.00     0.031 A 
ATOM     43  C   UNL A   1      42.407  28.875  28.143  1.00  0.00     0.074 A 
ATOM     44  C   UNL A   1      40.228  28.369  29.239  1.00  0.00     0.049 A 
ATOM     45  N   UNL A   1      43.495  29.071  28.805  1.00  0.00    -0.248 NA
ATOM     46  C   UNL A   1      42.414  29.448  26.785  1.00  0.00     0.031 C 
ATOM     47  C   UNL A   1      38.916  27.717  29.381  1.00  0.00     0.029 A 
ATOM     48  N   UNL A   1      40.043  29.526  29.927  1.00  0.00    -0.354 N 
ATOM     49  C   UNL A   1      44.199  30.016  28.071  1.00  0.00     0.074 A 
ATOM     50  C   UNL A   1      43.633  29.990  26.748  1.00  0.00     0.031 C 
ATOM     51  C   UNL A   1      38.022  28.588  29.905  1.00  0.00     0.029 A 
ATOM     52  C   UNL A   1      38.726  29.799  30.286  1.00  0.00     0.049 A 
ATOM     53  H   UNL A   1      40.788  30.130  30.155  1.00  0.00     0.167 HD
ATOM     54  C   UNL A   1      44.922  30.979  28.707  1.00  0.00     0.031 A 
ATOM     55  C   UNL A   1      38.255  30.949  30.836  1.00  0.00     0.031 A 
ATOM     56  C   UNL A   1      45.065  30.672  30.115  1.00  0.00     0.049 A 
ATOM     57  C   UNL A   1      39.422  31.668  31.399  1.00  0.00     0.074 A 
ATOM     58  C   UNL A   1      45.575  29.616  30.843  1.00  0.00     0.029 A 
ATOM     59  N   UNL A   1      44.233  31.358  30.971  1.00  0.00    -0.354 N 
ATOM     60  N   UNL A   1      40.109  31.229  32.414  1.00  0.00    -0.248 NA
ATOM     61  C   UNL A   1      40.115  32.613  30.537  1.00  0.00     0.031 C 
ATOM     62  C   UNL A   1      44.677  29.457  31.941  1.00  0.00     0.029 A 
ATOM     63  C   UNL A   1      43.722  30.474  31.881  1.00  0.00     0.049 A 
ATOM     64  H   UNL A   1      44.040  32.322  30.934  1.00  0.00     0.167 HD
ATOM     65  C   UNL A   1      41.432  31.455  32.063  1.00  0.00     0.074 A 
ATOM     66  C   UNL A   1      41.369  32.404  30.950  1.00  0.00     0.031 C 
ATOM     67  C   UNL A   1      42.424  30.624  32.502  1.00  0.00     0.031 A 
BRANCH  54  68
ATOM     68  C   UNL A   1      45.042  32.402  28.204  1.00  0.00    -0.014 A 
ATOM     69  C   UNL A   1      43.901  33.222  28.286  1.00  0.00     0.009 A 
ATOM     70  C   UNL A   1      46.094  32.872  27.398  1.00  0.00     0.009 A 
ATOM     71  C   UNL A   1      43.773  34.374  27.503  1.00  0.00     0.001 A 
ATOM     72  C   UNL A   1      45.988  34.046  26.647  1.00  0.00     0.001 A 
ATOM     73  C   UNL A   1      44.811  34.776  26.672  1.00  0.00     0.000 A 
ENDBRANCH  54  68
BRANCH  55  74
ATOM     74  C   UNL A   1      36.939  31.613  30.682  1.00  0.00    -0.014 A 
ATOM     75  C   UNL A   1      35.960  31.517  31.688  1.00  0.00     0.009 A 
ATOM     76  C   UNL A   1      36.754  32.590  29.688  1.00  0.00     0.009 A 
ATOM     77  C   UNL A   1      34.867  32.396  31.722  1.00  0.00     0.001 A 
ATOM     78  C   UNL A   1      35.663  33.468  29.722  1.00  0.00     0.001 A 
ATOM     79  C   UNL A   1      34.728  33.382  30.750  1.00  0.00     0.000 A 
ENDBRANCH  55  74
BRANCH  67  80
ATOM     80  C   UNL A   1      42.078  29.622  33.578  1.00  0.00    -0.014 A 
ATOM     81  C   UNL A   1      41.638  28.311  33.314  1.00  0.00     0.009 A 
ATOM     82  C   UNL A   1      42.352  29.974  34.908  1.00  0.00     0.009 A 
ATOM     83  C   UNL A   1      41.452  27.395  34.355  1.00  0.00     0.001 A 
ATOM     84  C   UNL A   1      42.186  29.053  35.944  1.00  0.00     0.001 A 
ATOM     85  C   UNL A   1      41.731  27.767  35.669  1.00  0.00     0.000 A 
ENDBRANCH  67  80
ENDBRANCH  41  42
ENDBRANCH  33  36
ENDBRANCH  31  32
ENDBRANCH   1  31
TORSDOF 13
ENDMDL
MODEL 3
REMARK VINA RESULT:     -11.9      2.855      7.370
REMARK SMILES CC1(C)Cc2c(-c3ccccc3)c(-c3ccc(Cl)cc3)c(CC(=O)NCCCNC(=O)c3ccc(-c4c5nc(c(-c6ccccc6)c6ccc([nH]6)c(-c6ccccc6)c6nc(c(-c7ccccc7)c7ccc4[nH]7)C=C6)C=C5)cc3)n2C1
REMARK SMILES IDX 27 1 26 2 25 3 23 4 24 5 22 7 21 8 1 9 2 10 3 11 4 12 81 13
REMARK SMILES IDX 5 14 80 15 6 16 13 17 7 18 8 19 12 20 9 21 11 22 10 23 14 24
REMARK SMILES IDX 15 25 20 26 16 27 19 28 17 29 18 30 28 31 29 32 30 33 31 35
REMARK SMILES IDX 32 36 33 37 79 38 34 39 78 40 35 41 36 42 37 43 72 44 38 45
REMARK SMILES IDX 77 46 71 47 73 48 39 49 76 50 70 51 69 52 40 54 62 55 47 56
REMARK SMILES IDX 61 57 48 58 51 59 60 60 74 61 49 62 50 63 59 65 75 66 52 67
REMARK SMILES IDX 41 68 42 69 46 70 43 71 45 72 44 73 63 74 64 75 68 76 65 77
REMARK SMILES IDX 67 78 66 79 53 80 54 81 58 82 55 83 57 84 56 85
REMARK H PARENT 25 6 29 34 73 53 51 64
REMARK Flexibility Score: inf
ROOT
ATOM      1  C   UNL A   1      33.255  30.946  27.125  1.00  0.00     0.042 C 
ENDROOT
BRANCH   1   2
ATOM      2  C   UNL A   1      33.085  29.515  26.620  1.00  0.00     0.117 C 
BRANCH   2   3
ATOM      3  N   UNL A   1      33.541  29.305  25.263  1.00  0.00    -0.356 N 
ATOM      4  C   UNL A   1      33.970  28.145  24.679  1.00  0.00     0.225 C 
ATOM      5  O   UNL A   1      34.114  28.146  23.454  1.00  0.00    -0.275 OA
ATOM      6  H   UNL A   1      33.544  30.101  24.684  1.00  0.00     0.163 HD
BRANCH   4   7
ATOM      7  C   UNL A   1      34.208  26.892  25.512  1.00  0.00     0.154 C 
BRANCH   7   8
ATOM      8  C   UNL A   1      33.429  25.698  25.033  1.00  0.00     0.036 A 
ATOM      9  C   UNL A   1      28.736  26.743  23.703  1.00  0.00     0.013 C 
ATOM     10  C   UNL A   1      29.749  25.976  24.552  1.00  0.00    -0.012 C 
ATOM     11  C   UNL A   1      29.093  25.652  25.906  1.00  0.00     0.013 C 
ATOM     12  C   UNL A   1      30.200  24.648  23.872  1.00  0.00     0.063 C 
ATOM     13  C   UNL A   1      31.070  26.793  24.711  1.00  0.00     0.129 C 
ATOM     14  C   UNL A   1      31.638  24.577  24.232  1.00  0.00     0.027 A 
ATOM     15  N   UNL A   1      32.108  25.770  24.693  1.00  0.00    -0.346 N 
ATOM     16  C   UNL A   1      32.658  23.665  24.273  1.00  0.00     0.011 A 
ATOM     17  C   UNL A   1      33.811  24.373  24.771  1.00  0.00     0.011 A 
BRANCH  16  18
ATOM     18  C   UNL A   1      32.497  22.272  23.906  1.00  0.00    -0.016 A 
ATOM     19  C   UNL A   1      32.604  21.264  24.870  1.00  0.00     0.009 A 
ATOM     20  C   UNL A   1      32.240  21.926  22.575  1.00  0.00     0.009 A 
ATOM     21  C   UNL A   1      32.470  19.925  24.504  1.00  0.00     0.001 A 
ATOM     22  C   UNL A   1      32.102  20.586  22.210  1.00  0.00     0.001 A 
ATOM     23  C   UNL A   1      32.223  19.587  23.174  1.00  0.00     0.000 A 
ENDBRANCH  16  18
BRANCH  17  24
ATOM     24  C   UNL A   1      35.150  23.816  24.942  1.00  0.00    -0.016 A 
ATOM     25  C   UNL A   1      35.792  23.218  23.848  1.00  0.00     0.010 A 
ATOM     26  C   UNL A   1      35.742  23.728  26.207  1.00  0.00     0.010 A 
ATOM     27  C   UNL A   1      37.007  22.543  24.018  1.00  0.00     0.021 A 
ATOM     28  C   UNL A   1      36.968  23.076  26.374  1.00  0.00     0.021 A 
ATOM     29  C   UNL A   1      37.589  22.477  25.281  1.00  0.00     0.041 A 
ATOM     30  Cl  UNL A   1      39.067  21.624  25.502  1.00  0.00    -0.084 Cl
ENDBRANCH  17  24
ENDBRANCH   7   8
ENDBRANCH   4   7
ENDBRANCH   2   3
ENDBRANCH   1   2
BRANCH   1  31
ATOM     31  C   UNL A   1      34.633  31.225  27.673  1.00  0.00     0.118 C 
BRANCH  31  32
ATOM     32  N   UNL A   1      34.617  32.194  28.781  1.00  0.00    -0.352 N 
ATOM     33  C   UNL A   1      35.256  32.128  30.005  1.00  0.00     0.251 C 
ATOM     34  H   UNL A   1      34.076  33.004  28.628  1.00  0.00     0.163 HD
ATOM     35  O   UNL A   1      34.889  32.840  30.946  1.00  0.00    -0.269 OA
BRANCH  33  36
ATOM     36  C   UNL A   1      36.382  31.197  30.170  1.00  0.00     0.039 A 
ATOM     37  C   UNL A   1      36.260  29.806  30.138  1.00  0.00     0.014 A 
ATOM     38  C   UNL A   1      37.630  31.779  30.295  1.00  0.00     0.014 A 
ATOM     39  C   UNL A   1      37.427  29.044  30.214  1.00  0.00     0.010 A 
ATOM     40  C   UNL A   1      38.724  31.065  29.938  1.00  0.00     0.010 A 
ATOM     41  C   UNL A   1      38.661  29.703  30.122  1.00  0.00    -0.014 A 
BRANCH  41  42
ATOM     42  C   UNL A   1      39.950  29.041  30.115  1.00  0.00     0.031 A 
ATOM     43  C   UNL A   1      40.523  28.908  31.467  1.00  0.00     0.074 A 
ATOM     44  C   UNL A   1      40.412  28.355  29.041  1.00  0.00     0.049 A 
ATOM     45  N   UNL A   1      41.463  29.624  31.981  1.00  0.00    -0.248 NA
ATOM     46  C   UNL A   1      39.827  28.041  32.436  1.00  0.00     0.031 C 
ATOM     47  C   UNL A   1      39.750  28.108  27.750  1.00  0.00     0.029 A 
ATOM     48  N   UNL A   1      41.549  27.621  28.921  1.00  0.00    -0.354 N 
ATOM     49  C   UNL A   1      41.663  29.102  33.251  1.00  0.00     0.074 A 
ATOM     50  C   UNL A   1      40.476  28.349  33.561  1.00  0.00     0.031 C 
ATOM     51  C   UNL A   1      40.386  27.111  27.089  1.00  0.00     0.029 A 
ATOM     52  C   UNL A   1      41.586  26.762  27.826  1.00  0.00     0.049 A 
ATOM     53  H   UNL A   1      42.293  27.692  29.562  1.00  0.00     0.167 HD
ATOM     54  C   UNL A   1      42.919  29.030  33.772  1.00  0.00     0.031 A 
ATOM     55  C   UNL A   1      42.530  25.818  27.566  1.00  0.00     0.031 A 
ATOM     56  C   UNL A   1      43.852  29.805  32.982  1.00  0.00     0.049 A 
ATOM     57  C   UNL A   1      43.721  26.164  28.377  1.00  0.00     0.074 A 
ATOM     58  C   UNL A   1      43.944  31.125  32.586  1.00  0.00     0.029 A 
ATOM     59  N   UNL A   1      44.651  29.092  32.116  1.00  0.00    -0.354 N 
ATOM     60  N   UNL A   1      44.441  27.228  28.168  1.00  0.00    -0.248 NA
ATOM     61  C   UNL A   1      43.821  25.593  29.711  1.00  0.00     0.031 C 
ATOM     62  C   UNL A   1      44.418  31.074  31.240  1.00  0.00     0.029 A 
ATOM     63  C   UNL A   1      44.677  29.741  30.913  1.00  0.00     0.049 A 
ATOM     64  H   UNL A   1      45.124  28.256  32.329  1.00  0.00     0.167 HD
ATOM     65  C   UNL A   1      44.701  27.727  29.436  1.00  0.00     0.074 A 
ATOM     66  C   UNL A   1      44.388  26.623  30.346  1.00  0.00     0.031 C 
ATOM     67  C   UNL A   1      44.848  29.070  29.643  1.00  0.00     0.031 A 
BRANCH  54  68
ATOM     68  C   UNL A   1      43.398  27.887  34.642  1.00  0.00    -0.014 A 
ATOM     69  C   UNL A   1      43.462  26.607  34.061  1.00  0.00     0.009 A 
ATOM     70  C   UNL A   1      43.494  27.944  36.044  1.00  0.00     0.009 A 
ATOM     71  C   UNL A   1      43.488  25.450  34.846  1.00  0.00     0.001 A 
ATOM     72  C   UNL A   1      43.563  26.791  36.832  1.00  0.00     0.001 A 
ATOM     73  C   UNL A   1      43.522  25.543  36.232  1.00  0.00     0.000 A 
ENDBRANCH  54  68
BRANCH  55  74
ATOM     74  C   UNL A   1      42.406  24.501  26.898  1.00  0.00    -0.014 A 
ATOM     75  C   UNL A   1      42.840  24.320  25.572  1.00  0.00     0.009 A 
ATOM     76  C   UNL A   1      42.142  23.348  27.656  1.00  0.00     0.009 A 
ATOM     77  C   UNL A   1      43.048  23.037  25.045  1.00  0.00     0.001 A 
ATOM     78  C   UNL A   1      42.350  22.065  27.131  1.00  0.00     0.001 A 
ATOM     79  C   UNL A   1      42.819  21.911  25.830  1.00  0.00     0.000 A 
ENDBRANCH  55  74
BRANCH  67  80
ATOM     80  C   UNL A   1      44.981  29.959  28.429  1.00  0.00    -0.014 A 
ATOM     81  C   UNL A   1      43.886  30.543  27.765  1.00  0.00     0.009 A 
ATOM     82  C   UNL A   1      46.273  30.336  28.036  1.00  0.00     0.009 A 
ATOM     83  C   UNL A   1      44.085  31.455  26.722  1.00  0.00     0.001 A 
ATOM     84  C   UNL A   1      46.471  31.261  27.009  1.00  0.00     0.001 A 
ATOM     85  C   UNL A   1      45.378  31.816  26.348  1.00  0.00     0.000 A 
ENDBRANCH  67  80
ENDBRANCH  41  42
ENDBRANCH  33  36
ENDBRANCH  31  32
ENDBRANCH   1  31
TORSDOF 13
ENDMDL
