MODEL 1
REMARK VINA RESULT:     -12.2      0.000      0.000
REMARK SMILES Cc1nn(C)c(C)c1C[C@@H](C)C(=O)N[C@@H](C(=O)NCCCNC(=O)c1ccc(-c2c3nc(c(-c4ccccc4)c4ccc([nH]4)c(-c4ccccc4)c4nc(c(-c5ccccc5)c5ccc2[nH]5)C=C4)C=C3)cc1)c1ccccc1Cl
REMARK SMILES IDX 19 1 18 2 16 3 17 4 15 6 14 7 12 8 13 9 10 11 11 12 9 13
REMARK SMILES IDX 8 14 1 15 2 16 3 17 4 18 6 19 5 20 7 21 73 22 74 23 78 24
REMARK SMILES IDX 75 25 77 26 79 27 76 28 20 29 21 30 22 31 23 32 24 34 25 35
REMARK SMILES IDX 26 36 72 37 27 38 71 39 28 40 29 41 30 42 65 43 31 44 70 45
REMARK SMILES IDX 64 46 66 47 32 48 69 49 63 50 62 51 33 53 55 54 40 55 54 56
REMARK SMILES IDX 41 57 44 58 53 59 67 60 42 61 43 62 52 64 68 65 45 66 34 67
REMARK SMILES IDX 35 68 39 69 36 70 38 71 37 72 56 73 57 74 61 75 58 76 60 77
REMARK SMILES IDX 59 78 46 79 47 80 51 81 48 82 50 83 49 84
REMARK H PARENT 18 5 14 10 22 33 66 52 44 63
REMARK Flexibility Score: inf
ROOT
ATOM      1  C   UNL A   1      31.741  28.106  25.970  1.00  0.00     0.117 C 
ENDROOT
BRANCH   1   2
ATOM      2  N   UNL A   1      32.702  28.542  24.991  1.00  0.00    -0.354 N 
ATOM      3  C   UNL A   1      32.617  28.463  23.625  1.00  0.00     0.247 C 
ATOM      4  O   UNL A   1      33.342  29.246  23.003  1.00  0.00    -0.272 OA
ATOM      5  H   UNL A   1      33.524  28.949  25.348  1.00  0.00     0.163 HD
BRANCH   3   6
ATOM      6  C   UNL A   1      31.527  27.576  22.904  1.00  0.00     0.203 C 
BRANCH   6   7
ATOM      7  N   UNL A   1      31.962  26.948  21.648  1.00  0.00    -0.340 N 
ATOM      8  C   UNL A   1      32.630  25.802  21.342  1.00  0.00     0.224 C 
ATOM      9  O   UNL A   1      32.941  25.649  20.156  1.00  0.00    -0.275 OA
ATOM     10  H   UNL A   1      31.715  27.472  20.851  1.00  0.00     0.164 HD
BRANCH   8  11
ATOM     11  C   UNL A   1      33.012  24.723  22.368  1.00  0.00     0.080 C 
ATOM     12  C   UNL A   1      31.751  24.057  22.889  1.00  0.00     0.018 C 
BRANCH  11  13
ATOM     13  C   UNL A   1      34.028  25.237  23.398  1.00  0.00     0.052 C 
BRANCH  13  14
ATOM     14  C   UNL A   1      34.623  24.314  24.403  1.00  0.00    -0.003 A 
ATOM     15  C   UNL A   1      32.864  24.481  26.368  1.00  0.00     0.069 C 
ATOM     16  C   UNL A   1      34.108  24.007  25.700  1.00  0.00     0.063 A 
ATOM     17  N   UNL A   1      34.849  23.083  26.317  1.00  0.00    -0.178 NA
ATOM     18  N   UNL A   1      35.777  22.739  25.412  1.00  0.00    -0.272 N 
ATOM     19  C   UNL A   1      35.615  23.364  24.204  1.00  0.00     0.038 A 
ATOM     20  C   UNL A   1      36.742  21.728  25.774  1.00  0.00     0.174 C 
ATOM     21  C   UNL A   1      36.359  22.966  22.983  1.00  0.00     0.066 C 
ENDBRANCH  13  14
ENDBRANCH  11  13
ENDBRANCH   8  11
ENDBRANCH   6   7
BRANCH   6  22
ATOM     22  C   UNL A   1      30.242  28.363  22.683  1.00  0.00     0.002 A 
ATOM     23  C   UNL A   1      30.309  29.584  21.982  1.00  0.00     0.008 A 
ATOM     24  C   UNL A   1      28.979  27.910  23.104  1.00  0.00     0.046 A 
ATOM     25  C   UNL A   1      29.161  30.334  21.725  1.00  0.00     0.000 A 
ATOM     26  C   UNL A   1      27.828  28.658  22.832  1.00  0.00     0.021 A 
ATOM     27  Cl  UNL A   1      28.777  26.430  23.975  1.00  0.00    -0.084 Cl
ATOM     28  C   UNL A   1      27.920  29.869  22.147  1.00  0.00     0.002 A 
ENDBRANCH   6  22
ENDBRANCH   3   6
ENDBRANCH   1   2
BRANCH   1  29
ATOM     29  C   UNL A   1      32.056  28.481  27.399  1.00  0.00     0.042 C 
BRANCH  29  30
ATOM     30  C   UNL A   1      33.495  28.901  27.597  1.00  0.00     0.118 C 
BRANCH  30  31
ATOM     31  N   UNL A   1      33.629  30.293  28.018  1.00  0.00    -0.352 N 
ATOM     32  C   UNL A   1      34.695  30.958  28.572  1.00  0.00     0.251 C 
ATOM     33  H   UNL A   1      32.824  30.843  27.881  1.00  0.00     0.163 HD
ATOM     34  O   UNL A   1      34.542  32.097  29.006  1.00  0.00    -0.269 OA
BRANCH  32  35
ATOM     35  C   UNL A   1      36.013  30.296  28.680  1.00  0.00     0.039 A 
ATOM     36  C   UNL A   1      36.864  30.294  27.572  1.00  0.00     0.014 A 
ATOM     37  C   UNL A   1      36.418  29.695  29.871  1.00  0.00     0.014 A 
ATOM     38  C   UNL A   1      38.151  29.770  27.694  1.00  0.00     0.010 A 
ATOM     39  C   UNL A   1      37.737  29.290  30.027  1.00  0.00     0.010 A 
ATOM     40  C   UNL A   1      38.616  29.312  28.938  1.00  0.00    -0.014 A 
BRANCH  40  41
ATOM     41  C   UNL A   1      40.013  28.846  29.121  1.00  0.00     0.031 A 
ATOM     42  C   UNL A   1      41.050  29.776  29.692  1.00  0.00     0.074 A 
ATOM     43  C   UNL A   1      40.362  27.609  28.715  1.00  0.00     0.049 A 
ATOM     44  N   UNL A   1      42.330  29.570  29.879  1.00  0.00    -0.248 NA
ATOM     45  C   UNL A   1      40.600  31.126  30.076  1.00  0.00     0.031 C 
ATOM     46  C   UNL A   1      39.462  26.631  28.094  1.00  0.00     0.029 A 
ATOM     47  N   UNL A   1      41.570  26.962  28.762  1.00  0.00    -0.354 N 
ATOM     48  C   UNL A   1      42.834  30.763  30.383  1.00  0.00     0.074 A 
ATOM     49  C   UNL A   1      41.741  31.708  30.414  1.00  0.00     0.031 C 
ATOM     50  C   UNL A   1      40.141  25.497  27.859  1.00  0.00     0.029 A 
ATOM     51  C   UNL A   1      41.529  25.680  28.266  1.00  0.00     0.049 A 
ATOM     52  H   UNL A   1      42.389  27.376  29.117  1.00  0.00     0.167 HD
ATOM     53  C   UNL A   1      44.088  31.039  30.811  1.00  0.00     0.031 A 
ATOM     54  C   UNL A   1      42.503  24.758  28.149  1.00  0.00     0.031 A 
ATOM     55  C   UNL A   1      45.170  30.094  30.797  1.00  0.00     0.049 A 
ATOM     56  C   UNL A   1      43.889  25.097  28.622  1.00  0.00     0.074 A 
ATOM     57  C   UNL A   1      46.464  30.260  31.259  1.00  0.00     0.029 A 
ATOM     58  N   UNL A   1      45.085  28.806  30.294  1.00  0.00    -0.354 N 
ATOM     59  N   UNL A   1      44.330  26.206  29.167  1.00  0.00    -0.248 NA
ATOM     60  C   UNL A   1      44.910  24.051  28.474  1.00  0.00     0.031 C 
ATOM     61  C   UNL A   1      47.176  29.088  30.989  1.00  0.00     0.029 A 
ATOM     62  C   UNL A   1      46.309  28.172  30.414  1.00  0.00     0.049 A 
ATOM     63  H   UNL A   1      44.273  28.402  29.909  1.00  0.00     0.167 HD
ATOM     64  C   UNL A   1      45.670  25.980  29.452  1.00  0.00     0.074 A 
ATOM     65  C   UNL A   1      45.962  24.621  29.043  1.00  0.00     0.031 C 
ATOM     66  C   UNL A   1      46.580  26.820  30.002  1.00  0.00     0.031 A 
BRANCH  53  67
ATOM     67  C   UNL A   1      44.351  32.423  31.340  1.00  0.00    -0.014 A 
ATOM     68  C   UNL A   1      44.762  33.460  30.487  1.00  0.00     0.009 A 
ATOM     69  C   UNL A   1      44.142  32.704  32.699  1.00  0.00     0.009 A 
ATOM     70  C   UNL A   1      44.988  34.743  30.990  1.00  0.00     0.001 A 
ATOM     71  C   UNL A   1      44.340  33.994  33.193  1.00  0.00     0.001 A 
ATOM     72  C   UNL A   1      44.770  35.010  32.340  1.00  0.00     0.000 A 
ENDBRANCH  53  67
BRANCH  54  73
ATOM     73  C   UNL A   1      42.207  23.420  27.572  1.00  0.00    -0.014 A 
ATOM     74  C   UNL A   1      42.452  23.158  26.214  1.00  0.00     0.009 A 
ATOM     75  C   UNL A   1      41.651  22.405  28.367  1.00  0.00     0.009 A 
ATOM     76  C   UNL A   1      42.110  21.923  25.657  1.00  0.00     0.001 A 
ATOM     77  C   UNL A   1      41.341  21.160  27.814  1.00  0.00     0.001 A 
ATOM     78  C   UNL A   1      41.558  20.925  26.457  1.00  0.00     0.000 A 
ENDBRANCH  54  73
BRANCH  66  79
ATOM     79  C   UNL A   1      47.964  26.280  30.225  1.00  0.00    -0.014 A 
ATOM     80  C   UNL A   1      48.931  26.306  29.208  1.00  0.00     0.009 A 
ATOM     81  C   UNL A   1      48.312  25.763  31.483  1.00  0.00     0.009 A 
ATOM     82  C   UNL A   1      50.207  25.788  29.436  1.00  0.00     0.001 A 
ATOM     83  C   UNL A   1      49.598  25.276  31.717  1.00  0.00     0.001 A 
ATOM     84  C   UNL A   1      50.540  25.278  30.691  1.00  0.00     0.000 A 
ENDBRANCH  66  79
ENDBRANCH  40  41
ENDBRANCH  32  35
ENDBRANCH  30  31
ENDBRANCH  29  30
ENDBRANCH   1  29
TORSDOF 15
ENDMDL
MODEL 2
REMARK VINA RESULT:     -12.1      2.671      7.926
REMARK SMILES Cc1nn(C)c(C)c1C[C@@H](C)C(=O)N[C@@H](C(=O)NCCCNC(=O)c1ccc(-c2c3nc(c(-c4ccccc4)c4ccc([nH]4)c(-c4ccccc4)c4nc(c(-c5ccccc5)c5ccc2[nH]5)C=C4)C=C3)cc1)c1ccccc1Cl
REMARK SMILES IDX 19 1 18 2 16 3 17 4 15 6 14 7 12 8 13 9 10 11 11 12 9 13
REMARK SMILES IDX 8 14 1 15 2 16 3 17 4 18 6 19 5 20 7 21 73 22 74 23 78 24
REMARK SMILES IDX 75 25 77 26 79 27 76 28 20 29 21 30 22 31 23 32 24 34 25 35
REMARK SMILES IDX 26 36 72 37 27 38 71 39 28 40 29 41 30 42 65 43 31 44 70 45
REMARK SMILES IDX 64 46 66 47 32 48 69 49 63 50 62 51 33 53 55 54 40 55 54 56
REMARK SMILES IDX 41 57 44 58 53 59 67 60 42 61 43 62 52 64 68 65 45 66 34 67
REMARK SMILES IDX 35 68 39 69 36 70 38 71 37 72 56 73 57 74 61 75 58 76 60 77
REMARK SMILES IDX 59 78 46 79 47 80 51 81 48 82 50 83 49 84
REMARK H PARENT 18 5 14 10 22 33 66 52 44 63
REMARK Flexibility Score: inf
ROOT
ATOM      1  C   UNL A   1      35.909  21.274  25.019  1.00  0.00     0.117 C 
ENDROOT
BRANCH   1   2
ATOM      2  N   UNL A   1      35.507  21.681  26.340  1.00  0.00    -0.354 N 
ATOM      3  C   UNL A   1      34.236  21.801  26.840  1.00  0.00     0.247 C 
ATOM      4  O   UNL A   1      34.146  21.763  28.071  1.00  0.00    -0.272 OA
ATOM      5  H   UNL A   1      36.237  21.901  26.962  1.00  0.00     0.163 HD
BRANCH   3   6
ATOM      6  C   UNL A   1      32.963  21.786  25.905  1.00  0.00     0.203 C 
BRANCH   6   7
ATOM      7  N   UNL A   1      31.697  22.138  26.565  1.00  0.00    -0.340 N 
ATOM      8  C   UNL A   1      30.940  23.268  26.622  1.00  0.00     0.224 C 
ATOM      9  O   UNL A   1      29.975  23.242  27.394  1.00  0.00    -0.275 OA
ATOM     10  H   UNL A   1      31.312  21.392  27.079  1.00  0.00     0.164 HD
BRANCH   8  11
ATOM     11  C   UNL A   1      31.220  24.539  25.805  1.00  0.00     0.080 C 
ATOM     12  C   UNL A   1      30.866  24.288  24.349  1.00  0.00     0.018 C 
BRANCH  11  13
ATOM     13  C   UNL A   1      32.600  25.135  26.114  1.00  0.00     0.052 C 
BRANCH  13  14
ATOM     14  C   UNL A   1      32.919  26.543  25.748  1.00  0.00    -0.003 A 
ATOM     15  C   UNL A   1      33.811  26.250  23.278  1.00  0.00     0.069 C 
ATOM     16  C   UNL A   1      33.460  27.008  24.511  1.00  0.00     0.063 A 
ATOM     17  N   UNL A   1      33.555  28.341  24.487  1.00  0.00    -0.178 NA
ATOM     18  N   UNL A   1      33.015  28.736  25.649  1.00  0.00    -0.272 N 
ATOM     19  C   UNL A   1      32.511  27.702  26.393  1.00  0.00     0.038 A 
ATOM     20  C   UNL A   1      32.951  30.151  25.926  1.00  0.00     0.174 C 
ATOM     21  C   UNL A   1      31.654  27.909  27.586  1.00  0.00     0.066 C 
ENDBRANCH  13  14
ENDBRANCH  11  13
ENDBRANCH   8  11
ENDBRANCH   6   7
BRANCH   6  22
ATOM     22  C   UNL A   1      32.829  20.450  25.186  1.00  0.00     0.002 A 
ATOM     23  C   UNL A   1      32.918  19.264  25.942  1.00  0.00     0.008 A 
ATOM     24  C   UNL A   1      32.575  20.338  23.808  1.00  0.00     0.046 A 
ATOM     25  C   UNL A   1      32.775  18.012  25.342  1.00  0.00     0.000 A 
ATOM     26  C   UNL A   1      32.418  19.082  23.213  1.00  0.00     0.021 A 
ATOM     27  Cl  UNL A   1      32.451  21.725  22.782  1.00  0.00    -0.084 Cl
ATOM     28  C   UNL A   1      32.521  17.921  23.978  1.00  0.00     0.002 A 
ENDBRANCH   6  22
ENDBRANCH   3   6
ENDBRANCH   1   2
BRANCH   1  29
ATOM     29  C   UNL A   1      36.989  20.220  24.967  1.00  0.00     0.042 C 
BRANCH  29  30
ATOM     30  C   UNL A   1      38.343  20.738  25.398  1.00  0.00     0.118 C 
BRANCH  30  31
ATOM     31  N   UNL A   1      39.341  19.679  25.532  1.00  0.00    -0.352 N 
ATOM     32  C   UNL A   1      40.642  19.731  25.968  1.00  0.00     0.251 C 
ATOM     33  H   UNL A   1      39.029  18.784  25.267  1.00  0.00     0.163 HD
ATOM     34  O   UNL A   1      41.363  18.744  25.846  1.00  0.00    -0.269 OA
BRANCH  32  35
ATOM     35  C   UNL A   1      41.185  20.977  26.549  1.00  0.00     0.039 A 
ATOM     36  C   UNL A   1      41.779  21.919  25.704  1.00  0.00     0.014 A 
ATOM     37  C   UNL A   1      41.095  21.229  27.917  1.00  0.00     0.014 A 
ATOM     38  C   UNL A   1      42.196  23.144  26.225  1.00  0.00     0.010 A 
ATOM     39  C   UNL A   1      41.393  22.492  28.410  1.00  0.00     0.010 A 
ATOM     40  C   UNL A   1      41.958  23.461  27.572  1.00  0.00    -0.014 A 
BRANCH  40  41
ATOM     41  C   UNL A   1      42.296  24.795  28.128  1.00  0.00     0.031 A 
ATOM     42  C   UNL A   1      43.702  25.090  28.578  1.00  0.00     0.074 A 
ATOM     43  C   UNL A   1      41.326  25.717  28.285  1.00  0.00     0.049 A 
ATOM     44  N   UNL A   1      44.179  26.175  29.135  1.00  0.00    -0.248 NA
ATOM     45  C   UNL A   1      44.698  24.017  28.410  1.00  0.00     0.031 C 
ATOM     46  C   UNL A   1      39.912  25.534  27.940  1.00  0.00     0.029 A 
ATOM     47  N   UNL A   1      41.382  26.996  28.779  1.00  0.00    -0.354 N 
ATOM     48  C   UNL A   1      45.517  25.907  29.396  1.00  0.00     0.074 A 
ATOM     49  C   UNL A   1      45.764  24.540  28.997  1.00  0.00     0.031 C 
ATOM     50  C   UNL A   1      39.247  26.672  28.194  1.00  0.00     0.029 A 
ATOM     51  C   UNL A   1      40.171  27.647  28.761  1.00  0.00     0.049 A 
ATOM     52  H   UNL A   1      42.210  27.408  29.115  1.00  0.00     0.167 HD
ATOM     53  C   UNL A   1      46.466  26.734  29.895  1.00  0.00     0.031 A 
ATOM     54  C   UNL A   1      39.843  28.889  29.162  1.00  0.00     0.031 A 
ATOM     55  C   UNL A   1      46.225  28.099  30.275  1.00  0.00     0.049 A 
ATOM     56  C   UNL A   1      40.915  29.782  29.723  1.00  0.00     0.074 A 
ATOM     57  C   UNL A   1      47.131  29.035  30.740  1.00  0.00     0.029 A 
ATOM     58  N   UNL A   1      44.988  28.722  30.234  1.00  0.00    -0.354 N 
ATOM     59  N   UNL A   1      42.192  29.537  29.891  1.00  0.00    -0.248 NA
ATOM     60  C   UNL A   1      40.499  31.128  30.138  1.00  0.00     0.031 C 
ATOM     61  C   UNL A   1      46.432  30.211  31.029  1.00  0.00     0.029 A 
ATOM     62  C   UNL A   1      45.102  30.024  30.686  1.00  0.00     0.049 A 
ATOM     63  H   UNL A   1      44.152  28.299  29.928  1.00  0.00     0.167 HD
ATOM     64  C   UNL A   1      42.737  30.706  30.404  1.00  0.00     0.074 A 
ATOM     65  C   UNL A   1      41.656  31.667  30.496  1.00  0.00     0.031 C 
ATOM     66  C   UNL A   1      44.016  30.965  30.769  1.00  0.00     0.031 A 
BRANCH  53  67
ATOM     67  C   UNL A   1      47.857  26.182  30.049  1.00  0.00    -0.014 A 
ATOM     68  C   UNL A   1      48.735  26.111  28.955  1.00  0.00     0.009 A 
ATOM     69  C   UNL A   1      48.310  25.771  31.312  1.00  0.00     0.009 A 
ATOM     70  C   UNL A   1      50.029  25.611  29.118  1.00  0.00     0.001 A 
ATOM     71  C   UNL A   1      49.614  25.299  31.476  1.00  0.00     0.001 A 
ATOM     72  C   UNL A   1      50.468  25.212  30.379  1.00  0.00     0.000 A 
ENDBRANCH  53  67
BRANCH  54  73
ATOM     73  C   UNL A   1      38.443  29.375  29.038  1.00  0.00    -0.014 A 
ATOM     74  C   UNL A   1      37.566  29.312  30.132  1.00  0.00     0.009 A 
ATOM     75  C   UNL A   1      37.965  29.877  27.817  1.00  0.00     0.009 A 
ATOM     76  C   UNL A   1      36.232  29.704  29.996  1.00  0.00     0.001 A 
ATOM     77  C   UNL A   1      36.639  30.300  27.693  1.00  0.00     0.001 A 
ATOM     78  C   UNL A   1      35.770  30.200  28.778  1.00  0.00     0.000 A 
ENDBRANCH  54  73
BRANCH  66  79
ATOM     79  C   UNL A   1      44.320  32.350  31.266  1.00  0.00    -0.014 A 
ATOM     80  C   UNL A   1      44.761  33.358  30.394  1.00  0.00     0.009 A 
ATOM     81  C   UNL A   1      44.134  32.656  32.623  1.00  0.00     0.009 A 
ATOM     82  C   UNL A   1      45.048  34.634  30.880  1.00  0.00     0.001 A 
ATOM     83  C   UNL A   1      44.390  33.942  33.099  1.00  0.00     0.001 A 
ATOM     84  C   UNL A   1      44.857  34.926  32.232  1.00  0.00     0.000 A 
ENDBRANCH  66  79
ENDBRANCH  40  41
ENDBRANCH  32  35
ENDBRANCH  30  31
ENDBRANCH  29  30
ENDBRANCH   1  29
TORSDOF 15
ENDMDL
MODEL 3
REMARK VINA RESULT:     -12.1      2.650      7.777
REMARK SMILES Cc1nn(C)c(C)c1C[C@@H](C)C(=O)N[C@@H](C(=O)NCCCNC(=O)c1ccc(-c2c3nc(c(-c4ccccc4)c4ccc([nH]4)c(-c4ccccc4)c4nc(c(-c5ccccc5)c5ccc2[nH]5)C=C4)C=C3)cc1)c1ccccc1Cl
REMARK SMILES IDX 19 1 18 2 16 3 17 4 15 6 14 7 12 8 13 9 10 11 11 12 9 13
REMARK SMILES IDX 8 14 1 15 2 16 3 17 4 18 6 19 5 20 7 21 73 22 74 23 78 24
REMARK SMILES IDX 75 25 77 26 79 27 76 28 20 29 21 30 22 31 23 32 24 34 25 35
REMARK SMILES IDX 26 36 72 37 27 38 71 39 28 40 29 41 30 42 65 43 31 44 70 45
REMARK SMILES IDX 64 46 66 47 32 48 69 49 63 50 62 51 33 53 55 54 40 55 54 56
REMARK SMILES IDX 41 57 44 58 53 59 67 60 42 61 43 62 52 64 68 65 45 66 34 67
REMARK SMILES IDX 35 68 39 69 36 70 38 71 37 72 56 73 57 74 61 75 58 76 60 77
REMARK SMILES IDX 59 78 46 79 47 80 51 81 48 82 50 83 49 84
REMARK H PARENT 18 5 14 10 22 33 66 52 44 63
REMARK Flexibility Score: inf
ROOT
ATOM      1  C   UNL A   1      35.905  21.575  24.971  1.00  0.00     0.117 C 
ENDROOT
BRANCH   1   2
ATOM      2  N   UNL A   1      35.479  21.815  26.324  1.00  0.00    -0.354 N 
ATOM      3  C   UNL A   1      34.202  21.827  26.822  1.00  0.00     0.247 C 
ATOM      4  O   UNL A   1      34.106  21.649  28.040  1.00  0.00    -0.272 OA
ATOM      5  H   UNL A   1      36.196  21.993  26.975  1.00  0.00     0.163 HD
BRANCH   3   6
ATOM      6  C   UNL A   1      32.936  21.867  25.878  1.00  0.00     0.203 C 
BRANCH   6   7
ATOM      7  N   UNL A   1      31.667  22.192  26.546  1.00  0.00    -0.340 N 
ATOM      8  C   UNL A   1      30.903  23.315  26.637  1.00  0.00     0.224 C 
ATOM      9  O   UNL A   1      29.938  23.260  27.405  1.00  0.00    -0.275 OA
ATOM     10  H   UNL A   1      31.284  21.428  27.035  1.00  0.00     0.164 HD
BRANCH   8  11
ATOM     11  C   UNL A   1      31.179  24.614  25.861  1.00  0.00     0.080 C 
ATOM     12  C   UNL A   1      30.722  24.444  24.422  1.00  0.00     0.018 C 
BRANCH  11  13
ATOM     13  C   UNL A   1      32.598  25.144  26.103  1.00  0.00     0.052 C 
BRANCH  13  14
ATOM     14  C   UNL A   1      32.949  26.553  25.772  1.00  0.00    -0.003 A 
ATOM     15  C   UNL A   1      33.797  26.305  23.281  1.00  0.00     0.069 C 
ATOM     16  C   UNL A   1      33.485  27.038  24.540  1.00  0.00     0.063 A 
ATOM     17  N   UNL A   1      33.615  28.368  24.551  1.00  0.00    -0.178 NA
ATOM     18  N   UNL A   1      33.103  28.745  25.731  1.00  0.00    -0.272 N 
ATOM     19  C   UNL A   1      32.582  27.704  26.455  1.00  0.00     0.038 A 
ATOM     20  C   UNL A   1      33.082  30.153  26.048  1.00  0.00     0.174 C 
ATOM     21  C   UNL A   1      31.749  27.900  27.666  1.00  0.00     0.066 C 
ENDBRANCH  13  14
ENDBRANCH  11  13
ENDBRANCH   8  11
ENDBRANCH   6   7
BRANCH   6  22
ATOM     22  C   UNL A   1      32.800  20.570  25.091  1.00  0.00     0.002 A 
ATOM     23  C   UNL A   1      32.894  19.346  25.784  1.00  0.00     0.008 A 
ATOM     24  C   UNL A   1      32.541  20.530  23.710  1.00  0.00     0.046 A 
ATOM     25  C   UNL A   1      32.750  18.127  25.120  1.00  0.00     0.000 A 
ATOM     26  C   UNL A   1      32.383  19.307  23.051  1.00  0.00     0.021 A 
ATOM     27  Cl  UNL A   1      32.411  21.968  22.758  1.00  0.00    -0.084 Cl
ATOM     28  C   UNL A   1      32.491  18.107  23.754  1.00  0.00     0.002 A 
ENDBRANCH   6  22
ENDBRANCH   3   6
ENDBRANCH   1   2
BRANCH   1  29
ATOM     29  C   UNL A   1      36.999  20.546  24.808  1.00  0.00     0.042 C 
BRANCH  29  30
ATOM     30  C   UNL A   1      38.283  20.932  25.510  1.00  0.00     0.118 C 
BRANCH  30  31
ATOM     31  N   UNL A   1      39.248  19.838  25.573  1.00  0.00    -0.352 N 
ATOM     32  C   UNL A   1      40.566  19.834  25.957  1.00  0.00     0.251 C 
ATOM     33  H   UNL A   1      38.895  18.962  25.295  1.00  0.00     0.163 HD
ATOM     34  O   UNL A   1      41.247  18.827  25.779  1.00  0.00    -0.269 OA
BRANCH  32  35
ATOM     35  C   UNL A   1      41.174  21.043  26.552  1.00  0.00     0.039 A 
ATOM     36  C   UNL A   1      41.796  21.972  25.716  1.00  0.00     0.014 A 
ATOM     37  C   UNL A   1      41.117  21.271  27.927  1.00  0.00     0.014 A 
ATOM     38  C   UNL A   1      42.277  23.168  26.252  1.00  0.00     0.010 A 
ATOM     39  C   UNL A   1      41.479  22.510  28.437  1.00  0.00     0.010 A 
ATOM     40  C   UNL A   1      42.074  23.469  27.609  1.00  0.00    -0.014 A 
BRANCH  40  41
ATOM     41  C   UNL A   1      42.481  24.776  28.183  1.00  0.00     0.031 A 
ATOM     42  C   UNL A   1      41.461  25.868  28.369  1.00  0.00     0.074 A 
ATOM     43  C   UNL A   1      43.776  25.000  28.476  1.00  0.00     0.049 A 
ATOM     44  N   UNL A   1      41.633  27.091  28.805  1.00  0.00    -0.248 NA
ATOM     45  C   UNL A   1      40.072  25.560  27.988  1.00  0.00     0.031 C 
ATOM     46  C   UNL A   1      44.871  24.042  28.288  1.00  0.00     0.029 A 
ATOM     47  N   UNL A   1      44.395  26.110  28.994  1.00  0.00    -0.354 N 
ATOM     48  C   UNL A   1      40.384  27.695  28.734  1.00  0.00     0.074 A 
ATOM     49  C   UNL A   1      39.476  26.731  28.155  1.00  0.00     0.031 C 
ATOM     50  C   UNL A   1      46.015  24.591  28.725  1.00  0.00     0.029 A 
ATOM     51  C   UNL A   1      45.748  25.951  29.178  1.00  0.00     0.049 A 
ATOM     52  H   UNL A   1      43.915  26.941  29.214  1.00  0.00     0.167 HD
ATOM     53  C   UNL A   1      40.016  28.932  29.142  1.00  0.00     0.031 A 
ATOM     54  C   UNL A   1      46.670  26.808  29.655  1.00  0.00     0.031 A 
ATOM     55  C   UNL A   1      40.915  29.885  29.734  1.00  0.00     0.049 A 
ATOM     56  C   UNL A   1      46.235  28.180  30.090  1.00  0.00     0.074 A 
ATOM     57  C   UNL A   1      40.629  31.145  30.230  1.00  0.00     0.029 A 
ATOM     58  N   UNL A   1      42.274  29.683  29.910  1.00  0.00    -0.354 N 
ATOM     59  N   UNL A   1      45.035  28.707  30.086  1.00  0.00    -0.248 NA
ATOM     60  C   UNL A   1      47.283  29.070  30.606  1.00  0.00     0.031 C 
ATOM     61  C   UNL A   1      41.826  31.725  30.660  1.00  0.00     0.029 A 
ATOM     62  C   UNL A   1      42.846  30.802  30.486  1.00  0.00     0.049 A 
ATOM     63  H   UNL A   1      42.761  28.863  29.661  1.00  0.00     0.167 HD
ATOM     64  C   UNL A   1      45.179  29.979  30.625  1.00  0.00     0.074 A 
ATOM     65  C   UNL A   1      46.579  30.133  30.967  1.00  0.00     0.031 C 
ATOM     66  C   UNL A   1      44.240  30.936  30.819  1.00  0.00     0.031 A 
BRANCH  53  67
ATOM     67  C   UNL A   1      38.574  29.321  28.968  1.00  0.00    -0.014 A 
ATOM     68  C   UNL A   1      38.088  29.771  27.729  1.00  0.00     0.009 A 
ATOM     69  C   UNL A   1      37.680  29.192  30.042  1.00  0.00     0.009 A 
ATOM     70  C   UNL A   1      36.742  30.113  27.579  1.00  0.00     0.001 A 
ATOM     71  C   UNL A   1      36.329  29.506  29.880  1.00  0.00     0.001 A 
ATOM     72  C   UNL A   1      35.864  29.974  28.652  1.00  0.00     0.000 A 
ENDBRANCH  53  67
BRANCH  54  73
ATOM     73  C   UNL A   1      48.096  26.398  29.761  1.00  0.00    -0.014 A 
ATOM     74  C   UNL A   1      48.571  25.764  30.920  1.00  0.00     0.009 A 
ATOM     75  C   UNL A   1      48.997  26.663  28.718  1.00  0.00     0.009 A 
ATOM     76  C   UNL A   1      49.925  25.442  31.048  1.00  0.00     0.001 A 
ATOM     77  C   UNL A   1      50.343  26.309  28.835  1.00  0.00     0.001 A 
ATOM     78  C   UNL A   1      50.809  25.712  30.005  1.00  0.00     0.000 A 
ENDBRANCH  54  73
BRANCH  66  79
ATOM     79  C   UNL A   1      44.690  32.218  31.462  1.00  0.00    -0.014 A 
ATOM     80  C   UNL A   1      45.147  33.299  30.694  1.00  0.00     0.009 A 
ATOM     81  C   UNL A   1      44.629  32.351  32.858  1.00  0.00     0.009 A 
ATOM     82  C   UNL A   1      45.571  34.476  31.314  1.00  0.00     0.001 A 
ATOM     83  C   UNL A   1      45.022  33.541  33.473  1.00  0.00     0.001 A 
ATOM     84  C   UNL A   1      45.504  34.596  32.703  1.00  0.00     0.000 A 
ENDBRANCH  66  79
ENDBRANCH  40  41
ENDBRANCH  32  35
ENDBRANCH  30  31
ENDBRANCH  29  30
ENDBRANCH   1  29
TORSDOF 15
ENDMDL
