MODEL 1
REMARK VINA RESULT:     -10.9      0.000      0.000
REMARK SMILES O=C(NCCCNC(=O)c1ccccc1NC(=O)c1ccncc1)c1ccc(-c2c3nc(c(-c4ccccc4)c4ccc([nH]4)c(-c4ccccc4)c4nc(c(-c5ccccc5)c5ccc2[nH]5)C=C4)C=C3)cc1
REMARK SMILES IDX 5 1 4 2 3 3 1 4 2 5 25 7 26 8 72 9 27 10 71 11 28 12 29 13
REMARK SMILES IDX 30 14 65 15 31 16 70 17 64 18 66 19 32 20 69 21 63 22 62 23
REMARK SMILES IDX 33 25 55 26 40 27 54 28 41 29 44 30 53 31 67 32 42 33 43 34
REMARK SMILES IDX 52 36 68 37 45 38 34 39 35 40 39 41 36 42 38 43 37 44 56 45
REMARK SMILES IDX 57 46 61 47 58 48 60 49 59 50 46 51 47 52 51 53 48 54 50 55
REMARK SMILES IDX 49 56 6 57 7 58 8 59 9 61 10 62 11 63 15 64 12 65 14 66
REMARK SMILES IDX 13 67 16 68 17 69 18 71 19 72 20 73 24 74 21 75 23 76 22 77
REMARK H PARENT 3 6 66 24 44 35 7 60 16 70
REMARK Flexibility Score: inf
ROOT
ATOM      1  C   UNL A   1      37.638  19.619  24.931  1.00  0.00     0.042 C 
ENDROOT
BRANCH   1   2
ATOM      2  C   UNL A   1      38.850  20.198  25.643  1.00  0.00     0.118 C 
BRANCH   2   3
ATOM      3  N   UNL A   1      39.984  19.282  25.692  1.00  0.00    -0.352 N 
ATOM      4  O   UNL A   1      42.125  18.609  25.885  1.00  0.00    -0.269 OA
ATOM      5  C   UNL A   1      41.293  19.498  26.051  1.00  0.00     0.251 C 
ATOM      6  H   UNL A   1      39.777  18.358  25.426  1.00  0.00     0.163 HD
BRANCH   5   7
ATOM      7  C   UNL A   1      41.717  20.801  26.603  1.00  0.00     0.039 A 
ATOM      8  C   UNL A   1      41.717  21.029  27.978  1.00  0.00     0.014 A 
ATOM      9  C   UNL A   1      42.137  21.812  25.731  1.00  0.00     0.014 A 
ATOM     10  C   UNL A   1      41.942  22.310  28.465  1.00  0.00     0.010 A 
ATOM     11  C   UNL A   1      42.483  23.070  26.236  1.00  0.00     0.010 A 
ATOM     12  C   UNL A   1      42.347  23.342  27.605  1.00  0.00    -0.014 A 
BRANCH  12  13
ATOM     13  C   UNL A   1      42.681  24.668  28.187  1.00  0.00     0.031 A 
ATOM     14  C   UNL A   1      44.099  25.052  28.504  1.00  0.00     0.074 A 
ATOM     15  C   UNL A   1      41.683  25.557  28.365  1.00  0.00     0.049 A 
ATOM     16  N   UNL A   1      44.558  26.197  28.948  1.00  0.00    -0.248 NA
ATOM     17  C   UNL A   1      45.138  24.029  28.305  1.00  0.00     0.031 C 
ATOM     18  C   UNL A   1      40.265  25.297  28.103  1.00  0.00     0.029 A 
ATOM     19  N   UNL A   1      41.710  26.866  28.771  1.00  0.00    -0.354 N 
ATOM     20  C   UNL A   1      45.929  26.028  29.094  1.00  0.00     0.074 A 
ATOM     21  C   UNL A   1      46.227  24.662  28.719  1.00  0.00     0.031 C 
ATOM     22  C   UNL A   1      39.568  26.426  28.287  1.00  0.00     0.029 A 
ATOM     23  C   UNL A   1      40.476  27.469  28.748  1.00  0.00     0.049 A 
ATOM     24  H   UNL A   1      42.532  27.328  29.053  1.00  0.00     0.167 HD
ATOM     25  C   UNL A   1      46.856  26.931  29.496  1.00  0.00     0.031 A 
ATOM     26  C   UNL A   1      40.106  28.722  29.072  1.00  0.00     0.031 A 
ATOM     27  C   UNL A   1      46.560  28.288  29.874  1.00  0.00     0.049 A 
ATOM     28  C   UNL A   1      41.152  29.690  29.535  1.00  0.00     0.074 A 
ATOM     29  C   UNL A   1      47.432  29.279  30.294  1.00  0.00     0.029 A 
ATOM     30  N   UNL A   1      45.291  28.848  29.877  1.00  0.00    -0.354 N 
ATOM     31  N   UNL A   1      42.445  29.514  29.650  1.00  0.00    -0.248 NA
ATOM     32  C   UNL A   1      40.685  31.030  29.913  1.00  0.00     0.031 C 
ATOM     33  C   UNL A   1      46.686  30.424  30.590  1.00  0.00     0.029 A 
ATOM     34  C   UNL A   1      45.355  30.164  30.305  1.00  0.00     0.049 A 
ATOM     35  H   UNL A   1      44.466  28.380  29.614  1.00  0.00     0.167 HD
ATOM     36  C   UNL A   1      42.950  30.724  30.106  1.00  0.00     0.074 A 
ATOM     37  C   UNL A   1      41.826  31.632  30.215  1.00  0.00     0.031 C 
ATOM     38  C   UNL A   1      44.228  31.050  30.415  1.00  0.00     0.031 A 
BRANCH  25  39
ATOM     39  C   UNL A   1      48.288  26.475  29.564  1.00  0.00    -0.014 A 
ATOM     40  C   UNL A   1      49.161  26.659  28.480  1.00  0.00     0.009 A 
ATOM     41  C   UNL A   1      48.785  25.903  30.745  1.00  0.00     0.009 A 
ATOM     42  C   UNL A   1      50.495  26.256  28.570  1.00  0.00     0.001 A 
ATOM     43  C   UNL A   1      50.125  25.524  30.841  1.00  0.00     0.001 A 
ATOM     44  C   UNL A   1      50.978  25.694  29.752  1.00  0.00     0.000 A 
ENDBRANCH  25  39
BRANCH  26  45
ATOM     45  C   UNL A   1      38.676  29.116  28.989  1.00  0.00    -0.014 A 
ATOM     46  C   UNL A   1      37.840  29.026  30.111  1.00  0.00     0.009 A 
ATOM     47  C   UNL A   1      38.143  29.590  27.779  1.00  0.00     0.009 A 
ATOM     48  C   UNL A   1      36.492  29.381  30.015  1.00  0.00     0.001 A 
ATOM     49  C   UNL A   1      36.805  29.975  27.695  1.00  0.00     0.001 A 
ATOM     50  C   UNL A   1      35.978  29.859  28.811  1.00  0.00     0.000 A 
ENDBRANCH  26  45
BRANCH  38  51
ATOM     51  C   UNL A   1      44.470  32.457  30.879  1.00  0.00    -0.014 A 
ATOM     52  C   UNL A   1      44.751  33.485  29.964  1.00  0.00     0.009 A 
ATOM     53  C   UNL A   1      44.412  32.758  32.248  1.00  0.00     0.009 A 
ATOM     54  C   UNL A   1      45.007  34.780  30.417  1.00  0.00     0.001 A 
ATOM     55  C   UNL A   1      44.641  34.060  32.695  1.00  0.00     0.001 A 
ATOM     56  C   UNL A   1      44.949  35.067  31.780  1.00  0.00     0.000 A 
ENDBRANCH  38  51
ENDBRANCH  12  13
ENDBRANCH   5   7
ENDBRANCH   2   3
ENDBRANCH   1   2
BRANCH   1  57
ATOM     57  C   UNL A   1      36.389  20.480  25.025  1.00  0.00     0.118 C 
BRANCH  57  58
ATOM     58  N   UNL A   1      36.697  21.902  25.017  1.00  0.00    -0.352 N 
ATOM     59  C   UNL A   1      35.874  22.990  25.143  1.00  0.00     0.253 C 
ATOM     60  H   UNL A   1      37.651  22.117  24.902  1.00  0.00     0.163 HD
ATOM     61  O   UNL A   1      36.302  24.103  24.849  1.00  0.00    -0.269 OA
BRANCH  59  62
ATOM     62  C   UNL A   1      34.487  22.856  25.642  1.00  0.00     0.063 A 
ATOM     63  C   UNL A   1      34.335  22.834  27.038  1.00  0.00     0.016 A 
ATOM     64  C   UNL A   1      33.374  22.675  24.794  1.00  0.00     0.054 A 
ATOM     65  C   UNL A   1      33.079  22.637  27.602  1.00  0.00     0.001 A 
ATOM     66  C   UNL A   1      32.133  22.417  25.386  1.00  0.00     0.027 A 
ATOM     67  C   UNL A   1      31.982  22.417  26.776  1.00  0.00     0.002 A 
BRANCH  64  68
ATOM     68  N   UNL A   1      33.550  22.727  23.392  1.00  0.00    -0.321 N 
ATOM     69  C   UNL A   1      33.232  23.668  22.442  1.00  0.00     0.255 C 
ATOM     70  H   UNL A   1      33.987  21.927  23.022  1.00  0.00     0.170 HD
ATOM     71  O   UNL A   1      33.447  23.427  21.255  1.00  0.00    -0.269 OA
BRANCH  69  72
ATOM     72  C   UNL A   1      32.706  24.999  22.793  1.00  0.00     0.043 A 
ATOM     73  C   UNL A   1      31.343  25.291  22.752  1.00  0.00     0.034 A 
ATOM     74  C   UNL A   1      33.621  25.967  23.197  1.00  0.00     0.034 A 
ATOM     75  C   UNL A   1      30.962  26.589  23.033  1.00  0.00     0.112 A 
ATOM     76  C   UNL A   1      33.135  27.230  23.470  1.00  0.00     0.112 A 
ATOM     77  N   UNL A   1      31.829  27.566  23.377  1.00  0.00    -0.265 NA
ENDBRANCH  69  72
ENDBRANCH  64  68
ENDBRANCH  59  62
ENDBRANCH  57  58
ENDBRANCH   1  57
TORSDOF 12
ENDMDL
MODEL 2
REMARK VINA RESULT:     -10.9      1.331      1.819
REMARK SMILES O=C(NCCCNC(=O)c1ccccc1NC(=O)c1ccncc1)c1ccc(-c2c3nc(c(-c4ccccc4)c4ccc([nH]4)c(-c4ccccc4)c4nc(c(-c5ccccc5)c5ccc2[nH]5)C=C4)C=C3)cc1
REMARK SMILES IDX 5 1 4 2 3 3 1 4 2 5 25 7 26 8 72 9 27 10 71 11 28 12 29 13
REMARK SMILES IDX 30 14 65 15 31 16 70 17 64 18 66 19 32 20 69 21 63 22 62 23
REMARK SMILES IDX 33 25 55 26 40 27 54 28 41 29 44 30 53 31 67 32 42 33 43 34
REMARK SMILES IDX 52 36 68 37 45 38 34 39 35 40 39 41 36 42 38 43 37 44 56 45
REMARK SMILES IDX 57 46 61 47 58 48 60 49 59 50 46 51 47 52 51 53 48 54 50 55
REMARK SMILES IDX 49 56 6 57 7 58 8 59 9 61 10 62 11 63 15 64 12 65 14 66
REMARK SMILES IDX 13 67 16 68 17 69 18 71 19 72 20 73 24 74 21 75 23 76 22 77
REMARK H PARENT 3 6 66 24 44 35 7 60 16 70
REMARK Flexibility Score: inf
ROOT
ATOM      1  C   UNL A   1      37.859  19.807  24.781  1.00  0.00     0.042 C 
ENDROOT
BRANCH   1   2
ATOM      2  C   UNL A   1      38.883  20.125  25.860  1.00  0.00     0.118 C 
BRANCH   2   3
ATOM      3  N   UNL A   1      40.016  19.207  25.870  1.00  0.00    -0.352 N 
ATOM      4  O   UNL A   1      42.163  18.533  25.958  1.00  0.00    -0.269 OA
ATOM      5  C   UNL A   1      41.344  19.429  26.145  1.00  0.00     0.251 C 
ATOM      6  H   UNL A   1      39.792  18.276  25.644  1.00  0.00     0.163 HD
BRANCH   5   7
ATOM      7  C   UNL A   1      41.801  20.747  26.633  1.00  0.00     0.039 A 
ATOM      8  C   UNL A   1      41.794  21.048  27.993  1.00  0.00     0.014 A 
ATOM      9  C   UNL A   1      42.261  21.696  25.714  1.00  0.00     0.014 A 
ATOM     10  C   UNL A   1      42.052  22.345  28.415  1.00  0.00     0.010 A 
ATOM     11  C   UNL A   1      42.640  22.969  26.155  1.00  0.00     0.010 A 
ATOM     12  C   UNL A   1      42.498  23.318  27.506  1.00  0.00    -0.014 A 
BRANCH  12  13
ATOM     13  C   UNL A   1      42.865  24.662  28.021  1.00  0.00     0.031 A 
ATOM     14  C   UNL A   1      44.302  25.086  28.157  1.00  0.00     0.074 A 
ATOM     15  C   UNL A   1      41.875  25.532  28.303  1.00  0.00     0.049 A 
ATOM     16  N   UNL A   1      44.782  26.249  28.523  1.00  0.00    -0.248 NA
ATOM     17  C   UNL A   1      45.334  24.083  27.852  1.00  0.00     0.031 C 
ATOM     18  C   UNL A   1      40.442  25.234  28.220  1.00  0.00     0.029 A 
ATOM     19  N   UNL A   1      41.917  26.848  28.681  1.00  0.00    -0.354 N 
ATOM     20  C   UNL A   1      46.164  26.115  28.505  1.00  0.00     0.074 A 
ATOM     21  C   UNL A   1      46.449  24.749  28.120  1.00  0.00     0.031 C 
ATOM     22  C   UNL A   1      39.744  26.350  28.467  1.00  0.00     0.029 A 
ATOM     23  C   UNL A   1      40.674  27.422  28.797  1.00  0.00     0.049 A 
ATOM     24  H   UNL A   1      42.755  27.335  28.853  1.00  0.00     0.167 HD
ATOM     25  C   UNL A   1      47.110  27.048  28.776  1.00  0.00     0.031 A 
ATOM     26  C   UNL A   1      40.314  28.672  29.141  1.00  0.00     0.031 A 
ATOM     27  C   UNL A   1      46.827  28.404  29.165  1.00  0.00     0.049 A 
ATOM     28  C   UNL A   1      41.383  29.674  29.459  1.00  0.00     0.074 A 
ATOM     29  C   UNL A   1      47.718  29.423  29.459  1.00  0.00     0.029 A 
ATOM     30  N   UNL A   1      45.554  28.935  29.311  1.00  0.00    -0.354 N 
ATOM     31  N   UNL A   1      42.685  29.530  29.419  1.00  0.00    -0.248 NA
ATOM     32  C   UNL A   1      40.931  31.010  29.868  1.00  0.00     0.031 C 
ATOM     33  C   UNL A   1      46.984  30.556  29.823  1.00  0.00     0.029 A 
ATOM     34  C   UNL A   1      45.636  30.260  29.706  1.00  0.00     0.049 A 
ATOM     35  H   UNL A   1      44.715  28.442  29.158  1.00  0.00     0.167 HD
ATOM     36  C   UNL A   1      43.210  30.760  29.790  1.00  0.00     0.074 A 
ATOM     37  C   UNL A   1      42.085  31.644  30.019  1.00  0.00     0.031 C 
ATOM     38  C   UNL A   1      44.507  31.122  29.937  1.00  0.00     0.031 A 
BRANCH  25  39
ATOM     39  C   UNL A   1      48.550  26.626  28.679  1.00  0.00    -0.014 A 
ATOM     40  C   UNL A   1      49.257  26.730  27.470  1.00  0.00     0.009 A 
ATOM     41  C   UNL A   1      49.225  26.169  29.821  1.00  0.00     0.009 A 
ATOM     42  C   UNL A   1      50.603  26.362  27.404  1.00  0.00     0.001 A 
ATOM     43  C   UNL A   1      50.577  25.825  29.757  1.00  0.00     0.001 A 
ATOM     44  C   UNL A   1      51.263  25.915  28.548  1.00  0.00     0.000 A 
ENDBRANCH  25  39
BRANCH  26  45
ATOM     45  C   UNL A   1      38.875  29.032  29.226  1.00  0.00    -0.014 A 
ATOM     46  C   UNL A   1      38.162  28.867  30.422  1.00  0.00     0.009 A 
ATOM     47  C   UNL A   1      38.209  29.547  28.102  1.00  0.00     0.009 A 
ATOM     48  C   UNL A   1      36.804  29.190  30.483  1.00  0.00     0.001 A 
ATOM     49  C   UNL A   1      36.861  29.900  28.175  1.00  0.00     0.001 A 
ATOM     50  C   UNL A   1      36.158  29.710  29.363  1.00  0.00     0.000 A 
ENDBRANCH  26  45
BRANCH  38  51
ATOM     51  C   UNL A   1      44.768  32.543  30.344  1.00  0.00    -0.014 A 
ATOM     52  C   UNL A   1      44.900  33.560  29.385  1.00  0.00     0.009 A 
ATOM     53  C   UNL A   1      44.879  32.868  31.704  1.00  0.00     0.009 A 
ATOM     54  C   UNL A   1      45.176  34.870  29.781  1.00  0.00     0.001 A 
ATOM     55  C   UNL A   1      45.127  34.184  32.099  1.00  0.00     0.001 A 
ATOM     56  C   UNL A   1      45.286  35.181  31.136  1.00  0.00     0.000 A 
ENDBRANCH  38  51
ENDBRANCH  12  13
ENDBRANCH   5   7
ENDBRANCH   2   3
ENDBRANCH   1   2
BRANCH   1  57
ATOM     57  C   UNL A   1      36.752  20.839  24.647  1.00  0.00     0.118 C 
BRANCH  57  58
ATOM     58  N   UNL A   1      35.901  20.892  25.826  1.00  0.00    -0.352 N 
ATOM     59  C   UNL A   1      34.583  21.242  25.955  1.00  0.00     0.253 C 
ATOM     60  H   UNL A   1      36.344  20.635  26.667  1.00  0.00     0.163 HD
ATOM     61  O   UNL A   1      34.129  21.467  27.074  1.00  0.00    -0.269 OA
BRANCH  59  62
ATOM     62  C   UNL A   1      33.689  21.336  24.780  1.00  0.00     0.063 A 
ATOM     63  C   UNL A   1      33.073  20.139  24.377  1.00  0.00     0.016 A 
ATOM     64  C   UNL A   1      33.513  22.522  24.035  1.00  0.00     0.054 A 
ATOM     65  C   UNL A   1      32.274  20.111  23.239  1.00  0.00     0.001 A 
ATOM     66  C   UNL A   1      32.756  22.452  22.860  1.00  0.00     0.027 A 
ATOM     67  C   UNL A   1      32.127  21.264  22.475  1.00  0.00     0.002 A 
BRANCH  64  68
ATOM     68  N   UNL A   1      34.124  23.718  24.475  1.00  0.00    -0.321 N 
ATOM     69  C   UNL A   1      33.642  24.837  25.113  1.00  0.00     0.255 C 
ATOM     70  H   UNL A   1      35.088  23.758  24.285  1.00  0.00     0.170 HD
ATOM     71  O   UNL A   1      34.398  25.783  25.329  1.00  0.00    -0.269 OA
BRANCH  69  72
ATOM     72  C   UNL A   1      32.261  24.925  25.618  1.00  0.00     0.043 A 
ATOM     73  C   UNL A   1      31.708  23.940  26.435  1.00  0.00     0.034 A 
ATOM     74  C   UNL A   1      31.518  26.050  25.271  1.00  0.00     0.034 A 
ATOM     75  C   UNL A   1      30.382  24.084  26.797  1.00  0.00     0.112 A 
ATOM     76  C   UNL A   1      30.206  26.105  25.695  1.00  0.00     0.112 A 
ATOM     77  N   UNL A   1      29.618  25.137  26.433  1.00  0.00    -0.265 NA
ENDBRANCH  69  72
ENDBRANCH  64  68
ENDBRANCH  59  62
ENDBRANCH  57  58
ENDBRANCH   1  57
TORSDOF 12
ENDMDL
MODEL 3
REMARK VINA RESULT:     -10.8      2.667      7.334
REMARK SMILES O=C(NCCCNC(=O)c1ccccc1NC(=O)c1ccncc1)c1ccc(-c2c3nc(c(-c4ccccc4)c4ccc([nH]4)c(-c4ccccc4)c4nc(c(-c5ccccc5)c5ccc2[nH]5)C=C4)C=C3)cc1
REMARK SMILES IDX 5 1 4 2 3 3 1 4 2 5 25 7 26 8 72 9 27 10 71 11 28 12 29 13
REMARK SMILES IDX 30 14 65 15 31 16 70 17 64 18 66 19 32 20 69 21 63 22 62 23
REMARK SMILES IDX 33 25 55 26 40 27 54 28 41 29 44 30 53 31 67 32 42 33 43 34
REMARK SMILES IDX 52 36 68 37 45 38 34 39 35 40 39 41 36 42 38 43 37 44 56 45
REMARK SMILES IDX 57 46 61 47 58 48 60 49 59 50 46 51 47 52 51 53 48 54 50 55
REMARK SMILES IDX 49 56 6 57 7 58 8 59 9 61 10 62 11 63 15 64 12 65 14 66
REMARK SMILES IDX 13 67 16 68 17 69 18 71 19 72 20 73 24 74 21 75 23 76 22 77
REMARK H PARENT 3 6 66 24 44 35 7 60 16 70
REMARK Flexibility Score: inf
ROOT
ATOM      1  C   UNL A   1      35.740  23.302  26.266  1.00  0.00     0.042 C 
ENDROOT
BRANCH   1   2
ATOM      2  C   UNL A   1      36.896  23.620  25.330  1.00  0.00     0.118 C 
BRANCH   2   3
ATOM      3  N   UNL A   1      38.057  22.761  25.535  1.00  0.00    -0.352 N 
ATOM      4  O   UNL A   1      40.171  22.190  26.065  1.00  0.00    -0.269 OA
ATOM      5  C   UNL A   1      39.271  23.025  26.122  1.00  0.00     0.251 C 
ATOM      6  H   UNL A   1      37.954  21.843  25.198  1.00  0.00     0.163 HD
BRANCH   5   7
ATOM      7  C   UNL A   1      39.518  24.318  26.794  1.00  0.00     0.039 A 
ATOM      8  C   UNL A   1      40.165  25.357  26.130  1.00  0.00     0.014 A 
ATOM      9  C   UNL A   1      39.080  24.501  28.111  1.00  0.00     0.014 A 
ATOM     10  C   UNL A   1      40.548  26.493  26.831  1.00  0.00     0.010 A 
ATOM     11  C   UNL A   1      39.360  25.698  28.780  1.00  0.00     0.010 A 
ATOM     12  C   UNL A   1      40.134  26.688  28.158  1.00  0.00    -0.014 A 
BRANCH  12  13
ATOM     13  C   UNL A   1      40.477  27.966  28.833  1.00  0.00     0.031 A 
ATOM     14  C   UNL A   1      39.473  29.078  28.966  1.00  0.00     0.074 A 
ATOM     15  C   UNL A   1      41.698  28.088  29.391  1.00  0.00     0.049 A 
ATOM     16  N   UNL A   1      39.598  30.225  29.589  1.00  0.00    -0.248 NA
ATOM     17  C   UNL A   1      38.166  28.891  28.318  1.00  0.00     0.031 C 
ATOM     18  C   UNL A   1      42.761  27.081  29.320  1.00  0.00     0.029 A 
ATOM     19  N   UNL A   1      42.240  29.088  30.156  1.00  0.00    -0.354 N 
ATOM     20  C   UNL A   1      38.398  30.897  29.397  1.00  0.00     0.074 A 
ATOM     21  C   UNL A   1      37.565  30.044  28.576  1.00  0.00     0.031 C 
ATOM     22  C   UNL A   1      43.797  27.481  30.069  1.00  0.00     0.029 A 
ATOM     23  C   UNL A   1      43.503  28.801  30.612  1.00  0.00     0.049 A 
ATOM     24  H   UNL A   1      41.770  29.929  30.358  1.00  0.00     0.167 HD
ATOM     25  C   UNL A   1      38.021  32.110  29.870  1.00  0.00     0.031 A 
ATOM     26  C   UNL A   1      44.344  29.522  31.376  1.00  0.00     0.031 A 
ATOM     27  C   UNL A   1      38.850  32.961  30.682  1.00  0.00     0.049 A 
ATOM     28  C   UNL A   1      43.907  30.870  31.863  1.00  0.00     0.074 A 
ATOM     29  C   UNL A   1      38.556  34.206  31.210  1.00  0.00     0.029 A 
ATOM     30  N   UNL A   1      40.140  32.651  31.087  1.00  0.00    -0.354 N 
ATOM     31  N   UNL A   1      42.760  31.480  31.683  1.00  0.00    -0.248 NA
ATOM     32  C   UNL A   1      44.880  31.629  32.658  1.00  0.00     0.031 C 
ATOM     33  C   UNL A   1      39.682  34.668  31.899  1.00  0.00     0.029 A 
ATOM     34  C   UNL A   1      40.659  33.689  31.845  1.00  0.00     0.049 A 
ATOM     35  H   UNL A   1      40.617  31.818  30.869  1.00  0.00     0.167 HD
ATOM     36  C   UNL A   1      42.870  32.691  32.351  1.00  0.00     0.074 A 
ATOM     37  C   UNL A   1      44.183  32.714  32.964  1.00  0.00     0.031 C 
ATOM     38  C   UNL A   1      41.969  33.699  32.440  1.00  0.00     0.031 A 
BRANCH  25  39
ATOM     39  C   UNL A   1      36.647  32.602  29.504  1.00  0.00    -0.014 A 
ATOM     40  C   UNL A   1      35.557  32.425  30.372  1.00  0.00     0.009 A 
ATOM     41  C   UNL A   1      36.450  33.300  28.302  1.00  0.00     0.009 A 
ATOM     42  C   UNL A   1      34.295  32.914  30.030  1.00  0.00     0.001 A 
ATOM     43  C   UNL A   1      35.192  33.809  27.975  1.00  0.00     0.001 A 
ATOM     44  C   UNL A   1      34.114  33.611  28.835  1.00  0.00     0.000 A 
ENDBRANCH  25  39
BRANCH  26  45
ATOM     45  C   UNL A   1      45.691  28.987  31.702  1.00  0.00    -0.014 A 
ATOM     46  C   UNL A   1      45.899  28.217  32.855  1.00  0.00     0.009 A 
ATOM     47  C   UNL A   1      46.779  29.245  30.852  1.00  0.00     0.009 A 
ATOM     48  C   UNL A   1      47.174  27.736  33.161  1.00  0.00     0.001 A 
ATOM     49  C   UNL A   1      48.044  28.736  31.143  1.00  0.00     0.001 A 
ATOM     50  C   UNL A   1      48.243  27.991  32.303  1.00  0.00     0.000 A 
ENDBRANCH  26  45
BRANCH  38  51
ATOM     51  C   UNL A   1      42.374  34.896  33.250  1.00  0.00    -0.014 A 
ATOM     52  C   UNL A   1      42.071  34.983  34.618  1.00  0.00     0.009 A 
ATOM     53  C   UNL A   1      43.072  35.946  32.637  1.00  0.00     0.009 A 
ATOM     54  C   UNL A   1      42.426  36.118  35.348  1.00  0.00     0.001 A 
ATOM     55  C   UNL A   1      43.451  37.069  33.376  1.00  0.00     0.001 A 
ATOM     56  C   UNL A   1      43.117  37.158  34.727  1.00  0.00     0.000 A 
ENDBRANCH  38  51
ENDBRANCH  12  13
ENDBRANCH   5   7
ENDBRANCH   2   3
ENDBRANCH   1   2
BRANCH   1  57
ATOM     57  C   UNL A   1      34.461  24.063  25.957  1.00  0.00     0.118 C 
BRANCH  57  58
ATOM     58  N   UNL A   1      34.594  24.913  24.784  1.00  0.00    -0.352 N 
ATOM     59  C   UNL A   1      33.956  26.079  24.455  1.00  0.00     0.253 C 
ATOM     60  H   UNL A   1      35.249  24.599  24.118  1.00  0.00     0.163 HD
ATOM     61  O   UNL A   1      34.026  26.497  23.302  1.00  0.00    -0.269 OA
BRANCH  59  62
ATOM     62  C   UNL A   1      33.199  26.857  25.461  1.00  0.00     0.063 A 
ATOM     63  C   UNL A   1      33.950  27.750  26.242  1.00  0.00     0.016 A 
ATOM     64  C   UNL A   1      31.821  26.673  25.704  1.00  0.00     0.054 A 
ATOM     65  C   UNL A   1      33.342  28.471  27.264  1.00  0.00     0.001 A 
ATOM     66  C   UNL A   1      31.247  27.362  26.778  1.00  0.00     0.027 A 
ATOM     67  C   UNL A   1      31.993  28.267  27.539  1.00  0.00     0.002 A 
BRANCH  64  68
ATOM     68  N   UNL A   1      31.082  25.786  24.889  1.00  0.00    -0.321 N 
ATOM     69  C   UNL A   1      30.188  25.982  23.862  1.00  0.00     0.255 C 
ATOM     70  H   UNL A   1      31.237  24.838  25.099  1.00  0.00     0.170 HD
ATOM     71  O   UNL A   1      29.629  25.012  23.353  1.00  0.00    -0.269 OA
BRANCH  69  72
ATOM     72  C   UNL A   1      29.921  27.313  23.290  1.00  0.00     0.043 A 
ATOM     73  C   UNL A   1      30.930  28.095  22.731  1.00  0.00     0.034 A 
ATOM     74  C   UNL A   1      28.605  27.767  23.303  1.00  0.00     0.034 A 
ATOM     75  C   UNL A   1      30.585  29.357  22.286  1.00  0.00     0.112 A 
ATOM     76  C   UNL A   1      28.363  29.038  22.821  1.00  0.00     0.112 A 
ATOM     77  N   UNL A   1      29.328  29.848  22.332  1.00  0.00    -0.265 NA
ENDBRANCH  69  72
ENDBRANCH  64  68
ENDBRANCH  59  62
ENDBRANCH  57  58
ENDBRANCH   1  57
TORSDOF 12
ENDMDL
