MODEL 1
REMARK VINA RESULT:     -11.9      0.000      0.000
REMARK SMILES CCc1ccc2oc(-c3ccccc3)c(OCC(=O)NCCCNC(=O)c3ccc(-c4c5nc(c(-c6ccccc6)c6ccc([nH]6)c(-c6ccccc6)c6nc(c(-c7ccccc7)c7ccc4[nH]7)C=C6)C=C5)cc3)c(=O)c2c1
REMARK SMILES IDX 21 1 20 2 18 3 19 4 17 6 16 7 15 8 3 9 4 10 78 11 5 12 77 13
REMARK SMILES IDX 6 14 75 15 7 16 76 17 8 18 2 19 1 20 9 21 10 22 14 23 11 24
REMARK SMILES IDX 13 25 12 26 22 27 23 28 24 29 25 30 26 32 27 33 28 34 74 35
REMARK SMILES IDX 29 36 73 37 30 38 31 39 32 40 67 41 33 42 72 43 66 44 68 45
REMARK SMILES IDX 34 46 71 47 65 48 64 49 35 51 57 52 42 53 56 54 43 55 46 56
REMARK SMILES IDX 55 57 69 58 44 59 45 60 54 62 70 63 47 64 36 65 37 66 41 67
REMARK SMILES IDX 38 68 40 69 39 70 58 71 59 72 63 73 60 74 62 75 61 76 48 77
REMARK SMILES IDX 49 78 53 79 50 80 52 81 51 82
REMARK H PARENT 20 5 24 31 68 50 46 61
REMARK Flexibility Score: inf
ROOT
ATOM      1  C   UNL A   1      33.211  26.852  25.456  1.00  0.00     0.117 C 
ENDROOT
BRANCH   1   2
ATOM      2  N   UNL A   1      34.339  26.047  25.029  1.00  0.00    -0.353 N 
ATOM      3  C   UNL A   1      34.648  24.756  25.349  1.00  0.00     0.257 C 
ATOM      4  O   UNL A   1      35.578  24.230  24.737  1.00  0.00    -0.271 OA
ATOM      5  H   UNL A   1      34.971  26.496  24.422  1.00  0.00     0.163 HD
BRANCH   3   6
ATOM      6  C   UNL A   1      33.787  23.994  26.368  1.00  0.00     0.329 C 
BRANCH   6   7
ATOM      7  O   UNL A   1      32.582  23.395  25.920  1.00  0.00    -0.476 OA
BRANCH   7   8
ATOM      8  C   UNL A   1      32.610  22.282  25.090  1.00  0.00     0.211 A 
ATOM      9  C   UNL A   1      33.039  17.445  24.066  1.00  0.00    -0.047 A 
ATOM     10  C   UNL A   1      32.584  17.735  22.772  1.00  0.00     0.007 A 
ATOM     11  C   UNL A   1      33.178  18.497  24.982  1.00  0.00     0.020 A 
ATOM     12  C   UNL A   1      32.302  19.050  22.394  1.00  0.00     0.048 A 
ATOM     13  C   UNL A   1      32.886  19.812  24.600  1.00  0.00     0.069 A 
ATOM     14  C   UNL A   1      32.456  20.087  23.311  1.00  0.00     0.138 A 
ATOM     15  C   UNL A   1      33.049  20.926  25.542  1.00  0.00     0.235 A 
ATOM     16  O   UNL A   1      32.189  21.355  22.880  1.00  0.00    -0.452 OA
ATOM     17  O   UNL A   1      33.573  20.715  26.631  1.00  0.00    -0.285 OA
ATOM     18  C   UNL A   1      32.272  22.400  23.786  1.00  0.00     0.180 A 
BRANCH   9  19
ATOM     19  C   UNL A   1      33.348  16.029  24.490  1.00  0.00     0.032 C 
ATOM     20  C   UNL A   1      34.673  15.895  25.228  1.00  0.00     0.009 C 
ENDBRANCH   9  19
BRANCH  18  21
ATOM     21  C   UNL A   1      31.982  23.702  23.144  1.00  0.00     0.021 A 
ATOM     22  C   UNL A   1      32.889  24.263  22.233  1.00  0.00     0.012 A 
ATOM     23  C   UNL A   1      30.855  24.450  23.518  1.00  0.00     0.012 A 
ATOM     24  C   UNL A   1      32.668  25.537  21.703  1.00  0.00     0.001 A 
ATOM     25  C   UNL A   1      30.635  25.723  22.989  1.00  0.00     0.001 A 
ATOM     26  C   UNL A   1      31.542  26.268  22.083  1.00  0.00     0.000 A 
ENDBRANCH  18  21
ENDBRANCH   7   8
ENDBRANCH   6   7
ENDBRANCH   3   6
ENDBRANCH   1   2
BRANCH   1  27
ATOM     27  C   UNL A   1      33.623  28.251  25.895  1.00  0.00     0.042 C 
BRANCH  27  28
ATOM     28  C   UNL A   1      33.300  28.593  27.348  1.00  0.00     0.118 C 
BRANCH  28  29
ATOM     29  N   UNL A   1      33.373  30.018  27.640  1.00  0.00    -0.352 N 
ATOM     30  C   UNL A   1      34.398  30.774  28.154  1.00  0.00     0.251 C 
ATOM     31  H   UNL A   1      32.552  30.522  27.437  1.00  0.00     0.163 HD
ATOM     32  O   UNL A   1      34.195  31.953  28.437  1.00  0.00    -0.269 OA
BRANCH  30  33
ATOM     33  C   UNL A   1      35.734  30.188  28.399  1.00  0.00     0.039 A 
ATOM     34  C   UNL A   1      36.660  30.172  27.351  1.00  0.00     0.014 A 
ATOM     35  C   UNL A   1      36.076  29.629  29.633  1.00  0.00     0.014 A 
ATOM     36  C   UNL A   1      37.947  29.669  27.559  1.00  0.00     0.010 A 
ATOM     37  C   UNL A   1      37.380  29.191  29.862  1.00  0.00     0.010 A 
ATOM     38  C   UNL A   1      38.331  29.212  28.830  1.00  0.00    -0.014 A 
BRANCH  38  39
ATOM     39  C   UNL A   1      39.726  28.780  29.101  1.00  0.00     0.031 A 
ATOM     40  C   UNL A   1      40.715  29.728  29.722  1.00  0.00     0.074 A 
ATOM     41  C   UNL A   1      40.126  27.550  28.721  1.00  0.00     0.049 A 
ATOM     42  N   UNL A   1      41.989  29.548  29.965  1.00  0.00    -0.248 NA
ATOM     43  C   UNL A   1      40.214  31.059  30.097  1.00  0.00     0.031 C 
ATOM     44  C   UNL A   1      39.280  26.545  28.072  1.00  0.00     0.029 A 
ATOM     45  N   UNL A   1      41.352  26.939  28.816  1.00  0.00    -0.354 N 
ATOM     46  C   UNL A   1      42.445  30.746  30.500  1.00  0.00     0.074 A 
ATOM     47  C   UNL A   1      41.321  31.658  30.510  1.00  0.00     0.031 C 
ATOM     48  C   UNL A   1      40.007  25.438  27.846  1.00  0.00     0.029 A 
ATOM     49  C   UNL A   1      41.375  25.668  28.295  1.00  0.00     0.049 A 
ATOM     50  H   UNL A   1      42.140  27.371  29.219  1.00  0.00     0.167 HD
ATOM     51  C   UNL A   1      43.683  31.057  30.952  1.00  0.00     0.031 A 
ATOM     52  C   UNL A   1      42.387  24.786  28.181  1.00  0.00     0.031 A 
ATOM     53  C   UNL A   1      44.799  30.149  30.959  1.00  0.00     0.049 A 
ATOM     54  C   UNL A   1      43.751  25.157  28.690  1.00  0.00     0.074 A 
ATOM     55  C   UNL A   1      46.074  30.354  31.459  1.00  0.00     0.029 A 
ATOM     56  N   UNL A   1      44.777  28.865  30.438  1.00  0.00    -0.354 N 
ATOM     57  N   UNL A   1      44.146  26.271  29.256  1.00  0.00    -0.248 NA
ATOM     58  C   UNL A   1      44.806  24.142  28.553  1.00  0.00     0.031 C 
ATOM     59  C   UNL A   1      46.836  29.211  31.198  1.00  0.00     0.029 A 
ATOM     60  C   UNL A   1      46.021  28.276  30.582  1.00  0.00     0.049 A 
ATOM     61  H   UNL A   1      43.992  28.436  30.027  1.00  0.00     0.167 HD
ATOM     62  C   UNL A   1      45.487  26.082  29.566  1.00  0.00     0.074 A 
ATOM     63  C   UNL A   1      45.832  24.742  29.139  1.00  0.00     0.031 C 
ATOM     64  C   UNL A   1      46.353  26.942  30.153  1.00  0.00     0.031 A 
BRANCH  51  65
ATOM     65  C   UNL A   1      43.901  32.450  31.477  1.00  0.00    -0.014 A 
ATOM     66  C   UNL A   1      44.292  33.495  30.626  1.00  0.00     0.009 A 
ATOM     67  C   UNL A   1      43.668  32.727  32.833  1.00  0.00     0.009 A 
ATOM     68  C   UNL A   1      44.478  34.784  31.129  1.00  0.00     0.001 A 
ATOM     69  C   UNL A   1      43.828  34.023  33.328  1.00  0.00     0.001 A 
ATOM     70  C   UNL A   1      44.240  35.048  32.478  1.00  0.00     0.000 A 
ENDBRANCH  51  65
BRANCH  52  71
ATOM     71  C   UNL A   1      42.148  23.457  27.561  1.00  0.00    -0.014 A 
ATOM     72  C   UNL A   1      41.612  22.405  28.320  1.00  0.00     0.009 A 
ATOM     73  C   UNL A   1      42.461  23.232  26.212  1.00  0.00     0.009 A 
ATOM     74  C   UNL A   1      41.420  21.147  27.746  1.00  0.00     0.001 A 
ATOM     75  C   UNL A   1      42.242  21.980  25.633  1.00  0.00     0.001 A 
ATOM     76  C   UNL A   1      41.731  20.936  26.404  1.00  0.00     0.000 A 
ENDBRANCH  52  71
BRANCH  64  77
ATOM     77  C   UNL A   1      47.751  26.450  30.398  1.00  0.00    -0.014 A 
ATOM     78  C   UNL A   1      48.108  25.847  31.615  1.00  0.00     0.009 A 
ATOM     79  C   UNL A   1      48.713  26.557  29.383  1.00  0.00     0.009 A 
ATOM     80  C   UNL A   1      49.411  25.391  31.820  1.00  0.00     0.001 A 
ATOM     81  C   UNL A   1      50.008  26.075  29.581  1.00  0.00     0.001 A 
ATOM     82  C   UNL A   1      50.358  25.501  30.801  1.00  0.00     0.000 A 
ENDBRANCH  64  77
ENDBRANCH  38  39
ENDBRANCH  30  33
ENDBRANCH  28  29
ENDBRANCH  27  28
ENDBRANCH   1  27
TORSDOF 14
ENDMDL
MODEL 2
REMARK VINA RESULT:     -11.6      2.325      7.473
REMARK SMILES CCc1ccc2oc(-c3ccccc3)c(OCC(=O)NCCCNC(=O)c3ccc(-c4c5nc(c(-c6ccccc6)c6ccc([nH]6)c(-c6ccccc6)c6nc(c(-c7ccccc7)c7ccc4[nH]7)C=C6)C=C5)cc3)c(=O)c2c1
REMARK SMILES IDX 21 1 20 2 18 3 19 4 17 6 16 7 15 8 3 9 4 10 78 11 5 12 77 13
REMARK SMILES IDX 6 14 75 15 7 16 76 17 8 18 2 19 1 20 9 21 10 22 14 23 11 24
REMARK SMILES IDX 13 25 12 26 22 27 23 28 24 29 25 30 26 32 27 33 28 34 74 35
REMARK SMILES IDX 29 36 73 37 30 38 31 39 32 40 67 41 33 42 72 43 66 44 68 45
REMARK SMILES IDX 34 46 71 47 65 48 64 49 35 51 57 52 42 53 56 54 43 55 46 56
REMARK SMILES IDX 55 57 69 58 44 59 45 60 54 62 70 63 47 64 36 65 37 66 41 67
REMARK SMILES IDX 38 68 40 69 39 70 58 71 59 72 63 73 60 74 62 75 61 76 48 77
REMARK SMILES IDX 49 78 53 79 50 80 52 81 51 82
REMARK H PARENT 20 5 24 31 68 50 46 61
REMARK Flexibility Score: inf
ROOT
ATOM      1  C   UNL A   1      35.590  20.238  25.080  1.00  0.00     0.117 C 
ENDROOT
BRANCH   1   2
ATOM      2  N   UNL A   1      34.370  19.458  25.134  1.00  0.00    -0.353 N 
ATOM      3  C   UNL A   1      33.073  19.886  25.146  1.00  0.00     0.257 C 
ATOM      4  O   UNL A   1      32.195  19.029  25.035  1.00  0.00    -0.271 OA
ATOM      5  H   UNL A   1      34.494  18.483  25.168  1.00  0.00     0.163 HD
BRANCH   3   6
ATOM      6  C   UNL A   1      32.764  21.390  25.199  1.00  0.00     0.329 C 
BRANCH   6   7
ATOM      7  O   UNL A   1      32.778  22.126  23.987  1.00  0.00    -0.476 OA
BRANCH   7   8
ATOM      8  C   UNL A   1      32.495  23.485  23.979  1.00  0.00     0.211 A 
ATOM      9  C   UNL A   1      29.543  27.461  23.662  1.00  0.00    -0.047 A 
ATOM     10  C   UNL A   1      30.629  28.234  24.098  1.00  0.00     0.007 A 
ATOM     11  C   UNL A   1      29.720  26.079  23.506  1.00  0.00     0.020 A 
ATOM     12  C   UNL A   1      31.871  27.643  24.343  1.00  0.00     0.048 A 
ATOM     13  C   UNL A   1      30.965  25.491  23.761  1.00  0.00     0.069 A 
ATOM     14  C   UNL A   1      32.035  26.269  24.172  1.00  0.00     0.138 A 
ATOM     15  C   UNL A   1      31.169  24.049  23.579  1.00  0.00     0.235 A 
ATOM     16  O   UNL A   1      33.277  25.750  24.402  1.00  0.00    -0.452 OA
ATOM     17  O   UNL A   1      30.277  23.379  23.071  1.00  0.00    -0.285 OA
ATOM     18  C   UNL A   1      33.456  24.379  24.302  1.00  0.00     0.180 A 
BRANCH   9  19
ATOM     19  C   UNL A   1      28.194  28.086  23.394  1.00  0.00     0.032 C 
ATOM     20  C   UNL A   1      28.284  29.463  22.750  1.00  0.00     0.009 C 
ENDBRANCH   9  19
BRANCH  18  21
ATOM     21  C   UNL A   1      34.863  23.994  24.552  1.00  0.00     0.021 A 
ATOM     22  C   UNL A   1      35.444  24.204  25.812  1.00  0.00     0.012 A 
ATOM     23  C   UNL A   1      35.672  23.520  23.509  1.00  0.00     0.012 A 
ATOM     24  C   UNL A   1      36.800  23.936  26.022  1.00  0.00     0.001 A 
ATOM     25  C   UNL A   1      37.027  23.254  23.720  1.00  0.00     0.001 A 
ATOM     26  C   UNL A   1      37.591  23.463  24.976  1.00  0.00     0.000 A 
ENDBRANCH  18  21
ENDBRANCH   7   8
ENDBRANCH   6   7
ENDBRANCH   3   6
ENDBRANCH   1   2
BRANCH   1  27
ATOM     27  C   UNL A   1      36.838  19.367  24.993  1.00  0.00     0.042 C 
BRANCH  27  28
ATOM     28  C   UNL A   1      38.152  20.094  25.271  1.00  0.00     0.118 C 
BRANCH  28  29
ATOM     29  N   UNL A   1      39.261  19.198  25.569  1.00  0.00    -0.352 N 
ATOM     30  C   UNL A   1      40.510  19.458  26.076  1.00  0.00     0.251 C 
ATOM     31  H   UNL A   1      39.086  18.249  25.374  1.00  0.00     0.163 HD
ATOM     32  O   UNL A   1      41.340  18.553  26.131  1.00  0.00    -0.269 OA
BRANCH  30  33
ATOM     33  C   UNL A   1      40.885  20.815  26.531  1.00  0.00     0.039 A 
ATOM     34  C   UNL A   1      41.091  21.028  27.898  1.00  0.00     0.014 A 
ATOM     35  C   UNL A   1      41.005  21.883  25.638  1.00  0.00     0.014 A 
ATOM     36  C   UNL A   1      41.492  22.285  28.359  1.00  0.00     0.010 A 
ATOM     37  C   UNL A   1      41.471  23.118  26.087  1.00  0.00     0.010 A 
ATOM     38  C   UNL A   1      41.725  23.331  27.451  1.00  0.00    -0.014 A 
BRANCH  38  39
ATOM     39  C   UNL A   1      42.260  24.639  27.908  1.00  0.00     0.031 A 
ATOM     40  C   UNL A   1      41.329  25.772  28.246  1.00  0.00     0.074 A 
ATOM     41  C   UNL A   1      43.593  24.833  27.951  1.00  0.00     0.049 A 
ATOM     42  N   UNL A   1      41.618  27.001  28.591  1.00  0.00    -0.248 NA
ATOM     43  C   UNL A   1      39.887  25.493  28.162  1.00  0.00     0.031 C 
ATOM     44  C   UNL A   1      44.608  23.833  27.610  1.00  0.00     0.029 A 
ATOM     45  N   UNL A   1      44.325  25.945  28.289  1.00  0.00    -0.354 N 
ATOM     46  C   UNL A   1      40.398  27.647  28.745  1.00  0.00     0.074 A 
ATOM     47  C   UNL A   1      39.367  26.685  28.418  1.00  0.00     0.031 C 
ATOM     48  C   UNL A   1      45.828  24.370  27.776  1.00  0.00     0.029 A 
ATOM     49  C   UNL A   1      45.683  25.760  28.193  1.00  0.00     0.049 A 
ATOM     50  H   UNL A   1      43.915  26.795  28.572  1.00  0.00     0.167 HD
ATOM     51  C   UNL A   1      40.155  28.921  29.135  1.00  0.00     0.031 A 
ATOM     52  C   UNL A   1      46.701  26.616  28.407  1.00  0.00     0.031 A 
ATOM     53  C   UNL A   1      41.176  29.877  29.476  1.00  0.00     0.049 A 
ATOM     54  C   UNL A   1      46.404  28.024  28.837  1.00  0.00     0.074 A 
ATOM     55  C   UNL A   1      41.023  31.170  29.946  1.00  0.00     0.029 A 
ATOM     56  N   UNL A   1      42.539  29.644  29.383  1.00  0.00    -0.354 N 
ATOM     57  N   UNL A   1      45.244  28.597  29.044  1.00  0.00    -0.248 NA
ATOM     58  C   UNL A   1      47.560  28.901  29.074  1.00  0.00     0.031 C 
ATOM     59  C   UNL A   1      42.293  31.737  30.091  1.00  0.00     0.029 A 
ATOM     60  C   UNL A   1      43.237  30.778  29.762  1.00  0.00     0.049 A 
ATOM     61  H   UNL A   1      42.949  28.798  29.091  1.00  0.00     0.167 HD
ATOM     62  C   UNL A   1      45.529  29.891  29.460  1.00  0.00     0.074 A 
ATOM     63  C   UNL A   1      46.972  30.014  29.490  1.00  0.00     0.031 C 
ATOM     64  C   UNL A   1      44.673  30.888  29.787  1.00  0.00     0.031 A 
BRANCH  51  65
ATOM     65  C   UNL A   1      38.720  29.364  29.207  1.00  0.00    -0.014 A 
ATOM     66  C   UNL A   1      37.982  29.251  30.396  1.00  0.00     0.009 A 
ATOM     67  C   UNL A   1      38.112  29.944  28.083  1.00  0.00     0.009 A 
ATOM     68  C   UNL A   1      36.655  29.678  30.448  1.00  0.00     0.001 A 
ATOM     69  C   UNL A   1      36.793  30.396  28.145  1.00  0.00     0.001 A 
ATOM     70  C   UNL A   1      36.063  30.255  29.324  1.00  0.00     0.000 A 
ENDBRANCH  51  65
BRANCH  52  71
ATOM     71  C   UNL A   1      48.104  26.162  28.225  1.00  0.00    -0.014 A 
ATOM     72  C   UNL A   1      48.719  26.239  26.966  1.00  0.00     0.009 A 
ATOM     73  C   UNL A   1      48.832  25.641  29.307  1.00  0.00     0.009 A 
ATOM     74  C   UNL A   1      50.025  25.780  26.789  1.00  0.00     0.001 A 
ATOM     75  C   UNL A   1      50.147  25.208  29.132  1.00  0.00     0.001 A 
ATOM     76  C   UNL A   1      50.740  25.269  27.871  1.00  0.00     0.000 A 
ENDBRANCH  52  71
BRANCH  64  77
ATOM     77  C   UNL A   1      45.272  32.189  30.238  1.00  0.00    -0.014 A 
ATOM     78  C   UNL A   1      45.582  32.419  31.589  1.00  0.00     0.009 A 
ATOM     79  C   UNL A   1      45.566  33.184  29.293  1.00  0.00     0.009 A 
ATOM     80  C   UNL A   1      46.145  33.633  31.985  1.00  0.00     0.001 A 
ATOM     81  C   UNL A   1      46.154  34.385  29.689  1.00  0.00     0.001 A 
ATOM     82  C   UNL A   1      46.435  34.613  31.035  1.00  0.00     0.000 A 
ENDBRANCH  64  77
ENDBRANCH  38  39
ENDBRANCH  30  33
ENDBRANCH  28  29
ENDBRANCH  27  28
ENDBRANCH   1  27
TORSDOF 14
ENDMDL
MODEL 3
REMARK VINA RESULT:     -11.6      2.022      7.561
REMARK SMILES CCc1ccc2oc(-c3ccccc3)c(OCC(=O)NCCCNC(=O)c3ccc(-c4c5nc(c(-c6ccccc6)c6ccc([nH]6)c(-c6ccccc6)c6nc(c(-c7ccccc7)c7ccc4[nH]7)C=C6)C=C5)cc3)c(=O)c2c1
REMARK SMILES IDX 21 1 20 2 18 3 19 4 17 6 16 7 15 8 3 9 4 10 78 11 5 12 77 13
REMARK SMILES IDX 6 14 75 15 7 16 76 17 8 18 2 19 1 20 9 21 10 22 14 23 11 24
REMARK SMILES IDX 13 25 12 26 22 27 23 28 24 29 25 30 26 32 27 33 28 34 74 35
REMARK SMILES IDX 29 36 73 37 30 38 31 39 32 40 67 41 33 42 72 43 66 44 68 45
REMARK SMILES IDX 34 46 71 47 65 48 64 49 35 51 57 52 42 53 56 54 43 55 46 56
REMARK SMILES IDX 55 57 69 58 44 59 45 60 54 62 70 63 47 64 36 65 37 66 41 67
REMARK SMILES IDX 38 68 40 69 39 70 58 71 59 72 63 73 60 74 62 75 61 76 48 77
REMARK SMILES IDX 49 78 53 79 50 80 52 81 51 82
REMARK H PARENT 20 5 24 31 68 50 46 61
REMARK Flexibility Score: inf
ROOT
ATOM      1  C   UNL A   1      36.122  20.929  24.819  1.00  0.00     0.117 C 
ENDROOT
BRANCH   1   2
ATOM      2  N   UNL A   1      36.070  22.296  25.298  1.00  0.00    -0.353 N 
ATOM      3  C   UNL A   1      35.828  23.445  24.601  1.00  0.00     0.257 C 
ATOM      4  O   UNL A   1      35.676  24.479  25.253  1.00  0.00    -0.271 OA
ATOM      5  H   UNL A   1      36.231  22.411  26.262  1.00  0.00     0.163 HD
BRANCH   3   6
ATOM      6  C   UNL A   1      35.664  23.394  23.075  1.00  0.00     0.329 C 
BRANCH   6   7
ATOM      7  O   UNL A   1      34.387  23.084  22.542  1.00  0.00    -0.476 OA
BRANCH   7   8
ATOM      8  C   UNL A   1      33.272  23.836  22.890  1.00  0.00     0.211 A 
ATOM      9  C   UNL A   1      30.312  27.816  22.754  1.00  0.00    -0.047 A 
ATOM     10  C   UNL A   1      29.358  27.062  23.451  1.00  0.00     0.007 A 
ATOM     11  C   UNL A   1      31.542  27.221  22.439  1.00  0.00     0.020 A 
ATOM     12  C   UNL A   1      29.637  25.752  23.850  1.00  0.00     0.048 A 
ATOM     13  C   UNL A   1      31.813  25.905  22.834  1.00  0.00     0.069 A 
ATOM     14  C   UNL A   1      30.868  25.177  23.540  1.00  0.00     0.138 A 
ATOM     15  C   UNL A   1      33.105  25.278  22.532  1.00  0.00     0.235 A 
ATOM     16  O   UNL A   1      31.096  23.904  23.976  1.00  0.00    -0.452 OA
ATOM     17  O   UNL A   1      34.001  25.959  22.045  1.00  0.00    -0.285 OA
ATOM     18  C   UNL A   1      32.286  23.282  23.630  1.00  0.00     0.180 A 
BRANCH   9  19
ATOM     19  C   UNL A   1      30.025  29.233  22.316  1.00  0.00     0.032 C 
ATOM     20  C   UNL A   1      28.538  29.548  22.231  1.00  0.00     0.009 C 
ENDBRANCH   9  19
BRANCH  18  21
ATOM     21  C   UNL A   1      32.379  21.924  24.209  1.00  0.00     0.021 A 
ATOM     22  C   UNL A   1      32.603  21.750  25.583  1.00  0.00     0.012 A 
ATOM     23  C   UNL A   1      32.358  20.789  23.383  1.00  0.00     0.012 A 
ATOM     24  C   UNL A   1      32.792  20.472  26.116  1.00  0.00     0.001 A 
ATOM     25  C   UNL A   1      32.549  19.513  23.916  1.00  0.00     0.001 A 
ATOM     26  C   UNL A   1      32.768  19.355  25.283  1.00  0.00     0.000 A 
ENDBRANCH  18  21
ENDBRANCH   7   8
ENDBRANCH   6   7
ENDBRANCH   3   6
ENDBRANCH   1   2
BRANCH   1  27
ATOM     27  C   UNL A   1      37.544  20.467  24.524  1.00  0.00     0.042 C 
BRANCH  27  28
ATOM     28  C   UNL A   1      38.526  20.623  25.683  1.00  0.00     0.118 C 
BRANCH  28  29
ATOM     29  N   UNL A   1      39.610  19.649  25.663  1.00  0.00    -0.352 N 
ATOM     30  C   UNL A   1      40.932  19.775  26.008  1.00  0.00     0.251 C 
ATOM     31  H   UNL A   1      39.350  18.752  25.349  1.00  0.00     0.163 HD
ATOM     32  O   UNL A   1      41.704  18.843  25.792  1.00  0.00    -0.269 OA
BRANCH  30  33
ATOM     33  C   UNL A   1      41.452  21.023  26.610  1.00  0.00     0.039 A 
ATOM     34  C   UNL A   1      42.018  21.985  25.767  1.00  0.00     0.014 A 
ATOM     35  C   UNL A   1      41.420  21.244  27.989  1.00  0.00     0.014 A 
ATOM     36  C   UNL A   1      42.477  23.195  26.293  1.00  0.00     0.010 A 
ATOM     37  C   UNL A   1      41.813  22.477  28.507  1.00  0.00     0.010 A 
ATOM     38  C   UNL A   1      42.340  23.468  27.664  1.00  0.00    -0.014 A 
BRANCH  38  39
ATOM     39  C   UNL A   1      42.717  24.791  28.225  1.00  0.00     0.031 A 
ATOM     40  C   UNL A   1      41.681  25.862  28.425  1.00  0.00     0.074 A 
ATOM     41  C   UNL A   1      44.013  25.055  28.488  1.00  0.00     0.049 A 
ATOM     42  N   UNL A   1      41.838  27.096  28.835  1.00  0.00    -0.248 NA
ATOM     43  C   UNL A   1      40.289  25.509  28.102  1.00  0.00     0.031 C 
ATOM     44  C   UNL A   1      45.125  24.121  28.301  1.00  0.00     0.029 A 
ATOM     45  N   UNL A   1      44.614  26.196  28.960  1.00  0.00    -0.354 N 
ATOM     46  C   UNL A   1      40.574  27.671  28.798  1.00  0.00     0.074 A 
ATOM     47  C   UNL A   1      39.668  26.663  28.290  1.00  0.00     0.031 C 
ATOM     48  C   UNL A   1      46.269  24.719  28.673  1.00  0.00     0.029 A 
ATOM     49  C   UNL A   1      45.978  26.088  29.085  1.00  0.00     0.049 A 
ATOM     50  H   UNL A   1      44.116  27.015  29.187  1.00  0.00     0.167 HD
ATOM     51  C   UNL A   1      40.198  28.919  29.165  1.00  0.00     0.031 A 
ATOM     52  C   UNL A   1      46.897  26.991  29.477  1.00  0.00     0.031 A 
ATOM     53  C   UNL A   1      41.093  29.919  29.685  1.00  0.00     0.049 A 
ATOM     54  C   UNL A   1      46.454  28.369  29.877  1.00  0.00     0.074 A 
ATOM     55  C   UNL A   1      40.792  31.190  30.146  1.00  0.00     0.029 A 
ATOM     56  N   UNL A   1      42.464  29.763  29.812  1.00  0.00    -0.354 N 
ATOM     57  N   UNL A   1      45.244  28.873  29.902  1.00  0.00    -0.248 NA
ATOM     58  C   UNL A   1      47.504  29.301  30.315  1.00  0.00     0.031 C 
ATOM     59  C   UNL A   1      41.987  31.820  30.507  1.00  0.00     0.029 A 
ATOM     60  C   UNL A   1      43.026  30.922  30.319  1.00  0.00     0.049 A 
ATOM     61  H   UNL A   1      42.965  28.949  29.576  1.00  0.00     0.167 HD
ATOM     62  C   UNL A   1      45.384  30.169  30.381  1.00  0.00     0.074 A 
ATOM     63  C   UNL A   1      46.793  30.369  30.649  1.00  0.00     0.031 C 
ATOM     64  C   UNL A   1      44.430  31.109  30.581  1.00  0.00     0.031 A 
BRANCH  51  65
ATOM     65  C   UNL A   1      38.747  29.282  29.009  1.00  0.00    -0.014 A 
ATOM     66  C   UNL A   1      38.238  29.733  27.781  1.00  0.00     0.009 A 
ATOM     67  C   UNL A   1      37.870  29.125  30.093  1.00  0.00     0.009 A 
ATOM     68  C   UNL A   1      36.885  30.054  27.652  1.00  0.00     0.001 A 
ATOM     69  C   UNL A   1      36.513  29.420  29.953  1.00  0.00     0.001 A 
ATOM     70  C   UNL A   1      36.023  29.892  28.737  1.00  0.00     0.000 A 
ENDBRANCH  51  65
BRANCH  52  71
ATOM     71  C   UNL A   1      48.335  26.618  29.519  1.00  0.00    -0.014 A 
ATOM     72  C   UNL A   1      49.162  26.850  28.410  1.00  0.00     0.009 A 
ATOM     73  C   UNL A   1      48.885  26.022  30.665  1.00  0.00     0.009 A 
ATOM     74  C   UNL A   1      50.505  26.468  28.438  1.00  0.00     0.001 A 
ATOM     75  C   UNL A   1      50.234  25.666  30.700  1.00  0.00     0.001 A 
ATOM     76  C   UNL A   1      51.041  25.880  29.583  1.00  0.00     0.000 A 
ENDBRANCH  52  71
BRANCH  64  77
ATOM     77  C   UNL A   1      44.872  32.428  31.147  1.00  0.00    -0.014 A 
ATOM     78  C   UNL A   1      45.231  33.497  30.309  1.00  0.00     0.009 A 
ATOM     79  C   UNL A   1      44.894  32.616  32.537  1.00  0.00     0.009 A 
ATOM     80  C   UNL A   1      45.633  34.716  30.856  1.00  0.00     0.001 A 
ATOM     81  C   UNL A   1      45.269  33.845  33.080  1.00  0.00     0.001 A 
ATOM     82  C   UNL A   1      45.647  34.891  32.240  1.00  0.00     0.000 A 
ENDBRANCH  64  77
ENDBRANCH  38  39
ENDBRANCH  30  33
ENDBRANCH  28  29
ENDBRANCH  27  28
ENDBRANCH   1  27
TORSDOF 14
ENDMDL
