MODEL 1
REMARK VINA RESULT:     -11.0      0.000      0.000
REMARK SMILES O=C(NCCCNC(=O)[C@@H](c1ccccc1)N1C(=O)/C(=C\c2ccc(-c3ccc(F)cc3)o2)SC1=S)c1ccc(-c2c3nc(c(-c4ccccc4)c4ccc([nH]4)c(-c4ccccc4)c4nc(c(-c5ccccc5)c5ccc2[nH]5)C=C4)C=C3)cc1
REMARK SMILES IDX 5 1 4 2 3 3 1 4 2 5 37 7 38 8 84 9 39 10 83 11 40 12 41 13
REMARK SMILES IDX 42 14 77 15 43 16 82 17 76 18 78 19 44 20 81 21 75 22 74 23
REMARK SMILES IDX 45 25 67 26 52 27 66 28 53 29 56 30 65 31 79 32 54 33 55 34
REMARK SMILES IDX 64 36 80 37 57 38 46 39 47 40 51 41 48 42 50 43 49 44 68 45
REMARK SMILES IDX 69 46 73 47 70 48 72 49 71 50 58 51 59 52 63 53 60 54 62 55
REMARK SMILES IDX 61 56 6 57 7 58 8 59 9 61 10 62 11 63 12 64 16 65 13 66
REMARK SMILES IDX 15 67 14 68 17 69 18 70 35 71 19 72 20 73 34 74 36 75 21 76
REMARK SMILES IDX 22 77 23 78 33 79 24 80 25 81 26 82 27 83 32 84 28 85 31 86
REMARK SMILES IDX 29 87 30 88
REMARK H PARENT 3 6 78 24 56 35 7 60
REMARK Flexibility Score: inf
ROOT
ATOM      1  C   UNL A   1      39.641  25.515  28.349  1.00  0.00     0.042 C 
ENDROOT
BRANCH   1   2
ATOM      2  C   UNL A   1      39.897  25.367  26.858  1.00  0.00     0.118 C 
BRANCH   2   3
ATOM      3  N   UNL A   1      40.599  24.125  26.543  1.00  0.00    -0.352 N 
ATOM      4  O   UNL A   1      42.217  22.802  25.711  1.00  0.00    -0.269 OA
ATOM      5  C   UNL A   1      41.902  23.897  26.168  1.00  0.00     0.251 C 
ATOM      6  H   UNL A   1      40.046  23.314  26.611  1.00  0.00     0.163 HD
BRANCH   5   7
ATOM      7  C   UNL A   1      42.921  24.959  26.306  1.00  0.00     0.039 A 
ATOM      8  C   UNL A   1      43.273  25.741  25.210  1.00  0.00     0.014 A 
ATOM      9  C   UNL A   1      43.506  25.208  27.552  1.00  0.00     0.014 A 
ATOM     10  C   UNL A   1      44.338  26.621  25.304  1.00  0.00     0.010 A 
ATOM     11  C   UNL A   1      44.485  26.202  27.679  1.00  0.00     0.010 A 
ATOM     12  C   UNL A   1      44.933  26.895  26.546  1.00  0.00    -0.014 A 
BRANCH  12  13
ATOM     13  C   UNL A   1      45.951  27.975  26.605  1.00  0.00     0.031 A 
ATOM     14  C   UNL A   1      47.413  27.697  26.394  1.00  0.00     0.074 A 
ATOM     15  C   UNL A   1      45.517  29.242  26.763  1.00  0.00     0.049 A 
ATOM     16  N   UNL A   1      48.402  28.552  26.308  1.00  0.00    -0.248 NA
ATOM     17  C   UNL A   1      47.823  26.291  26.270  1.00  0.00     0.031 C 
ATOM     18  C   UNL A   1      44.122  29.633  26.996  1.00  0.00     0.029 A 
ATOM     19  N   UNL A   1      46.185  30.438  26.694  1.00  0.00    -0.354 N 
ATOM     20  C   UNL A   1      49.551  27.789  26.140  1.00  0.00     0.074 A 
ATOM     21  C   UNL A   1      49.141  26.401  26.160  1.00  0.00     0.031 C 
ATOM     22  C   UNL A   1      44.023  30.967  26.953  1.00  0.00     0.029 A 
ATOM     23  C   UNL A   1      45.355  31.530  26.777  1.00  0.00     0.049 A 
ATOM     24  H   UNL A   1      47.162  30.507  26.595  1.00  0.00     0.167 HD
ATOM     25  C   UNL A   1      50.828  28.210  25.977  1.00  0.00     0.031 A 
ATOM     26  C   UNL A   1      45.629  32.845  26.727  1.00  0.00     0.031 A 
ATOM     27  C   UNL A   1      51.232  29.592  25.958  1.00  0.00     0.049 A 
ATOM     28  C   UNL A   1      47.051  33.278  26.547  1.00  0.00     0.074 A 
ATOM     29  C   UNL A   1      52.503  30.119  25.802  1.00  0.00     0.029 A 
ATOM     30  N   UNL A   1      50.368  30.669  26.095  1.00  0.00    -0.354 N 
ATOM     31  N   UNL A   1      48.122  32.540  26.383  1.00  0.00    -0.248 NA
ATOM     32  C   UNL A   1      47.305  34.725  26.551  1.00  0.00     0.031 C 
ATOM     33  C   UNL A   1      52.414  31.514  25.884  1.00  0.00     0.029 A 
ATOM     34  C   UNL A   1      51.081  31.857  26.040  1.00  0.00     0.049 A 
ATOM     35  H   UNL A   1      49.394  30.600  26.214  1.00  0.00     0.167 HD
ATOM     36  C   UNL A   1      49.178  33.431  26.267  1.00  0.00     0.074 A 
ATOM     37  C   UNL A   1      48.611  34.763  26.337  1.00  0.00     0.031 C 
ATOM     38  C   UNL A   1      50.500  33.171  26.128  1.00  0.00     0.031 A 
BRANCH  25  39
ATOM     39  C   UNL A   1      51.894  27.159  25.828  1.00  0.00    -0.014 A 
ATOM     40  C   UNL A   1      52.544  26.619  26.948  1.00  0.00     0.009 A 
ATOM     41  C   UNL A   1      52.213  26.663  24.554  1.00  0.00     0.009 A 
ATOM     42  C   UNL A   1      53.510  25.621  26.793  1.00  0.00     0.001 A 
ATOM     43  C   UNL A   1      53.161  25.649  24.404  1.00  0.00     0.001 A 
ATOM     44  C   UNL A   1      53.813  25.133  25.522  1.00  0.00     0.000 A 
ENDBRANCH  25  39
BRANCH  26  45
ATOM     45  C   UNL A   1      44.534  33.837  26.882  1.00  0.00    -0.014 A 
ATOM     46  C   UNL A   1      44.166  34.315  28.148  1.00  0.00     0.009 A 
ATOM     47  C   UNL A   1      43.857  34.321  25.751  1.00  0.00     0.009 A 
ATOM     48  C   UNL A   1      43.129  35.242  28.279  1.00  0.00     0.001 A 
ATOM     49  C   UNL A   1      42.844  35.273  25.882  1.00  0.00     0.001 A 
ATOM     50  C   UNL A   1      42.474  35.725  27.146  1.00  0.00     0.000 A 
ENDBRANCH  26  45
BRANCH  38  51
ATOM     51  C   UNL A   1      51.410  34.361  26.035  1.00  0.00    -0.014 A 
ATOM     52  C   UNL A   1      52.021  34.895  27.180  1.00  0.00     0.009 A 
ATOM     53  C   UNL A   1      51.656  34.955  24.789  1.00  0.00     0.009 A 
ATOM     54  C   UNL A   1      52.827  36.031  27.084  1.00  0.00     0.001 A 
ATOM     55  C   UNL A   1      52.485  36.074  24.692  1.00  0.00     0.001 A 
ATOM     56  C   UNL A   1      53.059  36.617  25.840  1.00  0.00     0.000 A 
ENDBRANCH  38  51
ENDBRANCH  12  13
ENDBRANCH   5   7
ENDBRANCH   2   3
ENDBRANCH   1   2
BRANCH   1  57
ATOM     57  C   UNL A   1      39.555  26.975  28.765  1.00  0.00     0.117 C 
BRANCH  57  58
ATOM     58  N   UNL A   1      38.874  27.161  30.028  1.00  0.00    -0.354 N 
ATOM     59  C   UNL A   1      38.564  28.281  30.736  1.00  0.00     0.247 C 
ATOM     60  H   UNL A   1      38.582  26.323  30.453  1.00  0.00     0.163 HD
ATOM     61  O   UNL A   1      38.157  28.076  31.888  1.00  0.00    -0.272 OA
BRANCH  59  62
ATOM     62  C   UNL A   1      38.803  29.744  30.245  1.00  0.00     0.211 C 
BRANCH  62  63
ATOM     63  C   UNL A   1      37.670  30.270  29.343  1.00  0.00    -0.016 A 
ATOM     64  C   UNL A   1      37.663  31.584  28.840  1.00  0.00     0.006 A 
ATOM     65  C   UNL A   1      36.609  29.432  28.949  1.00  0.00     0.006 A 
ATOM     66  C   UNL A   1      36.552  32.095  28.163  1.00  0.00     0.000 A 
ATOM     67  C   UNL A   1      35.513  29.930  28.240  1.00  0.00     0.000 A 
ATOM     68  C   UNL A   1      35.467  31.273  27.883  1.00  0.00     0.000 A 
ENDBRANCH  62  63
BRANCH  62  69
ATOM     69  N   UNL A   1      39.300  30.626  31.344  1.00  0.00    -0.276 N 
ATOM     70  C   UNL A   1      38.454  31.302  32.202  1.00  0.00     0.267 C 
ATOM     71  C   UNL A   1      40.651  30.780  31.617  1.00  0.00     0.149 C 
ATOM     72  O   UNL A   1      37.241  31.143  32.297  1.00  0.00    -0.268 OA
ATOM     73  C   UNL A   1      39.205  32.238  33.078  1.00  0.00     0.084 C 
ATOM     74  S   UNL A   1      40.882  31.893  32.965  1.00  0.00    -0.054 SA
ATOM     75  S   UNL A   1      41.961  30.065  30.872  1.00  0.00    -0.052 S 
ATOM     76  C   UNL A   1      38.703  33.257  33.788  1.00  0.00     0.068 C 
BRANCH  76  77
ATOM     77  C   UNL A   1      37.328  33.610  33.746  1.00  0.00     0.128 A 
ATOM     78  C   UNL A   1      36.358  33.544  34.738  1.00  0.00     0.051 A 
ATOM     79  O   UNL A   1      36.725  34.079  32.602  1.00  0.00    -0.457 OA
ATOM     80  C   UNL A   1      35.126  33.926  34.163  1.00  0.00     0.051 A 
ATOM     81  C   UNL A   1      35.398  34.258  32.856  1.00  0.00     0.134 A 
BRANCH  81  82
ATOM     82  C   UNL A   1      34.590  34.765  31.758  1.00  0.00     0.017 A 
ATOM     83  C   UNL A   1      34.588  34.137  30.503  1.00  0.00     0.015 A 
ATOM     84  C   UNL A   1      33.789  35.902  31.950  1.00  0.00     0.015 A 
ATOM     85  C   UNL A   1      33.803  34.640  29.462  1.00  0.00     0.040 A 
ATOM     86  C   UNL A   1      33.014  36.410  30.907  1.00  0.00     0.040 A 
ATOM     87  C   UNL A   1      33.028  35.774  29.672  1.00  0.00     0.123 A 
ATOM     88  F   UNL A   1      32.284  36.263  28.672  1.00  0.00    -0.207 F 
ENDBRANCH  81  82
ENDBRANCH  76  77
ENDBRANCH  62  69
ENDBRANCH  59  62
ENDBRANCH  57  58
ENDBRANCH   1  57
TORSDOF 14
ENDMDL
MODEL 2
REMARK VINA RESULT:     -10.5      5.229     12.891
REMARK SMILES O=C(NCCCNC(=O)[C@@H](c1ccccc1)N1C(=O)/C(=C\c2ccc(-c3ccc(F)cc3)o2)SC1=S)c1ccc(-c2c3nc(c(-c4ccccc4)c4ccc([nH]4)c(-c4ccccc4)c4nc(c(-c5ccccc5)c5ccc2[nH]5)C=C4)C=C3)cc1
REMARK SMILES IDX 5 1 4 2 3 3 1 4 2 5 37 7 38 8 84 9 39 10 83 11 40 12 41 13
REMARK SMILES IDX 42 14 77 15 43 16 82 17 76 18 78 19 44 20 81 21 75 22 74 23
REMARK SMILES IDX 45 25 67 26 52 27 66 28 53 29 56 30 65 31 79 32 54 33 55 34
REMARK SMILES IDX 64 36 80 37 57 38 46 39 47 40 51 41 48 42 50 43 49 44 68 45
REMARK SMILES IDX 69 46 73 47 70 48 72 49 71 50 58 51 59 52 63 53 60 54 62 55
REMARK SMILES IDX 61 56 6 57 7 58 8 59 9 61 10 62 11 63 12 64 16 65 13 66
REMARK SMILES IDX 15 67 14 68 17 69 18 70 35 71 19 72 20 73 34 74 36 75 21 76
REMARK SMILES IDX 22 77 23 78 33 79 24 80 25 81 26 82 27 83 32 84 28 85 31 86
REMARK SMILES IDX 29 87 30 88
REMARK H PARENT 3 6 78 24 56 35 7 60
REMARK Flexibility Score: inf
ROOT
ATOM      1  C   UNL A   1      47.872  25.554  32.609  1.00  0.00     0.042 C 
ENDROOT
BRANCH   1   2
ATOM      2  C   UNL A   1      48.693  26.506  33.465  1.00  0.00     0.118 C 
BRANCH   2   3
ATOM      3  N   UNL A   1      48.464  26.295  34.893  1.00  0.00    -0.352 N 
ATOM      4  O   UNL A   1      47.549  26.612  36.923  1.00  0.00    -0.269 OA
ATOM      5  C   UNL A   1      47.422  26.676  35.704  1.00  0.00     0.251 C 
ATOM      6  H   UNL A   1      49.176  25.793  35.352  1.00  0.00     0.163 HD
BRANCH   5   7
ATOM      7  C   UNL A   1      46.156  27.168  35.121  1.00  0.00     0.039 A 
ATOM      8  C   UNL A   1      46.108  28.407  34.488  1.00  0.00     0.014 A 
ATOM      9  C   UNL A   1      45.008  26.369  35.167  1.00  0.00     0.014 A 
ATOM     10  C   UNL A   1      44.890  28.931  34.089  1.00  0.00     0.010 A 
ATOM     11  C   UNL A   1      43.804  26.842  34.630  1.00  0.00     0.010 A 
ATOM     12  C   UNL A   1      43.728  28.143  34.115  1.00  0.00    -0.014 A 
BRANCH  12  13
ATOM     13  C   UNL A   1      42.493  28.706  33.512  1.00  0.00     0.031 A 
ATOM     14  C   UNL A   1      41.656  29.726  34.230  1.00  0.00     0.074 A 
ATOM     15  C   UNL A   1      42.188  28.345  32.249  1.00  0.00     0.049 A 
ATOM     16  N   UNL A   1      40.615  30.386  33.786  1.00  0.00    -0.248 NA
ATOM     17  C   UNL A   1      42.019  30.044  35.619  1.00  0.00     0.031 C 
ATOM     18  C   UNL A   1      42.918  27.348  31.457  1.00  0.00     0.029 A 
ATOM     19  N   UNL A   1      41.228  28.810  31.386  1.00  0.00    -0.354 N 
ATOM     20  C   UNL A   1      40.188  31.181  34.842  1.00  0.00     0.074 A 
ATOM     21  C   UNL A   1      41.067  30.904  35.958  1.00  0.00     0.031 C 
ATOM     22  C   UNL A   1      42.446  27.347  30.204  1.00  0.00     0.029 A 
ATOM     23  C   UNL A   1      41.327  28.276  30.124  1.00  0.00     0.049 A 
ATOM     24  H   UNL A   1      40.538  29.461  31.646  1.00  0.00     0.167 HD
ATOM     25  C   UNL A   1      39.162  32.065  34.875  1.00  0.00     0.031 A 
ATOM     26  C   UNL A   1      40.595  28.497  29.018  1.00  0.00     0.031 A 
ATOM     27  C   UNL A   1      38.290  32.339  33.761  1.00  0.00     0.049 A 
ATOM     28  C   UNL A   1      39.467  29.479  29.087  1.00  0.00     0.074 A 
ATOM     29  C   UNL A   1      37.220  33.215  33.697  1.00  0.00     0.029 A 
ATOM     30  N   UNL A   1      38.391  31.741  32.514  1.00  0.00    -0.354 N 
ATOM     31  N   UNL A   1      39.085  30.226  30.095  1.00  0.00    -0.248 NA
ATOM     32  C   UNL A   1      38.665  29.647  27.868  1.00  0.00     0.031 C 
ATOM     33  C   UNL A   1      36.649  33.118  32.423  1.00  0.00     0.029 A 
ATOM     34  C   UNL A   1      37.395  32.220  31.678  1.00  0.00     0.049 A 
ATOM     35  H   UNL A   1      39.069  31.074  32.260  1.00  0.00     0.167 HD
ATOM     36  C   UNL A   1      37.996  30.951  29.634  1.00  0.00     0.074 A 
ATOM     37  C   UNL A   1      37.808  30.584  28.244  1.00  0.00     0.031 C 
ATOM     38  C   UNL A   1      37.214  31.830  30.304  1.00  0.00     0.031 A 
BRANCH  25  39
ATOM     39  C   UNL A   1      38.909  32.792  36.167  1.00  0.00    -0.014 A 
ATOM     40  C   UNL A   1      39.488  34.045  36.422  1.00  0.00     0.009 A 
ATOM     41  C   UNL A   1      38.038  32.241  37.120  1.00  0.00     0.009 A 
ATOM     42  C   UNL A   1      39.217  34.720  37.615  1.00  0.00     0.001 A 
ATOM     43  C   UNL A   1      37.750  32.929  38.300  1.00  0.00     0.001 A 
ATOM     44  C   UNL A   1      38.344  34.164  38.550  1.00  0.00     0.000 A 
ENDBRANCH  25  39
BRANCH  26  45
ATOM     45  C   UNL A   1      40.892  27.748  27.771  1.00  0.00    -0.014 A 
ATOM     46  C   UNL A   1      41.803  28.246  26.828  1.00  0.00     0.009 A 
ATOM     47  C   UNL A   1      40.268  26.513  27.525  1.00  0.00     0.009 A 
ATOM     48  C   UNL A   1      42.066  27.534  25.656  1.00  0.00     0.001 A 
ATOM     49  C   UNL A   1      40.560  25.787  26.369  1.00  0.00     0.001 A 
ATOM     50  C   UNL A   1      41.450  26.303  25.431  1.00  0.00     0.000 A 
ENDBRANCH  26  45
BRANCH  38  51
ATOM     51  C   UNL A   1      36.093  32.455  29.527  1.00  0.00    -0.014 A 
ATOM     52  C   UNL A   1      34.907  31.749  29.273  1.00  0.00     0.009 A 
ATOM     53  C   UNL A   1      36.226  33.764  29.041  1.00  0.00     0.009 A 
ATOM     54  C   UNL A   1      33.892  32.327  28.508  1.00  0.00     0.001 A 
ATOM     55  C   UNL A   1      35.198  34.350  28.300  1.00  0.00     0.001 A 
ATOM     56  C   UNL A   1      34.038  33.627  28.025  1.00  0.00     0.000 A 
ENDBRANCH  38  51
ENDBRANCH  12  13
ENDBRANCH   5   7
ENDBRANCH   2   3
ENDBRANCH   1   2
BRANCH   1  57
ATOM     57  C   UNL A   1      47.057  26.297  31.562  1.00  0.00     0.117 C 
BRANCH  57  58
ATOM     58  N   UNL A   1      47.824  27.308  30.867  1.00  0.00    -0.354 N 
ATOM     59  C   UNL A   1      47.487  28.182  29.879  1.00  0.00     0.247 C 
ATOM     60  H   UNL A   1      48.760  27.376  31.162  1.00  0.00     0.163 HD
ATOM     61  O   UNL A   1      48.442  28.777  29.360  1.00  0.00    -0.272 OA
BRANCH  59  62
ATOM     62  C   UNL A   1      46.047  28.373  29.305  1.00  0.00     0.211 C 
BRANCH  62  63
ATOM     63  C   UNL A   1      45.343  29.629  29.852  1.00  0.00    -0.016 A 
ATOM     64  C   UNL A   1      45.817  30.321  30.981  1.00  0.00     0.006 A 
ATOM     65  C   UNL A   1      44.209  30.163  29.209  1.00  0.00     0.006 A 
ATOM     66  C   UNL A   1      45.078  31.356  31.562  1.00  0.00     0.000 A 
ATOM     67  C   UNL A   1      43.488  31.222  29.766  1.00  0.00     0.000 A 
ATOM     68  C   UNL A   1      43.900  31.791  30.965  1.00  0.00     0.000 A 
ENDBRANCH  62  63
BRANCH  62  69
ATOM     69  N   UNL A   1      45.996  28.116  27.835  1.00  0.00    -0.276 N 
ATOM     70  C   UNL A   1      45.505  26.943  27.296  1.00  0.00     0.267 C 
ATOM     71  C   UNL A   1      46.384  29.066  26.902  1.00  0.00     0.149 C 
ATOM     72  O   UNL A   1      44.905  26.062  27.904  1.00  0.00    -0.268 OA
ATOM     73  C   UNL A   1      45.734  26.881  25.829  1.00  0.00     0.084 C 
ATOM     74  S   UNL A   1      46.204  28.432  25.267  1.00  0.00    -0.054 SA
ATOM     75  S   UNL A   1      46.938  30.620  27.155  1.00  0.00    -0.052 S 
ATOM     76  C   UNL A   1      45.682  25.793  25.049  1.00  0.00     0.068 C 
BRANCH  76  77
ATOM     77  C   UNL A   1      45.434  24.495  25.568  1.00  0.00     0.128 A 
ATOM     78  C   UNL A   1      46.301  23.597  26.179  1.00  0.00     0.051 A 
ATOM     79  O   UNL A   1      44.196  23.900  25.501  1.00  0.00    -0.457 OA
ATOM     80  C   UNL A   1      45.582  22.408  26.432  1.00  0.00     0.051 A 
ATOM     81  C   UNL A   1      44.292  22.641  26.013  1.00  0.00     0.134 A 
BRANCH  81  82
ATOM     82  C   UNL A   1      43.070  21.854  26.037  1.00  0.00     0.017 A 
ATOM     83  C   UNL A   1      41.811  22.464  26.161  1.00  0.00     0.015 A 
ATOM     84  C   UNL A   1      43.140  20.456  25.929  1.00  0.00     0.015 A 
ATOM     85  C   UNL A   1      40.649  21.688  26.180  1.00  0.00     0.040 A 
ATOM     86  C   UNL A   1      41.980  19.681  25.960  1.00  0.00     0.040 A 
ATOM     87  C   UNL A   1      40.745  20.305  26.085  1.00  0.00     0.123 A 
ATOM     88  F   UNL A   1      39.632  19.560  26.114  1.00  0.00    -0.207 F 
ENDBRANCH  81  82
ENDBRANCH  76  77
ENDBRANCH  62  69
ENDBRANCH  59  62
ENDBRANCH  57  58
ENDBRANCH   1  57
TORSDOF 14
ENDMDL
MODEL 3
REMARK VINA RESULT:     -10.4      5.359     11.174
REMARK SMILES O=C(NCCCNC(=O)[C@@H](c1ccccc1)N1C(=O)/C(=C\c2ccc(-c3ccc(F)cc3)o2)SC1=S)c1ccc(-c2c3nc(c(-c4ccccc4)c4ccc([nH]4)c(-c4ccccc4)c4nc(c(-c5ccccc5)c5ccc2[nH]5)C=C4)C=C3)cc1
REMARK SMILES IDX 5 1 4 2 3 3 1 4 2 5 37 7 38 8 84 9 39 10 83 11 40 12 41 13
REMARK SMILES IDX 42 14 77 15 43 16 82 17 76 18 78 19 44 20 81 21 75 22 74 23
REMARK SMILES IDX 45 25 67 26 52 27 66 28 53 29 56 30 65 31 79 32 54 33 55 34
REMARK SMILES IDX 64 36 80 37 57 38 46 39 47 40 51 41 48 42 50 43 49 44 68 45
REMARK SMILES IDX 69 46 73 47 70 48 72 49 71 50 58 51 59 52 63 53 60 54 62 55
REMARK SMILES IDX 61 56 6 57 7 58 8 59 9 61 10 62 11 63 12 64 16 65 13 66
REMARK SMILES IDX 15 67 14 68 17 69 18 70 35 71 19 72 20 73 34 74 36 75 21 76
REMARK SMILES IDX 22 77 23 78 33 79 24 80 25 81 26 82 27 83 32 84 28 85 31 86
REMARK SMILES IDX 29 87 30 88
REMARK H PARENT 3 6 78 24 56 35 7 60
REMARK Flexibility Score: inf
ROOT
ATOM      1  C   UNL A   1      41.956  21.377  25.910  1.00  0.00     0.042 C 
ENDROOT
BRANCH   1   2
ATOM      2  C   UNL A   1      40.847  21.888  26.817  1.00  0.00     0.118 C 
BRANCH   2   3
ATOM      3  N   UNL A   1      39.643  22.239  26.066  1.00  0.00    -0.352 N 
ATOM      4  O   UNL A   1      37.719  23.306  25.598  1.00  0.00    -0.269 OA
ATOM      5  C   UNL A   1      38.814  23.331  26.153  1.00  0.00     0.251 C 
ATOM      6  H   UNL A   1      39.382  21.582  25.381  1.00  0.00     0.163 HD
BRANCH   5   7
ATOM      7  C   UNL A   1      39.226  24.530  26.913  1.00  0.00     0.039 A 
ATOM      8  C   UNL A   1      38.904  24.653  28.261  1.00  0.00     0.014 A 
ATOM      9  C   UNL A   1      39.981  25.529  26.287  1.00  0.00     0.014 A 
ATOM     10  C   UNL A   1      39.151  25.844  28.924  1.00  0.00     0.010 A 
ATOM     11  C   UNL A   1      40.357  26.673  27.002  1.00  0.00     0.010 A 
ATOM     12  C   UNL A   1      39.915  26.854  28.319  1.00  0.00    -0.014 A 
BRANCH  12  13
ATOM     13  C   UNL A   1      40.289  28.031  29.146  1.00  0.00     0.031 A 
ATOM     14  C   UNL A   1      41.669  28.188  29.720  1.00  0.00     0.074 A 
ATOM     15  C   UNL A   1      39.376  29.012  29.293  1.00  0.00     0.049 A 
ATOM     16  N   UNL A   1      42.171  29.211  30.368  1.00  0.00    -0.248 NA
ATOM     17  C   UNL A   1      42.602  27.064  29.559  1.00  0.00     0.031 C 
ATOM     18  C   UNL A   1      37.996  28.962  28.796  1.00  0.00     0.029 A 
ATOM     19  N   UNL A   1      39.479  30.263  29.848  1.00  0.00    -0.354 N 
ATOM     20  C   UNL A   1      43.468  28.847  30.707  1.00  0.00     0.074 A 
ATOM     21  C   UNL A   1      43.669  27.501  30.216  1.00  0.00     0.031 C 
ATOM     22  C   UNL A   1      37.417  30.155  28.978  1.00  0.00     0.029 A 
ATOM     23  C   UNL A   1      38.349  31.026  29.681  1.00  0.00     0.049 A 
ATOM     24  H   UNL A   1      40.284  30.581  30.317  1.00  0.00     0.167 HD
ATOM     25  C   UNL A   1      44.406  29.573  31.362  1.00  0.00     0.031 A 
ATOM     26  C   UNL A   1      38.080  32.288  30.059  1.00  0.00     0.031 A 
ATOM     27  C   UNL A   1      44.202  30.913  31.849  1.00  0.00     0.049 A 
ATOM     28  C   UNL A   1      39.138  33.064  30.782  1.00  0.00     0.074 A 
ATOM     29  C   UNL A   1      45.090  31.730  32.527  1.00  0.00     0.029 A 
ATOM     30  N   UNL A   1      43.026  31.635  31.705  1.00  0.00    -0.354 N 
ATOM     31  N   UNL A   1      40.361  32.703  31.086  1.00  0.00    -0.248 NA
ATOM     32  C   UNL A   1      38.777  34.419  31.218  1.00  0.00     0.031 C 
ATOM     33  C   UNL A   1      44.439  32.932  32.829  1.00  0.00     0.029 A 
ATOM     34  C   UNL A   1      43.162  32.883  32.293  1.00  0.00     0.049 A 
ATOM     35  H   UNL A   1      42.215  31.310  31.252  1.00  0.00     0.167 HD
ATOM     36  C   UNL A   1      40.916  33.785  31.753  1.00  0.00     0.074 A 
ATOM     37  C   UNL A   1      39.910  34.828  31.769  1.00  0.00     0.031 C 
ATOM     38  C   UNL A   1      42.144  33.900  32.313  1.00  0.00     0.031 A 
BRANCH  25  39
ATOM     39  C   UNL A   1      45.740  28.924  31.611  1.00  0.00    -0.014 A 
ATOM     40  C   UNL A   1      46.788  29.038  30.686  1.00  0.00     0.009 A 
ATOM     41  C   UNL A   1      45.968  28.236  32.813  1.00  0.00     0.009 A 
ATOM     42  C   UNL A   1      48.031  28.456  30.948  1.00  0.00     0.001 A 
ATOM     43  C   UNL A   1      47.218  27.675  33.084  1.00  0.00     0.001 A 
ATOM     44  C   UNL A   1      48.246  27.780  32.149  1.00  0.00     0.000 A 
ENDBRANCH  25  39
BRANCH  26  45
ATOM     45  C   UNL A   1      36.743  32.875  29.785  1.00  0.00    -0.014 A 
ATOM     46  C   UNL A   1      35.742  32.880  30.767  1.00  0.00     0.009 A 
ATOM     47  C   UNL A   1      36.469  33.449  28.532  1.00  0.00     0.009 A 
ATOM     48  C   UNL A   1      34.487  33.428  30.492  1.00  0.00     0.001 A 
ATOM     49  C   UNL A   1      35.225  34.027  28.273  1.00  0.00     0.001 A 
ATOM     50  C   UNL A   1      34.232  34.007  29.249  1.00  0.00     0.000 A 
ENDBRANCH  26  45
BRANCH  38  51
ATOM     51  C   UNL A   1      42.455  35.208  32.979  1.00  0.00    -0.014 A 
ATOM     52  C   UNL A   1      43.224  36.186  32.329  1.00  0.00     0.009 A 
ATOM     53  C   UNL A   1      41.977  35.463  34.273  1.00  0.00     0.009 A 
ATOM     54  C   UNL A   1      43.545  37.379  32.981  1.00  0.00     0.001 A 
ATOM     55  C   UNL A   1      42.276  36.668  34.911  1.00  0.00     0.001 A 
ATOM     56  C   UNL A   1      43.069  37.618  34.270  1.00  0.00     0.000 A 
ENDBRANCH  38  51
ENDBRANCH  12  13
ENDBRANCH   5   7
ENDBRANCH   2   3
ENDBRANCH   1   2
BRANCH   1  57
ATOM     57  C   UNL A   1      42.870  22.501  25.448  1.00  0.00     0.117 C 
BRANCH  57  58
ATOM     58  N   UNL A   1      44.268  22.230  25.707  1.00  0.00    -0.354 N 
ATOM     59  C   UNL A   1      45.248  22.986  26.273  1.00  0.00     0.247 C 
ATOM     60  H   UNL A   1      44.563  21.337  25.420  1.00  0.00     0.163 HD
ATOM     61  O   UNL A   1      46.394  22.529  26.155  1.00  0.00    -0.272 OA
BRANCH  59  62
ATOM     62  C   UNL A   1      45.035  24.391  26.918  1.00  0.00     0.211 C 
BRANCH  62  63
ATOM     63  C   UNL A   1      45.111  24.365  28.457  1.00  0.00    -0.016 A 
ATOM     64  C   UNL A   1      44.265  23.551  29.233  1.00  0.00     0.006 A 
ATOM     65  C   UNL A   1      46.069  25.129  29.150  1.00  0.00     0.006 A 
ATOM     66  C   UNL A   1      44.232  23.660  30.627  1.00  0.00     0.000 A 
ATOM     67  C   UNL A   1      46.064  25.212  30.545  1.00  0.00     0.000 A 
ATOM     68  C   UNL A   1      45.118  24.509  31.281  1.00  0.00     0.000 A 
ENDBRANCH  62  63
BRANCH  62  69
ATOM     69  N   UNL A   1      45.786  25.458  26.191  1.00  0.00    -0.276 N 
ATOM     70  C   UNL A   1      47.166  25.508  26.153  1.00  0.00     0.267 C 
ATOM     71  C   UNL A   1      45.147  26.441  25.451  1.00  0.00     0.149 C 
ATOM     72  O   UNL A   1      47.934  24.632  26.536  1.00  0.00    -0.268 OA
ATOM     73  C   UNL A   1      47.646  26.762  25.516  1.00  0.00     0.084 C 
ATOM     74  S   UNL A   1      46.328  27.537  24.736  1.00  0.00    -0.054 SA
ATOM     75  S   UNL A   1      43.515  26.659  25.182  1.00  0.00    -0.052 S 
ATOM     76  C   UNL A   1      48.877  27.286  25.589  1.00  0.00     0.068 C 
BRANCH  76  77
ATOM     77  C   UNL A   1      49.909  26.696  26.366  1.00  0.00     0.128 A 
ATOM     78  C   UNL A   1      51.073  26.053  25.963  1.00  0.00     0.051 A 
ATOM     79  O   UNL A   1      49.867  26.661  27.740  1.00  0.00    -0.457 OA
ATOM     80  C   UNL A   1      51.719  25.565  27.121  1.00  0.00     0.051 A 
ATOM     81  C   UNL A   1      50.953  25.972  28.189  1.00  0.00     0.134 A 
BRANCH  81  82
ATOM     82  C   UNL A   1      51.087  25.839  29.631  1.00  0.00     0.017 A 
ATOM     83  C   UNL A   1      50.201  25.046  30.377  1.00  0.00     0.015 A 
ATOM     84  C   UNL A   1      52.124  26.510  30.299  1.00  0.00     0.015 A 
ATOM     85  C   UNL A   1      50.349  24.931  31.762  1.00  0.00     0.040 A 
ATOM     86  C   UNL A   1      52.265  26.404  31.683  1.00  0.00     0.040 A 
ATOM     87  C   UNL A   1      51.376  25.615  32.402  1.00  0.00     0.123 A 
ATOM     88  F   UNL A   1      51.511  25.515  33.730  1.00  0.00    -0.207 F 
ENDBRANCH  81  82
ENDBRANCH  76  77
ENDBRANCH  62  69
ENDBRANCH  59  62
ENDBRANCH  57  58
ENDBRANCH   1  57
TORSDOF 14
ENDMDL
