MODEL 1
REMARK VINA RESULT:     -10.7      0.000      0.000
REMARK SMILES NS(=O)(=O)c1ccc(-n2nc(C(=O)NCCCCCCCCCCC(=O)NCCCNC(=O)c3ccc(-c4c5nc(c(-c6ccccc6)c6ccc([nH]6)c(-c6ccccc6)c6nc(c(-c7ccccc7)c7ccc4[nH]7)C=C6)C=C5)cc3)cc2-c2ccccc2)cc1
REMARK SMILES IDX 21 1 20 2 19 3 18 4 17 5 16 6 15 7 14 8 12 9 13 10 11 12
REMARK SMILES IDX 9 13 10 14 83 15 82 16 8 17 5 18 6 19 91 20 7 21 90 22 2 23
REMARK SMILES IDX 3 24 4 25 1 26 84 29 85 30 89 31 86 32 88 33 87 34 22 35
REMARK SMILES IDX 23 36 24 37 25 38 26 39 27 40 28 42 29 43 30 44 31 45 32 46
REMARK SMILES IDX 33 48 34 49 35 50 81 51 36 52 80 53 37 54 38 55 39 56 74 57
REMARK SMILES IDX 40 58 79 59 73 60 75 61 41 62 78 63 72 64 71 65 42 67 64 68
REMARK SMILES IDX 49 69 63 70 50 71 53 72 62 73 76 74 51 75 52 76 61 78 77 79
REMARK SMILES IDX 54 80 43 81 44 82 48 83 45 84 47 85 46 86 65 87 66 88 70 89
REMARK SMILES IDX 67 90 69 91 68 92 55 93 56 94 60 95 57 96 59 97 58 98
REMARK H PARENT 14 11 1 27 1 28 27 41 31 47 75 66 53 77
REMARK Flexibility Score: inf
ROOT
ATOM      1  C   UNL A   1      33.198  29.838  27.074  1.00  0.00     0.000 C 
ENDROOT
BRANCH   1   2
ATOM      2  C   UNL A   1      31.922  29.329  26.427  1.00  0.00     0.000 C 
BRANCH   2   3
ATOM      3  C   UNL A   1      31.369  30.296  25.381  1.00  0.00     0.000 C 
BRANCH   3   4
ATOM      4  C   UNL A   1      30.659  29.608  24.204  1.00  0.00     0.000 C 
BRANCH   4   5
ATOM      5  C   UNL A   1      30.734  28.074  24.233  1.00  0.00     0.002 C 
BRANCH   5   6
ATOM      6  C   UNL A   1      29.875  27.401  23.162  1.00  0.00     0.021 C 
BRANCH   6   7
ATOM      7  C   UNL A   1      29.701  25.911  23.437  1.00  0.00     0.116 C 
BRANCH   7   8
ATOM      8  N   UNL A   1      29.475  25.670  24.834  1.00  0.00    -0.351 N 
ATOM      9  C   UNL A   1      30.055  24.815  25.734  1.00  0.00     0.271 C 
ATOM     10  O   UNL A   1      29.552  24.819  26.862  1.00  0.00    -0.267 OA
ATOM     11  H   UNL A   1      28.764  26.231  25.222  1.00  0.00     0.163 HD
BRANCH   9  12
ATOM     12  C   UNL A   1      31.229  23.983  25.391  1.00  0.00     0.151 A 
ATOM     13  N   UNL A   1      32.295  22.144  25.078  1.00  0.00    -0.232 N 
ATOM     14  N   UNL A   1      31.056  22.667  25.151  1.00  0.00    -0.162 NA
ATOM     15  C   UNL A   1      33.279  23.109  25.097  1.00  0.00     0.075 A 
ATOM     16  C   UNL A   1      32.601  24.297  25.238  1.00  0.00     0.065 A 
BRANCH  13  17
ATOM     17  C   UNL A   1      32.484  20.761  24.895  1.00  0.00     0.065 A 
ATOM     18  C   UNL A   1      33.280  18.165  24.414  1.00  0.00     0.082 A 
ATOM     19  C   UNL A   1      33.352  18.672  25.715  1.00  0.00     0.024 A 
ATOM     20  C   UNL A   1      32.766  18.932  23.362  1.00  0.00     0.024 A 
ATOM     21  C   UNL A   1      32.960  19.983  25.957  1.00  0.00     0.030 A 
ATOM     22  C   UNL A   1      32.335  20.233  23.609  1.00  0.00     0.030 A 
BRANCH  18  23
ATOM     23  S   UNL A   1      33.894  16.532  24.149  1.00  0.00     0.238 S 
ATOM     24  O   UNL A   1      34.934  16.276  25.099  1.00  0.00    -0.207 OA
ATOM     25  O   UNL A   1      34.068  16.348  22.716  1.00  0.00    -0.207 OA
BRANCH  23  26
ATOM     26  N   UNL A   1      32.616  15.525  24.565  1.00  0.00    -0.225 NA
ATOM     27  H   UNL A   1      32.824  15.059  25.449  1.00  0.00     0.137 HD
ATOM     28  H   UNL A   1      32.482  14.826  23.835  1.00  0.00     0.137 HD
ENDBRANCH  23  26
ENDBRANCH  18  23
ENDBRANCH  13  17
BRANCH  15  29
ATOM     29  C   UNL A   1      34.707  22.922  24.867  1.00  0.00     0.000 A 
ATOM     30  C   UNL A   1      35.253  23.074  23.587  1.00  0.00     0.010 A 
ATOM     31  C   UNL A   1      35.553  22.636  25.945  1.00  0.00     0.010 A 
ATOM     32  C   UNL A   1      36.624  22.916  23.385  1.00  0.00     0.001 A 
ATOM     33  C   UNL A   1      36.925  22.485  25.742  1.00  0.00     0.001 A 
ATOM     34  C   UNL A   1      37.458  22.622  24.462  1.00  0.00     0.000 A 
ENDBRANCH  15  29
ENDBRANCH   9  12
ENDBRANCH   7   8
ENDBRANCH   6   7
ENDBRANCH   5   6
ENDBRANCH   4   5
ENDBRANCH   3   4
ENDBRANCH   2   3
ENDBRANCH   1   2
BRANCH   1  35
ATOM     35  C   UNL A   1      33.240  31.365  27.194  1.00  0.00     0.001 C 
BRANCH  35  36
ATOM     36  C   UNL A   1      34.079  31.853  28.363  1.00  0.00     0.010 C 
BRANCH  36  37
ATOM     37  C   UNL A   1      35.145  32.884  27.994  1.00  0.00     0.100 C 
BRANCH  37  38
ATOM     38  C   UNL A   1      34.912  34.247  28.613  1.00  0.00     0.219 C 
ATOM     39  O   UNL A   1      34.564  35.199  27.910  1.00  0.00    -0.275 OA
ATOM     40  N   UNL A   1      35.078  34.476  29.949  1.00  0.00    -0.356 N 
ATOM     41  H   UNL A   1      34.961  35.417  30.212  1.00  0.00     0.163 HD
BRANCH  40  42
ATOM     42  C   UNL A   1      35.398  33.583  31.062  1.00  0.00     0.117 C 
BRANCH  42  43
ATOM     43  C   UNL A   1      36.908  33.320  31.241  1.00  0.00     0.042 C 
BRANCH  43  44
ATOM     44  C   UNL A   1      37.258  31.874  31.497  1.00  0.00     0.118 C 
BRANCH  44  45
ATOM     45  N   UNL A   1      36.413  30.909  30.784  1.00  0.00    -0.352 N 
ATOM     46  C   UNL A   1      36.821  29.904  29.909  1.00  0.00     0.251 C 
ATOM     47  H   UNL A   1      35.444  30.979  30.943  1.00  0.00     0.163 HD
ATOM     48  O   UNL A   1      36.049  29.433  29.083  1.00  0.00    -0.269 OA
BRANCH  46  49
ATOM     49  C   UNL A   1      38.214  29.418  29.995  1.00  0.00     0.039 A 
ATOM     50  C   UNL A   1      38.629  28.292  30.709  1.00  0.00     0.014 A 
ATOM     51  C   UNL A   1      39.128  30.099  29.225  1.00  0.00     0.014 A 
ATOM     52  C   UNL A   1      39.967  27.904  30.586  1.00  0.00     0.010 A 
ATOM     53  C   UNL A   1      40.138  29.364  28.705  1.00  0.00     0.010 A 
ATOM     54  C   UNL A   1      40.733  28.488  29.569  1.00  0.00    -0.014 A 
BRANCH  54  55
ATOM     55  C   UNL A   1      42.112  28.163  29.255  1.00  0.00     0.031 A 
ATOM     56  C   UNL A   1      42.231  26.985  28.385  1.00  0.00     0.074 A 
ATOM     57  C   UNL A   1      43.162  28.977  29.515  1.00  0.00     0.049 A 
ATOM     58  N   UNL A   1      42.504  25.784  28.758  1.00  0.00    -0.248 NA
ATOM     59  C   UNL A   1      41.781  27.103  26.989  1.00  0.00     0.031 C 
ATOM     60  C   UNL A   1      43.178  30.350  30.051  1.00  0.00     0.029 A 
ATOM     61  N   UNL A   1      44.480  28.759  29.264  1.00  0.00    -0.354 N 
ATOM     62  C   UNL A   1      42.511  25.032  27.594  1.00  0.00     0.074 A 
ATOM     63  C   UNL A   1      41.825  25.825  26.605  1.00  0.00     0.031 C 
ATOM     64  C   UNL A   1      44.406  30.897  29.881  1.00  0.00     0.029 A 
ATOM     65  C   UNL A   1      45.306  29.871  29.389  1.00  0.00     0.049 A 
ATOM     66  H   UNL A   1      44.827  27.873  29.008  1.00  0.00     0.167 HD
ATOM     67  C   UNL A   1      43.352  23.971  27.465  1.00  0.00     0.031 A 
ATOM     68  C   UNL A   1      46.631  29.931  29.096  1.00  0.00     0.031 A 
ATOM     69  C   UNL A   1      43.941  23.617  28.738  1.00  0.00     0.049 A 
ATOM     70  C   UNL A   1      47.136  28.538  29.094  1.00  0.00     0.074 A 
ATOM     71  C   UNL A   1      43.443  23.236  29.970  1.00  0.00     0.029 A 
ATOM     72  N   UNL A   1      45.218  24.075  28.974  1.00  0.00    -0.354 N 
ATOM     73  N   UNL A   1      47.197  27.801  30.167  1.00  0.00    -0.248 NA
ATOM     74  C   UNL A   1      47.111  27.807  27.837  1.00  0.00     0.031 C 
ATOM     75  C   UNL A   1      44.252  23.923  30.923  1.00  0.00     0.029 A 
ATOM     76  C   UNL A   1      45.255  24.611  30.236  1.00  0.00     0.049 A 
ATOM     77  H   UNL A   1      45.975  24.027  28.345  1.00  0.00     0.167 HD
ATOM     78  C   UNL A   1      46.758  26.549  29.760  1.00  0.00     0.074 A 
ATOM     79  C   UNL A   1      46.817  26.587  28.297  1.00  0.00     0.031 C 
ATOM     80  C   UNL A   1      46.111  25.713  30.626  1.00  0.00     0.031 A 
BRANCH  67  81
ATOM     81  C   UNL A   1      43.991  23.572  26.159  1.00  0.00    -0.014 A 
ATOM     82  C   UNL A   1      43.887  22.230  25.753  1.00  0.00     0.009 A 
ATOM     83  C   UNL A   1      44.911  24.373  25.457  1.00  0.00     0.009 A 
ATOM     84  C   UNL A   1      44.724  21.702  24.766  1.00  0.00     0.001 A 
ATOM     85  C   UNL A   1      45.720  23.860  24.443  1.00  0.00     0.001 A 
ATOM     86  C   UNL A   1      45.649  22.514  24.119  1.00  0.00     0.000 A 
ENDBRANCH  67  81
BRANCH  68  87
ATOM     87  C   UNL A   1      47.426  31.052  28.544  1.00  0.00    -0.014 A 
ATOM     88  C   UNL A   1      48.765  31.246  28.928  1.00  0.00     0.009 A 
ATOM     89  C   UNL A   1      46.966  31.751  27.415  1.00  0.00     0.009 A 
ATOM     90  C   UNL A   1      49.620  32.069  28.180  1.00  0.00     0.001 A 
ATOM     91  C   UNL A   1      47.821  32.571  26.667  1.00  0.00     0.001 A 
ATOM     92  C   UNL A   1      49.152  32.717  27.039  1.00  0.00     0.000 A 
ENDBRANCH  68  87
BRANCH  80  93
ATOM     93  C   UNL A   1      46.092  26.092  32.090  1.00  0.00    -0.014 A 
ATOM     94  C   UNL A   1      45.409  27.213  32.595  1.00  0.00     0.009 A 
ATOM     95  C   UNL A   1      46.659  25.195  33.007  1.00  0.00     0.009 A 
ATOM     96  C   UNL A   1      45.319  27.439  33.974  1.00  0.00     0.001 A 
ATOM     97  C   UNL A   1      46.553  25.409  34.383  1.00  0.00     0.001 A 
ATOM     98  C   UNL A   1      45.888  26.533  34.867  1.00  0.00     0.000 A 
ENDBRANCH  80  93
ENDBRANCH  54  55
ENDBRANCH  46  49
ENDBRANCH  44  45
ENDBRANCH  43  44
ENDBRANCH  42  43
ENDBRANCH  40  42
ENDBRANCH  37  38
ENDBRANCH  36  37
ENDBRANCH  35  36
ENDBRANCH   1  35
TORSDOF 25
ENDMDL
MODEL 2
REMARK VINA RESULT:     -10.1      1.277      1.735
REMARK SMILES NS(=O)(=O)c1ccc(-n2nc(C(=O)NCCCCCCCCCCC(=O)NCCCNC(=O)c3ccc(-c4c5nc(c(-c6ccccc6)c6ccc([nH]6)c(-c6ccccc6)c6nc(c(-c7ccccc7)c7ccc4[nH]7)C=C6)C=C5)cc3)cc2-c2ccccc2)cc1
REMARK SMILES IDX 21 1 20 2 19 3 18 4 17 5 16 6 15 7 14 8 12 9 13 10 11 12
REMARK SMILES IDX 9 13 10 14 83 15 82 16 8 17 5 18 6 19 91 20 7 21 90 22 2 23
REMARK SMILES IDX 3 24 4 25 1 26 84 29 85 30 89 31 86 32 88 33 87 34 22 35
REMARK SMILES IDX 23 36 24 37 25 38 26 39 27 40 28 42 29 43 30 44 31 45 32 46
REMARK SMILES IDX 33 48 34 49 35 50 81 51 36 52 80 53 37 54 38 55 39 56 74 57
REMARK SMILES IDX 40 58 79 59 73 60 75 61 41 62 78 63 72 64 71 65 42 67 64 68
REMARK SMILES IDX 49 69 63 70 50 71 53 72 62 73 76 74 51 75 52 76 61 78 77 79
REMARK SMILES IDX 54 80 43 81 44 82 48 83 45 84 47 85 46 86 65 87 66 88 70 89
REMARK SMILES IDX 67 90 69 91 68 92 55 93 56 94 60 95 57 96 59 97 58 98
REMARK H PARENT 14 11 1 27 1 28 27 41 31 47 75 66 53 77
REMARK Flexibility Score: inf
ROOT
ATOM      1  C   UNL A   1      33.598  29.744  26.815  1.00  0.00     0.000 C 
ENDROOT
BRANCH   1   2
ATOM      2  C   UNL A   1      32.241  29.209  26.396  1.00  0.00     0.000 C 
BRANCH   2   3
ATOM      3  C   UNL A   1      31.465  30.196  25.524  1.00  0.00     0.000 C 
BRANCH   3   4
ATOM      4  C   UNL A   1      30.696  29.539  24.366  1.00  0.00     0.000 C 
BRANCH   4   5
ATOM      5  C   UNL A   1      30.697  28.004  24.400  1.00  0.00     0.002 C 
BRANCH   5   6
ATOM      6  C   UNL A   1      29.880  27.369  23.275  1.00  0.00     0.021 C 
BRANCH   6   7
ATOM      7  C   UNL A   1      29.714  25.866  23.481  1.00  0.00     0.116 C 
BRANCH   7   8
ATOM      8  N   UNL A   1      29.508  25.558  24.868  1.00  0.00    -0.351 N 
ATOM      9  C   UNL A   1      30.196  24.775  25.757  1.00  0.00     0.271 C 
ATOM     10  O   UNL A   1      29.684  24.675  26.876  1.00  0.00    -0.267 OA
ATOM     11  H   UNL A   1      28.717  25.998  25.258  1.00  0.00     0.163 HD
BRANCH   9  12
ATOM     12  C   UNL A   1      31.485  24.133  25.413  1.00  0.00     0.151 A 
ATOM     13  N   UNL A   1      32.782  22.488  24.940  1.00  0.00    -0.232 N 
ATOM     14  N   UNL A   1      31.489  22.861  24.965  1.00  0.00    -0.162 NA
ATOM     15  C   UNL A   1      33.641  23.534  25.200  1.00  0.00     0.075 A 
ATOM     16  C   UNL A   1      32.818  24.609  25.447  1.00  0.00     0.065 A 
BRANCH  13  17
ATOM     17  C   UNL A   1      33.147  21.178  24.574  1.00  0.00     0.065 A 
ATOM     18  C   UNL A   1      33.666  18.489  24.249  1.00  0.00     0.082 A 
ATOM     19  C   UNL A   1      32.521  19.041  23.664  1.00  0.00     0.024 A 
ATOM     20  C   UNL A   1      34.577  19.285  24.953  1.00  0.00     0.024 A 
ATOM     21  C   UNL A   1      32.254  20.394  23.835  1.00  0.00     0.030 A 
ATOM     22  C   UNL A   1      34.332  20.649  25.092  1.00  0.00     0.030 A 
BRANCH  18  23
ATOM     23  S   UNL A   1      33.893  16.747  24.090  1.00  0.00     0.238 S 
ATOM     24  O   UNL A   1      34.949  16.342  24.967  1.00  0.00    -0.207 OA
ATOM     25  O   UNL A   1      33.875  16.423  22.671  1.00  0.00    -0.207 OA
BRANCH  23  26
ATOM     26  N   UNL A   1      32.483  16.076  24.706  1.00  0.00    -0.225 NA
ATOM     27  H   UNL A   1      32.353  15.141  24.318  1.00  0.00     0.137 HD
ATOM     28  H   UNL A   1      31.688  16.663  24.454  1.00  0.00     0.137 HD
ENDBRANCH  23  26
ENDBRANCH  18  23
ENDBRANCH  13  17
BRANCH  15  29
ATOM     29  C   UNL A   1      35.095  23.535  25.089  1.00  0.00     0.000 A 
ATOM     30  C   UNL A   1      35.901  23.658  26.228  1.00  0.00     0.010 A 
ATOM     31  C   UNL A   1      35.697  23.362  23.837  1.00  0.00     0.010 A 
ATOM     32  C   UNL A   1      37.290  23.634  26.110  1.00  0.00     0.001 A 
ATOM     33  C   UNL A   1      37.087  23.331  23.723  1.00  0.00     0.001 A 
ATOM     34  C   UNL A   1      37.882  23.471  24.859  1.00  0.00     0.000 A 
ENDBRANCH  15  29
ENDBRANCH   9  12
ENDBRANCH   7   8
ENDBRANCH   6   7
ENDBRANCH   5   6
ENDBRANCH   4   5
ENDBRANCH   3   4
ENDBRANCH   2   3
ENDBRANCH   1   2
BRANCH   1  35
ATOM     35  C   UNL A   1      33.535  31.175  27.361  1.00  0.00     0.001 C 
BRANCH  35  36
ATOM     36  C   UNL A   1      34.572  31.454  28.437  1.00  0.00     0.010 C 
BRANCH  36  37
ATOM     37  C   UNL A   1      35.559  32.570  28.093  1.00  0.00     0.100 C 
BRANCH  37  38
ATOM     38  C   UNL A   1      35.062  33.954  28.463  1.00  0.00     0.219 C 
ATOM     39  O   UNL A   1      34.719  34.747  27.582  1.00  0.00    -0.275 OA
ATOM     40  N   UNL A   1      34.982  34.374  29.759  1.00  0.00    -0.356 N 
ATOM     41  H   UNL A   1      34.709  35.315  29.858  1.00  0.00     0.163 HD
BRANCH  40  42
ATOM     42  C   UNL A   1      35.225  33.688  31.027  1.00  0.00     0.117 C 
BRANCH  42  43
ATOM     43  C   UNL A   1      36.628  33.939  31.616  1.00  0.00     0.042 C 
BRANCH  43  44
ATOM     44  C   UNL A   1      37.184  32.780  32.408  1.00  0.00     0.118 C 
BRANCH  44  45
ATOM     45  N   UNL A   1      36.407  31.540  32.296  1.00  0.00    -0.352 N 
ATOM     46  C   UNL A   1      36.756  30.376  31.613  1.00  0.00     0.251 C 
ATOM     47  H   UNL A   1      35.537  31.528  32.758  1.00  0.00     0.163 HD
ATOM     48  O   UNL A   1      35.902  29.577  31.250  1.00  0.00    -0.269 OA
BRANCH  46  49
ATOM     49  C   UNL A   1      38.184  30.127  31.330  1.00  0.00     0.039 A 
ATOM     50  C   UNL A   1      39.044  29.378  32.136  1.00  0.00     0.014 A 
ATOM     51  C   UNL A   1      38.643  30.608  30.125  1.00  0.00     0.014 A 
ATOM     52  C   UNL A   1      40.337  29.141  31.660  1.00  0.00     0.010 A 
ATOM     53  C   UNL A   1      39.596  29.870  29.511  1.00  0.00     0.010 A 
ATOM     54  C   UNL A   1      40.608  29.428  30.315  1.00  0.00    -0.014 A 
BRANCH  54  55
ATOM     55  C   UNL A   1      41.867  29.188  29.635  1.00  0.00     0.031 A 
ATOM     56  C   UNL A   1      41.915  27.873  28.981  1.00  0.00     0.074 A 
ATOM     57  C   UNL A   1      42.801  30.142  29.407  1.00  0.00     0.049 A 
ATOM     58  N   UNL A   1      42.477  26.810  29.442  1.00  0.00    -0.248 NA
ATOM     59  C   UNL A   1      41.063  27.650  27.803  1.00  0.00     0.031 C 
ATOM     60  C   UNL A   1      42.749  31.590  29.674  1.00  0.00     0.029 A 
ATOM     61  N   UNL A   1      44.004  30.013  28.788  1.00  0.00    -0.354 N 
ATOM     62  C   UNL A   1      42.264  25.838  28.479  1.00  0.00     0.074 A 
ATOM     63  C   UNL A   1      41.199  26.332  27.643  1.00  0.00     0.031 C 
ATOM     64  C   UNL A   1      43.767  32.214  29.032  1.00  0.00     0.029 A 
ATOM     65  C   UNL A   1      44.637  31.206  28.456  1.00  0.00     0.049 A 
ATOM     66  H   UNL A   1      44.400  29.134  28.586  1.00  0.00     0.167 HD
ATOM     67  C   UNL A   1      43.191  24.865  28.266  1.00  0.00     0.031 A 
ATOM     68  C   UNL A   1      45.790  31.340  27.750  1.00  0.00     0.031 A 
ATOM     69  C   UNL A   1      44.178  24.847  29.323  1.00  0.00     0.049 A 
ATOM     70  C   UNL A   1      46.492  30.036  27.818  1.00  0.00     0.074 A 
ATOM     71  C   UNL A   1      44.132  24.682  30.695  1.00  0.00     0.029 A 
ATOM     72  N   UNL A   1      45.375  25.474  29.059  1.00  0.00    -0.354 N 
ATOM     73  N   UNL A   1      46.984  29.549  28.922  1.00  0.00    -0.248 NA
ATOM     74  C   UNL A   1      46.218  29.061  26.774  1.00  0.00     0.031 C 
ATOM     75  C   UNL A   1      45.063  25.632  31.212  1.00  0.00     0.029 A 
ATOM     76  C   UNL A   1      45.694  26.261  30.136  1.00  0.00     0.049 A 
ATOM     77  H   UNL A   1      45.911  25.373  28.239  1.00  0.00     0.167 HD
ATOM     78  C   UNL A   1      46.654  28.202  28.890  1.00  0.00     0.074 A 
ATOM     79  C   UNL A   1      46.274  27.940  27.500  1.00  0.00     0.031 C 
ATOM     80  C   UNL A   1      46.435  27.502  30.044  1.00  0.00     0.031 A 
BRANCH  67  81
ATOM     81  C   UNL A   1      43.475  24.271  26.909  1.00  0.00    -0.014 A 
ATOM     82  C   UNL A   1      43.472  22.871  26.786  1.00  0.00     0.009 A 
ATOM     83  C   UNL A   1      44.007  24.998  25.828  1.00  0.00     0.009 A 
ATOM     84  C   UNL A   1      44.057  22.236  25.686  1.00  0.00     0.001 A 
ATOM     85  C   UNL A   1      44.555  24.370  24.709  1.00  0.00     0.001 A 
ATOM     86  C   UNL A   1      44.608  22.986  24.653  1.00  0.00     0.000 A 
ENDBRANCH  67  81
BRANCH  68  87
ATOM     87  C   UNL A   1      46.195  32.397  26.794  1.00  0.00    -0.014 A 
ATOM     88  C   UNL A   1      45.232  33.137  26.085  1.00  0.00     0.009 A 
ATOM     89  C   UNL A   1      47.513  32.884  26.803  1.00  0.00     0.009 A 
ATOM     90  C   UNL A   1      45.569  34.342  25.451  1.00  0.00     0.001 A 
ATOM     91  C   UNL A   1      47.849  34.089  26.172  1.00  0.00     0.001 A 
ATOM     92  C   UNL A   1      46.874  34.827  25.510  1.00  0.00     0.000 A 
ENDBRANCH  68  87
BRANCH  80  93
ATOM     93  C   UNL A   1      46.786  28.174  31.353  1.00  0.00    -0.014 A 
ATOM     94  C   UNL A   1      45.933  29.072  32.019  1.00  0.00     0.009 A 
ATOM     95  C   UNL A   1      47.956  27.764  32.008  1.00  0.00     0.009 A 
ATOM     96  C   UNL A   1      46.256  29.561  33.291  1.00  0.00     0.001 A 
ATOM     97  C   UNL A   1      48.269  28.236  33.284  1.00  0.00     0.001 A 
ATOM     98  C   UNL A   1      47.423  29.138  33.924  1.00  0.00     0.000 A 
ENDBRANCH  80  93
ENDBRANCH  54  55
ENDBRANCH  46  49
ENDBRANCH  44  45
ENDBRANCH  43  44
ENDBRANCH  42  43
ENDBRANCH  40  42
ENDBRANCH  37  38
ENDBRANCH  36  37
ENDBRANCH  35  36
ENDBRANCH   1  35
TORSDOF 25
ENDMDL
MODEL 3
REMARK VINA RESULT:      -9.3      2.422      6.032
REMARK SMILES NS(=O)(=O)c1ccc(-n2nc(C(=O)NCCCCCCCCCCC(=O)NCCCNC(=O)c3ccc(-c4c5nc(c(-c6ccccc6)c6ccc([nH]6)c(-c6ccccc6)c6nc(c(-c7ccccc7)c7ccc4[nH]7)C=C6)C=C5)cc3)cc2-c2ccccc2)cc1
REMARK SMILES IDX 21 1 20 2 19 3 18 4 17 5 16 6 15 7 14 8 12 9 13 10 11 12
REMARK SMILES IDX 9 13 10 14 83 15 82 16 8 17 5 18 6 19 91 20 7 21 90 22 2 23
REMARK SMILES IDX 3 24 4 25 1 26 84 29 85 30 89 31 86 32 88 33 87 34 22 35
REMARK SMILES IDX 23 36 24 37 25 38 26 39 27 40 28 42 29 43 30 44 31 45 32 46
REMARK SMILES IDX 33 48 34 49 35 50 81 51 36 52 80 53 37 54 38 55 39 56 74 57
REMARK SMILES IDX 40 58 79 59 73 60 75 61 41 62 78 63 72 64 71 65 42 67 64 68
REMARK SMILES IDX 49 69 63 70 50 71 53 72 62 73 76 74 51 75 52 76 61 78 77 79
REMARK SMILES IDX 54 80 43 81 44 82 48 83 45 84 47 85 46 86 65 87 66 88 70 89
REMARK SMILES IDX 67 90 69 91 68 92 55 93 56 94 60 95 57 96 59 97 58 98
REMARK H PARENT 14 11 1 27 1 28 27 41 31 47 75 66 53 77
REMARK Flexibility Score: inf
ROOT
ATOM      1  C   UNL A   1      33.604  29.644  26.692  1.00  0.00     0.000 C 
ENDROOT
BRANCH   1   2
ATOM      2  C   UNL A   1      32.297  29.079  26.166  1.00  0.00     0.000 C 
BRANCH   2   3
ATOM      3  C   UNL A   1      31.390  30.155  25.569  1.00  0.00     0.000 C 
BRANCH   3   4
ATOM      4  C   UNL A   1      30.792  29.784  24.203  1.00  0.00     0.000 C 
BRANCH   4   5
ATOM      5  C   UNL A   1      31.237  28.414  23.672  1.00  0.00     0.002 C 
BRANCH   5   6
ATOM      6  C   UNL A   1      30.119  27.640  22.971  1.00  0.00     0.021 C 
BRANCH   6   7
ATOM      7  C   UNL A   1      30.080  26.182  23.419  1.00  0.00     0.116 C 
BRANCH   7   8
ATOM      8  N   UNL A   1      29.635  26.075  24.780  1.00  0.00    -0.351 N 
ATOM      9  C   UNL A   1      29.873  25.153  25.765  1.00  0.00     0.271 C 
ATOM     10  O   UNL A   1      29.254  25.336  26.817  1.00  0.00    -0.267 OA
ATOM     11  H   UNL A   1      29.042  26.811  25.061  1.00  0.00     0.163 HD
BRANCH   9  12
ATOM     12  C   UNL A   1      30.838  24.045  25.594  1.00  0.00     0.151 A 
ATOM     13  N   UNL A   1      32.791  23.156  25.478  1.00  0.00    -0.232 N 
ATOM     14  N   UNL A   1      32.129  24.237  25.932  1.00  0.00    -0.162 NA
ATOM     15  C   UNL A   1      31.943  22.180  24.999  1.00  0.00     0.075 A 
ATOM     16  C   UNL A   1      30.684  22.718  25.124  1.00  0.00     0.065 A 
BRANCH  13  17
ATOM     17  C   UNL A   1      34.189  23.058  25.610  1.00  0.00     0.065 A 
ATOM     18  C   UNL A   1      36.901  23.279  26.060  1.00  0.00     0.082 A 
ATOM     19  C   UNL A   1      36.102  22.621  27.001  1.00  0.00     0.024 A 
ATOM     20  C   UNL A   1      36.357  23.783  24.873  1.00  0.00     0.024 A 
ATOM     21  C   UNL A   1      34.734  22.517  26.780  1.00  0.00     0.030 A 
ATOM     22  C   UNL A   1      34.993  23.645  24.630  1.00  0.00     0.030 A 
BRANCH  18  23
ATOM     23  S   UNL A   1      38.610  23.474  26.448  1.00  0.00     0.238 S 
ATOM     24  O   UNL A   1      39.304  22.280  26.071  1.00  0.00    -0.207 OA
ATOM     25  O   UNL A   1      38.702  24.057  27.779  1.00  0.00    -0.207 OA
BRANCH  23  26
ATOM     26  N   UNL A   1      39.147  24.679  25.409  1.00  0.00    -0.225 NA
ATOM     27  H   UNL A   1      38.559  24.695  24.574  1.00  0.00     0.137 HD
ATOM     28  H   UNL A   1      40.113  24.493  25.141  1.00  0.00     0.137 HD
ENDBRANCH  23  26
ENDBRANCH  18  23
ENDBRANCH  13  17
BRANCH  15  29
ATOM     29  C   UNL A   1      32.294  20.824  24.592  1.00  0.00     0.000 A 
ATOM     30  C   UNL A   1      32.206  20.433  23.250  1.00  0.00     0.010 A 
ATOM     31  C   UNL A   1      32.773  19.915  25.542  1.00  0.00     0.010 A 
ATOM     32  C   UNL A   1      32.568  19.140  22.870  1.00  0.00     0.001 A 
ATOM     33  C   UNL A   1      33.140  18.625  25.160  1.00  0.00     0.001 A 
ATOM     34  C   UNL A   1      33.034  18.238  23.825  1.00  0.00     0.000 A 
ENDBRANCH  15  29
ENDBRANCH   9  12
ENDBRANCH   7   8
ENDBRANCH   6   7
ENDBRANCH   5   6
ENDBRANCH   4   5
ENDBRANCH   3   4
ENDBRANCH   2   3
ENDBRANCH   1   2
BRANCH   1  35
ATOM     35  C   UNL A   1      33.460  31.064  27.251  1.00  0.00     0.001 C 
BRANCH  35  36
ATOM     36  C   UNL A   1      34.706  31.557  27.968  1.00  0.00     0.010 C 
BRANCH  36  37
ATOM     37  C   UNL A   1      34.885  33.075  27.960  1.00  0.00     0.100 C 
BRANCH  37  38
ATOM     38  C   UNL A   1      33.788  33.819  28.693  1.00  0.00     0.219 C 
ATOM     39  O   UNL A   1      32.767  34.170  28.096  1.00  0.00    -0.275 OA
ATOM     40  N   UNL A   1      33.884  34.132  30.019  1.00  0.00    -0.356 N 
ATOM     41  H   UNL A   1      33.136  34.675  30.357  1.00  0.00     0.163 HD
BRANCH  40  42
ATOM     42  C   UNL A   1      34.890  33.812  31.030  1.00  0.00     0.117 C 
BRANCH  42  43
ATOM     43  C   UNL A   1      34.828  32.356  31.536  1.00  0.00     0.042 C 
BRANCH  43  44
ATOM     44  C   UNL A   1      36.155  31.803  31.997  1.00  0.00     0.118 C 
BRANCH  44  45
ATOM     45  N   UNL A   1      36.620  32.335  33.284  1.00  0.00    -0.352 N 
ATOM     46  C   UNL A   1      37.478  31.724  34.197  1.00  0.00     0.251 C 
ATOM     47  H   UNL A   1      36.288  33.228  33.531  1.00  0.00     0.163 HD
ATOM     48  O   UNL A   1      37.484  32.055  35.377  1.00  0.00    -0.269 OA
BRANCH  46  49
ATOM     49  C   UNL A   1      38.382  30.660  33.713  1.00  0.00     0.039 A 
ATOM     50  C   UNL A   1      37.972  29.484  33.082  1.00  0.00     0.014 A 
ATOM     51  C   UNL A   1      39.727  30.927  33.827  1.00  0.00     0.014 A 
ATOM     52  C   UNL A   1      38.965  28.638  32.579  1.00  0.00     0.010 A 
ATOM     53  C   UNL A   1      40.520  30.429  32.851  1.00  0.00     0.010 A 
ATOM     54  C   UNL A   1      40.273  29.133  32.496  1.00  0.00    -0.014 A 
BRANCH  54  55
ATOM     55  C   UNL A   1      41.413  28.424  31.945  1.00  0.00     0.031 A 
ATOM     56  C   UNL A   1      42.459  28.171  32.945  1.00  0.00     0.074 A 
ATOM     57  C   UNL A   1      41.425  27.839  30.723  1.00  0.00     0.049 A 
ATOM     58  N   UNL A   1      43.536  28.855  33.115  1.00  0.00    -0.248 NA
ATOM     59  C   UNL A   1      42.179  27.200  34.014  1.00  0.00     0.031 C 
ATOM     60  C   UNL A   1      40.336  27.685  29.744  1.00  0.00     0.029 A 
ATOM     61  N   UNL A   1      42.440  27.161  30.124  1.00  0.00    -0.354 N 
ATOM     62  C   UNL A   1      44.201  28.236  34.161  1.00  0.00     0.074 A 
ATOM     63  C   UNL A   1      43.221  27.409  34.820  1.00  0.00     0.031 C 
ATOM     64  C   UNL A   1      40.695  26.791  28.791  1.00  0.00     0.029 A 
ATOM     65  C   UNL A   1      42.089  26.440  28.988  1.00  0.00     0.049 A 
ATOM     66  H   UNL A   1      43.362  27.179  30.471  1.00  0.00     0.167 HD
ATOM     67  C   UNL A   1      45.560  28.216  34.197  1.00  0.00     0.031 A 
ATOM     68  C   UNL A   1      42.895  25.610  28.276  1.00  0.00     0.031 A 
ATOM     69  C   UNL A   1      46.120  29.127  33.223  1.00  0.00     0.049 A 
ATOM     70  C   UNL A   1      44.293  25.975  28.610  1.00  0.00     0.074 A 
ATOM     71  C   UNL A   1      46.019  30.486  32.991  1.00  0.00     0.029 A 
ATOM     72  N   UNL A   1      46.552  28.574  32.038  1.00  0.00    -0.354 N 
ATOM     73  N   UNL A   1      44.830  27.115  28.280  1.00  0.00    -0.248 NA
ATOM     74  C   UNL A   1      44.928  25.287  29.724  1.00  0.00     0.031 C 
ATOM     75  C   UNL A   1      45.932  30.612  31.572  1.00  0.00     0.029 A 
ATOM     76  C   UNL A   1      46.075  29.343  31.007  1.00  0.00     0.049 A 
ATOM     77  H   UNL A   1      47.107  27.765  31.947  1.00  0.00     0.167 HD
ATOM     78  C   UNL A   1      45.551  27.502  29.400  1.00  0.00     0.074 A 
ATOM     79  C   UNL A   1      45.657  26.292  30.218  1.00  0.00     0.031 C 
ATOM     80  C   UNL A   1      45.734  28.824  29.698  1.00  0.00     0.031 A 
BRANCH  67  81
ATOM     81  C   UNL A   1      46.359  27.063  34.752  1.00  0.00    -0.014 A 
ATOM     82  C   UNL A   1      46.495  25.910  33.959  1.00  0.00     0.009 A 
ATOM     83  C   UNL A   1      46.742  26.950  36.101  1.00  0.00     0.009 A 
ATOM     84  C   UNL A   1      46.902  24.692  34.512  1.00  0.00     0.001 A 
ATOM     85  C   UNL A   1      47.188  25.746  36.648  1.00  0.00     0.001 A 
ATOM     86  C   UNL A   1      47.237  24.607  35.859  1.00  0.00     0.000 A 
ENDBRANCH  67  81
BRANCH  68  87
ATOM     87  C   UNL A   1      42.565  24.357  27.560  1.00  0.00    -0.014 A 
ATOM     88  C   UNL A   1      42.807  24.227  26.181  1.00  0.00     0.009 A 
ATOM     89  C   UNL A   1      42.292  23.184  28.286  1.00  0.00     0.009 A 
ATOM     90  C   UNL A   1      42.822  22.967  25.565  1.00  0.00     0.001 A 
ATOM     91  C   UNL A   1      42.310  21.925  27.670  1.00  0.00     0.001 A 
ATOM     92  C   UNL A   1      42.592  21.814  26.314  1.00  0.00     0.000 A 
ENDBRANCH  68  87
BRANCH  80  93
ATOM     93  C   UNL A   1      45.330  29.844  28.656  1.00  0.00    -0.014 A 
ATOM     94  C   UNL A   1      44.032  30.376  28.551  1.00  0.00     0.009 A 
ATOM     95  C   UNL A   1      46.338  30.396  27.854  1.00  0.00     0.009 A 
ATOM     96  C   UNL A   1      43.751  31.412  27.651  1.00  0.00     0.001 A 
ATOM     97  C   UNL A   1      46.063  31.443  26.971  1.00  0.00     0.001 A 
ATOM     98  C   UNL A   1      44.770  31.948  26.865  1.00  0.00     0.000 A 
ENDBRANCH  80  93
ENDBRANCH  54  55
ENDBRANCH  46  49
ENDBRANCH  44  45
ENDBRANCH  43  44
ENDBRANCH  42  43
ENDBRANCH  40  42
ENDBRANCH  37  38
ENDBRANCH  36  37
ENDBRANCH  35  36
ENDBRANCH   1  35
TORSDOF 25
ENDMDL
