MODEL 1
REMARK VINA RESULT:     -11.2      0.000      0.000
REMARK SMILES COc1ccc(C(=O)C2=C(NCCCNC(=O)c3ccc(-c4c5nc(c(-c6ccccc6)c6ccc([nH]6)c(-c6ccccc6)c6nc(c(-c7ccccc7)c7ccc4[nH]7)C=C6)C=C5)cc3)C(=O)N(CCC(=O)[O-])[C@H]2c2ccccc2F)cc1
REMARK SMILES IDX 12 1 11 2 10 4 9 5 74 6 66 7 68 8 67 9 7 10 8 11 6 12 3 13
REMARK SMILES IDX 4 14 83 15 5 16 82 17 2 18 1 19 75 20 76 21 80 22 77 23
REMARK SMILES IDX 79 24 81 25 78 26 69 27 70 28 71 29 72 30 73 31 13 32 14 33
REMARK SMILES IDX 15 34 16 35 17 37 18 38 19 39 65 40 20 41 64 42 21 43 22 44
REMARK SMILES IDX 23 45 58 46 24 47 63 48 57 49 59 50 25 51 62 52 56 53 55 54
REMARK SMILES IDX 26 56 48 57 33 58 47 59 34 60 37 61 46 62 60 63 35 64 36 65
REMARK SMILES IDX 45 67 61 68 38 69 27 70 28 71 32 72 29 73 31 74 30 75 49 76
REMARK SMILES IDX 50 77 54 78 51 79 53 80 52 81 39 82 40 83 44 84 41 85 43 86
REMARK SMILES IDX 42 87
REMARK H PARENT 11 3 15 36 59 55 37 66
REMARK Flexibility Score: inf
ROOT
ATOM      1  C   UNL A   1      37.975  22.019  25.663  1.00  0.00     0.115 C 
ENDROOT
BRANCH   1   2
ATOM      2  N   UNL A   1      37.144  21.378  24.669  1.00  0.00    -0.380 N 
ATOM      3  H   UNL A   1      37.629  20.839  24.003  1.00  0.00     0.160 HD
BRANCH   2   4
ATOM      4  C   UNL A   1      35.785  21.407  24.515  1.00  0.00     0.110 C 
ATOM      5  C   UNL A   1      34.865  22.288  24.107  1.00  0.00     0.056 C 
ATOM      6  C   UNL A   1      33.471  21.739  24.017  1.00  0.00     0.155 C 
ATOM      7  C   UNL A   1      35.007  20.154  24.796  1.00  0.00     0.271 C 
ATOM      8  N   UNL A   1      33.709  20.357  24.384  1.00  0.00    -0.326 N 
ATOM      9  O   UNL A   1      35.499  19.153  25.286  1.00  0.00    -0.267 OA
BRANCH   5  10
ATOM     10  C   UNL A   1      35.200  23.628  23.601  1.00  0.00     0.193 C 
ATOM     11  O   UNL A   1      36.105  23.758  22.782  1.00  0.00    -0.289 OA
BRANCH  10  12
ATOM     12  C   UNL A   1      34.429  24.814  24.081  1.00  0.00     0.023 A 
ATOM     13  C   UNL A   1      32.743  26.898  24.961  1.00  0.00     0.118 A 
ATOM     14  C   UNL A   1      32.776  26.533  23.613  1.00  0.00     0.047 A 
ATOM     15  C   UNL A   1      33.591  26.253  25.856  1.00  0.00     0.047 A 
ATOM     16  C   UNL A   1      33.606  25.493  23.175  1.00  0.00     0.016 A 
ATOM     17  C   UNL A   1      34.454  25.247  25.409  1.00  0.00     0.016 A 
BRANCH  13  18
ATOM     18  O   UNL A   1      31.845  27.879  25.277  1.00  0.00    -0.497 OA
ATOM     19  C   UNL A   1      32.359  29.021  25.951  1.00  0.00     0.278 C 
ENDBRANCH  13  18
ENDBRANCH  10  12
ENDBRANCH   5  10
BRANCH   6  20
ATOM     20  C   UNL A   1      32.492  22.403  24.965  1.00  0.00     0.015 A 
ATOM     21  C   UNL A   1      32.670  22.390  26.363  1.00  0.00     0.009 A 
ATOM     22  C   UNL A   1      31.397  23.100  24.450  1.00  0.00     0.128 A 
ATOM     23  C   UNL A   1      31.802  23.091  27.203  1.00  0.00     0.001 A 
ATOM     24  C   UNL A   1      30.518  23.787  25.283  1.00  0.00     0.039 A 
ATOM     25  F   UNL A   1      31.184  23.122  23.129  1.00  0.00    -0.207 F 
ATOM     26  C   UNL A   1      30.727  23.794  26.662  1.00  0.00     0.003 A 
ENDBRANCH   6  20
BRANCH   8  27
ATOM     27  C   UNL A   1      32.669  19.333  24.373  1.00  0.00     0.127 C 
BRANCH  27  28
ATOM     28  C   UNL A   1      32.716  18.436  23.143  1.00  0.00     0.074 C 
BRANCH  28  29
ATOM     29  C   UNL A   1      33.246  17.082  23.505  1.00  0.00     0.043 C 
ATOM     30  O   UNL A   1      33.055  16.499  24.561  1.00  0.00    -0.550 OA
ATOM     31  O   UNL A   1      34.047  16.567  22.554  1.00  0.00    -0.550 OA
ENDBRANCH  28  29
ENDBRANCH  27  28
ENDBRANCH   8  27
ENDBRANCH   2   4
ENDBRANCH   1   2
BRANCH   1  32
ATOM     32  C   UNL A   1      39.369  21.410  25.638  1.00  0.00     0.042 C 
BRANCH  32  33
ATOM     33  C   UNL A   1      39.459  20.063  26.346  1.00  0.00     0.118 C 
BRANCH  33  34
ATOM     34  N   UNL A   1      40.643  19.303  25.965  1.00  0.00    -0.352 N 
ATOM     35  C   UNL A   1      41.958  19.694  25.899  1.00  0.00     0.251 C 
ATOM     36  H   UNL A   1      40.473  18.365  25.717  1.00  0.00     0.163 HD
ATOM     37  O   UNL A   1      42.791  18.961  25.375  1.00  0.00    -0.269 OA
BRANCH  35  38
ATOM     38  C   UNL A   1      42.369  21.008  26.437  1.00  0.00     0.039 A 
ATOM     39  C   UNL A   1      42.819  21.990  25.550  1.00  0.00     0.014 A 
ATOM     40  C   UNL A   1      42.316  21.273  27.807  1.00  0.00     0.014 A 
ATOM     41  C   UNL A   1      43.142  23.260  26.032  1.00  0.00     0.010 A 
ATOM     42  C   UNL A   1      42.550  22.563  28.272  1.00  0.00     0.010 A 
ATOM     43  C   UNL A   1      42.968  23.570  27.391  1.00  0.00    -0.014 A 
BRANCH  43  44
ATOM     44  C   UNL A   1      43.207  24.942  27.906  1.00  0.00     0.031 A 
ATOM     45  C   UNL A   1      44.597  25.384  28.272  1.00  0.00     0.074 A 
ATOM     46  C   UNL A   1      42.162  25.769  28.110  1.00  0.00     0.049 A 
ATOM     47  N   UNL A   1      44.993  26.517  28.796  1.00  0.00    -0.248 NA
ATOM     48  C   UNL A   1      45.685  24.418  28.044  1.00  0.00     0.031 C 
ATOM     49  C   UNL A   1      40.760  25.449  27.833  1.00  0.00     0.029 A 
ATOM     50  N   UNL A   1      42.117  27.049  28.604  1.00  0.00    -0.354 N 
ATOM     51  C   UNL A   1      46.364  26.393  28.975  1.00  0.00     0.074 A 
ATOM     52  C   UNL A   1      46.726  25.056  28.557  1.00  0.00     0.031 C 
ATOM     53  C   UNL A   1      39.998  26.513  28.131  1.00  0.00     0.029 A 
ATOM     54  C   UNL A   1      40.849  27.573  28.665  1.00  0.00     0.049 A 
ATOM     55  H   UNL A   1      42.919  27.544  28.889  1.00  0.00     0.167 HD
ATOM     56  C   UNL A   1      47.248  27.313  29.429  1.00  0.00     0.031 A 
ATOM     57  C   UNL A   1      40.414  28.767  29.107  1.00  0.00     0.031 A 
ATOM     58  C   UNL A   1      46.889  28.644  29.841  1.00  0.00     0.049 A 
ATOM     59  C   UNL A   1      41.413  29.763  29.629  1.00  0.00     0.074 A 
ATOM     60  C   UNL A   1      47.719  29.667  30.266  1.00  0.00     0.029 A 
ATOM     61  N   UNL A   1      45.594  29.134  29.885  1.00  0.00    -0.354 N 
ATOM     62  N   UNL A   1      42.716  29.652  29.729  1.00  0.00    -0.248 NA
ATOM     63  C   UNL A   1      40.881  31.052  30.091  1.00  0.00     0.031 C 
ATOM     64  C   UNL A   1      46.919  30.757  30.623  1.00  0.00     0.029 A 
ATOM     65  C   UNL A   1      45.599  30.436  30.355  1.00  0.00     0.049 A 
ATOM     66  H   UNL A   1      44.790  28.631  29.620  1.00  0.00     0.167 HD
ATOM     67  C   UNL A   1      43.162  30.869  30.230  1.00  0.00     0.074 A 
ATOM     68  C   UNL A   1      41.992  31.706  30.402  1.00  0.00     0.031 C 
ATOM     69  C   UNL A   1      44.427  31.258  30.519  1.00  0.00     0.031 A 
BRANCH  56  70
ATOM     70  C   UNL A   1      48.694  26.904  29.512  1.00  0.00    -0.014 A 
ATOM     71  C   UNL A   1      49.581  27.134  28.448  1.00  0.00     0.009 A 
ATOM     72  C   UNL A   1      49.186  26.315  30.688  1.00  0.00     0.009 A 
ATOM     73  C   UNL A   1      50.919  26.747  28.545  1.00  0.00     0.001 A 
ATOM     74  C   UNL A   1      50.532  25.959  30.794  1.00  0.00     0.001 A 
ATOM     75  C   UNL A   1      51.395  26.165  29.718  1.00  0.00     0.000 A 
ENDBRANCH  56  70
BRANCH  57  76
ATOM     76  C   UNL A   1      38.965  29.097  29.066  1.00  0.00    -0.014 A 
ATOM     77  C   UNL A   1      38.385  29.624  27.902  1.00  0.00     0.009 A 
ATOM     78  C   UNL A   1      38.154  28.895  30.194  1.00  0.00     0.009 A 
ATOM     79  C   UNL A   1      37.033  29.971  27.877  1.00  0.00     0.001 A 
ATOM     80  C   UNL A   1      36.794  29.211  30.156  1.00  0.00     0.001 A 
ATOM     81  C   UNL A   1      36.237  29.760  29.002  1.00  0.00     0.000 A 
ENDBRANCH  57  76
BRANCH  69  82
ATOM     82  C   UNL A   1      44.622  32.667  31.007  1.00  0.00    -0.014 A 
ATOM     83  C   UNL A   1      44.626  32.976  32.376  1.00  0.00     0.009 A 
ATOM     84  C   UNL A   1      44.847  33.695  30.078  1.00  0.00     0.009 A 
ATOM     85  C   UNL A   1      44.820  34.292  32.801  1.00  0.00     0.001 A 
ATOM     86  C   UNL A   1      45.074  35.003  30.507  1.00  0.00     0.001 A 
ATOM     87  C   UNL A   1      45.050  35.302  31.868  1.00  0.00     0.000 A 
ENDBRANCH  69  82
ENDBRANCH  43  44
ENDBRANCH  35  38
ENDBRANCH  33  34
ENDBRANCH  32  33
ENDBRANCH   1  32
TORSDOF 17
ENDMDL
MODEL 2
REMARK VINA RESULT:     -11.2      0.349      5.656
REMARK SMILES COc1ccc(C(=O)C2=C(NCCCNC(=O)c3ccc(-c4c5nc(c(-c6ccccc6)c6ccc([nH]6)c(-c6ccccc6)c6nc(c(-c7ccccc7)c7ccc4[nH]7)C=C6)C=C5)cc3)C(=O)N(CCC(=O)[O-])[C@H]2c2ccccc2F)cc1
REMARK SMILES IDX 12 1 11 2 10 4 9 5 74 6 66 7 68 8 67 9 7 10 8 11 6 12 3 13
REMARK SMILES IDX 4 14 83 15 5 16 82 17 2 18 1 19 75 20 76 21 80 22 77 23
REMARK SMILES IDX 79 24 81 25 78 26 69 27 70 28 71 29 72 30 73 31 13 32 14 33
REMARK SMILES IDX 15 34 16 35 17 37 18 38 19 39 65 40 20 41 64 42 21 43 22 44
REMARK SMILES IDX 23 45 58 46 24 47 63 48 57 49 59 50 25 51 62 52 56 53 55 54
REMARK SMILES IDX 26 56 48 57 33 58 47 59 34 60 37 61 46 62 60 63 35 64 36 65
REMARK SMILES IDX 45 67 61 68 38 69 27 70 28 71 32 72 29 73 31 74 30 75 49 76
REMARK SMILES IDX 50 77 54 78 51 79 53 80 52 81 39 82 40 83 44 84 41 85 43 86
REMARK SMILES IDX 42 87
REMARK H PARENT 11 3 15 36 59 55 37 66
REMARK Flexibility Score: inf
ROOT
ATOM      1  C   UNL A   1      37.863  22.042  25.645  1.00  0.00     0.115 C 
ENDROOT
BRANCH   1   2
ATOM      2  N   UNL A   1      37.028  21.328  24.705  1.00  0.00    -0.380 N 
ATOM      3  H   UNL A   1      37.507  20.714  24.103  1.00  0.00     0.160 HD
BRANCH   2   4
ATOM      4  C   UNL A   1      35.673  21.377  24.526  1.00  0.00     0.110 C 
ATOM      5  C   UNL A   1      34.774  22.268  24.093  1.00  0.00     0.056 C 
ATOM      6  C   UNL A   1      33.374  21.740  23.984  1.00  0.00     0.155 C 
ATOM      7  C   UNL A   1      34.870  20.140  24.807  1.00  0.00     0.271 C 
ATOM      8  N   UNL A   1      33.583  20.358  24.370  1.00  0.00    -0.326 N 
ATOM      9  O   UNL A   1      35.337  19.136  25.315  1.00  0.00    -0.267 OA
BRANCH   5  10
ATOM     10  C   UNL A   1      35.139  23.597  23.579  1.00  0.00     0.193 C 
ATOM     11  O   UNL A   1      36.040  23.701  22.753  1.00  0.00    -0.289 OA
BRANCH  10  12
ATOM     12  C   UNL A   1      34.404  24.804  24.063  1.00  0.00     0.023 A 
ATOM     13  C   UNL A   1      32.780  26.936  24.947  1.00  0.00     0.118 A 
ATOM     14  C   UNL A   1      32.805  26.574  23.598  1.00  0.00     0.047 A 
ATOM     15  C   UNL A   1      33.607  26.263  25.841  1.00  0.00     0.047 A 
ATOM     16  C   UNL A   1      33.604  25.511  23.158  1.00  0.00     0.016 A 
ATOM     17  C   UNL A   1      34.440  25.232  25.392  1.00  0.00     0.016 A 
BRANCH  13  18
ATOM     18  O   UNL A   1      31.912  27.942  25.265  1.00  0.00    -0.497 OA
ATOM     19  C   UNL A   1      32.334  29.268  24.967  1.00  0.00     0.278 C 
ENDBRANCH  13  18
ENDBRANCH  10  12
ENDBRANCH   5  10
BRANCH   6  20
ATOM     20  C   UNL A   1      32.389  22.430  24.909  1.00  0.00     0.015 A 
ATOM     21  C   UNL A   1      32.529  22.407  26.311  1.00  0.00     0.009 A 
ATOM     22  C   UNL A   1      31.329  23.160  24.367  1.00  0.00     0.128 A 
ATOM     23  C   UNL A   1      31.659  23.130  27.129  1.00  0.00     0.001 A 
ATOM     24  C   UNL A   1      30.448  23.870  25.179  1.00  0.00     0.039 A 
ATOM     25  F   UNL A   1      31.153  23.192  23.040  1.00  0.00    -0.207 F 
ATOM     26  C   UNL A   1      30.620  23.866  26.563  1.00  0.00     0.003 A 
ENDBRANCH   6  20
BRANCH   8  27
ATOM     27  C   UNL A   1      32.527  19.351  24.351  1.00  0.00     0.127 C 
BRANCH  27  28
ATOM     28  C   UNL A   1      32.516  18.510  23.081  1.00  0.00     0.074 C 
BRANCH  28  29
ATOM     29  C   UNL A   1      33.233  17.213  23.309  1.00  0.00     0.043 C 
ATOM     30  O   UNL A   1      33.993  16.671  22.523  1.00  0.00    -0.550 OA
ATOM     31  O   UNL A   1      32.899  16.635  24.477  1.00  0.00    -0.550 OA
ENDBRANCH  28  29
ENDBRANCH  27  28
ENDBRANCH   8  27
ENDBRANCH   2   4
ENDBRANCH   1   2
BRANCH   1  32
ATOM     32  C   UNL A   1      39.284  21.502  25.584  1.00  0.00     0.042 C 
BRANCH  32  33
ATOM     33  C   UNL A   1      39.491  20.238  26.410  1.00  0.00     0.118 C 
BRANCH  33  34
ATOM     34  N   UNL A   1      40.631  19.449  25.959  1.00  0.00    -0.352 N 
ATOM     35  C   UNL A   1      41.958  19.793  25.863  1.00  0.00     0.251 C 
ATOM     36  H   UNL A   1      40.417  18.529  25.682  1.00  0.00     0.163 HD
ATOM     37  O   UNL A   1      42.744  19.050  25.281  1.00  0.00    -0.269 OA
BRANCH  35  38
ATOM     38  C   UNL A   1      42.437  21.067  26.435  1.00  0.00     0.039 A 
ATOM     39  C   UNL A   1      42.897  22.065  25.572  1.00  0.00     0.014 A 
ATOM     40  C   UNL A   1      42.439  21.280  27.816  1.00  0.00     0.014 A 
ATOM     41  C   UNL A   1      43.285  23.302  26.090  1.00  0.00     0.010 A 
ATOM     42  C   UNL A   1      42.738  22.541  28.321  1.00  0.00     0.010 A 
ATOM     43  C   UNL A   1      43.167  23.566  27.465  1.00  0.00    -0.014 A 
BRANCH  43  44
ATOM     44  C   UNL A   1      43.477  24.906  28.024  1.00  0.00     0.031 A 
ATOM     45  C   UNL A   1      42.374  25.900  28.268  1.00  0.00     0.074 A 
ATOM     46  C   UNL A   1      44.759  25.255  28.250  1.00  0.00     0.049 A 
ATOM     47  N   UNL A   1      42.455  27.137  28.689  1.00  0.00    -0.248 NA
ATOM     48  C   UNL A   1      41.001  25.456  27.975  1.00  0.00     0.031 C 
ATOM     49  C   UNL A   1      45.925  24.398  28.019  1.00  0.00     0.029 A 
ATOM     50  N   UNL A   1      45.298  26.426  28.719  1.00  0.00    -0.354 N 
ATOM     51  C   UNL A   1      41.154  27.621  28.695  1.00  0.00     0.074 A 
ATOM     52  C   UNL A   1      40.308  26.565  28.184  1.00  0.00     0.031 C 
ATOM     53  C   UNL A   1      47.036  25.061  28.377  1.00  0.00     0.029 A 
ATOM     54  C   UNL A   1      46.669  26.403  28.815  1.00  0.00     0.049 A 
ATOM     55  H   UNL A   1      44.754  27.210  28.963  1.00  0.00     0.167 HD
ATOM     56  C   UNL A   1      40.699  28.828  29.106  1.00  0.00     0.031 A 
ATOM     57  C   UNL A   1      47.536  27.357  29.204  1.00  0.00     0.031 A 
ATOM     58  C   UNL A   1      41.540  29.877  29.619  1.00  0.00     0.049 A 
ATOM     59  C   UNL A   1      47.007  28.697  29.633  1.00  0.00     0.074 A 
ATOM     60  C   UNL A   1      41.168  31.116  30.111  1.00  0.00     0.029 A 
ATOM     61  N   UNL A   1      42.922  29.812  29.702  1.00  0.00    -0.354 N 
ATOM     62  N   UNL A   1      45.766  29.115  29.696  1.00  0.00    -0.248 NA
ATOM     63  C   UNL A   1      48.001  29.695  30.054  1.00  0.00     0.031 C 
ATOM     64  C   UNL A   1      42.330  31.823  30.436  1.00  0.00     0.029 A 
ATOM     65  C   UNL A   1      43.420  30.998  30.210  1.00  0.00     0.049 A 
ATOM     66  H   UNL A   1      43.467  29.035  29.438  1.00  0.00     0.167 HD
ATOM     67  C   UNL A   1      45.827  30.409  30.197  1.00  0.00     0.074 A 
ATOM     68  C   UNL A   1      47.225  30.703  30.432  1.00  0.00     0.031 C 
ATOM     69  C   UNL A   1      44.814  31.276  30.442  1.00  0.00     0.031 A 
BRANCH  56  70
ATOM     70  C   UNL A   1      39.219  29.082  29.009  1.00  0.00    -0.014 A 
ATOM     71  C   UNL A   1      38.369  28.891  30.111  1.00  0.00     0.009 A 
ATOM     72  C   UNL A   1      38.671  29.557  27.806  1.00  0.00     0.009 A 
ATOM     73  C   UNL A   1      36.999  29.132  29.999  1.00  0.00     0.001 A 
ATOM     74  C   UNL A   1      37.304  29.828  27.708  1.00  0.00     0.001 A 
ATOM     75  C   UNL A   1      36.468  29.605  28.801  1.00  0.00     0.000 A 
ENDBRANCH  56  70
BRANCH  57  76
ATOM     76  C   UNL A   1      48.996  27.078  29.218  1.00  0.00    -0.014 A 
ATOM     77  C   UNL A   1      49.610  26.547  30.364  1.00  0.00     0.009 A 
ATOM     78  C   UNL A   1      49.787  27.347  28.090  1.00  0.00     0.009 A 
ATOM     79  C   UNL A   1      50.988  26.323  30.390  1.00  0.00     0.001 A 
ATOM     80  C   UNL A   1      51.159  27.090  28.107  1.00  0.00     0.001 A 
ATOM     81  C   UNL A   1      51.761  26.589  29.260  1.00  0.00     0.000 A 
ENDBRANCH  57  76
BRANCH  69  82
ATOM     82  C   UNL A   1      45.175  32.608  31.039  1.00  0.00    -0.014 A 
ATOM     83  C   UNL A   1      45.265  32.790  32.427  1.00  0.00     0.009 A 
ATOM     84  C   UNL A   1      45.470  33.688  30.190  1.00  0.00     0.009 A 
ATOM     85  C   UNL A   1      45.613  34.037  32.953  1.00  0.00     0.001 A 
ATOM     86  C   UNL A   1      45.850  34.922  30.719  1.00  0.00     0.001 A 
ATOM     87  C   UNL A   1      45.911  35.098  32.099  1.00  0.00     0.000 A 
ENDBRANCH  69  82
ENDBRANCH  43  44
ENDBRANCH  35  38
ENDBRANCH  33  34
ENDBRANCH  32  33
ENDBRANCH   1  32
TORSDOF 17
ENDMDL
MODEL 3
REMARK VINA RESULT:     -11.2      2.541      3.879
REMARK SMILES COc1ccc(C(=O)C2=C(NCCCNC(=O)c3ccc(-c4c5nc(c(-c6ccccc6)c6ccc([nH]6)c(-c6ccccc6)c6nc(c(-c7ccccc7)c7ccc4[nH]7)C=C6)C=C5)cc3)C(=O)N(CCC(=O)[O-])[C@H]2c2ccccc2F)cc1
REMARK SMILES IDX 12 1 11 2 10 4 9 5 74 6 66 7 68 8 67 9 7 10 8 11 6 12 3 13
REMARK SMILES IDX 4 14 83 15 5 16 82 17 2 18 1 19 75 20 76 21 80 22 77 23
REMARK SMILES IDX 79 24 81 25 78 26 69 27 70 28 71 29 72 30 73 31 13 32 14 33
REMARK SMILES IDX 15 34 16 35 17 37 18 38 19 39 65 40 20 41 64 42 21 43 22 44
REMARK SMILES IDX 23 45 58 46 24 47 63 48 57 49 59 50 25 51 62 52 56 53 55 54
REMARK SMILES IDX 26 56 48 57 33 58 47 59 34 60 37 61 46 62 60 63 35 64 36 65
REMARK SMILES IDX 45 67 61 68 38 69 27 70 28 71 32 72 29 73 31 74 30 75 49 76
REMARK SMILES IDX 50 77 54 78 51 79 53 80 52 81 39 82 40 83 44 84 41 85 43 86
REMARK SMILES IDX 42 87
REMARK H PARENT 11 3 15 36 59 55 37 66
REMARK Flexibility Score: inf
ROOT
ATOM      1  C   UNL A   1      36.253  22.607  23.595  1.00  0.00     0.115 C 
ENDROOT
BRANCH   1   2
ATOM      2  N   UNL A   1      34.933  23.038  23.197  1.00  0.00    -0.380 N 
ATOM      3  H   UNL A   1      34.699  22.857  22.258  1.00  0.00     0.160 HD
BRANCH   2   4
ATOM      4  C   UNL A   1      33.957  23.658  23.928  1.00  0.00     0.110 C 
ATOM      5  C   UNL A   1      33.180  24.739  23.804  1.00  0.00     0.056 C 
ATOM      6  C   UNL A   1      32.154  24.899  24.888  1.00  0.00     0.155 C 
ATOM      7  C   UNL A   1      33.511  23.020  25.212  1.00  0.00     0.271 C 
ATOM      8  N   UNL A   1      32.401  23.698  25.662  1.00  0.00    -0.326 N 
ATOM      9  O   UNL A   1      34.062  22.054  25.709  1.00  0.00    -0.267 OA
BRANCH   5  10
ATOM     10  C   UNL A   1      33.185  25.605  22.615  1.00  0.00     0.193 C 
ATOM     11  O   UNL A   1      33.849  25.284  21.634  1.00  0.00    -0.289 OA
BRANCH  10  12
ATOM     12  C   UNL A   1      32.376  26.861  22.611  1.00  0.00     0.023 A 
ATOM     13  C   UNL A   1      30.734  29.144  22.841  1.00  0.00     0.118 A 
ATOM     14  C   UNL A   1      30.189  27.910  22.480  1.00  0.00     0.047 A 
ATOM     15  C   UNL A   1      32.109  29.243  23.036  1.00  0.00     0.047 A 
ATOM     16  C   UNL A   1      31.000  26.774  22.373  1.00  0.00     0.016 A 
ATOM     17  C   UNL A   1      32.925  28.117  22.882  1.00  0.00     0.016 A 
BRANCH  13  18
ATOM     18  O   UNL A   1      29.833  30.163  22.980  1.00  0.00    -0.497 OA
ATOM     19  C   UNL A   1      28.820  30.258  21.986  1.00  0.00     0.278 C 
ENDBRANCH  13  18
ENDBRANCH  10  12
ENDBRANCH   5  10
BRANCH   6  20
ATOM     20  C   UNL A   1      32.344  26.147  25.728  1.00  0.00     0.015 A 
ATOM     21  C   UNL A   1      33.620  26.647  26.057  1.00  0.00     0.009 A 
ATOM     22  C   UNL A   1      31.227  26.868  26.157  1.00  0.00     0.128 A 
ATOM     23  C   UNL A   1      33.760  27.850  26.753  1.00  0.00     0.001 A 
ATOM     24  C   UNL A   1      31.360  28.059  26.865  1.00  0.00     0.039 A 
ATOM     25  F   UNL A   1      29.997  26.416  25.878  1.00  0.00    -0.207 F 
ATOM     26  C   UNL A   1      32.629  28.559  27.153  1.00  0.00     0.003 A 
ENDBRANCH   6  20
BRANCH   8  27
ATOM     27  C   UNL A   1      31.596  23.307  26.815  1.00  0.00     0.127 C 
BRANCH  27  28
ATOM     28  C   UNL A   1      30.542  22.257  26.489  1.00  0.00     0.074 C 
BRANCH  28  29
ATOM     29  C   UNL A   1      29.243  22.599  27.154  1.00  0.00     0.043 C 
ATOM     30  O   UNL A   1      28.318  21.827  27.353  1.00  0.00    -0.550 OA
ATOM     31  O   UNL A   1      29.148  23.904  27.465  1.00  0.00    -0.550 OA
ENDBRANCH  28  29
ENDBRANCH  27  28
ENDBRANCH   8  27
ENDBRANCH   2   4
ENDBRANCH   1   2
BRANCH   1  32
ATOM     32  C   UNL A   1      36.946  23.720  24.367  1.00  0.00     0.042 C 
BRANCH  32  33
ATOM     33  C   UNL A   1      37.173  23.391  25.838  1.00  0.00     0.118 C 
BRANCH  33  34
ATOM     34  N   UNL A   1      38.179  22.356  26.037  1.00  0.00    -0.352 N 
ATOM     35  C   UNL A   1      39.501  22.469  26.393  1.00  0.00     0.251 C 
ATOM     36  H   UNL A   1      37.863  21.435  25.896  1.00  0.00     0.163 HD
ATOM     37  O   UNL A   1      40.240  21.491  26.329  1.00  0.00    -0.269 OA
BRANCH  35  38
ATOM     38  C   UNL A   1      40.043  23.773  26.829  1.00  0.00     0.039 A 
ATOM     39  C   UNL A   1      40.189  24.794  25.886  1.00  0.00     0.014 A 
ATOM     40  C   UNL A   1      40.409  23.991  28.159  1.00  0.00     0.014 A 
ATOM     41  C   UNL A   1      40.631  26.054  26.294  1.00  0.00     0.010 A 
ATOM     42  C   UNL A   1      40.761  25.270  28.580  1.00  0.00     0.010 A 
ATOM     43  C   UNL A   1      40.878  26.315  27.652  1.00  0.00    -0.014 A 
BRANCH  43  44
ATOM     44  C   UNL A   1      41.249  27.674  28.122  1.00  0.00     0.031 A 
ATOM     45  C   UNL A   1      42.694  28.082  28.199  1.00  0.00     0.074 A 
ATOM     46  C   UNL A   1      40.287  28.518  28.545  1.00  0.00     0.049 A 
ATOM     47  N   UNL A   1      43.215  29.199  28.642  1.00  0.00    -0.248 NA
ATOM     48  C   UNL A   1      43.689  27.098  27.742  1.00  0.00     0.031 C 
ATOM     49  C   UNL A   1      38.851  28.230  28.560  1.00  0.00     0.029 A 
ATOM     50  N   UNL A   1      40.374  29.791  29.052  1.00  0.00    -0.354 N 
ATOM     51  C   UNL A   1      44.590  29.045  28.534  1.00  0.00     0.074 A 
ATOM     52  C   UNL A   1      44.828  27.708  28.036  1.00  0.00     0.031 C 
ATOM     53  C   UNL A   1      38.191  29.305  29.019  1.00  0.00     0.029 A 
ATOM     54  C   UNL A   1      39.157  30.339  29.378  1.00  0.00     0.049 A 
ATOM     55  H   UNL A   1      41.228  30.266  29.171  1.00  0.00     0.167 HD
ATOM     56  C   UNL A   1      45.569  29.940  28.806  1.00  0.00     0.031 A 
ATOM     57  C   UNL A   1      38.850  31.535  29.913  1.00  0.00     0.031 A 
ATOM     58  C   UNL A   1      45.333  31.272  29.298  1.00  0.00     0.049 A 
ATOM     59  C   UNL A   1      39.957  32.502  30.229  1.00  0.00     0.074 A 
ATOM     60  C   UNL A   1      46.255  32.271  29.554  1.00  0.00     0.029 A 
ATOM     61  N   UNL A   1      44.085  31.787  29.612  1.00  0.00    -0.354 N 
ATOM     62  N   UNL A   1      41.249  32.365  30.057  1.00  0.00    -0.248 NA
ATOM     63  C   UNL A   1      39.560  33.795  30.805  1.00  0.00     0.031 C 
ATOM     64  C   UNL A   1      45.570  33.371  30.079  1.00  0.00     0.029 A 
ATOM     65  C   UNL A   1      44.216  33.081  30.086  1.00  0.00     0.049 A 
ATOM     66  H   UNL A   1      43.233  31.304  29.513  1.00  0.00     0.167 HD
ATOM     67  C   UNL A   1      41.816  33.564  30.469  1.00  0.00     0.074 A 
ATOM     68  C   UNL A   1      40.726  34.421  30.887  1.00  0.00     0.031 C 
ATOM     69  C   UNL A   1      43.122  33.923  30.496  1.00  0.00     0.031 A 
BRANCH  56  70
ATOM     70  C   UNL A   1      46.992  29.502  28.586  1.00  0.00    -0.014 A 
ATOM     71  C   UNL A   1      47.633  29.694  27.351  1.00  0.00     0.009 A 
ATOM     72  C   UNL A   1      47.715  28.922  29.641  1.00  0.00     0.009 A 
ATOM     73  C   UNL A   1      48.954  29.279  27.167  1.00  0.00     0.001 A 
ATOM     74  C   UNL A   1      49.046  28.539  29.462  1.00  0.00     0.001 A 
ATOM     75  C   UNL A   1      49.661  28.708  28.223  1.00  0.00     0.000 A 
ENDBRANCH  56  70
BRANCH  57  76
ATOM     76  C   UNL A   1      37.431  31.895  30.175  1.00  0.00    -0.014 A 
ATOM     77  C   UNL A   1      36.837  31.601  31.412  1.00  0.00     0.009 A 
ATOM     78  C   UNL A   1      36.659  32.525  29.186  1.00  0.00     0.009 A 
ATOM     79  C   UNL A   1      35.493  31.902  31.643  1.00  0.00     0.001 A 
ATOM     80  C   UNL A   1      35.325  32.857  29.432  1.00  0.00     0.001 A 
ATOM     81  C   UNL A   1      34.740  32.535  30.655  1.00  0.00     0.000 A 
ENDBRANCH  57  76
BRANCH  69  82
ATOM     82  C   UNL A   1      43.445  35.321  30.949  1.00  0.00    -0.014 A 
ATOM     83  C   UNL A   1      43.661  35.622  32.302  1.00  0.00     0.009 A 
ATOM     84  C   UNL A   1      43.576  36.343  29.995  1.00  0.00     0.009 A 
ATOM     85  C   UNL A   1      43.971  36.928  32.693  1.00  0.00     0.001 A 
ATOM     86  C   UNL A   1      43.918  37.638  30.385  1.00  0.00     0.001 A 
ATOM     87  C   UNL A   1      44.105  37.931  31.734  1.00  0.00     0.000 A 
ENDBRANCH  69  82
ENDBRANCH  43  44
ENDBRANCH  35  38
ENDBRANCH  33  34
ENDBRANCH  32  33
ENDBRANCH   1  32
TORSDOF 17
ENDMDL
