MODEL 1
REMARK VINA RESULT:     -12.0      0.000      0.000
REMARK SMILES O=C(NCCCNC(=O)c1sccc1S(=O)(=O)Nc1ccc(Cn2cncn2)cc1)c1ccc(-c2c3nc(c(-c4ccccc4)c4ccc([nH]4)c(-c4ccccc4)c4nc(c(-c5ccccc5)c5ccc2[nH]5)C=C4)C=C3)cc1
REMARK SMILES IDX 7 1 8 2 9 3 6 5 5 6 4 7 3 8 1 9 2 10 31 12 32 13 78 14 33 15
REMARK SMILES IDX 77 16 34 17 35 18 36 19 71 20 37 21 76 22 70 23 72 24 38 25
REMARK SMILES IDX 75 26 69 27 68 28 39 30 61 31 46 32 60 33 47 34 50 35 59 36
REMARK SMILES IDX 73 37 48 38 49 39 58 41 74 42 51 43 40 44 41 45 45 46 42 47
REMARK SMILES IDX 44 48 43 49 62 50 63 51 67 52 64 53 66 54 65 55 52 56 53 57
REMARK SMILES IDX 57 58 54 59 56 60 55 61 10 62 11 63 14 64 12 65 13 66 15 67
REMARK SMILES IDX 16 68 17 69 18 70 19 72 20 73 30 74 21 75 29 76 22 77 23 78
REMARK SMILES IDX 24 79 25 80 28 81 26 82 27 83
REMARK H PARENT 7 4 3 11 72 29 50 40 18 71
REMARK Flexibility Score: inf
ROOT
ATOM      1  N   UNL A   1      33.407  29.627  24.894  1.00  0.00    -0.351 N 
ATOM      2  C   UNL A   1      33.115  28.639  24.004  1.00  0.00     0.262 C 
ATOM      3  O   UNL A   1      34.037  28.294  23.261  1.00  0.00    -0.268 OA
ATOM      4  H   UNL A   1      34.259  30.091  24.726  1.00  0.00     0.163 HD
ENDROOT
BRANCH   1   5
ATOM      5  C   UNL A   1      32.676  30.112  26.043  1.00  0.00     0.118 C 
BRANCH   5   6
ATOM      6  C   UNL A   1      33.541  30.046  27.292  1.00  0.00     0.042 C 
BRANCH   6   7
ATOM      7  C   UNL A   1      34.353  31.320  27.562  1.00  0.00     0.118 C 
BRANCH   7   8
ATOM      8  N   UNL A   1      34.446  31.707  28.953  1.00  0.00    -0.352 N 
ATOM      9  O   UNL A   1      35.297  32.261  30.919  1.00  0.00    -0.269 OA
ATOM     10  C   UNL A   1      35.448  31.617  29.880  1.00  0.00     0.251 C 
ATOM     11  H   UNL A   1      33.623  32.119  29.302  1.00  0.00     0.163 HD
BRANCH  10  12
ATOM     12  C   UNL A   1      36.626  30.719  29.750  1.00  0.00     0.039 A 
ATOM     13  C   UNL A   1      36.612  29.335  29.932  1.00  0.00     0.014 A 
ATOM     14  C   UNL A   1      37.857  31.356  29.518  1.00  0.00     0.014 A 
ATOM     15  C   UNL A   1      37.795  28.629  30.065  1.00  0.00     0.010 A 
ATOM     16  C   UNL A   1      39.044  30.647  29.594  1.00  0.00     0.010 A 
ATOM     17  C   UNL A   1      39.008  29.297  29.931  1.00  0.00    -0.014 A 
BRANCH  17  18
ATOM     18  C   UNL A   1      40.225  28.501  29.987  1.00  0.00     0.031 A 
ATOM     19  C   UNL A   1      40.824  28.391  31.351  1.00  0.00     0.074 A 
ATOM     20  C   UNL A   1      40.663  27.799  28.925  1.00  0.00     0.049 A 
ATOM     21  N   UNL A   1      42.038  28.636  31.724  1.00  0.00    -0.248 NA
ATOM     22  C   UNL A   1      39.912  28.065  32.464  1.00  0.00     0.031 C 
ATOM     23  C   UNL A   1      39.998  27.622  27.631  1.00  0.00     0.029 A 
ATOM     24  N   UNL A   1      41.736  26.966  28.833  1.00  0.00    -0.354 N 
ATOM     25  C   UNL A   1      42.089  28.330  33.085  1.00  0.00     0.074 A 
ATOM     26  C   UNL A   1      40.732  28.115  33.512  1.00  0.00     0.031 C 
ATOM     27  C   UNL A   1      40.528  26.548  27.003  1.00  0.00     0.029 A 
ATOM     28  C   UNL A   1      41.644  26.052  27.789  1.00  0.00     0.049 A 
ATOM     29  H   UNL A   1      42.503  27.005  29.448  1.00  0.00     0.167 HD
ATOM     30  C   UNL A   1      43.259  28.047  33.720  1.00  0.00     0.031 A 
ATOM     31  C   UNL A   1      42.373  24.919  27.637  1.00  0.00     0.031 A 
ATOM     32  C   UNL A   1      44.397  28.560  33.009  1.00  0.00     0.049 A 
ATOM     33  C   UNL A   1      43.562  25.024  28.513  1.00  0.00     0.074 A 
ATOM     34  C   UNL A   1      44.831  29.818  32.641  1.00  0.00     0.029 A 
ATOM     35  N   UNL A   1      45.120  27.677  32.247  1.00  0.00    -0.354 N 
ATOM     36  N   UNL A   1      44.525  25.876  28.317  1.00  0.00    -0.248 NA
ATOM     37  C   UNL A   1      43.461  24.492  29.864  1.00  0.00     0.031 C 
ATOM     38  C   UNL A   1      45.411  29.640  31.351  1.00  0.00     0.029 A 
ATOM     39  C   UNL A   1      45.349  28.281  31.040  1.00  0.00     0.049 A 
ATOM     40  H   UNL A   1      45.419  26.778  32.517  1.00  0.00     0.167 HD
ATOM     41  C   UNL A   1      44.866  26.321  29.586  1.00  0.00     0.074 A 
ATOM     42  C   UNL A   1      44.245  25.365  30.503  1.00  0.00     0.031 C 
ATOM     43  C   UNL A   1      45.374  27.573  29.782  1.00  0.00     0.031 A 
BRANCH  30  44
ATOM     44  C   UNL A   1      43.386  26.930  34.732  1.00  0.00    -0.014 A 
ATOM     45  C   UNL A   1      43.114  25.613  34.319  1.00  0.00     0.009 A 
ATOM     46  C   UNL A   1      43.450  27.153  36.122  1.00  0.00     0.009 A 
ATOM     47  C   UNL A   1      42.814  24.605  35.245  1.00  0.00     0.001 A 
ATOM     48  C   UNL A   1      43.192  26.141  37.049  1.00  0.00     0.001 A 
ATOM     49  C   UNL A   1      42.839  24.875  36.609  1.00  0.00     0.000 A 
ENDBRANCH  30  44
BRANCH  31  50
ATOM     50  C   UNL A   1      41.941  23.630  27.051  1.00  0.00    -0.014 A 
ATOM     51  C   UNL A   1      42.735  22.962  26.106  1.00  0.00     0.009 A 
ATOM     52  C   UNL A   1      40.865  22.921  27.620  1.00  0.00     0.009 A 
ATOM     53  C   UNL A   1      42.476  21.626  25.765  1.00  0.00     0.001 A 
ATOM     54  C   UNL A   1      40.606  21.591  27.278  1.00  0.00     0.001 A 
ATOM     55  C   UNL A   1      41.420  20.938  26.359  1.00  0.00     0.000 A 
ENDBRANCH  31  50
BRANCH  43  56
ATOM     56  C   UNL A   1      45.741  28.386  28.565  1.00  0.00    -0.014 A 
ATOM     57  C   UNL A   1      44.821  29.209  27.892  1.00  0.00     0.009 A 
ATOM     58  C   UNL A   1      47.090  28.451  28.192  1.00  0.00     0.009 A 
ATOM     59  C   UNL A   1      45.238  30.051  26.856  1.00  0.00     0.001 A 
ATOM     60  C   UNL A   1      47.510  29.306  27.171  1.00  0.00     0.001 A 
ATOM     61  C   UNL A   1      46.585  30.102  26.500  1.00  0.00     0.000 A 
ENDBRANCH  43  56
ENDBRANCH  17  18
ENDBRANCH  10  12
ENDBRANCH   7   8
ENDBRANCH   6   7
ENDBRANCH   5   6
ENDBRANCH   1   5
BRANCH   2  62
ATOM     62  C   UNL A   1      31.816  28.016  24.013  1.00  0.00     0.112 A 
ATOM     63  S   UNL A   1      30.739  28.602  22.793  1.00  0.00    -0.137 S 
ATOM     64  C   UNL A   1      31.197  27.073  24.816  1.00  0.00     0.111 A 
ATOM     65  C   UNL A   1      29.508  27.525  23.248  1.00  0.00     0.067 A 
ATOM     66  C   UNL A   1      29.877  26.761  24.327  1.00  0.00     0.035 A 
BRANCH  64  67
ATOM     67  S   UNL A   1      31.748  26.264  26.255  1.00  0.00     0.263 S 
ATOM     68  O   UNL A   1      33.122  25.959  25.953  1.00  0.00    -0.201 OA
ATOM     69  O   UNL A   1      31.413  27.230  27.292  1.00  0.00    -0.201 OA
BRANCH  67  70
ATOM     70  N   UNL A   1      31.003  24.863  26.729  1.00  0.00    -0.280 N 
ATOM     71  H   UNL A   1      30.124  24.957  27.163  1.00  0.00     0.180 HD
BRANCH  70  72
ATOM     72  C   UNL A   1      31.497  23.553  26.576  1.00  0.00     0.049 A 
ATOM     73  C   UNL A   1      31.091  22.899  25.410  1.00  0.00     0.027 A 
ATOM     74  C   UNL A   1      32.467  22.986  27.393  1.00  0.00     0.027 A 
ATOM     75  C   UNL A   1      31.821  21.816  24.932  1.00  0.00     0.008 A 
ATOM     76  C   UNL A   1      33.180  21.876  26.929  1.00  0.00     0.008 A 
ATOM     77  C   UNL A   1      32.923  21.342  25.655  1.00  0.00    -0.026 A 
BRANCH  77  78
ATOM     78  C   UNL A   1      33.908  20.388  25.022  1.00  0.00     0.181 C 
BRANCH  78  79
ATOM     79  N   UNL A   1      33.356  19.066  24.819  1.00  0.00    -0.249 N 
ATOM     80  C   UNL A   1      33.402  18.309  23.688  1.00  0.00     0.220 A 
ATOM     81  N   UNL A   1      32.824  18.370  25.841  1.00  0.00    -0.160 NA
ATOM     82  N   UNL A   1      32.873  17.132  23.924  1.00  0.00    -0.224 NA
ATOM     83  C   UNL A   1      32.535  17.211  25.245  1.00  0.00     0.246 A 
ENDBRANCH  78  79
ENDBRANCH  77  78
ENDBRANCH  70  72
ENDBRANCH  67  70
ENDBRANCH  64  67
ENDBRANCH   2  62
TORSDOF 15
ENDMDL
MODEL 2
REMARK VINA RESULT:     -11.8      2.752      5.249
REMARK SMILES O=C(NCCCNC(=O)c1sccc1S(=O)(=O)Nc1ccc(Cn2cncn2)cc1)c1ccc(-c2c3nc(c(-c4ccccc4)c4ccc([nH]4)c(-c4ccccc4)c4nc(c(-c5ccccc5)c5ccc2[nH]5)C=C4)C=C3)cc1
REMARK SMILES IDX 7 1 8 2 9 3 6 5 5 6 4 7 3 8 1 9 2 10 31 12 32 13 78 14 33 15
REMARK SMILES IDX 77 16 34 17 35 18 36 19 71 20 37 21 76 22 70 23 72 24 38 25
REMARK SMILES IDX 75 26 69 27 68 28 39 30 61 31 46 32 60 33 47 34 50 35 59 36
REMARK SMILES IDX 73 37 48 38 49 39 58 41 74 42 51 43 40 44 41 45 45 46 42 47
REMARK SMILES IDX 44 48 43 49 62 50 63 51 67 52 64 53 66 54 65 55 52 56 53 57
REMARK SMILES IDX 57 58 54 59 56 60 55 61 10 62 11 63 14 64 12 65 13 66 15 67
REMARK SMILES IDX 16 68 17 69 18 70 19 72 20 73 30 74 21 75 29 76 22 77 23 78
REMARK SMILES IDX 24 79 25 80 28 81 26 82 27 83
REMARK H PARENT 7 4 3 11 72 29 50 40 18 71
REMARK Flexibility Score: inf
ROOT
ATOM      1  N   UNL A   1      32.722  25.909  26.099  1.00  0.00    -0.351 N 
ATOM      2  C   UNL A   1      32.797  24.569  25.869  1.00  0.00     0.262 C 
ATOM      3  O   UNL A   1      31.861  23.894  26.306  1.00  0.00    -0.268 OA
ATOM      4  H   UNL A   1      32.030  26.175  26.748  1.00  0.00     0.163 HD
ENDROOT
BRANCH   1   5
ATOM      5  C   UNL A   1      33.486  27.007  25.552  1.00  0.00     0.118 C 
BRANCH   5   6
ATOM      6  C   UNL A   1      32.820  28.334  25.877  1.00  0.00     0.042 C 
BRANCH   6   7
ATOM      7  C   UNL A   1      32.908  28.737  27.355  1.00  0.00     0.118 C 
BRANCH   7   8
ATOM      8  N   UNL A   1      32.987  30.161  27.601  1.00  0.00    -0.352 N 
ATOM      9  O   UNL A   1      33.751  32.236  27.653  1.00  0.00    -0.269 OA
ATOM     10  C   UNL A   1      34.035  31.038  27.668  1.00  0.00     0.251 C 
ATOM     11  H   UNL A   1      32.111  30.583  27.750  1.00  0.00     0.163 HD
BRANCH  10  12
ATOM     12  C   UNL A   1      35.451  30.631  27.862  1.00  0.00     0.039 A 
ATOM     13  C   UNL A   1      35.956  29.343  27.676  1.00  0.00     0.014 A 
ATOM     14  C   UNL A   1      36.309  31.625  28.365  1.00  0.00     0.014 A 
ATOM     15  C   UNL A   1      37.213  29.003  28.146  1.00  0.00     0.010 A 
ATOM     16  C   UNL A   1      37.589  31.305  28.787  1.00  0.00     0.010 A 
ATOM     17  C   UNL A   1      38.010  29.979  28.733  1.00  0.00    -0.014 A 
BRANCH  17  18
ATOM     18  C   UNL A   1      39.358  29.600  29.130  1.00  0.00     0.031 A 
ATOM     19  C   UNL A   1      39.569  29.545  30.607  1.00  0.00     0.074 A 
ATOM     20  C   UNL A   1      40.270  29.180  28.233  1.00  0.00     0.049 A 
ATOM     21  N   UNL A   1      40.489  30.115  31.316  1.00  0.00    -0.248 NA
ATOM     22  C   UNL A   1      38.551  28.840  31.409  1.00  0.00     0.031 C 
ATOM     23  C   UNL A   1      40.073  28.937  26.801  1.00  0.00     0.029 A 
ATOM     24  N   UNL A   1      41.539  28.736  28.446  1.00  0.00    -0.354 N 
ATOM     25  C   UNL A   1      40.270  29.705  32.631  1.00  0.00     0.074 A 
ATOM     26  C   UNL A   1      38.995  29.036  32.648  1.00  0.00     0.031 C 
ATOM     27  C   UNL A   1      41.073  28.151  26.343  1.00  0.00     0.029 A 
ATOM     28  C   UNL A   1      42.036  27.950  27.413  1.00  0.00     0.049 A 
ATOM     29  H   UNL A   1      42.056  28.949  29.256  1.00  0.00     0.167 HD
ATOM     30  C   UNL A   1      41.251  29.736  33.574  1.00  0.00     0.031 A 
ATOM     31  C   UNL A   1      43.107  27.120  27.468  1.00  0.00     0.031 A 
ATOM     32  C   UNL A   1      42.305  30.648  33.223  1.00  0.00     0.049 A 
ATOM     33  C   UNL A   1      43.914  27.501  28.649  1.00  0.00     0.074 A 
ATOM     34  C   UNL A   1      42.387  32.008  33.006  1.00  0.00     0.029 A 
ATOM     35  N   UNL A   1      43.455  30.115  32.694  1.00  0.00    -0.354 N 
ATOM     36  N   UNL A   1      44.561  28.626  28.745  1.00  0.00    -0.248 NA
ATOM     37  C   UNL A   1      43.634  26.831  29.909  1.00  0.00     0.031 C 
ATOM     38  C   UNL A   1      43.317  32.151  31.935  1.00  0.00     0.029 A 
ATOM     39  C   UNL A   1      43.789  30.879  31.609  1.00  0.00     0.049 A 
ATOM     40  H   UNL A   1      43.946  29.331  33.031  1.00  0.00     0.167 HD
ATOM     41  C   UNL A   1      44.383  29.023  30.062  1.00  0.00     0.074 A 
ATOM     42  C   UNL A   1      43.887  27.835  30.754  1.00  0.00     0.031 C 
ATOM     43  C   UNL A   1      44.382  30.346  30.405  1.00  0.00     0.031 A 
BRANCH  30  44
ATOM     44  C   UNL A   1      41.459  28.618  34.570  1.00  0.00    -0.014 A 
ATOM     45  C   UNL A   1      41.974  28.935  35.841  1.00  0.00     0.009 A 
ATOM     46  C   UNL A   1      41.466  27.257  34.210  1.00  0.00     0.009 A 
ATOM     47  C   UNL A   1      42.565  27.958  36.652  1.00  0.00     0.001 A 
ATOM     48  C   UNL A   1      42.017  26.273  35.035  1.00  0.00     0.001 A 
ATOM     49  C   UNL A   1      42.599  26.630  36.241  1.00  0.00     0.000 A 
ENDBRANCH  30  44
BRANCH  31  50
ATOM     50  C   UNL A   1      43.294  25.828  26.772  1.00  0.00    -0.014 A 
ATOM     51  C   UNL A   1      42.377  24.778  26.936  1.00  0.00     0.009 A 
ATOM     52  C   UNL A   1      44.238  25.715  25.732  1.00  0.00     0.009 A 
ATOM     53  C   UNL A   1      42.390  23.671  26.074  1.00  0.00     0.001 A 
ATOM     54  C   UNL A   1      44.252  24.610  24.876  1.00  0.00     0.001 A 
ATOM     55  C   UNL A   1      43.319  23.594  25.038  1.00  0.00     0.000 A 
ENDBRANCH  31  50
BRANCH  43  56
ATOM     56  C   UNL A   1      44.775  31.350  29.352  1.00  0.00    -0.014 A 
ATOM     57  C   UNL A   1      43.875  31.839  28.388  1.00  0.00     0.009 A 
ATOM     58  C   UNL A   1      46.042  31.944  29.440  1.00  0.00     0.009 A 
ATOM     59  C   UNL A   1      44.244  32.872  27.520  1.00  0.00     0.001 A 
ATOM     60  C   UNL A   1      46.404  32.988  28.588  1.00  0.00     0.001 A 
ATOM     61  C   UNL A   1      45.508  33.449  27.625  1.00  0.00     0.000 A 
ENDBRANCH  43  56
ENDBRANCH  17  18
ENDBRANCH  10  12
ENDBRANCH   7   8
ENDBRANCH   6   7
ENDBRANCH   5   6
ENDBRANCH   1   5
BRANCH   2  62
ATOM     62  C   UNL A   1      33.886  24.026  25.099  1.00  0.00     0.112 A 
ATOM     63  S   UNL A   1      35.164  23.353  26.051  1.00  0.00    -0.137 S 
ATOM     64  C   UNL A   1      34.180  23.957  23.747  1.00  0.00     0.111 A 
ATOM     65  C   UNL A   1      36.037  22.863  24.680  1.00  0.00     0.067 A 
ATOM     66  C   UNL A   1      35.406  23.233  23.519  1.00  0.00     0.035 A 
BRANCH  64  67
ATOM     67  S   UNL A   1      33.335  24.592  22.364  1.00  0.00     0.263 S 
ATOM     68  O   UNL A   1      33.875  25.919  22.231  1.00  0.00    -0.201 OA
ATOM     69  O   UNL A   1      33.602  23.577  21.355  1.00  0.00    -0.201 OA
BRANCH  67  70
ATOM     70  N   UNL A   1      31.684  24.711  22.411  1.00  0.00    -0.280 N 
ATOM     71  H   UNL A   1      31.176  23.951  22.046  1.00  0.00     0.180 HD
BRANCH  70  72
ATOM     72  C   UNL A   1      30.931  25.788  22.920  1.00  0.00     0.049 A 
ATOM     73  C   UNL A   1      31.110  27.003  22.255  1.00  0.00     0.027 A 
ATOM     74  C   UNL A   1      29.934  25.657  23.878  1.00  0.00     0.027 A 
ATOM     75  C   UNL A   1      30.147  28.001  22.360  1.00  0.00     0.008 A 
ATOM     76  C   UNL A   1      28.983  26.673  24.010  1.00  0.00     0.008 A 
ATOM     77  C   UNL A   1      29.031  27.810  23.186  1.00  0.00    -0.026 A 
BRANCH  77  78
ATOM     78  C   UNL A   1      27.832  28.723  23.085  1.00  0.00     0.181 C 
BRANCH  78  79
ATOM     79  N   UNL A   1      28.154  30.008  22.503  1.00  0.00    -0.249 N 
ATOM     80  C   UNL A   1      28.687  31.094  23.127  1.00  0.00     0.220 A 
ATOM     81  N   UNL A   1      28.068  30.211  21.175  1.00  0.00    -0.160 NA
ATOM     82  N   UNL A   1      28.921  32.037  22.245  1.00  0.00    -0.224 NA
ATOM     83  C   UNL A   1      28.531  31.459  21.071  1.00  0.00     0.246 A 
ENDBRANCH  78  79
ENDBRANCH  77  78
ENDBRANCH  70  72
ENDBRANCH  67  70
ENDBRANCH  64  67
ENDBRANCH   2  62
TORSDOF 15
ENDMDL
MODEL 3
REMARK VINA RESULT:     -11.6      2.754      7.388
REMARK SMILES O=C(NCCCNC(=O)c1sccc1S(=O)(=O)Nc1ccc(Cn2cncn2)cc1)c1ccc(-c2c3nc(c(-c4ccccc4)c4ccc([nH]4)c(-c4ccccc4)c4nc(c(-c5ccccc5)c5ccc2[nH]5)C=C4)C=C3)cc1
REMARK SMILES IDX 7 1 8 2 9 3 6 5 5 6 4 7 3 8 1 9 2 10 31 12 32 13 78 14 33 15
REMARK SMILES IDX 77 16 34 17 35 18 36 19 71 20 37 21 76 22 70 23 72 24 38 25
REMARK SMILES IDX 75 26 69 27 68 28 39 30 61 31 46 32 60 33 47 34 50 35 59 36
REMARK SMILES IDX 73 37 48 38 49 39 58 41 74 42 51 43 40 44 41 45 45 46 42 47
REMARK SMILES IDX 44 48 43 49 62 50 63 51 67 52 64 53 66 54 65 55 52 56 53 57
REMARK SMILES IDX 57 58 54 59 56 60 55 61 10 62 11 63 14 64 12 65 13 66 15 67
REMARK SMILES IDX 16 68 17 69 18 70 19 72 20 73 30 74 21 75 29 76 22 77 23 78
REMARK SMILES IDX 24 79 25 80 28 81 26 82 27 83
REMARK H PARENT 7 4 3 11 72 29 50 40 18 71
REMARK Flexibility Score: inf
ROOT
ATOM      1  N   UNL A   1      32.181  26.085  26.492  1.00  0.00    -0.351 N 
ATOM      2  C   UNL A   1      32.027  24.757  26.235  1.00  0.00     0.262 C 
ATOM      3  O   UNL A   1      30.927  24.277  26.520  1.00  0.00    -0.268 OA
ATOM      4  H   UNL A   1      31.470  26.480  27.048  1.00  0.00     0.163 HD
ENDROOT
BRANCH   1   5
ATOM      5  C   UNL A   1      33.211  27.014  26.088  1.00  0.00     0.118 C 
BRANCH   5   6
ATOM      6  C   UNL A   1      33.326  28.153  27.089  1.00  0.00     0.042 C 
BRANCH   6   7
ATOM      7  C   UNL A   1      34.715  28.803  27.144  1.00  0.00     0.118 C 
BRANCH   7   8
ATOM      8  N   UNL A   1      34.949  29.658  28.288  1.00  0.00    -0.352 N 
ATOM      9  O   UNL A   1      35.968  30.985  29.735  1.00  0.00    -0.269 OA
ATOM     10  C   UNL A   1      36.086  30.052  28.940  1.00  0.00     0.251 C 
ATOM     11  H   UNL A   1      34.125  30.032  28.674  1.00  0.00     0.163 HD
BRANCH  10  12
ATOM     12  C   UNL A   1      37.396  29.360  28.823  1.00  0.00     0.039 A 
ATOM     13  C   UNL A   1      37.941  28.496  29.774  1.00  0.00     0.014 A 
ATOM     14  C   UNL A   1      38.166  29.696  27.697  1.00  0.00     0.014 A 
ATOM     15  C   UNL A   1      39.273  28.125  29.708  1.00  0.00     0.010 A 
ATOM     16  C   UNL A   1      39.484  29.283  27.594  1.00  0.00     0.010 A 
ATOM     17  C   UNL A   1      40.049  28.551  28.635  1.00  0.00    -0.014 A 
BRANCH  17  18
ATOM     18  C   UNL A   1      41.418  28.063  28.557  1.00  0.00     0.031 A 
ATOM     19  C   UNL A   1      41.549  26.701  27.958  1.00  0.00     0.074 A 
ATOM     20  C   UNL A   1      42.470  28.850  28.850  1.00  0.00     0.049 A 
ATOM     21  N   UNL A   1      42.158  25.663  28.433  1.00  0.00    -0.248 NA
ATOM     22  C   UNL A   1      40.809  26.437  26.710  1.00  0.00     0.031 C 
ATOM     23  C   UNL A   1      42.457  30.278  29.179  1.00  0.00     0.029 A 
ATOM     24  N   UNL A   1      43.799  28.567  28.769  1.00  0.00    -0.354 N 
ATOM     25  C   UNL A   1      42.026  24.665  27.466  1.00  0.00     0.074 A 
ATOM     26  C   UNL A   1      41.080  25.152  26.497  1.00  0.00     0.031 C 
ATOM     27  C   UNL A   1      43.698  30.784  29.002  1.00  0.00     0.029 A 
ATOM     28  C   UNL A   1      44.605  29.697  28.678  1.00  0.00     0.049 A 
ATOM     29  H   UNL A   1      44.157  27.650  28.772  1.00  0.00     0.167 HD
ATOM     30  C   UNL A   1      42.874  23.602  27.401  1.00  0.00     0.031 A 
ATOM     31  C   UNL A   1      45.899  29.740  28.273  1.00  0.00     0.031 A 
ATOM     32  C   UNL A   1      43.547  23.372  28.649  1.00  0.00     0.049 A 
ATOM     33  C   UNL A   1      46.444  28.366  28.353  1.00  0.00     0.074 A 
ATOM     34  C   UNL A   1      43.144  23.050  29.929  1.00  0.00     0.029 A 
ATOM     35  N   UNL A   1      44.840  23.820  28.765  1.00  0.00    -0.354 N 
ATOM     36  N   UNL A   1      46.635  27.733  29.474  1.00  0.00    -0.248 NA
ATOM     37  C   UNL A   1      46.352  27.527  27.169  1.00  0.00     0.031 C 
ATOM     38  C   UNL A   1      44.020  23.782  30.782  1.00  0.00     0.029 A 
ATOM     39  C   UNL A   1      44.938  24.455  29.973  1.00  0.00     0.049 A 
ATOM     40  H   UNL A   1      45.560  23.706  28.104  1.00  0.00     0.167 HD
ATOM     41  C   UNL A   1      46.250  26.427  29.211  1.00  0.00     0.074 A 
ATOM     42  C   UNL A   1      46.176  26.338  27.754  1.00  0.00     0.031 C 
ATOM     43  C   UNL A   1      45.752  25.626  30.200  1.00  0.00     0.031 A 
BRANCH  30  44
ATOM     44  C   UNL A   1      43.413  23.071  26.092  1.00  0.00    -0.014 A 
ATOM     45  C   UNL A   1      43.455  21.678  25.897  1.00  0.00     0.009 A 
ATOM     46  C   UNL A   1      44.158  23.855  25.190  1.00  0.00     0.009 A 
ATOM     47  C   UNL A   1      44.284  21.102  24.926  1.00  0.00     0.001 A 
ATOM     48  C   UNL A   1      44.954  23.286  24.193  1.00  0.00     0.001 A 
ATOM     49  C   UNL A   1      45.045  21.908  24.085  1.00  0.00     0.000 A 
ENDBRANCH  30  44
BRANCH  31  50
ATOM     50  C   UNL A   1      46.579  30.812  27.514  1.00  0.00    -0.014 A 
ATOM     51  C   UNL A   1      45.872  31.934  27.053  1.00  0.00     0.009 A 
ATOM     52  C   UNL A   1      47.986  30.863  27.469  1.00  0.00     0.009 A 
ATOM     53  C   UNL A   1      46.550  33.071  26.590  1.00  0.00     0.001 A 
ATOM     54  C   UNL A   1      48.661  31.995  27.005  1.00  0.00     0.001 A 
ATOM     55  C   UNL A   1      47.943  33.106  26.578  1.00  0.00     0.000 A 
ENDBRANCH  31  50
BRANCH  43  56
ATOM     56  C   UNL A   1      45.817  26.131  31.619  1.00  0.00    -0.014 A 
ATOM     57  C   UNL A   1      44.798  26.907  32.201  1.00  0.00     0.009 A 
ATOM     58  C   UNL A   1      46.854  25.671  32.441  1.00  0.00     0.009 A 
ATOM     59  C   UNL A   1      44.834  27.234  33.561  1.00  0.00     0.001 A 
ATOM     60  C   UNL A   1      46.880  25.981  33.802  1.00  0.00     0.001 A 
ATOM     61  C   UNL A   1      45.874  26.766  34.361  1.00  0.00     0.000 A 
ENDBRANCH  43  56
ENDBRANCH  17  18
ENDBRANCH  10  12
ENDBRANCH   7   8
ENDBRANCH   6   7
ENDBRANCH   5   6
ENDBRANCH   1   5
BRANCH   2  62
ATOM     62  C   UNL A   1      33.088  24.013  25.606  1.00  0.00     0.112 A 
ATOM     63  S   UNL A   1      34.037  23.066  26.699  1.00  0.00    -0.137 S 
ATOM     64  C   UNL A   1      33.568  23.914  24.311  1.00  0.00     0.111 A 
ATOM     65  C   UNL A   1      34.994  22.433  25.447  1.00  0.00     0.067 A 
ATOM     66  C   UNL A   1      34.640  22.953  24.227  1.00  0.00     0.035 A 
BRANCH  64  67
ATOM     67  S   UNL A   1      33.097  24.742  22.855  1.00  0.00     0.263 S 
ATOM     68  O   UNL A   1      33.725  26.030  22.993  1.00  0.00    -0.201 OA
ATOM     69  O   UNL A   1      33.532  23.811  21.823  1.00  0.00    -0.201 OA
BRANCH  67  70
ATOM     70  N   UNL A   1      31.488  24.985  22.549  1.00  0.00    -0.280 N 
ATOM     71  H   UNL A   1      31.039  24.311  21.989  1.00  0.00     0.180 HD
BRANCH  70  72
ATOM     72  C   UNL A   1      30.696  26.056  23.006  1.00  0.00     0.049 A 
ATOM     73  C   UNL A   1      30.998  27.299  22.445  1.00  0.00     0.027 A 
ATOM     74  C   UNL A   1      29.567  25.905  23.802  1.00  0.00     0.027 A 
ATOM     75  C   UNL A   1      30.053  28.320  22.469  1.00  0.00     0.008 A 
ATOM     76  C   UNL A   1      28.632  26.943  23.856  1.00  0.00     0.008 A 
ATOM     77  C   UNL A   1      28.825  28.120  23.114  1.00  0.00    -0.026 A 
BRANCH  77  78
ATOM     78  C   UNL A   1      27.676  29.076  22.895  1.00  0.00     0.181 C 
BRANCH  78  79
ATOM     79  N   UNL A   1      28.113  30.435  22.665  1.00  0.00    -0.249 N 
ATOM     80  C   UNL A   1      28.049  31.145  21.505  1.00  0.00     0.220 A 
ATOM     81  N   UNL A   1      28.532  31.213  23.680  1.00  0.00    -0.160 NA
ATOM     82  N   UNL A   1      28.457  32.373  21.717  1.00  0.00    -0.224 NA
ATOM     83  C   UNL A   1      28.741  32.373  23.053  1.00  0.00     0.246 A 
ENDBRANCH  78  79
ENDBRANCH  77  78
ENDBRANCH  70  72
ENDBRANCH  67  70
ENDBRANCH  64  67
ENDBRANCH   2  62
TORSDOF 15
ENDMDL
