MODEL 1
REMARK VINA RESULT:     -11.8      0.000      0.000
REMARK SMILES Cc1cc(=O)c(Oc2ccc(C(=O)NCCCNC(=O)c3ccc(-c4c5nc(c(-c6ccccc6)c6ccc([nH]6)c(-c6ccccc6)c6nc(c(-c7ccccc7)c7ccc4[nH]7)C=C6)C=C5)cc3)cc2)c(-c2ccc(S(C)(=O)=O)cc2)o1
REMARK SMILES IDX 15 1 14 2 12 3 13 4 11 6 8 7 9 8 70 9 10 10 69 11 7 12 6 13
REMARK SMILES IDX 1 14 2 15 3 16 82 17 4 18 71 19 5 20 72 21 73 22 81 23 74 24
REMARK SMILES IDX 80 25 75 26 76 27 77 28 78 29 79 30 16 31 17 32 18 33 19 34
REMARK SMILES IDX 20 36 21 37 22 38 68 39 23 40 67 41 24 42 25 43 26 44 61 45
REMARK SMILES IDX 27 46 66 47 60 48 62 49 28 50 65 51 59 52 58 53 29 55 51 56
REMARK SMILES IDX 36 57 50 58 37 59 40 60 49 61 63 62 38 63 39 64 48 66 64 67
REMARK SMILES IDX 41 68 30 69 31 70 35 71 32 72 34 73 33 74 52 75 53 76 57 77
REMARK SMILES IDX 54 78 56 79 55 80 42 81 43 82 47 83 44 84 46 85 45 86
REMARK H PARENT 14 5 18 35 62 54 40 65
REMARK Flexibility Score: inf
ROOT
ATOM      1  C   UNL A   1      31.638  27.253  26.453  1.00  0.00     0.118 C 
ENDROOT
BRANCH   1   2
ATOM      2  N   UNL A   1      30.653  27.389  25.395  1.00  0.00    -0.352 N 
ATOM      3  C   UNL A   1      29.910  26.463  24.698  1.00  0.00     0.251 C 
ATOM      4  O   UNL A   1      29.018  26.872  23.958  1.00  0.00    -0.269 OA
ATOM      5  H   UNL A   1      30.484  28.319  25.123  1.00  0.00     0.163 HD
BRANCH   3   6
ATOM      6  C   UNL A   1      30.223  25.010  24.715  1.00  0.00     0.040 A 
ATOM      7  C   UNL A   1      31.423  22.505  24.564  1.00  0.00     0.127 A 
ATOM      8  C   UNL A   1      30.939  23.094  23.403  1.00  0.00     0.048 A 
ATOM      9  C   UNL A   1      31.087  23.040  25.805  1.00  0.00     0.048 A 
ATOM     10  C   UNL A   1      30.380  24.371  23.475  1.00  0.00     0.017 A 
ATOM     11  C   UNL A   1      30.440  24.273  25.877  1.00  0.00     0.017 A 
BRANCH   7  12
ATOM     12  O   UNL A   1      32.149  21.352  24.571  1.00  0.00    -0.449 OA
BRANCH  12  13
ATOM     13  C   UNL A   1      33.535  21.304  24.643  1.00  0.00     0.217 A 
ATOM     14  C   UNL A   1      37.782  20.513  24.746  1.00  0.00     0.088 C 
ATOM     15  C   UNL A   1      36.299  20.692  24.806  1.00  0.00     0.105 A 
ATOM     16  C   UNL A   1      35.463  19.707  25.135  1.00  0.00     0.098 A 
ATOM     17  O   UNL A   1      35.862  21.959  24.482  1.00  0.00    -0.457 OA
ATOM     18  C   UNL A   1      34.019  19.971  25.128  1.00  0.00     0.228 A 
ATOM     19  C   UNL A   1      34.498  22.234  24.399  1.00  0.00     0.180 A 
ATOM     20  O   UNL A   1      33.250  19.095  25.515  1.00  0.00    -0.285 OA
BRANCH  19  21
ATOM     21  C   UNL A   1      34.309  23.640  23.989  1.00  0.00     0.021 A 
ATOM     22  C   UNL A   1      34.120  23.948  22.629  1.00  0.00     0.013 A 
ATOM     23  C   UNL A   1      34.326  24.683  24.926  1.00  0.00     0.013 A 
ATOM     24  C   UNL A   1      33.862  25.261  22.223  1.00  0.00     0.021 A 
ATOM     25  C   UNL A   1      34.082  26.002  24.524  1.00  0.00     0.021 A 
ATOM     26  C   UNL A   1      33.836  26.281  23.177  1.00  0.00     0.067 A 
BRANCH  26  27
ATOM     27  S   UNL A   1      33.383  27.927  22.674  1.00  0.00     0.175 S 
ATOM     28  C   UNL A   1      33.852  28.934  24.053  1.00  0.00     0.163 C 
ATOM     29  O   UNL A   1      34.233  28.286  21.558  1.00  0.00    -0.224 OA
ATOM     30  O   UNL A   1      31.933  27.977  22.567  1.00  0.00    -0.224 OA
ENDBRANCH  26  27
ENDBRANCH  19  21
ENDBRANCH  12  13
ENDBRANCH   7  12
ENDBRANCH   3   6
ENDBRANCH   1   2
BRANCH   1  31
ATOM     31  C   UNL A   1      31.895  28.507  27.273  1.00  0.00     0.042 C 
BRANCH  31  32
ATOM     32  C   UNL A   1      33.352  28.881  27.471  1.00  0.00     0.118 C 
BRANCH  32  33
ATOM     33  N   UNL A   1      33.550  30.249  27.936  1.00  0.00    -0.352 N 
ATOM     34  C   UNL A   1      34.628  30.901  28.488  1.00  0.00     0.251 C 
ATOM     35  H   UNL A   1      32.754  30.820  27.835  1.00  0.00     0.163 HD
ATOM     36  O   UNL A   1      34.480  32.048  28.908  1.00  0.00    -0.269 OA
BRANCH  34  37
ATOM     37  C   UNL A   1      35.952  30.247  28.635  1.00  0.00     0.039 A 
ATOM     38  C   UNL A   1      36.326  29.606  29.811  1.00  0.00     0.014 A 
ATOM     39  C   UNL A   1      36.840  30.246  27.552  1.00  0.00     0.014 A 
ATOM     40  C   UNL A   1      37.642  29.198  29.992  1.00  0.00     0.010 A 
ATOM     41  C   UNL A   1      38.123  29.696  27.686  1.00  0.00     0.010 A 
ATOM     42  C   UNL A   1      38.561  29.224  28.930  1.00  0.00    -0.014 A 
BRANCH  42  43
ATOM     43  C   UNL A   1      39.944  28.723  29.167  1.00  0.00     0.031 A 
ATOM     44  C   UNL A   1      40.364  27.339  28.741  1.00  0.00     0.074 A 
ATOM     45  C   UNL A   1      40.860  29.565  29.688  1.00  0.00     0.049 A 
ATOM     46  N   UNL A   1      41.562  26.807  28.752  1.00  0.00    -0.248 NA
ATOM     47  C   UNL A   1      39.316  26.434  28.245  1.00  0.00     0.031 C 
ATOM     48  C   UNL A   1      40.581  30.928  30.148  1.00  0.00     0.029 A 
ATOM     49  N   UNL A   1      42.214  29.428  29.868  1.00  0.00    -0.354 N 
ATOM     50  C   UNL A   1      41.408  25.508  28.279  1.00  0.00     0.074 A 
ATOM     51  C   UNL A   1      39.997  25.316  28.030  1.00  0.00     0.031 C 
ATOM     52  C   UNL A   1      41.734  31.532  30.459  1.00  0.00     0.029 A 
ATOM     53  C   UNL A   1      42.827  30.579  30.308  1.00  0.00     0.049 A 
ATOM     54  H   UNL A   1      42.701  28.588  29.700  1.00  0.00     0.167 HD
ATOM     55  C   UNL A   1      42.358  24.569  28.055  1.00  0.00     0.031 A 
ATOM     56  C   UNL A   1      44.122  30.850  30.562  1.00  0.00     0.031 A 
ATOM     57  C   UNL A   1      43.765  24.763  28.300  1.00  0.00     0.049 A 
ATOM     58  C   UNL A   1      45.149  29.779  30.338  1.00  0.00     0.074 A 
ATOM     59  C   UNL A   1      44.804  23.876  28.076  1.00  0.00     0.029 A 
ATOM     60  N   UNL A   1      44.331  25.915  28.822  1.00  0.00    -0.354 N 
ATOM     61  N   UNL A   1      44.989  28.572  29.853  1.00  0.00    -0.248 NA
ATOM     62  C   UNL A   1      46.536  30.108  30.692  1.00  0.00     0.031 C 
ATOM     63  C   UNL A   1      45.986  24.460  28.534  1.00  0.00     0.029 A 
ATOM     64  C   UNL A   1      45.700  25.747  28.962  1.00  0.00     0.049 A 
ATOM     65  H   UNL A   1      43.836  26.732  29.059  1.00  0.00     0.167 HD
ATOM     66  C   UNL A   1      46.253  27.997  29.839  1.00  0.00     0.074 A 
ATOM     67  C   UNL A   1      47.174  29.004  30.324  1.00  0.00     0.031 C 
ATOM     68  C   UNL A   1      46.611  26.744  29.466  1.00  0.00     0.031 A 
BRANCH  55  69
ATOM     69  C   UNL A   1      41.923  23.228  27.520  1.00  0.00    -0.014 A 
ATOM     70  C   UNL A   1      41.472  22.235  28.406  1.00  0.00     0.009 A 
ATOM     71  C   UNL A   1      42.055  22.908  26.159  1.00  0.00     0.009 A 
ATOM     72  C   UNL A   1      41.184  20.949  27.946  1.00  0.00     0.001 A 
ATOM     73  C   UNL A   1      41.733  21.630  25.696  1.00  0.00     0.001 A 
ATOM     74  C   UNL A   1      41.310  20.648  26.591  1.00  0.00     0.000 A 
ENDBRANCH  55  69
BRANCH  56  75
ATOM     75  C   UNL A   1      44.503  32.208  31.040  1.00  0.00    -0.014 A 
ATOM     76  C   UNL A   1      44.957  33.182  30.136  1.00  0.00     0.009 A 
ATOM     77  C   UNL A   1      44.476  32.519  32.409  1.00  0.00     0.009 A 
ATOM     78  C   UNL A   1      45.416  34.419  30.591  1.00  0.00     0.001 A 
ATOM     79  C   UNL A   1      44.897  33.772  32.858  1.00  0.00     0.001 A 
ATOM     80  C   UNL A   1      45.381  34.715  31.952  1.00  0.00     0.000 A 
ENDBRANCH  56  75
BRANCH  68  81
ATOM     81  C   UNL A   1      48.068  26.374  29.574  1.00  0.00    -0.014 A 
ATOM     82  C   UNL A   1      48.913  26.521  28.463  1.00  0.00     0.009 A 
ATOM     83  C   UNL A   1      48.589  25.813  30.751  1.00  0.00     0.009 A 
ATOM     84  C   UNL A   1      50.244  26.104  28.522  1.00  0.00     0.001 A 
ATOM     85  C   UNL A   1      49.932  25.435  30.820  1.00  0.00     0.001 A 
ATOM     86  C   UNL A   1      50.754  25.570  29.704  1.00  0.00     0.000 A 
ENDBRANCH  68  81
ENDBRANCH  42  43
ENDBRANCH  34  37
ENDBRANCH  32  33
ENDBRANCH  31  32
ENDBRANCH   1  31
TORSDOF 14
ENDMDL
MODEL 2
REMARK VINA RESULT:     -11.5      3.791      8.776
REMARK SMILES Cc1cc(=O)c(Oc2ccc(C(=O)NCCCNC(=O)c3ccc(-c4c5nc(c(-c6ccccc6)c6ccc([nH]6)c(-c6ccccc6)c6nc(c(-c7ccccc7)c7ccc4[nH]7)C=C6)C=C5)cc3)cc2)c(-c2ccc(S(C)(=O)=O)cc2)o1
REMARK SMILES IDX 15 1 14 2 12 3 13 4 11 6 8 7 9 8 70 9 10 10 69 11 7 12 6 13
REMARK SMILES IDX 1 14 2 15 3 16 82 17 4 18 71 19 5 20 72 21 73 22 81 23 74 24
REMARK SMILES IDX 80 25 75 26 76 27 77 28 78 29 79 30 16 31 17 32 18 33 19 34
REMARK SMILES IDX 20 36 21 37 22 38 68 39 23 40 67 41 24 42 25 43 26 44 61 45
REMARK SMILES IDX 27 46 66 47 60 48 62 49 28 50 65 51 59 52 58 53 29 55 51 56
REMARK SMILES IDX 36 57 50 58 37 59 40 60 49 61 63 62 38 63 39 64 48 66 64 67
REMARK SMILES IDX 41 68 30 69 31 70 35 71 32 72 34 73 33 74 52 75 53 76 57 77
REMARK SMILES IDX 54 78 56 79 55 80 42 81 43 82 47 83 44 84 46 85 45 86
REMARK H PARENT 14 5 18 35 62 54 40 65
REMARK Flexibility Score: inf
ROOT
ATOM      1  C   UNL A   1      40.162  21.124  26.014  1.00  0.00     0.118 C 
ENDROOT
BRANCH   1   2
ATOM      2  N   UNL A   1      39.065  20.239  25.663  1.00  0.00    -0.352 N 
ATOM      3  C   UNL A   1      37.852  20.466  25.055  1.00  0.00     0.251 C 
ATOM      4  O   UNL A   1      37.174  19.493  24.728  1.00  0.00    -0.269 OA
ATOM      5  H   UNL A   1      39.218  19.298  25.907  1.00  0.00     0.163 HD
BRANCH   3   6
ATOM      6  C   UNL A   1      37.281  21.829  24.892  1.00  0.00     0.040 A 
ATOM      7  C   UNL A   1      35.630  24.044  24.571  1.00  0.00     0.127 A 
ATOM      8  C   UNL A   1      36.008  23.316  23.452  1.00  0.00     0.048 A 
ATOM      9  C   UNL A   1      36.266  23.824  25.791  1.00  0.00     0.048 A 
ATOM     10  C   UNL A   1      36.799  22.177  23.621  1.00  0.00     0.017 A 
ATOM     11  C   UNL A   1      37.134  22.743  25.935  1.00  0.00     0.017 A 
BRANCH   7  12
ATOM     12  O   UNL A   1      34.714  25.052  24.533  1.00  0.00    -0.449 OA
BRANCH  12  13
ATOM     13  C   UNL A   1      33.427  24.957  25.046  1.00  0.00     0.217 A 
ATOM     14  C   UNL A   1      29.356  25.287  26.460  1.00  0.00     0.088 C 
ATOM     15  C   UNL A   1      30.794  25.278  26.049  1.00  0.00     0.105 A 
ATOM     16  C   UNL A   1      31.546  26.379  26.019  1.00  0.00     0.098 A 
ATOM     17  O   UNL A   1      31.281  24.038  25.694  1.00  0.00    -0.457 OA
ATOM     18  C   UNL A   1      32.937  26.275  25.565  1.00  0.00     0.228 A 
ATOM     19  C   UNL A   1      32.575  23.905  25.193  1.00  0.00     0.180 A 
ATOM     20  O   UNL A   1      33.659  27.268  25.618  1.00  0.00    -0.285 OA
BRANCH  19  21
ATOM     21  C   UNL A   1      32.820  22.492  24.846  1.00  0.00     0.021 A 
ATOM     22  C   UNL A   1      33.406  21.635  25.796  1.00  0.00     0.013 A 
ATOM     23  C   UNL A   1      32.494  21.983  23.580  1.00  0.00     0.013 A 
ATOM     24  C   UNL A   1      33.578  20.275  25.520  1.00  0.00     0.021 A 
ATOM     25  C   UNL A   1      32.677  20.624  23.294  1.00  0.00     0.021 A 
ATOM     26  C   UNL A   1      33.204  19.775  24.271  1.00  0.00     0.067 A 
BRANCH  26  27
ATOM     27  S   UNL A   1      33.308  18.024  23.971  1.00  0.00     0.175 S 
ATOM     28  C   UNL A   1      32.490  17.307  25.368  1.00  0.00     0.163 C 
ATOM     29  O   UNL A   1      32.506  17.739  22.799  1.00  0.00    -0.224 OA
ATOM     30  O   UNL A   1      34.709  17.642  24.039  1.00  0.00    -0.224 OA
ENDBRANCH  26  27
ENDBRANCH  19  21
ENDBRANCH  12  13
ENDBRANCH   7  12
ENDBRANCH   3   6
ENDBRANCH   1   2
BRANCH   1  31
ATOM     31  C   UNL A   1      41.146  20.575  27.034  1.00  0.00     0.042 C 
BRANCH  31  32
ATOM     32  C   UNL A   1      42.486  21.282  27.108  1.00  0.00     0.118 C 
BRANCH  32  33
ATOM     33  N   UNL A   1      42.802  22.068  25.921  1.00  0.00    -0.352 N 
ATOM     34  C   UNL A   1      42.858  23.422  25.686  1.00  0.00     0.251 C 
ATOM     35  H   UNL A   1      43.019  21.522  25.130  1.00  0.00     0.163 HD
ATOM     36  O   UNL A   1      43.039  23.820  24.536  1.00  0.00    -0.269 OA
BRANCH  34  37
ATOM     37  C   UNL A   1      42.661  24.418  26.768  1.00  0.00     0.039 A 
ATOM     38  C   UNL A   1      41.788  24.187  27.825  1.00  0.00     0.014 A 
ATOM     39  C   UNL A   1      43.396  25.610  26.745  1.00  0.00     0.014 A 
ATOM     40  C   UNL A   1      41.465  25.220  28.698  1.00  0.00     0.010 A 
ATOM     41  C   UNL A   1      43.179  26.597  27.717  1.00  0.00     0.010 A 
ATOM     42  C   UNL A   1      42.162  26.439  28.668  1.00  0.00    -0.014 A 
BRANCH  42  43
ATOM     43  C   UNL A   1      41.810  27.490  29.663  1.00  0.00     0.031 A 
ATOM     44  C   UNL A   1      40.606  28.377  29.477  1.00  0.00     0.074 A 
ATOM     45  C   UNL A   1      42.534  27.580  30.797  1.00  0.00     0.049 A 
ATOM     46  N   UNL A   1      40.089  29.243  30.315  1.00  0.00    -0.248 NA
ATOM     47  C   UNL A   1      39.891  28.293  28.194  1.00  0.00     0.031 C 
ATOM     48  C   UNL A   1      43.728  26.784  31.096  1.00  0.00     0.029 A 
ATOM     49  N   UNL A   1      42.348  28.332  31.931  1.00  0.00    -0.354 N 
ATOM     50  C   UNL A   1      39.002  29.810  29.658  1.00  0.00     0.074 A 
ATOM     51  C   UNL A   1      38.958  29.225  28.337  1.00  0.00     0.031 C 
ATOM     52  C   UNL A   1      44.104  27.014  32.360  1.00  0.00     0.029 A 
ATOM     53  C   UNL A   1      43.238  28.035  32.937  1.00  0.00     0.049 A 
ATOM     54  H   UNL A   1      41.646  29.018  32.016  1.00  0.00     0.167 HD
ATOM     55  C   UNL A   1      38.113  30.721  30.121  1.00  0.00     0.031 A 
ATOM     56  C   UNL A   1      43.353  28.521  34.188  1.00  0.00     0.031 A 
ATOM     57  C   UNL A   1      38.155  31.301  31.439  1.00  0.00     0.049 A 
ATOM     58  C   UNL A   1      42.374  29.556  34.662  1.00  0.00     0.074 A 
ATOM     59  C   UNL A   1      37.278  32.211  32.004  1.00  0.00     0.029 A 
ATOM     60  N   UNL A   1      39.121  31.033  32.396  1.00  0.00    -0.354 N 
ATOM     61  N   UNL A   1      41.331  30.049  34.040  1.00  0.00    -0.248 NA
ATOM     62  C   UNL A   1      42.585  30.098  36.011  1.00  0.00     0.031 C 
ATOM     63  C   UNL A   1      37.756  32.552  33.270  1.00  0.00     0.029 A 
ATOM     64  C   UNL A   1      38.882  31.789  33.533  1.00  0.00     0.049 A 
ATOM     65  H   UNL A   1      39.867  30.400  32.285  1.00  0.00     0.167 HD
ATOM     66  C   UNL A   1      40.758  30.956  34.921  1.00  0.00     0.074 A 
ATOM     67  C   UNL A   1      41.545  30.912  36.136  1.00  0.00     0.031 C 
ATOM     68  C   UNL A   1      39.681  31.759  34.733  1.00  0.00     0.031 A 
BRANCH  55  69
ATOM     69  C   UNL A   1      37.005  31.166  29.199  1.00  0.00    -0.014 A 
ATOM     70  C   UNL A   1      36.973  32.491  28.734  1.00  0.00     0.009 A 
ATOM     71  C   UNL A   1      35.938  30.312  28.875  1.00  0.00     0.009 A 
ATOM     72  C   UNL A   1      35.891  32.957  27.984  1.00  0.00     0.001 A 
ATOM     73  C   UNL A   1      34.874  30.771  28.095  1.00  0.00     0.001 A 
ATOM     74  C   UNL A   1      34.845  32.095  27.662  1.00  0.00     0.000 A 
ENDBRANCH  55  69
BRANCH  56  75
ATOM     75  C   UNL A   1      44.435  28.008  35.073  1.00  0.00    -0.014 A 
ATOM     76  C   UNL A   1      45.710  28.599  35.059  1.00  0.00     0.009 A 
ATOM     77  C   UNL A   1      44.221  26.887  35.889  1.00  0.00     0.009 A 
ATOM     78  C   UNL A   1      46.756  28.056  35.806  1.00  0.00     0.001 A 
ATOM     79  C   UNL A   1      45.259  26.370  36.668  1.00  0.00     0.001 A 
ATOM     80  C   UNL A   1      46.529  26.944  36.614  1.00  0.00     0.000 A 
ENDBRANCH  56  75
BRANCH  68  81
ATOM     81  C   UNL A   1      39.286  32.672  35.864  1.00  0.00    -0.014 A 
ATOM     82  C   UNL A   1      39.898  33.929  35.998  1.00  0.00     0.009 A 
ATOM     83  C   UNL A   1      38.363  32.262  36.838  1.00  0.00     0.009 A 
ATOM     84  C   UNL A   1      39.604  34.750  37.088  1.00  0.00     0.001 A 
ATOM     85  C   UNL A   1      38.040  33.102  37.906  1.00  0.00     0.001 A 
ATOM     86  C   UNL A   1      38.668  34.340  38.036  1.00  0.00     0.000 A 
ENDBRANCH  68  81
ENDBRANCH  42  43
ENDBRANCH  34  37
ENDBRANCH  32  33
ENDBRANCH  31  32
ENDBRANCH   1  31
TORSDOF 14
ENDMDL
MODEL 3
REMARK VINA RESULT:     -11.5      3.199      4.843
REMARK SMILES Cc1cc(=O)c(Oc2ccc(C(=O)NCCCNC(=O)c3ccc(-c4c5nc(c(-c6ccccc6)c6ccc([nH]6)c(-c6ccccc6)c6nc(c(-c7ccccc7)c7ccc4[nH]7)C=C6)C=C5)cc3)cc2)c(-c2ccc(S(C)(=O)=O)cc2)o1
REMARK SMILES IDX 15 1 14 2 12 3 13 4 11 6 8 7 9 8 70 9 10 10 69 11 7 12 6 13
REMARK SMILES IDX 1 14 2 15 3 16 82 17 4 18 71 19 5 20 72 21 73 22 81 23 74 24
REMARK SMILES IDX 80 25 75 26 76 27 77 28 78 29 79 30 16 31 17 32 18 33 19 34
REMARK SMILES IDX 20 36 21 37 22 38 68 39 23 40 67 41 24 42 25 43 26 44 61 45
REMARK SMILES IDX 27 46 66 47 60 48 62 49 28 50 65 51 59 52 58 53 29 55 51 56
REMARK SMILES IDX 36 57 50 58 37 59 40 60 49 61 63 62 38 63 39 64 48 66 64 67
REMARK SMILES IDX 41 68 30 69 31 70 35 71 32 72 34 73 33 74 52 75 53 76 57 77
REMARK SMILES IDX 54 78 56 79 55 80 42 81 43 82 47 83 44 84 46 85 45 86
REMARK H PARENT 14 5 18 35 62 54 40 65
REMARK Flexibility Score: inf
ROOT
ATOM      1  C   UNL A   1      33.656  32.238  28.279  1.00  0.00     0.118 C 
ENDROOT
BRANCH   1   2
ATOM      2  N   UNL A   1      32.650  32.241  27.232  1.00  0.00    -0.352 N 
ATOM      3  C   UNL A   1      31.952  31.226  26.617  1.00  0.00     0.251 C 
ATOM      4  O   UNL A   1      31.026  31.530  25.866  1.00  0.00    -0.269 OA
ATOM      5  H   UNL A   1      32.423  33.138  26.897  1.00  0.00     0.163 HD
BRANCH   3   6
ATOM      6  C   UNL A   1      32.348  29.798  26.731  1.00  0.00     0.040 A 
ATOM      7  C   UNL A   1      32.646  27.048  26.444  1.00  0.00     0.127 A 
ATOM      8  C   UNL A   1      31.602  27.538  27.216  1.00  0.00     0.048 A 
ATOM      9  C   UNL A   1      33.667  27.903  26.036  1.00  0.00     0.048 A 
ATOM     10  C   UNL A   1      31.426  28.919  27.320  1.00  0.00     0.017 A 
ATOM     11  C   UNL A   1      33.539  29.277  26.227  1.00  0.00     0.017 A 
BRANCH   7  12
ATOM     12  O   UNL A   1      32.790  25.730  26.130  1.00  0.00    -0.449 OA
BRANCH  12  13
ATOM     13  C   UNL A   1      32.863  25.242  24.832  1.00  0.00     0.217 A 
ATOM     14  C   UNL A   1      33.277  23.157  21.068  1.00  0.00     0.088 C 
ATOM     15  C   UNL A   1      33.261  23.845  22.396  1.00  0.00     0.105 A 
ATOM     16  C   UNL A   1      34.011  23.448  23.426  1.00  0.00     0.098 A 
ATOM     17  O   UNL A   1      32.401  24.919  22.475  1.00  0.00    -0.457 OA
ATOM     18  C   UNL A   1      33.898  24.164  24.702  1.00  0.00     0.228 A 
ATOM     19  C   UNL A   1      32.213  25.585  23.685  1.00  0.00     0.180 A 
ATOM     20  O   UNL A   1      34.647  23.861  25.626  1.00  0.00    -0.285 OA
BRANCH  19  21
ATOM     21  C   UNL A   1      31.211  26.653  23.504  1.00  0.00     0.021 A 
ATOM     22  C   UNL A   1      31.621  27.922  23.057  1.00  0.00     0.013 A 
ATOM     23  C   UNL A   1      29.853  26.434  23.779  1.00  0.00     0.013 A 
ATOM     24  C   UNL A   1      30.683  28.928  22.804  1.00  0.00     0.021 A 
ATOM     25  C   UNL A   1      28.910  27.442  23.539  1.00  0.00     0.021 A 
ATOM     26  C   UNL A   1      29.329  28.677  23.038  1.00  0.00     0.067 A 
BRANCH  26  27
ATOM     27  S   UNL A   1      28.129  29.915  22.594  1.00  0.00     0.175 S 
ATOM     28  C   UNL A   1      28.797  31.411  23.267  1.00  0.00     0.163 C 
ATOM     29  O   UNL A   1      28.148  30.036  21.152  1.00  0.00    -0.224 OA
ATOM     30  O   UNL A   1      26.900  29.621  23.313  1.00  0.00    -0.224 OA
ENDBRANCH  26  27
ENDBRANCH  19  21
ENDBRANCH  12  13
ENDBRANCH   7  12
ENDBRANCH   3   6
ENDBRANCH   1   2
BRANCH   1  31
ATOM     31  C   UNL A   1      34.877  33.104  28.016  1.00  0.00     0.042 C 
BRANCH  31  32
ATOM     32  C   UNL A   1      34.733  34.574  28.365  1.00  0.00     0.118 C 
BRANCH  32  33
ATOM     33  N   UNL A   1      33.993  34.815  29.598  1.00  0.00    -0.352 N 
ATOM     34  C   UNL A   1      34.172  34.390  30.894  1.00  0.00     0.251 C 
ATOM     35  H   UNL A   1      33.208  35.400  29.480  1.00  0.00     0.163 HD
ATOM     36  O   UNL A   1      33.311  34.655  31.731  1.00  0.00    -0.269 OA
BRANCH  34  37
ATOM     37  C   UNL A   1      35.348  33.583  31.301  1.00  0.00     0.039 A 
ATOM     38  C   UNL A   1      36.647  34.055  31.154  1.00  0.00     0.014 A 
ATOM     39  C   UNL A   1      35.147  32.322  31.877  1.00  0.00     0.014 A 
ATOM     40  C   UNL A   1      37.725  33.196  31.339  1.00  0.00     0.010 A 
ATOM     41  C   UNL A   1      36.241  31.509  32.207  1.00  0.00     0.010 A 
ATOM     42  C   UNL A   1      37.543  31.913  31.880  1.00  0.00    -0.014 A 
BRANCH  42  43
ATOM     43  C   UNL A   1      38.740  31.055  32.108  1.00  0.00     0.031 A 
ATOM     44  C   UNL A   1      39.133  29.977  31.131  1.00  0.00     0.074 A 
ATOM     45  C   UNL A   1      39.537  31.319  33.164  1.00  0.00     0.049 A 
ATOM     46  N   UNL A   1      40.218  29.241  31.116  1.00  0.00    -0.248 NA
ATOM     47  C   UNL A   1      38.197  29.678  30.037  1.00  0.00     0.031 C 
ATOM     48  C   UNL A   1      39.265  32.332  34.188  1.00  0.00     0.029 A 
ATOM     49  N   UNL A   1      40.758  30.806  33.525  1.00  0.00    -0.354 N 
ATOM     50  C   UNL A   1      40.088  28.390  30.024  1.00  0.00     0.074 A 
ATOM     51  C   UNL A   1      38.802  28.668  29.426  1.00  0.00     0.031 C 
ATOM     52  C   UNL A   1      40.327  32.436  34.996  1.00  0.00     0.029 A 
ATOM     53  C   UNL A   1      41.320  31.441  34.608  1.00  0.00     0.049 A 
ATOM     54  H   UNL A   1      41.190  30.056  33.055  1.00  0.00     0.167 HD
ATOM     55  C   UNL A   1      40.968  27.474  29.553  1.00  0.00     0.031 A 
ATOM     56  C   UNL A   1      42.502  31.255  35.228  1.00  0.00     0.031 A 
ATOM     57  C   UNL A   1      42.252  27.201  30.148  1.00  0.00     0.049 A 
ATOM     58  C   UNL A   1      43.443  30.208  34.705  1.00  0.00     0.074 A 
ATOM     59  C   UNL A   1      43.222  26.309  29.722  1.00  0.00     0.029 A 
ATOM     60  N   UNL A   1      42.745  27.809  31.292  1.00  0.00    -0.354 N 
ATOM     61  N   UNL A   1      43.319  29.442  33.649  1.00  0.00    -0.248 NA
ATOM     62  C   UNL A   1      44.689  30.004  35.456  1.00  0.00     0.031 C 
ATOM     63  C   UNL A   1      44.265  26.321  30.649  1.00  0.00     0.029 A 
ATOM     64  C   UNL A   1      43.990  27.285  31.606  1.00  0.00     0.049 A 
ATOM     65  H   UNL A   1      42.282  28.510  31.805  1.00  0.00     0.167 HD
ATOM     66  C   UNL A   1      44.470  28.667  33.605  1.00  0.00     0.074 A 
ATOM     67  C   UNL A   1      45.299  29.087  34.716  1.00  0.00     0.031 C 
ATOM     68  C   UNL A   1      44.802  27.689  32.726  1.00  0.00     0.031 A 
BRANCH  55  69
ATOM     69  C   UNL A   1      40.584  26.681  28.330  1.00  0.00    -0.014 A 
ATOM     70  C   UNL A   1      39.770  25.543  28.461  1.00  0.00     0.009 A 
ATOM     71  C   UNL A   1      41.109  26.992  27.065  1.00  0.00     0.009 A 
ATOM     72  C   UNL A   1      39.507  24.725  27.361  1.00  0.00     0.001 A 
ATOM     73  C   UNL A   1      40.815  26.190  25.958  1.00  0.00     0.001 A 
ATOM     74  C   UNL A   1      40.026  25.051  26.110  1.00  0.00     0.000 A 
ENDBRANCH  55  69
BRANCH  56  75
ATOM     75  C   UNL A   1      42.852  32.102  36.401  1.00  0.00    -0.014 A 
ATOM     76  C   UNL A   1      42.498  31.703  37.701  1.00  0.00     0.009 A 
ATOM     77  C   UNL A   1      43.483  33.343  36.226  1.00  0.00     0.009 A 
ATOM     78  C   UNL A   1      42.728  32.542  38.792  1.00  0.00     0.001 A 
ATOM     79  C   UNL A   1      43.749  34.164  37.324  1.00  0.00     0.001 A 
ATOM     80  C   UNL A   1      43.358  33.770  38.603  1.00  0.00     0.000 A 
ENDBRANCH  56  75
BRANCH  68  81
ATOM     81  C   UNL A   1      46.120  26.988  32.928  1.00  0.00    -0.014 A 
ATOM     82  C   UNL A   1      47.276  27.469  32.293  1.00  0.00     0.009 A 
ATOM     83  C   UNL A   1      46.205  25.810  33.687  1.00  0.00     0.009 A 
ATOM     84  C   UNL A   1      48.486  26.782  32.403  1.00  0.00     0.001 A 
ATOM     85  C   UNL A   1      47.426  25.146  33.829  1.00  0.00     0.001 A 
ATOM     86  C   UNL A   1      48.562  25.626  33.179  1.00  0.00     0.000 A 
ENDBRANCH  68  81
ENDBRANCH  42  43
ENDBRANCH  34  37
ENDBRANCH  32  33
ENDBRANCH  31  32
ENDBRANCH   1  31
TORSDOF 14
ENDMDL
