MODEL 1
REMARK VINA RESULT:     -11.9      0.000      0.000
REMARK SMILES CCOc1ccc(-c2csc3ncn([C@H](C)C(=O)NCCCNC(=O)c4ccc(-c5c6nc(c(-c7ccccc7)c7ccc([nH]7)c(-c7ccccc7)c7nc(c(-c8ccccc8)c8ccc5[nH]8)C=C7)C=C6)cc4)c(=O)c23)cc1
REMARK SMILES IDX 20 1 19 2 17 3 18 4 15 6 16 7 14 8 8 9 9 10 76 11 10 12
REMARK SMILES IDX 11 13 74 14 12 15 75 16 13 17 7 18 4 19 5 20 78 21 6 22
REMARK SMILES IDX 77 23 3 24 2 25 1 26 21 27 22 28 23 29 24 30 25 32 26 33
REMARK SMILES IDX 27 34 73 35 28 36 72 37 29 38 30 39 31 40 66 41 32 42 71 43
REMARK SMILES IDX 65 44 67 45 33 46 70 47 64 48 63 49 34 51 56 52 41 53 55 54
REMARK SMILES IDX 42 55 45 56 54 57 68 58 43 59 44 60 53 62 69 63 46 64 35 65
REMARK SMILES IDX 36 66 40 67 37 68 39 69 38 70 57 71 58 72 62 73 59 74 61 75
REMARK SMILES IDX 60 76 47 77 48 78 52 79 49 80 51 81 50 82
REMARK H PARENT 19 5 23 31 67 50 45 61
REMARK Flexibility Score: inf
ROOT
ATOM      1  C   UNL A   1      37.520  20.668  24.804  1.00  0.00     0.117 C 
ENDROOT
BRANCH   1   2
ATOM      2  N   UNL A   1      37.600  21.829  25.675  1.00  0.00    -0.354 N 
ATOM      3  C   UNL A   1      37.085  23.088  25.568  1.00  0.00     0.242 C 
ATOM      4  O   UNL A   1      37.548  23.938  26.337  1.00  0.00    -0.273 OA
ATOM      5  H   UNL A   1      38.123  21.680  26.495  1.00  0.00     0.163 HD
BRANCH   3   6
ATOM      6  C   UNL A   1      36.124  23.508  24.431  1.00  0.00     0.177 C 
ATOM      7  C   UNL A   1      36.631  22.865  23.141  1.00  0.00     0.042 C 
BRANCH   6   8
ATOM      8  N   UNL A   1      34.714  23.262  24.778  1.00  0.00    -0.286 N 
ATOM      9  C   UNL A   1      31.522  25.074  25.735  1.00  0.00     0.007 A 
ATOM     10  C   UNL A   1      30.415  24.393  26.212  1.00  0.00     0.076 A 
ATOM     11  C   UNL A   1      32.564  24.153  25.369  1.00  0.00     0.085 A 
ATOM     12  S   UNL A   1      30.636  22.699  26.233  1.00  0.00    -0.123 S 
ATOM     13  C   UNL A   1      32.209  22.841  25.595  1.00  0.00     0.131 A 
ATOM     14  C   UNL A   1      33.901  24.401  24.859  1.00  0.00     0.263 A 
ATOM     15  N   UNL A   1      32.975  21.745  25.373  1.00  0.00    -0.227 NA
ATOM     16  O   UNL A   1      34.301  25.518  24.546  1.00  0.00    -0.268 OA
ATOM     17  C   UNL A   1      34.179  22.005  24.977  1.00  0.00     0.204 A 
BRANCH   9  18
ATOM     18  C   UNL A   1      31.525  26.534  25.689  1.00  0.00    -0.016 A 
ATOM     19  C   UNL A   1      31.540  29.339  25.626  1.00  0.00     0.119 A 
ATOM     20  C   UNL A   1      31.020  28.622  24.552  1.00  0.00     0.047 A 
ATOM     21  C   UNL A   1      32.017  28.664  26.746  1.00  0.00     0.047 A 
ATOM     22  C   UNL A   1      31.009  27.223  24.585  1.00  0.00     0.012 A 
ATOM     23  C   UNL A   1      32.030  27.269  26.769  1.00  0.00     0.012 A 
BRANCH  19  24
ATOM     24  O   UNL A   1      31.440  30.702  25.602  1.00  0.00    -0.494 OA
BRANCH  24  25
ATOM     25  C   UNL A   1      32.140  31.352  26.671  1.00  0.00     0.226 C 
ATOM     26  C   UNL A   1      31.626  32.763  26.914  1.00  0.00     0.049 C 
ENDBRANCH  24  25
ENDBRANCH  19  24
ENDBRANCH   9  18
ENDBRANCH   6   8
ENDBRANCH   3   6
ENDBRANCH   1   2
BRANCH   1  27
ATOM     27  C   UNL A   1      38.415  19.519  25.273  1.00  0.00     0.042 C 
BRANCH  27  28
ATOM     28  C   UNL A   1      39.644  20.007  26.017  1.00  0.00     0.118 C 
BRANCH  28  29
ATOM     29  N   UNL A   1      40.842  19.215  25.723  1.00  0.00    -0.352 N 
ATOM     30  C   UNL A   1      42.163  19.636  25.689  1.00  0.00     0.251 C 
ATOM     31  H   UNL A   1      40.689  18.262  25.524  1.00  0.00     0.163 HD
ATOM     32  O   UNL A   1      43.019  18.991  25.116  1.00  0.00    -0.269 OA
BRANCH  30  33
ATOM     33  C   UNL A   1      42.501  20.898  26.371  1.00  0.00     0.039 A 
ATOM     34  C   UNL A   1      42.847  22.049  25.660  1.00  0.00     0.014 A 
ATOM     35  C   UNL A   1      42.389  20.920  27.755  1.00  0.00     0.014 A 
ATOM     36  C   UNL A   1      42.984  23.247  26.359  1.00  0.00     0.010 A 
ATOM     37  C   UNL A   1      42.316  22.121  28.402  1.00  0.00     0.010 A 
ATOM     38  C   UNL A   1      42.687  23.278  27.731  1.00  0.00    -0.014 A 
BRANCH  38  39
ATOM     39  C   UNL A   1      42.655  24.530  28.477  1.00  0.00     0.031 A 
ATOM     40  C   UNL A   1      41.516  25.420  28.142  1.00  0.00     0.074 A 
ATOM     41  C   UNL A   1      43.450  24.773  29.542  1.00  0.00     0.049 A 
ATOM     42  N   UNL A   1      41.564  26.536  27.496  1.00  0.00    -0.248 NA
ATOM     43  C   UNL A   1      40.150  24.955  28.433  1.00  0.00     0.031 C 
ATOM     44  C   UNL A   1      44.404  23.865  30.196  1.00  0.00     0.029 A 
ATOM     45  N   UNL A   1      43.478  25.861  30.356  1.00  0.00    -0.354 N 
ATOM     46  C   UNL A   1      40.265  27.032  27.499  1.00  0.00     0.074 A 
ATOM     47  C   UNL A   1      39.419  25.936  27.899  1.00  0.00     0.031 C 
ATOM     48  C   UNL A   1      44.715  24.337  31.423  1.00  0.00     0.029 A 
ATOM     49  C   UNL A   1      44.143  25.662  31.561  1.00  0.00     0.049 A 
ATOM     50  H   UNL A   1      43.063  26.719  30.113  1.00  0.00     0.167 HD
ATOM     51  C   UNL A   1      40.031  28.374  27.461  1.00  0.00     0.031 A 
ATOM     52  C   UNL A   1      44.207  26.521  32.607  1.00  0.00     0.031 A 
ATOM     53  C   UNL A   1      41.220  29.108  27.092  1.00  0.00     0.049 A 
ATOM     54  C   UNL A   1      43.887  27.868  32.087  1.00  0.00     0.074 A 
ATOM     55  C   UNL A   1      42.084  29.097  26.014  1.00  0.00     0.029 A 
ATOM     56  N   UNL A   1      41.898  29.736  28.110  1.00  0.00    -0.354 N 
ATOM     57  N   UNL A   1      44.657  28.517  31.263  1.00  0.00    -0.248 NA
ATOM     58  C   UNL A   1      42.502  28.307  32.127  1.00  0.00     0.031 C 
ATOM     59  C   UNL A   1      43.381  29.275  26.582  1.00  0.00     0.029 A 
ATOM     60  C   UNL A   1      43.231  29.465  27.957  1.00  0.00     0.049 A 
ATOM     61  H   UNL A   1      41.496  30.285  28.821  1.00  0.00     0.167 HD
ATOM     62  C   UNL A   1      43.783  29.105  30.361  1.00  0.00     0.074 A 
ATOM     63  C   UNL A   1      42.474  29.044  31.012  1.00  0.00     0.031 C 
ATOM     64  C   UNL A   1      44.153  29.315  29.062  1.00  0.00     0.031 A 
BRANCH  51  65
ATOM     65  C   UNL A   1      38.898  29.044  28.207  1.00  0.00    -0.014 A 
ATOM     66  C   UNL A   1      38.782  28.813  29.591  1.00  0.00     0.009 A 
ATOM     67  C   UNL A   1      37.787  29.626  27.570  1.00  0.00     0.009 A 
ATOM     68  C   UNL A   1      37.583  29.055  30.271  1.00  0.00     0.001 A 
ATOM     69  C   UNL A   1      36.603  29.911  28.257  1.00  0.00     0.001 A 
ATOM     70  C   UNL A   1      36.490  29.592  29.601  1.00  0.00     0.000 A 
ENDBRANCH  51  65
BRANCH  52  71
ATOM     71  C   UNL A   1      44.297  26.237  34.054  1.00  0.00    -0.014 A 
ATOM     72  C   UNL A   1      43.194  25.717  34.750  1.00  0.00     0.009 A 
ATOM     73  C   UNL A   1      45.550  26.203  34.691  1.00  0.00     0.009 A 
ATOM     74  C   UNL A   1      43.351  25.135  36.015  1.00  0.00     0.001 A 
ATOM     75  C   UNL A   1      45.706  25.625  35.955  1.00  0.00     0.001 A 
ATOM     76  C   UNL A   1      44.609  25.074  36.609  1.00  0.00     0.000 A 
ENDBRANCH  52  71
BRANCH  64  77
ATOM     77  C   UNL A   1      45.611  29.137  28.706  1.00  0.00    -0.014 A 
ATOM     78  C   UNL A   1      46.183  27.895  28.379  1.00  0.00     0.009 A 
ATOM     79  C   UNL A   1      46.402  30.286  28.570  1.00  0.00     0.009 A 
ATOM     80  C   UNL A   1      47.517  27.805  27.964  1.00  0.00     0.001 A 
ATOM     81  C   UNL A   1      47.726  30.201  28.135  1.00  0.00     0.001 A 
ATOM     82  C   UNL A   1      48.286  28.960  27.839  1.00  0.00     0.000 A 
ENDBRANCH  64  77
ENDBRANCH  38  39
ENDBRANCH  30  33
ENDBRANCH  28  29
ENDBRANCH  27  28
ENDBRANCH   1  27
TORSDOF 14
ENDMDL
MODEL 2
REMARK VINA RESULT:     -11.8      3.517      9.119
REMARK SMILES CCOc1ccc(-c2csc3ncn([C@H](C)C(=O)NCCCNC(=O)c4ccc(-c5c6nc(c(-c7ccccc7)c7ccc([nH]7)c(-c7ccccc7)c7nc(c(-c8ccccc8)c8ccc5[nH]8)C=C7)C=C6)cc4)c(=O)c23)cc1
REMARK SMILES IDX 20 1 19 2 17 3 18 4 15 6 16 7 14 8 8 9 9 10 76 11 10 12
REMARK SMILES IDX 11 13 74 14 12 15 75 16 13 17 7 18 4 19 5 20 78 21 6 22
REMARK SMILES IDX 77 23 3 24 2 25 1 26 21 27 22 28 23 29 24 30 25 32 26 33
REMARK SMILES IDX 27 34 73 35 28 36 72 37 29 38 30 39 31 40 66 41 32 42 71 43
REMARK SMILES IDX 65 44 67 45 33 46 70 47 64 48 63 49 34 51 56 52 41 53 55 54
REMARK SMILES IDX 42 55 45 56 54 57 68 58 43 59 44 60 53 62 69 63 46 64 35 65
REMARK SMILES IDX 36 66 40 67 37 68 39 69 38 70 57 71 58 72 62 73 59 74 61 75
REMARK SMILES IDX 60 76 47 77 48 78 52 79 49 80 51 81 50 82
REMARK H PARENT 19 5 23 31 67 50 45 61
REMARK Flexibility Score: inf
ROOT
ATOM      1  C   UNL A   1      31.731  30.742  26.365  1.00  0.00     0.117 C 
ENDROOT
BRANCH   1   2
ATOM      2  N   UNL A   1      33.101  30.265  26.464  1.00  0.00    -0.354 N 
ATOM      3  C   UNL A   1      33.623  29.028  26.709  1.00  0.00     0.242 C 
ATOM      4  O   UNL A   1      34.823  28.987  27.000  1.00  0.00    -0.273 OA
ATOM      5  H   UNL A   1      33.779  30.966  26.330  1.00  0.00     0.163 HD
BRANCH   3   6
ATOM      6  C   UNL A   1      32.749  27.756  26.819  1.00  0.00     0.177 C 
ATOM      7  C   UNL A   1      31.541  28.103  27.688  1.00  0.00     0.042 C 
BRANCH   6   8
ATOM      8  N   UNL A   1      32.464  27.163  25.502  1.00  0.00    -0.286 N 
ATOM      9  C   UNL A   1      33.602  24.396  23.172  1.00  0.00     0.007 A 
ATOM     10  C   UNL A   1      33.171  24.328  21.858  1.00  0.00     0.076 A 
ATOM     11  C   UNL A   1      32.963  25.484  23.860  1.00  0.00     0.085 A 
ATOM     12  S   UNL A   1      32.044  25.551  21.467  1.00  0.00    -0.123 S 
ATOM     13  C   UNL A   1      32.101  26.187  23.046  1.00  0.00     0.131 A 
ATOM     14  C   UNL A   1      33.124  25.958  25.223  1.00  0.00     0.263 A 
ATOM     15  N   UNL A   1      31.367  27.273  23.390  1.00  0.00    -0.227 NA
ATOM     16  O   UNL A   1      33.800  25.369  26.061  1.00  0.00    -0.268 OA
ATOM     17  C   UNL A   1      31.580  27.704  24.591  1.00  0.00     0.204 A 
BRANCH   9  18
ATOM     18  C   UNL A   1      34.603  23.453  23.667  1.00  0.00    -0.016 A 
ATOM     19  C   UNL A   1      36.503  21.627  24.629  1.00  0.00     0.119 A 
ATOM     20  C   UNL A   1      36.919  22.802  24.009  1.00  0.00     0.047 A 
ATOM     21  C   UNL A   1      35.145  21.377  24.805  1.00  0.00     0.047 A 
ATOM     22  C   UNL A   1      35.971  23.714  23.532  1.00  0.00     0.012 A 
ATOM     23  C   UNL A   1      34.199  22.275  24.308  1.00  0.00     0.012 A 
BRANCH  19  24
ATOM     24  O   UNL A   1      37.456  20.811  25.172  1.00  0.00    -0.494 OA
BRANCH  24  25
ATOM     25  C   UNL A   1      38.548  21.517  25.773  1.00  0.00     0.226 C 
ATOM     26  C   UNL A   1      39.790  20.647  25.898  1.00  0.00     0.049 C 
ENDBRANCH  24  25
ENDBRANCH  19  24
ENDBRANCH   9  18
ENDBRANCH   6   8
ENDBRANCH   3   6
ENDBRANCH   1   2
BRANCH   1  27
ATOM     27  C   UNL A   1      31.611  32.244  26.623  1.00  0.00     0.042 C 
BRANCH  27  28
ATOM     28  C   UNL A   1      32.772  32.789  27.433  1.00  0.00     0.118 C 
BRANCH  28  29
ATOM     29  N   UNL A   1      32.491  34.099  28.028  1.00  0.00    -0.352 N 
ATOM     30  C   UNL A   1      33.123  34.708  29.101  1.00  0.00     0.251 C 
ATOM     31  H   UNL A   1      31.760  34.611  27.611  1.00  0.00     0.163 HD
ATOM     32  O   UNL A   1      32.599  35.622  29.709  1.00  0.00    -0.269 OA
BRANCH  30  33
ATOM     33  C   UNL A   1      34.455  34.213  29.488  1.00  0.00     0.039 A 
ATOM     34  C   UNL A   1      34.635  33.356  30.576  1.00  0.00     0.014 A 
ATOM     35  C   UNL A   1      35.525  34.571  28.678  1.00  0.00     0.014 A 
ATOM     36  C   UNL A   1      35.892  32.791  30.778  1.00  0.00     0.010 A 
ATOM     37  C   UNL A   1      36.689  33.859  28.750  1.00  0.00     0.010 A 
ATOM     38  C   UNL A   1      36.909  33.026  29.839  1.00  0.00    -0.014 A 
BRANCH  38  39
ATOM     39  C   UNL A   1      38.189  32.334  29.911  1.00  0.00     0.031 A 
ATOM     40  C   UNL A   1      38.147  30.912  29.491  1.00  0.00     0.074 A 
ATOM     41  C   UNL A   1      39.362  32.973  30.117  1.00  0.00     0.049 A 
ATOM     42  N   UNL A   1      38.257  29.873  30.250  1.00  0.00    -0.248 NA
ATOM     43  C   UNL A   1      37.805  30.600  28.094  1.00  0.00     0.031 C 
ATOM     44  C   UNL A   1      39.607  34.419  30.228  1.00  0.00     0.029 A 
ATOM     45  N   UNL A   1      40.621  32.461  30.143  1.00  0.00    -0.354 N 
ATOM     46  C   UNL A   1      38.231  28.776  29.395  1.00  0.00     0.074 A 
ATOM     47  C   UNL A   1      37.748  29.266  28.129  1.00  0.00     0.031 C 
ATOM     48  C   UNL A   1      40.922  34.673  30.056  1.00  0.00     0.029 A 
ATOM     49  C   UNL A   1      41.631  33.409  30.017  1.00  0.00     0.049 A 
ATOM     50  H   UNL A   1      40.803  31.500  30.244  1.00  0.00     0.167 HD
ATOM     51  C   UNL A   1      38.886  27.626  29.718  1.00  0.00     0.031 A 
ATOM     52  C   UNL A   1      42.957  33.172  29.876  1.00  0.00     0.031 A 
ATOM     53  C   UNL A   1      39.272  27.609  31.110  1.00  0.00     0.049 A 
ATOM     54  C   UNL A   1      43.209  31.798  30.365  1.00  0.00     0.074 A 
ATOM     55  C   UNL A   1      38.605  27.719  32.314  1.00  0.00     0.029 A 
ATOM     56  N   UNL A   1      40.592  27.878  31.387  1.00  0.00    -0.354 N 
ATOM     57  N   UNL A   1      43.087  31.451  31.613  1.00  0.00    -0.248 NA
ATOM     58  C   UNL A   1      43.161  30.709  29.404  1.00  0.00     0.031 C 
ATOM     59  C   UNL A   1      39.460  28.512  33.137  1.00  0.00     0.029 A 
ATOM     60  C   UNL A   1      40.631  28.772  32.422  1.00  0.00     0.049 A 
ATOM     61  H   UNL A   1      41.371  27.493  30.923  1.00  0.00     0.167 HD
ATOM     62  C   UNL A   1      42.485  30.201  31.568  1.00  0.00     0.074 A 
ATOM     63  C   UNL A   1      42.668  29.746  30.190  1.00  0.00     0.031 C 
ATOM     64  C   UNL A   1      41.648  29.791  32.567  1.00  0.00     0.031 A 
BRANCH  51  65
ATOM     65  C   UNL A   1      39.588  26.754  28.700  1.00  0.00    -0.014 A 
ATOM     66  C   UNL A   1      40.487  27.365  27.805  1.00  0.00     0.009 A 
ATOM     67  C   UNL A   1      39.183  25.443  28.388  1.00  0.00     0.009 A 
ATOM     68  C   UNL A   1      40.869  26.737  26.614  1.00  0.00     0.001 A 
ATOM     69  C   UNL A   1      39.598  24.796  27.221  1.00  0.00     0.001 A 
ATOM     70  C   UNL A   1      40.414  25.457  26.317  1.00  0.00     0.000 A 
ENDBRANCH  51  65
BRANCH  52  71
ATOM     71  C   UNL A   1      43.979  33.946  29.145  1.00  0.00    -0.014 A 
ATOM     72  C   UNL A   1      45.333  33.865  29.507  1.00  0.00     0.009 A 
ATOM     73  C   UNL A   1      43.666  34.540  27.908  1.00  0.00     0.009 A 
ATOM     74  C   UNL A   1      46.339  34.311  28.640  1.00  0.00     0.001 A 
ATOM     75  C   UNL A   1      44.671  34.989  27.044  1.00  0.00     0.001 A 
ATOM     76  C   UNL A   1      46.008  34.857  27.402  1.00  0.00     0.000 A 
ENDBRANCH  52  71
BRANCH  64  77
ATOM     77  C   UNL A   1      41.605  30.614  33.834  1.00  0.00    -0.014 A 
ATOM     78  C   UNL A   1      40.831  31.780  33.976  1.00  0.00     0.009 A 
ATOM     79  C   UNL A   1      42.268  30.119  34.965  1.00  0.00     0.009 A 
ATOM     80  C   UNL A   1      40.755  32.446  35.204  1.00  0.00     0.001 A 
ATOM     81  C   UNL A   1      42.175  30.771  36.196  1.00  0.00     0.001 A 
ATOM     82  C   UNL A   1      41.425  31.939  36.314  1.00  0.00     0.000 A 
ENDBRANCH  64  77
ENDBRANCH  38  39
ENDBRANCH  30  33
ENDBRANCH  28  29
ENDBRANCH  27  28
ENDBRANCH   1  27
TORSDOF 14
ENDMDL
MODEL 3
REMARK VINA RESULT:     -11.5      2.343      7.763
REMARK SMILES CCOc1ccc(-c2csc3ncn([C@H](C)C(=O)NCCCNC(=O)c4ccc(-c5c6nc(c(-c7ccccc7)c7ccc([nH]7)c(-c7ccccc7)c7nc(c(-c8ccccc8)c8ccc5[nH]8)C=C7)C=C6)cc4)c(=O)c23)cc1
REMARK SMILES IDX 20 1 19 2 17 3 18 4 15 6 16 7 14 8 8 9 9 10 76 11 10 12
REMARK SMILES IDX 11 13 74 14 12 15 75 16 13 17 7 18 4 19 5 20 78 21 6 22
REMARK SMILES IDX 77 23 3 24 2 25 1 26 21 27 22 28 23 29 24 30 25 32 26 33
REMARK SMILES IDX 27 34 73 35 28 36 72 37 29 38 30 39 31 40 66 41 32 42 71 43
REMARK SMILES IDX 65 44 67 45 33 46 70 47 64 48 63 49 34 51 56 52 41 53 55 54
REMARK SMILES IDX 42 55 45 56 54 57 68 58 43 59 44 60 53 62 69 63 46 64 35 65
REMARK SMILES IDX 36 66 40 67 37 68 39 69 38 70 57 71 58 72 62 73 59 74 61 75
REMARK SMILES IDX 60 76 47 77 48 78 52 79 49 80 51 81 50 82
REMARK H PARENT 19 5 23 31 67 50 45 61
REMARK Flexibility Score: inf
ROOT
ATOM      1  C   UNL A   1      34.841  29.707  27.265  1.00  0.00     0.117 C 
ENDROOT
BRANCH   1   2
ATOM      2  N   UNL A   1      34.084  29.604  26.028  1.00  0.00    -0.354 N 
ATOM      3  C   UNL A   1      33.134  28.719  25.609  1.00  0.00     0.242 C 
ATOM      4  O   UNL A   1      32.867  28.730  24.403  1.00  0.00    -0.273 OA
ATOM      5  H   UNL A   1      34.296  30.305  25.369  1.00  0.00     0.163 HD
BRANCH   3   6
ATOM      6  C   UNL A   1      32.551  27.618  26.526  1.00  0.00     0.177 C 
ATOM      7  C   UNL A   1      31.592  28.296  27.504  1.00  0.00     0.042 C 
BRANCH   6   8
ATOM      8  N   UNL A   1      32.014  26.484  25.758  1.00  0.00    -0.286 N 
ATOM      9  C   UNL A   1      33.062  23.213  24.147  1.00  0.00     0.007 A 
ATOM     10  C   UNL A   1      32.223  22.524  23.289  1.00  0.00     0.076 A 
ATOM     11  C   UNL A   1      32.399  24.371  24.683  1.00  0.00     0.085 A 
ATOM     12  S   UNL A   1      30.691  23.263  23.123  1.00  0.00    -0.123 S 
ATOM     13  C   UNL A   1      31.114  24.510  24.203  1.00  0.00     0.131 A 
ATOM     14  C   UNL A   1      32.886  25.399  25.586  1.00  0.00     0.263 A 
ATOM     15  N   UNL A   1      30.242  25.504  24.500  1.00  0.00    -0.227 NA
ATOM     16  O   UNL A   1      33.980  25.341  26.137  1.00  0.00    -0.268 OA
ATOM     17  C   UNL A   1      30.728  26.433  25.258  1.00  0.00     0.204 A 
BRANCH   9  18
ATOM     18  C   UNL A   1      34.428  22.747  24.373  1.00  0.00    -0.016 A 
ATOM     19  C   UNL A   1      37.044  21.842  24.829  1.00  0.00     0.119 A 
ATOM     20  C   UNL A   1      36.766  22.633  23.718  1.00  0.00     0.047 A 
ATOM     21  C   UNL A   1      36.032  21.532  25.732  1.00  0.00     0.047 A 
ATOM     22  C   UNL A   1      35.462  23.087  23.492  1.00  0.00     0.012 A 
ATOM     23  C   UNL A   1      34.726  21.964  25.495  1.00  0.00     0.012 A 
BRANCH  19  24
ATOM     24  O   UNL A   1      38.346  21.503  25.070  1.00  0.00    -0.494 OA
BRANCH  24  25
ATOM     25  C   UNL A   1      38.939  22.222  26.159  1.00  0.00     0.226 C 
ATOM     26  C   UNL A   1      40.100  21.461  26.781  1.00  0.00     0.049 C 
ENDBRANCH  24  25
ENDBRANCH  19  24
ENDBRANCH   9  18
ENDBRANCH   6   8
ENDBRANCH   3   6
ENDBRANCH   1   2
BRANCH   1  27
ATOM     27  C   UNL A   1      34.969  31.150  27.758  1.00  0.00     0.042 C 
BRANCH  27  28
ATOM     28  C   UNL A   1      36.230  31.376  28.570  1.00  0.00     0.118 C 
BRANCH  28  29
ATOM     29  N   UNL A   1      36.101  30.937  29.962  1.00  0.00    -0.352 N 
ATOM     30  C   UNL A   1      36.709  29.856  30.582  1.00  0.00     0.251 C 
ATOM     31  H   UNL A   1      35.505  31.479  30.530  1.00  0.00     0.163 HD
ATOM     32  O   UNL A   1      36.277  29.397  31.621  1.00  0.00    -0.269 OA
BRANCH  30  33
ATOM     33  C   UNL A   1      37.902  29.276  29.940  1.00  0.00     0.039 A 
ATOM     34  C   UNL A   1      38.473  29.843  28.798  1.00  0.00     0.014 A 
ATOM     35  C   UNL A   1      38.485  28.179  30.561  1.00  0.00     0.014 A 
ATOM     36  C   UNL A   1      39.694  29.346  28.349  1.00  0.00     0.010 A 
ATOM     37  C   UNL A   1      39.771  27.837  30.248  1.00  0.00     0.010 A 
ATOM     38  C   UNL A   1      40.352  28.359  29.100  1.00  0.00    -0.014 A 
BRANCH  38  39
ATOM     39  C   UNL A   1      41.701  27.920  28.768  1.00  0.00     0.031 A 
ATOM     40  C   UNL A   1      41.770  26.630  28.038  1.00  0.00     0.074 A 
ATOM     41  C   UNL A   1      42.788  28.712  28.902  1.00  0.00     0.049 A 
ATOM     42  N   UNL A   1      42.191  25.499  28.493  1.00  0.00    -0.248 NA
ATOM     43  C   UNL A   1      41.176  26.551  26.693  1.00  0.00     0.031 C 
ATOM     44  C   UNL A   1      42.843  30.125  29.308  1.00  0.00     0.029 A 
ATOM     45  N   UNL A   1      44.081  28.452  28.575  1.00  0.00    -0.354 N 
ATOM     46  C   UNL A   1      42.133  24.614  27.422  1.00  0.00     0.074 A 
ATOM     47  C   UNL A   1      41.318  25.252  26.419  1.00  0.00     0.031 C 
ATOM     48  C   UNL A   1      44.038  30.651  28.963  1.00  0.00     0.029 A 
ATOM     49  C   UNL A   1      44.893  29.578  28.495  1.00  0.00     0.049 A 
ATOM     50  H   UNL A   1      44.415  27.541  28.408  1.00  0.00     0.167 HD
ATOM     51  C   UNL A   1      42.999  23.566  27.336  1.00  0.00     0.031 A 
ATOM     52  C   UNL A   1      46.175  29.628  28.061  1.00  0.00     0.031 A 
ATOM     53  C   UNL A   1      43.682  23.339  28.588  1.00  0.00     0.049 A 
ATOM     54  C   UNL A   1      46.721  28.256  28.153  1.00  0.00     0.074 A 
ATOM     55  C   UNL A   1      43.289  23.074  29.886  1.00  0.00     0.029 A 
ATOM     56  N   UNL A   1      44.979  23.789  28.675  1.00  0.00    -0.354 N 
ATOM     57  N   UNL A   1      46.929  27.645  29.283  1.00  0.00    -0.248 NA
ATOM     58  C   UNL A   1      46.617  27.396  26.987  1.00  0.00     0.031 C 
ATOM     59  C   UNL A   1      44.183  23.829  30.702  1.00  0.00     0.029 A 
ATOM     60  C   UNL A   1      45.118  24.445  29.868  1.00  0.00     0.049 A 
ATOM     61  H   UNL A   1      45.682  23.661  27.998  1.00  0.00     0.167 HD
ATOM     62  C   UNL A   1      46.516  26.341  29.053  1.00  0.00     0.074 A 
ATOM     63  C   UNL A   1      46.452  26.218  27.597  1.00  0.00     0.031 C 
ATOM     64  C   UNL A   1      45.987  25.586  30.062  1.00  0.00     0.031 A 
BRANCH  51  65
ATOM     65  C   UNL A   1      43.576  23.068  26.029  1.00  0.00    -0.014 A 
ATOM     66  C   UNL A   1      43.619  21.678  25.805  1.00  0.00     0.009 A 
ATOM     67  C   UNL A   1      44.344  23.868  25.163  1.00  0.00     0.009 A 
ATOM     68  C   UNL A   1      44.465  21.121  24.840  1.00  0.00     0.001 A 
ATOM     69  C   UNL A   1      45.156  23.317  24.168  1.00  0.00     0.001 A 
ATOM     70  C   UNL A   1      45.243  21.941  24.030  1.00  0.00     0.000 A 
ENDBRANCH  51  65
BRANCH  52  71
ATOM     71  C   UNL A   1      46.890  30.713  27.360  1.00  0.00    -0.014 A 
ATOM     72  C   UNL A   1      46.184  31.791  26.803  1.00  0.00     0.009 A 
ATOM     73  C   UNL A   1      48.285  30.840  27.490  1.00  0.00     0.009 A 
ATOM     74  C   UNL A   1      46.843  32.973  26.440  1.00  0.00     0.001 A 
ATOM     75  C   UNL A   1      48.944  32.019  27.125  1.00  0.00     0.001 A 
ATOM     76  C   UNL A   1      48.220  33.092  26.617  1.00  0.00     0.000 A 
ENDBRANCH  52  71
BRANCH  64  77
ATOM     77  C   UNL A   1      46.108  26.110  31.474  1.00  0.00    -0.014 A 
ATOM     78  C   UNL A   1      47.157  25.762  32.344  1.00  0.00     0.009 A 
ATOM     79  C   UNL A   1      45.200  27.093  31.893  1.00  0.00     0.009 A 
ATOM     80  C   UNL A   1      47.270  26.354  33.607  1.00  0.00     0.001 A 
ATOM     81  C   UNL A   1      45.324  27.700  33.144  1.00  0.00     0.001 A 
ATOM     82  C   UNL A   1      46.354  27.325  34.004  1.00  0.00     0.000 A 
ENDBRANCH  64  77
ENDBRANCH  38  39
ENDBRANCH  30  33
ENDBRANCH  28  29
ENDBRANCH  27  28
ENDBRANCH   1  27
TORSDOF 14
ENDMDL
