MODEL 1
REMARK VINA RESULT:     -11.5      0.000      0.000
REMARK SMILES Cc1oc2c(c1C(=O)NCCCC(=O)NCCCNC(=O)c1ccc(-c3c4nc(c(-c5ccccc5)c5ccc([nH]5)c(-c5ccccc5)c5nc(c(-c6ccccc6)c6ccc3[nH]6)C=C5)C=C4)cc1)CCCC2
REMARK SMILES IDX 16 1 15 2 13 3 14 4 12 6 11 7 10 8 9 9 7 10 8 11 6 13 1 14
REMARK SMILES IDX 2 15 3 16 4 17 5 18 73 19 70 20 72 21 71 22 17 23 18 24
REMARK SMILES IDX 19 25 20 26 21 28 22 29 23 30 69 31 24 32 68 33 25 34 26 35
REMARK SMILES IDX 27 36 62 37 28 38 67 39 61 40 63 41 29 42 66 43 60 44 59 45
REMARK SMILES IDX 30 47 52 48 37 49 51 50 38 51 41 52 50 53 64 54 39 55 40 56
REMARK SMILES IDX 49 58 65 59 42 60 31 61 32 62 36 63 33 64 35 65 34 66 53 67
REMARK SMILES IDX 54 68 58 69 55 70 57 71 56 72 43 73 44 74 48 75 45 76 47 77
REMARK SMILES IDX 46 78
REMARK H PARENT 15 5 9 12 19 27 63 46 41 57
REMARK Flexibility Score: inf
ROOT
ATOM      1  C   UNL A   1      36.668  20.701  25.032  1.00  0.00     0.117 C 
ENDROOT
BRANCH   1   2
ATOM      2  N   UNL A   1      35.383  20.017  25.100  1.00  0.00    -0.356 N 
ATOM      3  C   UNL A   1      34.115  20.510  25.070  1.00  0.00     0.220 C 
ATOM      4  O   UNL A   1      33.179  19.721  25.207  1.00  0.00    -0.275 OA
ATOM      5  H   UNL A   1      35.442  19.037  25.182  1.00  0.00     0.163 HD
BRANCH   3   6
ATOM      6  C   UNL A   1      33.861  21.990  24.862  1.00  0.00     0.102 C 
BRANCH   6   7
ATOM      7  C   UNL A   1      33.078  22.322  23.594  1.00  0.00     0.031 C 
BRANCH   7   8
ATOM      8  C   UNL A   1      31.770  23.087  23.764  1.00  0.00     0.116 C 
BRANCH   8   9
ATOM      9  N   UNL A   1      31.308  23.248  25.119  1.00  0.00    -0.352 N 
ATOM     10  C   UNL A   1      30.837  24.344  25.799  1.00  0.00     0.255 C 
ATOM     11  O   UNL A   1      30.448  24.106  26.946  1.00  0.00    -0.269 OA
ATOM     12  H   UNL A   1      31.334  22.421  25.654  1.00  0.00     0.163 HD
BRANCH  10  13
ATOM     13  C   UNL A   1      30.823  25.716  25.275  1.00  0.00     0.084 A 
ATOM     14  C   UNL A   1      28.492  26.319  24.073  1.00  0.00     0.088 C 
ATOM     15  C   UNL A   1      29.879  26.466  24.562  1.00  0.00     0.114 A 
ATOM     16  O   UNL A   1      30.378  27.701  24.248  1.00  0.00    -0.465 OA
ATOM     17  C   UNL A   1      31.599  27.786  24.788  1.00  0.00     0.108 A 
ATOM     18  C   UNL A   1      31.919  26.644  25.476  1.00  0.00     0.007 A 
ATOM     19  C   UNL A   1      32.401  29.012  24.609  1.00  0.00     0.076 C 
ATOM     20  C   UNL A   1      33.228  26.514  26.188  1.00  0.00     0.040 C 
ATOM     21  C   UNL A   1      33.863  28.692  24.963  1.00  0.00     0.008 C 
ATOM     22  C   UNL A   1      33.967  27.875  26.267  1.00  0.00     0.005 C 
ENDBRANCH  10  13
ENDBRANCH   8   9
ENDBRANCH   7   8
ENDBRANCH   6   7
ENDBRANCH   3   6
ENDBRANCH   1   2
BRANCH   1  23
ATOM     23  C   UNL A   1      37.843  19.720  24.965  1.00  0.00     0.042 C 
BRANCH  23  24
ATOM     24  C   UNL A   1      39.070  20.204  25.706  1.00  0.00     0.118 C 
BRANCH  24  25
ATOM     25  N   UNL A   1      40.143  19.213  25.764  1.00  0.00    -0.352 N 
ATOM     26  C   UNL A   1      41.502  19.451  25.916  1.00  0.00     0.251 C 
ATOM     27  H   UNL A   1      39.872  18.269  25.684  1.00  0.00     0.163 HD
ATOM     28  O   UNL A   1      42.332  18.629  25.574  1.00  0.00    -0.269 OA
BRANCH  26  29
ATOM     29  C   UNL A   1      41.917  20.739  26.508  1.00  0.00     0.039 A 
ATOM     30  C   UNL A   1      42.347  21.815  25.730  1.00  0.00     0.014 A 
ATOM     31  C   UNL A   1      41.810  20.863  27.889  1.00  0.00     0.014 A 
ATOM     32  C   UNL A   1      42.599  23.031  26.364  1.00  0.00     0.010 A 
ATOM     33  C   UNL A   1      41.813  22.102  28.462  1.00  0.00     0.010 A 
ATOM     34  C   UNL A   1      42.308  23.168  27.732  1.00  0.00    -0.014 A 
BRANCH  34  35
ATOM     35  C   UNL A   1      42.400  24.448  28.419  1.00  0.00     0.031 A 
ATOM     36  C   UNL A   1      41.268  25.355  28.117  1.00  0.00     0.074 A 
ATOM     37  C   UNL A   1      43.295  24.710  29.400  1.00  0.00     0.049 A 
ATOM     38  N   UNL A   1      41.297  26.408  27.374  1.00  0.00    -0.248 NA
ATOM     39  C   UNL A   1      39.913  24.949  28.531  1.00  0.00     0.031 C 
ATOM     40  C   UNL A   1      44.261  23.796  30.029  1.00  0.00     0.029 A 
ATOM     41  N   UNL A   1      43.459  25.845  30.130  1.00  0.00    -0.354 N 
ATOM     42  C   UNL A   1      40.015  26.937  27.426  1.00  0.00     0.074 A 
ATOM     43  C   UNL A   1      39.171  25.895  27.953  1.00  0.00     0.031 C 
ATOM     44  C   UNL A   1      44.721  24.337  31.181  1.00  0.00     0.029 A 
ATOM     45  C   UNL A   1      44.230  25.698  31.281  1.00  0.00     0.049 A 
ATOM     46  H   UNL A   1      43.061  26.706  29.866  1.00  0.00     0.167 HD
ATOM     47  C   UNL A   1      39.820  28.282  27.331  1.00  0.00     0.031 A 
ATOM     48  C   UNL A   1      44.434  26.628  32.248  1.00  0.00     0.031 A 
ATOM     49  C   UNL A   1      40.998  28.947  26.822  1.00  0.00     0.049 A 
ATOM     50  C   UNL A   1      44.099  27.945  31.661  1.00  0.00     0.074 A 
ATOM     51  C   UNL A   1      41.764  28.832  25.679  1.00  0.00     0.029 A 
ATOM     52  N   UNL A   1      41.794  29.586  27.744  1.00  0.00    -0.354 N 
ATOM     53  N   UNL A   1      44.801  28.506  30.722  1.00  0.00    -0.248 NA
ATOM     54  C   UNL A   1      42.731  28.416  31.792  1.00  0.00     0.031 C 
ATOM     55  C   UNL A   1      43.114  28.959  26.125  1.00  0.00     0.029 A 
ATOM     56  C   UNL A   1      43.096  29.243  27.492  1.00  0.00     0.049 A 
ATOM     57  H   UNL A   1      41.483  30.187  28.460  1.00  0.00     0.167 HD
ATOM     58  C   UNL A   1      43.856  29.033  29.855  1.00  0.00     0.074 A 
ATOM     59  C   UNL A   1      42.606  29.039  30.617  1.00  0.00     0.031 C 
ATOM     60  C   UNL A   1      44.113  29.136  28.517  1.00  0.00     0.031 A 
BRANCH  47  61
ATOM     61  C   UNL A   1      38.770  29.017  28.131  1.00  0.00    -0.014 A 
ATOM     62  C   UNL A   1      38.739  28.829  29.524  1.00  0.00     0.009 A 
ATOM     63  C   UNL A   1      37.648  29.645  27.556  1.00  0.00     0.009 A 
ATOM     64  C   UNL A   1      37.612  29.174  30.281  1.00  0.00     0.001 A 
ATOM     65  C   UNL A   1      36.539  30.029  28.314  1.00  0.00     0.001 A 
ATOM     66  C   UNL A   1      36.510  29.765  29.673  1.00  0.00     0.000 A 
ENDBRANCH  47  61
BRANCH  48  67
ATOM     67  C   UNL A   1      44.652  26.478  33.705  1.00  0.00    -0.014 A 
ATOM     68  C   UNL A   1      43.567  26.239  34.566  1.00  0.00     0.009 A 
ATOM     69  C   UNL A   1      45.946  26.249  34.206  1.00  0.00     0.009 A 
ATOM     70  C   UNL A   1      43.764  25.732  35.858  1.00  0.00     0.001 A 
ATOM     71  C   UNL A   1      46.143  25.744  35.498  1.00  0.00     0.001 A 
ATOM     72  C   UNL A   1      45.052  25.467  36.317  1.00  0.00     0.000 A 
ENDBRANCH  48  67
BRANCH  60  73
ATOM     73  C   UNL A   1      45.533  28.906  28.052  1.00  0.00    -0.014 A 
ATOM     74  C   UNL A   1      46.079  27.635  27.786  1.00  0.00     0.009 A 
ATOM     75  C   UNL A   1      46.317  30.032  27.760  1.00  0.00     0.009 A 
ATOM     76  C   UNL A   1      47.380  27.501  27.288  1.00  0.00     0.001 A 
ATOM     77  C   UNL A   1      47.607  29.899  27.241  1.00  0.00     0.001 A 
ATOM     78  C   UNL A   1      48.143  28.634  27.015  1.00  0.00     0.000 A 
ENDBRANCH  60  73
ENDBRANCH  34  35
ENDBRANCH  26  29
ENDBRANCH  24  25
ENDBRANCH  23  24
ENDBRANCH   1  23
TORSDOF 14
ENDMDL
MODEL 2
REMARK VINA RESULT:     -11.4      2.292      6.436
REMARK SMILES Cc1oc2c(c1C(=O)NCCCC(=O)NCCCNC(=O)c1ccc(-c3c4nc(c(-c5ccccc5)c5ccc([nH]5)c(-c5ccccc5)c5nc(c(-c6ccccc6)c6ccc3[nH]6)C=C5)C=C4)cc1)CCCC2
REMARK SMILES IDX 16 1 15 2 13 3 14 4 12 6 11 7 10 8 9 9 7 10 8 11 6 13 1 14
REMARK SMILES IDX 2 15 3 16 4 17 5 18 73 19 70 20 72 21 71 22 17 23 18 24
REMARK SMILES IDX 19 25 20 26 21 28 22 29 23 30 69 31 24 32 68 33 25 34 26 35
REMARK SMILES IDX 27 36 62 37 28 38 67 39 61 40 63 41 29 42 66 43 60 44 59 45
REMARK SMILES IDX 30 47 52 48 37 49 51 50 38 51 41 52 50 53 64 54 39 55 40 56
REMARK SMILES IDX 49 58 65 59 42 60 31 61 32 62 36 63 33 64 35 65 34 66 53 67
REMARK SMILES IDX 54 68 58 69 55 70 57 71 56 72 43 73 44 74 48 75 45 76 47 77
REMARK SMILES IDX 46 78
REMARK H PARENT 15 5 9 12 19 27 63 46 41 57
REMARK Flexibility Score: inf
ROOT
ATOM      1  C   UNL A   1      42.107  19.052  25.818  1.00  0.00     0.117 C 
ENDROOT
BRANCH   1   2
ATOM      2  N   UNL A   1      41.642  19.887  26.918  1.00  0.00    -0.356 N 
ATOM      3  C   UNL A   1      40.597  20.757  26.988  1.00  0.00     0.220 C 
ATOM      4  O   UNL A   1      40.444  21.402  28.027  1.00  0.00    -0.275 OA
ATOM      5  H   UNL A   1      42.170  19.811  27.745  1.00  0.00     0.163 HD
BRANCH   3   6
ATOM      6  C   UNL A   1      39.640  20.919  25.824  1.00  0.00     0.102 C 
BRANCH   6   7
ATOM      7  C   UNL A   1      38.674  22.093  25.962  1.00  0.00     0.031 C 
BRANCH   7   8
ATOM      8  C   UNL A   1      37.248  21.882  25.466  1.00  0.00     0.116 C 
BRANCH   8   9
ATOM      9  N   UNL A   1      36.231  21.823  26.484  1.00  0.00    -0.352 N 
ATOM     10  C   UNL A   1      34.861  21.879  26.410  1.00  0.00     0.255 C 
ATOM     11  O   UNL A   1      34.283  21.718  27.490  1.00  0.00    -0.269 OA
ATOM     12  H   UNL A   1      36.581  21.723  27.399  1.00  0.00     0.163 HD
BRANCH  10  13
ATOM     13  C   UNL A   1      34.095  22.156  25.188  1.00  0.00     0.084 A 
ATOM     14  C   UNL A   1      32.924  19.944  24.200  1.00  0.00     0.088 C 
ATOM     15  C   UNL A   1      33.356  21.353  24.310  1.00  0.00     0.114 A 
ATOM     16  O   UNL A   1      32.876  22.093  23.264  1.00  0.00    -0.465 OA
ATOM     17  C   UNL A   1      33.241  23.363  23.474  1.00  0.00     0.108 A 
ATOM     18  C   UNL A   1      33.934  23.493  24.650  1.00  0.00     0.007 A 
ATOM     19  C   UNL A   1      32.872  24.408  22.499  1.00  0.00     0.076 C 
ATOM     20  C   UNL A   1      34.426  24.829  25.111  1.00  0.00     0.040 C 
ATOM     21  C   UNL A   1      33.739  25.650  22.766  1.00  0.00     0.008 C 
ATOM     22  C   UNL A   1      33.813  25.979  24.271  1.00  0.00     0.005 C 
ENDBRANCH  10  13
ENDBRANCH   8   9
ENDBRANCH   7   8
ENDBRANCH   6   7
ENDBRANCH   3   6
ENDBRANCH   1   2
BRANCH   1  23
ATOM     23  C   UNL A   1      43.204  18.076  26.257  1.00  0.00     0.042 C 
BRANCH  23  24
ATOM     24  C   UNL A   1      44.602  18.609  26.036  1.00  0.00     0.118 C 
BRANCH  24  25
ATOM     25  N   UNL A   1      44.997  18.638  24.628  1.00  0.00    -0.352 N 
ATOM     26  C   UNL A   1      44.916  19.711  23.753  1.00  0.00     0.251 C 
ATOM     27  H   UNL A   1      45.361  17.801  24.259  1.00  0.00     0.163 HD
ATOM     28  O   UNL A   1      44.900  19.546  22.547  1.00  0.00    -0.269 OA
BRANCH  26  29
ATOM     29  C   UNL A   1      44.849  21.070  24.328  1.00  0.00     0.039 A 
ATOM     30  C   UNL A   1      43.905  22.011  23.913  1.00  0.00     0.014 A 
ATOM     31  C   UNL A   1      45.739  21.367  25.354  1.00  0.00     0.014 A 
ATOM     32  C   UNL A   1      43.835  23.224  24.597  1.00  0.00     0.010 A 
ATOM     33  C   UNL A   1      45.502  22.435  26.171  1.00  0.00     0.010 A 
ATOM     34  C   UNL A   1      44.628  23.417  25.742  1.00  0.00    -0.014 A 
BRANCH  34  35
ATOM     35  C   UNL A   1      44.491  24.591  26.590  1.00  0.00     0.031 A 
ATOM     36  C   UNL A   1      45.593  25.567  26.416  1.00  0.00     0.074 A 
ATOM     37  C   UNL A   1      43.375  24.879  27.299  1.00  0.00     0.049 A 
ATOM     38  N   UNL A   1      46.558  25.799  27.240  1.00  0.00    -0.248 NA
ATOM     39  C   UNL A   1      45.748  26.225  25.107  1.00  0.00     0.031 C 
ATOM     40  C   UNL A   1      42.085  24.171  27.307  1.00  0.00     0.029 A 
ATOM     41  N   UNL A   1      43.119  25.949  28.096  1.00  0.00    -0.354 N 
ATOM     42  C   UNL A   1      47.308  26.813  26.659  1.00  0.00     0.074 A 
ATOM     43  C   UNL A   1      46.904  26.870  25.277  1.00  0.00     0.031 C 
ATOM     44  C   UNL A   1      41.136  24.955  27.867  1.00  0.00     0.029 A 
ATOM     45  C   UNL A   1      41.776  26.135  28.418  1.00  0.00     0.049 A 
ATOM     46  H   UNL A   1      43.828  26.549  28.421  1.00  0.00     0.167 HD
ATOM     47  C   UNL A   1      47.961  27.720  27.437  1.00  0.00     0.031 A 
ATOM     48  C   UNL A   1      41.235  27.190  29.078  1.00  0.00     0.031 A 
ATOM     49  C   UNL A   1      48.057  27.263  28.805  1.00  0.00     0.049 A 
ATOM     50  C   UNL A   1      42.339  27.865  29.796  1.00  0.00     0.074 A 
ATOM     51  C   UNL A   1      48.579  26.143  29.423  1.00  0.00     0.029 A 
ATOM     52  N   UNL A   1      47.171  27.808  29.704  1.00  0.00    -0.354 N 
ATOM     53  N   UNL A   1      42.970  27.331  30.799  1.00  0.00    -0.248 NA
ATOM     54  C   UNL A   1      43.046  28.930  29.103  1.00  0.00     0.031 C 
ATOM     55  C   UNL A   1      47.631  25.806  30.435  1.00  0.00     0.029 A 
ATOM     56  C   UNL A   1      46.639  26.788  30.449  1.00  0.00     0.049 A 
ATOM     57  H   UNL A   1      46.956  28.765  29.797  1.00  0.00     0.167 HD
ATOM     58  C   UNL A   1      44.302  27.641  30.573  1.00  0.00     0.074 A 
ATOM     59  C   UNL A   1      44.277  28.713  29.576  1.00  0.00     0.031 C 
ATOM     60  C   UNL A   1      45.297  26.804  30.991  1.00  0.00     0.031 A 
BRANCH  47  61
ATOM     61  C   UNL A   1      48.072  29.182  27.074  1.00  0.00    -0.014 A 
ATOM     62  C   UNL A   1      49.344  29.782  27.095  1.00  0.00     0.009 A 
ATOM     63  C   UNL A   1      46.967  30.053  26.997  1.00  0.00     0.009 A 
ATOM     64  C   UNL A   1      49.492  31.174  27.123  1.00  0.00     0.001 A 
ATOM     65  C   UNL A   1      47.113  31.442  26.982  1.00  0.00     0.001 A 
ATOM     66  C   UNL A   1      48.376  32.003  27.077  1.00  0.00     0.000 A 
ENDBRANCH  47  61
BRANCH  48  67
ATOM     67  C   UNL A   1      39.904  27.828  28.959  1.00  0.00    -0.014 A 
ATOM     68  C   UNL A   1      39.059  27.926  30.078  1.00  0.00     0.009 A 
ATOM     69  C   UNL A   1      39.598  28.619  27.838  1.00  0.00     0.009 A 
ATOM     70  C   UNL A   1      37.985  28.827  30.099  1.00  0.00     0.001 A 
ATOM     71  C   UNL A   1      38.523  29.519  27.859  1.00  0.00     0.001 A 
ATOM     72  C   UNL A   1      37.729  29.637  28.995  1.00  0.00     0.000 A 
ENDBRANCH  48  67
BRANCH  60  73
ATOM     73  C   UNL A   1      44.923  25.674  31.925  1.00  0.00    -0.014 A 
ATOM     74  C   UNL A   1      44.858  25.799  33.326  1.00  0.00     0.009 A 
ATOM     75  C   UNL A   1      44.507  24.463  31.353  1.00  0.00     0.009 A 
ATOM     76  C   UNL A   1      44.434  24.730  34.124  1.00  0.00     0.001 A 
ATOM     77  C   UNL A   1      44.062  23.404  32.147  1.00  0.00     0.001 A 
ATOM     78  C   UNL A   1      44.035  23.534  33.534  1.00  0.00     0.000 A 
ENDBRANCH  60  73
ENDBRANCH  34  35
ENDBRANCH  26  29
ENDBRANCH  24  25
ENDBRANCH  23  24
ENDBRANCH   1  23
TORSDOF 14
ENDMDL
MODEL 3
REMARK VINA RESULT:     -11.2      3.830      8.815
REMARK SMILES Cc1oc2c(c1C(=O)NCCCC(=O)NCCCNC(=O)c1ccc(-c3c4nc(c(-c5ccccc5)c5ccc([nH]5)c(-c5ccccc5)c5nc(c(-c6ccccc6)c6ccc3[nH]6)C=C5)C=C4)cc1)CCCC2
REMARK SMILES IDX 16 1 15 2 13 3 14 4 12 6 11 7 10 8 9 9 7 10 8 11 6 13 1 14
REMARK SMILES IDX 2 15 3 16 4 17 5 18 73 19 70 20 72 21 71 22 17 23 18 24
REMARK SMILES IDX 19 25 20 26 21 28 22 29 23 30 69 31 24 32 68 33 25 34 26 35
REMARK SMILES IDX 27 36 62 37 28 38 67 39 61 40 63 41 29 42 66 43 60 44 59 45
REMARK SMILES IDX 30 47 52 48 37 49 51 50 38 51 41 52 50 53 64 54 39 55 40 56
REMARK SMILES IDX 49 58 65 59 42 60 31 61 32 62 36 63 33 64 35 65 34 66 53 67
REMARK SMILES IDX 54 68 58 69 55 70 57 71 56 72 43 73 44 74 48 75 45 76 47 77
REMARK SMILES IDX 46 78
REMARK H PARENT 15 5 9 12 19 27 63 46 41 57
REMARK Flexibility Score: inf
ROOT
ATOM      1  C   UNL A   1      31.811  29.966  26.155  1.00  0.00     0.117 C 
ENDROOT
BRANCH   1   2
ATOM      2  N   UNL A   1      32.645  29.922  24.960  1.00  0.00    -0.356 N 
ATOM      3  C   UNL A   1      32.776  28.960  24.007  1.00  0.00     0.220 C 
ATOM      4  O   UNL A   1      33.606  29.135  23.113  1.00  0.00    -0.275 OA
ATOM      5  H   UNL A   1      33.207  30.720  24.821  1.00  0.00     0.163 HD
BRANCH   3   6
ATOM      6  C   UNL A   1      31.917  27.712  24.037  1.00  0.00     0.102 C 
BRANCH   6   7
ATOM      7  C   UNL A   1      31.585  27.143  22.661  1.00  0.00     0.031 C 
BRANCH   7   8
ATOM      8  C   UNL A   1      32.498  26.047  22.123  1.00  0.00     0.116 C 
BRANCH   8   9
ATOM      9  N   UNL A   1      31.991  24.702  22.219  1.00  0.00    -0.352 N 
ATOM     10  C   UNL A   1      32.139  23.738  23.186  1.00  0.00     0.255 C 
ATOM     11  O   UNL A   1      31.493  22.706  22.982  1.00  0.00    -0.269 OA
ATOM     12  H   UNL A   1      31.437  24.424  21.454  1.00  0.00     0.163 HD
BRANCH  10  13
ATOM     13  C   UNL A   1      33.018  23.850  24.358  1.00  0.00     0.084 A 
ATOM     14  C   UNL A   1      31.679  24.623  26.560  1.00  0.00     0.088 C 
ATOM     15  C   UNL A   1      32.808  24.236  25.687  1.00  0.00     0.114 A 
ATOM     16  O   UNL A   1      33.984  24.232  26.385  1.00  0.00    -0.465 OA
ATOM     17  C   UNL A   1      34.939  23.799  25.553  1.00  0.00     0.108 A 
ATOM     18  C   UNL A   1      34.422  23.492  24.321  1.00  0.00     0.007 A 
ATOM     19  C   UNL A   1      36.335  23.694  26.023  1.00  0.00     0.076 C 
ATOM     20  C   UNL A   1      35.298  22.964  23.229  1.00  0.00     0.040 C 
ATOM     21  C   UNL A   1      37.252  23.574  24.794  1.00  0.00     0.008 C 
ATOM     22  C   UNL A   1      36.697  22.568  23.765  1.00  0.00     0.005 C 
ENDBRANCH  10  13
ENDBRANCH   8   9
ENDBRANCH   7   8
ENDBRANCH   6   7
ENDBRANCH   3   6
ENDBRANCH   1   2
BRANCH   1  23
ATOM     23  C   UNL A   1      31.496  31.401  26.589  1.00  0.00     0.042 C 
BRANCH  23  24
ATOM     24  C   UNL A   1      32.711  32.157  27.081  1.00  0.00     0.118 C 
BRANCH  24  25
ATOM     25  N   UNL A   1      32.419  33.535  27.475  1.00  0.00    -0.352 N 
ATOM     26  C   UNL A   1      33.021  34.266  28.489  1.00  0.00     0.251 C 
ATOM     27  H   UNL A   1      31.715  33.995  26.964  1.00  0.00     0.163 HD
ATOM     28  O   UNL A   1      32.471  35.231  28.987  1.00  0.00    -0.269 OA
BRANCH  26  29
ATOM     29  C   UNL A   1      34.357  33.838  28.951  1.00  0.00     0.039 A 
ATOM     30  C   UNL A   1      34.552  33.179  30.166  1.00  0.00     0.014 A 
ATOM     31  C   UNL A   1      35.427  34.070  28.094  1.00  0.00     0.014 A 
ATOM     32  C   UNL A   1      35.828  32.702  30.464  1.00  0.00     0.010 A 
ATOM     33  C   UNL A   1      36.598  33.392  28.271  1.00  0.00     0.010 A 
ATOM     34  C   UNL A   1      36.842  32.797  29.496  1.00  0.00    -0.014 A 
BRANCH  34  35
ATOM     35  C   UNL A   1      38.148  32.183  29.679  1.00  0.00     0.031 A 
ATOM     36  C   UNL A   1      38.174  30.747  29.316  1.00  0.00     0.074 A 
ATOM     37  C   UNL A   1      39.276  32.885  29.938  1.00  0.00     0.049 A 
ATOM     38  N   UNL A   1      38.232  29.745  30.127  1.00  0.00    -0.248 NA
ATOM     39  C   UNL A   1      37.920  30.372  27.914  1.00  0.00     0.031 C 
ATOM     40  C   UNL A   1      39.457  34.343  29.998  1.00  0.00     0.029 A 
ATOM     41  N   UNL A   1      40.548  32.432  30.100  1.00  0.00    -0.354 N 
ATOM     42  C   UNL A   1      38.270  28.615  29.321  1.00  0.00     0.074 A 
ATOM     43  C   UNL A   1      37.852  29.042  28.010  1.00  0.00     0.031 C 
ATOM     44  C   UNL A   1      40.775  34.645  29.940  1.00  0.00     0.029 A 
ATOM     45  C   UNL A   1      41.535  33.412  30.022  1.00  0.00     0.049 A 
ATOM     46  H   UNL A   1      40.756  31.483  30.259  1.00  0.00     0.167 HD
ATOM     47  C   UNL A   1      38.943  27.502  29.725  1.00  0.00     0.031 A 
ATOM     48  C   UNL A   1      42.878  33.216  30.012  1.00  0.00     0.031 A 
ATOM     49  C   UNL A   1      39.235  27.552  31.140  1.00  0.00     0.049 A 
ATOM     50  C   UNL A   1      43.123  31.863  30.560  1.00  0.00     0.074 A 
ATOM     51  C   UNL A   1      38.476  27.685  32.286  1.00  0.00     0.029 A 
ATOM     52  N   UNL A   1      40.516  27.903  31.496  1.00  0.00    -0.354 N 
ATOM     53  N   UNL A   1      42.905  31.547  31.802  1.00  0.00    -0.248 NA
ATOM     54  C   UNL A   1      43.166  30.751  29.625  1.00  0.00     0.031 C 
ATOM     55  C   UNL A   1      39.225  28.565  33.124  1.00  0.00     0.029 A 
ATOM     56  C   UNL A   1      40.439  28.841  32.492  1.00  0.00     0.049 A 
ATOM     57  H   UNL A   1      41.345  27.543  31.104  1.00  0.00     0.167 HD
ATOM     58  C   UNL A   1      42.318  30.292  31.739  1.00  0.00     0.074 A 
ATOM     59  C   UNL A   1      42.600  29.810  30.386  1.00  0.00     0.031 C 
ATOM     60  C   UNL A   1      41.413  29.894  32.682  1.00  0.00     0.031 A 
BRANCH  47  61
ATOM     61  C   UNL A   1      39.735  26.633  28.777  1.00  0.00    -0.014 A 
ATOM     62  C   UNL A   1      40.830  27.203  28.103  1.00  0.00     0.009 A 
ATOM     63  C   UNL A   1      39.286  25.385  28.301  1.00  0.00     0.009 A 
ATOM     64  C   UNL A   1      41.384  26.596  26.970  1.00  0.00     0.001 A 
ATOM     65  C   UNL A   1      39.863  24.757  27.196  1.00  0.00     0.001 A 
ATOM     66  C   UNL A   1      40.894  25.379  26.511  1.00  0.00     0.000 A 
ENDBRANCH  47  61
BRANCH  48  67
ATOM     67  C   UNL A   1      43.963  33.976  29.349  1.00  0.00    -0.014 A 
ATOM     68  C   UNL A   1      45.308  33.706  29.653  1.00  0.00     0.009 A 
ATOM     69  C   UNL A   1      43.693  34.732  28.195  1.00  0.00     0.009 A 
ATOM     70  C   UNL A   1      46.342  34.123  28.802  1.00  0.00     0.001 A 
ATOM     71  C   UNL A   1      44.726  35.150  27.346  1.00  0.00     0.001 A 
ATOM     72  C   UNL A   1      46.048  34.830  27.639  1.00  0.00     0.000 A 
ENDBRANCH  48  67
BRANCH  60  73
ATOM     73  C   UNL A   1      41.268  30.745  33.924  1.00  0.00    -0.014 A 
ATOM     74  C   UNL A   1      40.438  31.879  34.009  1.00  0.00     0.009 A 
ATOM     75  C   UNL A   1      41.912  30.312  35.093  1.00  0.00     0.009 A 
ATOM     76  C   UNL A   1      40.297  32.579  35.214  1.00  0.00     0.001 A 
ATOM     77  C   UNL A   1      41.753  30.996  36.301  1.00  0.00     0.001 A 
ATOM     78  C   UNL A   1      40.954  32.135  36.359  1.00  0.00     0.000 A 
ENDBRANCH  60  73
ENDBRANCH  34  35
ENDBRANCH  26  29
ENDBRANCH  24  25
ENDBRANCH  23  24
ENDBRANCH   1  23
TORSDOF 14
ENDMDL
