MODEL 1
REMARK VINA RESULT:     -11.9      0.000      0.000
REMARK SMILES C[C@@H]1C[C@@H](C)CN(C(=O)CCn2cc(C(=O)NCCCNC(=O)c3ccc(-c4c5nc(c(-c6ccccc6)c6ccc([nH]6)c(-c6ccccc6)c6nc(c(-c7ccccc7)c7ccc4[nH]7)C=C6)C=C5)cc3)cn2)C1
REMARK SMILES IDX 18 1 17 2 15 3 16 4 14 6 12 7 13 8 73 9 72 10 11 11 10 12
REMARK SMILES IDX 8 13 1 14 2 15 3 16 74 17 4 18 7 19 6 20 5 21 9 22 19 23
REMARK SMILES IDX 20 24 21 25 22 26 23 28 24 29 25 30 71 31 26 32 70 33 27 34
REMARK SMILES IDX 28 35 29 36 64 37 30 38 69 39 63 40 65 41 31 42 68 43 62 44
REMARK SMILES IDX 61 45 32 47 54 48 39 49 53 50 40 51 43 52 52 53 66 54 41 55
REMARK SMILES IDX 42 56 51 58 67 59 44 60 33 61 34 62 38 63 35 64 37 65 36 66
REMARK SMILES IDX 55 67 56 68 60 69 57 70 59 71 58 72 45 73 46 74 50 75 47 76
REMARK SMILES IDX 49 77 48 78
REMARK H PARENT 17 5 21 27 65 46 43 57
REMARK Flexibility Score: inf
ROOT
ATOM      1  C   UNL A   1      36.361  20.188  25.080  1.00  0.00     0.118 C 
ENDROOT
BRANCH   1   2
ATOM      2  N   UNL A   1      35.225  19.311  24.836  1.00  0.00    -0.352 N 
ATOM      3  C   UNL A   1      33.894  19.434  25.164  1.00  0.00     0.254 C 
ATOM      4  O   UNL A   1      33.162  18.472  24.937  1.00  0.00    -0.269 OA
ATOM      5  H   UNL A   1      35.449  18.485  24.350  1.00  0.00     0.163 HD
BRANCH   3   6
ATOM      6  C   UNL A   1      33.359  20.711  25.600  1.00  0.00     0.077 A 
ATOM      7  N   UNL A   1      31.951  22.321  26.059  1.00  0.00    -0.271 N 
ATOM      8  C   UNL A   1      32.422  21.549  25.031  1.00  0.00     0.122 A 
ATOM      9  N   UNL A   1      32.770  22.325  27.120  1.00  0.00    -0.181 NA
ATOM     10  C   UNL A   1      33.639  21.349  26.837  1.00  0.00     0.149 A 
BRANCH   7  11
ATOM     11  C   UNL A   1      30.626  22.916  26.126  1.00  0.00     0.154 C 
BRANCH  11  12
ATOM     12  C   UNL A   1      30.670  24.443  26.211  1.00  0.00     0.124 C 
BRANCH  12  13
ATOM     13  C   UNL A   1      30.866  25.104  24.863  1.00  0.00     0.224 C 
ATOM     14  C   UNL A   1      33.617  26.148  22.606  1.00  0.00     0.009 C 
ATOM     15  C   UNL A   1      32.817  27.398  23.000  1.00  0.00     0.006 C 
ATOM     16  C   UNL A   1      33.535  28.217  24.080  1.00  0.00     0.010 C 
ATOM     17  C   UNL A   1      31.402  27.046  23.472  1.00  0.00     0.122 C 
ATOM     18  C   UNL A   1      33.520  27.506  25.441  1.00  0.00     0.006 C 
ATOM     19  N   UNL A   1      31.418  26.374  24.773  1.00  0.00    -0.342 N 
ATOM     20  C   UNL A   1      32.074  27.144  25.835  1.00  0.00     0.122 C 
ATOM     21  C   UNL A   1      34.220  28.389  26.470  1.00  0.00     0.009 C 
ATOM     22  O   UNL A   1      30.473  24.492  23.866  1.00  0.00    -0.275 OA
ENDBRANCH  12  13
ENDBRANCH  11  12
ENDBRANCH   7  11
ENDBRANCH   3   6
ENDBRANCH   1   2
BRANCH   1  23
ATOM     23  C   UNL A   1      37.679  19.505  24.701  1.00  0.00     0.042 C 
BRANCH  23  24
ATOM     24  C   UNL A   1      38.848  20.067  25.487  1.00  0.00     0.118 C 
BRANCH  24  25
ATOM     25  N   UNL A   1      39.902  19.073  25.705  1.00  0.00    -0.352 N 
ATOM     26  C   UNL A   1      41.239  19.294  25.970  1.00  0.00     0.251 C 
ATOM     27  H   UNL A   1      39.623  18.130  25.655  1.00  0.00     0.163 HD
ATOM     28  O   UNL A   1      42.076  18.420  25.757  1.00  0.00    -0.269 OA
BRANCH  26  29
ATOM     29  C   UNL A   1      41.645  20.593  26.525  1.00  0.00     0.039 A 
ATOM     30  C   UNL A   1      42.393  21.522  25.795  1.00  0.00     0.014 A 
ATOM     31  C   UNL A   1      41.232  20.879  27.822  1.00  0.00     0.014 A 
ATOM     32  C   UNL A   1      42.673  22.757  26.374  1.00  0.00     0.010 A 
ATOM     33  C   UNL A   1      41.298  22.158  28.284  1.00  0.00     0.010 A 
ATOM     34  C   UNL A   1      42.115  23.062  27.622  1.00  0.00    -0.014 A 
BRANCH  34  35
ATOM     35  C   UNL A   1      42.320  24.339  28.283  1.00  0.00     0.031 A 
ATOM     36  C   UNL A   1      41.251  25.337  28.049  1.00  0.00     0.074 A 
ATOM     37  C   UNL A   1      43.233  24.480  29.269  1.00  0.00     0.049 A 
ATOM     38  N   UNL A   1      41.335  26.454  27.407  1.00  0.00    -0.248 NA
ATOM     39  C   UNL A   1      39.884  24.989  28.472  1.00  0.00     0.031 C 
ATOM     40  C   UNL A   1      44.088  23.444  29.872  1.00  0.00     0.029 A 
ATOM     41  N   UNL A   1      43.477  25.557  30.058  1.00  0.00    -0.354 N 
ATOM     42  C   UNL A   1      40.083  27.049  27.524  1.00  0.00     0.074 A 
ATOM     43  C   UNL A   1      39.189  26.020  27.989  1.00  0.00     0.031 C 
ATOM     44  C   UNL A   1      44.549  23.877  31.066  1.00  0.00     0.029 A 
ATOM     45  C   UNL A   1      44.175  25.269  31.225  1.00  0.00     0.049 A 
ATOM     46  H   UNL A   1      43.184  26.467  29.824  1.00  0.00     0.167 HD
ATOM     47  C   UNL A   1      39.937  28.404  27.506  1.00  0.00     0.031 A 
ATOM     48  C   UNL A   1      44.391  26.107  32.266  1.00  0.00     0.031 A 
ATOM     49  C   UNL A   1      41.138  29.060  27.053  1.00  0.00     0.049 A 
ATOM     50  C   UNL A   1      44.137  27.484  31.781  1.00  0.00     0.074 A 
ATOM     51  C   UNL A   1      41.903  29.009  25.903  1.00  0.00     0.029 A 
ATOM     52  N   UNL A   1      41.946  29.613  28.020  1.00  0.00    -0.354 N 
ATOM     53  N   UNL A   1      44.875  28.080  30.888  1.00  0.00    -0.248 NA
ATOM     54  C   UNL A   1      42.797  28.026  31.944  1.00  0.00     0.031 C 
ATOM     55  C   UNL A   1      43.253  29.076  26.361  1.00  0.00     0.029 A 
ATOM     56  C   UNL A   1      43.235  29.241  27.747  1.00  0.00     0.049 A 
ATOM     57  H   UNL A   1      41.649  30.175  28.772  1.00  0.00     0.167 HD
ATOM     58  C   UNL A   1      43.973  28.761  30.082  1.00  0.00     0.074 A 
ATOM     59  C   UNL A   1      42.725  28.780  30.844  1.00  0.00     0.031 C 
ATOM     60  C   UNL A   1      44.238  28.984  28.760  1.00  0.00     0.031 A 
BRANCH  47  61
ATOM     61  C   UNL A   1      38.886  29.145  28.300  1.00  0.00    -0.014 A 
ATOM     62  C   UNL A   1      38.857  28.976  29.696  1.00  0.00     0.009 A 
ATOM     63  C   UNL A   1      37.767  29.772  27.720  1.00  0.00     0.009 A 
ATOM     64  C   UNL A   1      37.736  29.338  30.452  1.00  0.00     0.001 A 
ATOM     65  C   UNL A   1      36.665  30.178  28.478  1.00  0.00     0.001 A 
ATOM     66  C   UNL A   1      36.637  29.933  29.842  1.00  0.00     0.000 A 
ENDBRANCH  47  61
BRANCH  48  67
ATOM     67  C   UNL A   1      44.541  25.786  33.701  1.00  0.00    -0.014 A 
ATOM     68  C   UNL A   1      43.454  25.307  34.448  1.00  0.00     0.009 A 
ATOM     69  C   UNL A   1      45.822  25.701  34.278  1.00  0.00     0.009 A 
ATOM     70  C   UNL A   1      43.648  24.731  35.712  1.00  0.00     0.001 A 
ATOM     71  C   UNL A   1      46.016  25.126  35.539  1.00  0.00     0.001 A 
ATOM     72  C   UNL A   1      44.929  24.627  36.250  1.00  0.00     0.000 A 
ENDBRANCH  48  67
BRANCH  60  73
ATOM     73  C   UNL A   1      45.632  28.692  28.254  1.00  0.00    -0.014 A 
ATOM     74  C   UNL A   1      46.041  27.420  27.815  1.00  0.00     0.009 A 
ATOM     75  C   UNL A   1      46.500  29.774  28.055  1.00  0.00     0.009 A 
ATOM     76  C   UNL A   1      47.292  27.238  27.214  1.00  0.00     0.001 A 
ATOM     77  C   UNL A   1      47.740  29.596  27.437  1.00  0.00     0.001 A 
ATOM     78  C   UNL A   1      48.137  28.327  27.019  1.00  0.00     0.000 A 
ENDBRANCH  60  73
ENDBRANCH  34  35
ENDBRANCH  26  29
ENDBRANCH  24  25
ENDBRANCH  23  24
ENDBRANCH   1  23
TORSDOF 13
ENDMDL
MODEL 2
REMARK VINA RESULT:     -11.9      3.958      9.344
REMARK SMILES C[C@@H]1C[C@@H](C)CN(C(=O)CCn2cc(C(=O)NCCCNC(=O)c3ccc(-c4c5nc(c(-c6ccccc6)c6ccc([nH]6)c(-c6ccccc6)c6nc(c(-c7ccccc7)c7ccc4[nH]7)C=C6)C=C5)cc3)cn2)C1
REMARK SMILES IDX 18 1 17 2 15 3 16 4 14 6 12 7 13 8 73 9 72 10 11 11 10 12
REMARK SMILES IDX 8 13 1 14 2 15 3 16 74 17 4 18 7 19 6 20 5 21 9 22 19 23
REMARK SMILES IDX 20 24 21 25 22 26 23 28 24 29 25 30 71 31 26 32 70 33 27 34
REMARK SMILES IDX 28 35 29 36 64 37 30 38 69 39 63 40 65 41 31 42 68 43 62 44
REMARK SMILES IDX 61 45 32 47 54 48 39 49 53 50 40 51 43 52 52 53 66 54 41 55
REMARK SMILES IDX 42 56 51 58 67 59 44 60 33 61 34 62 38 63 35 64 37 65 36 66
REMARK SMILES IDX 55 67 56 68 60 69 57 70 59 71 58 72 45 73 46 74 50 75 47 76
REMARK SMILES IDX 49 77 48 78
REMARK H PARENT 17 5 21 27 65 46 43 57
REMARK Flexibility Score: inf
ROOT
ATOM      1  C   UNL A   1      31.471  30.640  25.700  1.00  0.00     0.118 C 
ENDROOT
BRANCH   1   2
ATOM      2  N   UNL A   1      30.705  30.416  24.483  1.00  0.00    -0.352 N 
ATOM      3  C   UNL A   1      30.716  29.379  23.579  1.00  0.00     0.254 C 
ATOM      4  O   UNL A   1      30.040  29.506  22.560  1.00  0.00    -0.269 OA
ATOM      5  H   UNL A   1      30.064  31.133  24.270  1.00  0.00     0.163 HD
BRANCH   3   6
ATOM      6  C   UNL A   1      31.369  28.124  23.907  1.00  0.00     0.077 A 
ATOM      7  N   UNL A   1      31.715  25.987  24.217  1.00  0.00    -0.271 N 
ATOM      8  C   UNL A   1      30.932  27.031  24.628  1.00  0.00     0.122 A 
ATOM      9  N   UNL A   1      32.843  26.391  23.614  1.00  0.00    -0.181 NA
ATOM     10  C   UNL A   1      32.638  27.700  23.435  1.00  0.00     0.149 A 
BRANCH   7  11
ATOM     11  C   UNL A   1      31.321  24.587  24.218  1.00  0.00     0.154 C 
BRANCH  11  12
ATOM     12  C   UNL A   1      31.332  23.973  25.620  1.00  0.00     0.124 C 
BRANCH  12  13
ATOM     13  C   UNL A   1      32.695  23.451  26.024  1.00  0.00     0.224 C 
ATOM     14  C   UNL A   1      35.727  21.982  24.476  1.00  0.00     0.009 C 
ATOM     15  C   UNL A   1      35.143  20.957  25.458  1.00  0.00     0.006 C 
ATOM     16  C   UNL A   1      34.366  19.851  24.734  1.00  0.00     0.010 C 
ATOM     17  C   UNL A   1      34.243  21.619  26.509  1.00  0.00     0.122 C 
ATOM     18  C   UNL A   1      33.046  20.371  24.146  1.00  0.00     0.006 C 
ATOM     19  N   UNL A   1      32.991  22.100  25.921  1.00  0.00    -0.342 N 
ATOM     20  C   UNL A   1      32.211  21.060  25.243  1.00  0.00     0.122 C 
ATOM     21  C   UNL A   1      32.314  19.214  23.471  1.00  0.00     0.009 C 
ATOM     22  O   UNL A   1      33.500  24.262  26.490  1.00  0.00    -0.275 OA
ENDBRANCH  12  13
ENDBRANCH  11  12
ENDBRANCH   7  11
ENDBRANCH   3   6
ENDBRANCH   1   2
BRANCH   1  23
ATOM     23  C   UNL A   1      31.165  32.017  26.301  1.00  0.00     0.042 C 
BRANCH  23  24
ATOM     24  C   UNL A   1      32.259  32.470  27.248  1.00  0.00     0.118 C 
BRANCH  24  25
ATOM     25  N   UNL A   1      32.181  33.902  27.546  1.00  0.00    -0.352 N 
ATOM     26  C   UNL A   1      32.922  34.623  28.461  1.00  0.00     0.251 C 
ATOM     27  H   UNL A   1      31.518  34.415  27.029  1.00  0.00     0.163 HD
ATOM     28  O   UNL A   1      32.518  35.703  28.886  1.00  0.00    -0.269 OA
BRANCH  26  29
ATOM     29  C   UNL A   1      34.213  34.083  28.911  1.00  0.00     0.039 A 
ATOM     30  C   UNL A   1      34.397  33.543  30.187  1.00  0.00     0.014 A 
ATOM     31  C   UNL A   1      35.258  34.109  27.995  1.00  0.00     0.014 A 
ATOM     32  C   UNL A   1      35.634  32.988  30.505  1.00  0.00     0.010 A 
ATOM     33  C   UNL A   1      36.373  33.360  28.221  1.00  0.00     0.010 A 
ATOM     34  C   UNL A   1      36.614  32.902  29.507  1.00  0.00    -0.014 A 
BRANCH  34  35
ATOM     35  C   UNL A   1      37.917  32.303  29.737  1.00  0.00     0.031 A 
ATOM     36  C   UNL A   1      38.014  30.869  29.376  1.00  0.00     0.074 A 
ATOM     37  C   UNL A   1      39.012  33.066  29.954  1.00  0.00     0.049 A 
ATOM     38  N   UNL A   1      38.195  29.863  30.164  1.00  0.00    -0.248 NA
ATOM     39  C   UNL A   1      37.748  30.496  27.976  1.00  0.00     0.031 C 
ATOM     40  C   UNL A   1      39.114  34.535  29.938  1.00  0.00     0.029 A 
ATOM     41  N   UNL A   1      40.308  32.683  30.077  1.00  0.00    -0.354 N 
ATOM     42  C   UNL A   1      38.274  28.748  29.336  1.00  0.00     0.074 A 
ATOM     43  C   UNL A   1      37.779  29.164  28.050  1.00  0.00     0.031 C 
ATOM     44  C   UNL A   1      40.407  34.896  29.792  1.00  0.00     0.029 A 
ATOM     45  C   UNL A   1      41.229  33.705  29.886  1.00  0.00     0.049 A 
ATOM     46  H   UNL A   1      40.574  31.758  30.284  1.00  0.00     0.167 HD
ATOM     47  C   UNL A   1      39.004  27.653  29.689  1.00  0.00     0.031 A 
ATOM     48  C   UNL A   1      42.572  33.572  29.771  1.00  0.00     0.031 A 
ATOM     49  C   UNL A   1      39.380  27.693  31.081  1.00  0.00     0.049 A 
ATOM     50  C   UNL A   1      42.929  32.235  30.300  1.00  0.00     0.074 A 
ATOM     51  C   UNL A   1      38.690  27.763  32.275  1.00  0.00     0.029 A 
ATOM     52  N   UNL A   1      40.668  28.083  31.365  1.00  0.00    -0.354 N 
ATOM     53  N   UNL A   1      42.801  31.900  31.553  1.00  0.00    -0.248 NA
ATOM     54  C   UNL A   1      42.987  31.125  29.362  1.00  0.00     0.031 C 
ATOM     55  C   UNL A   1      39.461  28.645  33.090  1.00  0.00     0.029 A 
ATOM     56  C   UNL A   1      40.611  29.000  32.381  1.00  0.00     0.049 A 
ATOM     57  H   UNL A   1      41.484  27.761  30.918  1.00  0.00     0.167 HD
ATOM     58  C   UNL A   1      42.324  30.597  31.524  1.00  0.00     0.074 A 
ATOM     59  C   UNL A   1      42.563  30.138  30.156  1.00  0.00     0.031 C 
ATOM     60  C   UNL A   1      41.519  30.119  32.519  1.00  0.00     0.031 A 
BRANCH  47  61
ATOM     61  C   UNL A   1      39.742  26.782  28.699  1.00  0.00    -0.014 A 
ATOM     62  C   UNL A   1      40.723  27.376  27.884  1.00  0.00     0.009 A 
ATOM     63  C   UNL A   1      39.330  25.485  28.339  1.00  0.00     0.009 A 
ATOM     64  C   UNL A   1      41.199  26.739  26.732  1.00  0.00     0.001 A 
ATOM     65  C   UNL A   1      39.836  24.826  27.217  1.00  0.00     0.001 A 
ATOM     66  C   UNL A   1      40.750  25.467  26.394  1.00  0.00     0.000 A 
ENDBRANCH  47  61
BRANCH  48  67
ATOM     67  C   UNL A   1      43.525  34.400  29.001  1.00  0.00    -0.014 A 
ATOM     68  C   UNL A   1      43.484  34.427  27.599  1.00  0.00     0.009 A 
ATOM     69  C   UNL A   1      44.308  35.371  29.653  1.00  0.00     0.009 A 
ATOM     70  C   UNL A   1      44.173  35.413  26.877  1.00  0.00     0.001 A 
ATOM     71  C   UNL A   1      44.996  36.354  28.934  1.00  0.00     0.001 A 
ATOM     72  C   UNL A   1      44.917  36.384  27.545  1.00  0.00     0.000 A 
ENDBRANCH  48  67
BRANCH  60  73
ATOM     73  C   UNL A   1      41.359  30.953  33.768  1.00  0.00    -0.014 A 
ATOM     74  C   UNL A   1      40.430  32.003  33.879  1.00  0.00     0.009 A 
ATOM     75  C   UNL A   1      42.048  30.551  34.921  1.00  0.00     0.009 A 
ATOM     76  C   UNL A   1      40.215  32.642  35.106  1.00  0.00     0.001 A 
ATOM     77  C   UNL A   1      41.818  31.175  36.149  1.00  0.00     0.001 A 
ATOM     78  C   UNL A   1      40.904  32.224  36.241  1.00  0.00     0.000 A 
ENDBRANCH  60  73
ENDBRANCH  34  35
ENDBRANCH  26  29
ENDBRANCH  24  25
ENDBRANCH  23  24
ENDBRANCH   1  23
TORSDOF 13
ENDMDL
MODEL 3
REMARK VINA RESULT:     -11.6      2.643      7.751
REMARK SMILES C[C@@H]1C[C@@H](C)CN(C(=O)CCn2cc(C(=O)NCCCNC(=O)c3ccc(-c4c5nc(c(-c6ccccc6)c6ccc([nH]6)c(-c6ccccc6)c6nc(c(-c7ccccc7)c7ccc4[nH]7)C=C6)C=C5)cc3)cn2)C1
REMARK SMILES IDX 18 1 17 2 15 3 16 4 14 6 12 7 13 8 73 9 72 10 11 11 10 12
REMARK SMILES IDX 8 13 1 14 2 15 3 16 74 17 4 18 7 19 6 20 5 21 9 22 19 23
REMARK SMILES IDX 20 24 21 25 22 26 23 28 24 29 25 30 71 31 26 32 70 33 27 34
REMARK SMILES IDX 28 35 29 36 64 37 30 38 69 39 63 40 65 41 31 42 68 43 62 44
REMARK SMILES IDX 61 45 32 47 54 48 39 49 53 50 40 51 43 52 52 53 66 54 41 55
REMARK SMILES IDX 42 56 51 58 67 59 44 60 33 61 34 62 38 63 35 64 37 65 36 66
REMARK SMILES IDX 55 67 56 68 60 69 57 70 59 71 58 72 45 73 46 74 50 75 47 76
REMARK SMILES IDX 49 77 48 78
REMARK H PARENT 17 5 21 27 65 46 43 57
REMARK Flexibility Score: inf
ROOT
ATOM      1  C   UNL A   1      34.378  29.541  27.412  1.00  0.00     0.118 C 
ENDROOT
BRANCH   1   2
ATOM      2  N   UNL A   1      33.282  28.609  27.640  1.00  0.00    -0.352 N 
ATOM      3  C   UNL A   1      32.347  28.077  26.782  1.00  0.00     0.254 C 
ATOM      4  O   UNL A   1      31.448  27.398  27.273  1.00  0.00    -0.269 OA
ATOM      5  H   UNL A   1      33.196  28.307  28.573  1.00  0.00     0.163 HD
BRANCH   3   6
ATOM      6  C   UNL A   1      32.525  28.181  25.345  1.00  0.00     0.077 A 
ATOM      7  N   UNL A   1      32.877  27.639  23.256  1.00  0.00    -0.271 N 
ATOM      8  C   UNL A   1      33.452  27.608  24.498  1.00  0.00     0.122 A 
ATOM      9  N   UNL A   1      31.869  28.518  23.173  1.00  0.00    -0.181 NA
ATOM     10  C   UNL A   1      31.660  28.861  24.448  1.00  0.00     0.149 A 
BRANCH   7  11
ATOM     11  C   UNL A   1      33.150  26.700  22.179  1.00  0.00     0.154 C 
BRANCH  11  12
ATOM     12  C   UNL A   1      32.214  25.490  22.201  1.00  0.00     0.124 C 
BRANCH  12  13
ATOM     13  C   UNL A   1      32.948  24.181  22.404  1.00  0.00     0.224 C 
ATOM     14  C   UNL A   1      32.212  20.612  23.090  1.00  0.00     0.009 C 
ATOM     15  C   UNL A   1      33.059  21.160  24.248  1.00  0.00     0.006 C 
ATOM     16  C   UNL A   1      32.204  21.464  25.485  1.00  0.00     0.010 C 
ATOM     17  C   UNL A   1      33.843  22.413  23.840  1.00  0.00     0.122 C 
ATOM     18  C   UNL A   1      31.303  22.689  25.269  1.00  0.00     0.006 C 
ATOM     19  N   UNL A   1      32.959  23.564  23.647  1.00  0.00    -0.342 N 
ATOM     20  C   UNL A   1      32.148  23.898  24.821  1.00  0.00     0.122 C 
ATOM     21  C   UNL A   1      30.509  22.951  26.546  1.00  0.00     0.009 C 
ATOM     22  O   UNL A   1      33.567  23.720  21.441  1.00  0.00    -0.275 OA
ENDBRANCH  12  13
ENDBRANCH  11  12
ENDBRANCH   7  11
ENDBRANCH   3   6
ENDBRANCH   1   2
BRANCH   1  23
ATOM     23  C   UNL A   1      33.904  30.993  27.539  1.00  0.00     0.042 C 
BRANCH  23  24
ATOM     24  C   UNL A   1      35.028  31.912  27.978  1.00  0.00     0.118 C 
BRANCH  24  25
ATOM     25  N   UNL A   1      34.786  32.497  29.300  1.00  0.00    -0.352 N 
ATOM     26  C   UNL A   1      35.248  32.055  30.523  1.00  0.00     0.251 C 
ATOM     27  H   UNL A   1      34.224  33.305  29.317  1.00  0.00     0.163 HD
ATOM     28  O   UNL A   1      34.685  32.384  31.565  1.00  0.00    -0.269 OA
BRANCH  26  29
ATOM     29  C   UNL A   1      36.437  31.191  30.561  1.00  0.00     0.039 A 
ATOM     30  C   UNL A   1      36.351  29.795  30.578  1.00  0.00     0.014 A 
ATOM     31  C   UNL A   1      37.674  31.825  30.559  1.00  0.00     0.014 A 
ATOM     32  C   UNL A   1      37.529  29.053  30.542  1.00  0.00     0.010 A 
ATOM     33  C   UNL A   1      38.799  31.108  30.283  1.00  0.00     0.010 A 
ATOM     34  C   UNL A   1      38.749  29.727  30.392  1.00  0.00    -0.014 A 
BRANCH  34  35
ATOM     35  C   UNL A   1      40.022  29.033  30.304  1.00  0.00     0.031 A 
ATOM     36  C   UNL A   1      40.704  28.820  31.602  1.00  0.00     0.074 A 
ATOM     37  C   UNL A   1      40.383  28.368  29.184  1.00  0.00     0.049 A 
ATOM     38  N   UNL A   1      41.814  29.338  32.009  1.00  0.00    -0.248 NA
ATOM     39  C   UNL A   1      39.996  28.034  32.626  1.00  0.00     0.031 C 
ATOM     40  C   UNL A   1      39.601  28.170  27.952  1.00  0.00     0.029 A 
ATOM     41  N   UNL A   1      41.471  27.586  28.970  1.00  0.00    -0.354 N 
ATOM     42  C   UNL A   1      42.052  28.779  33.260  1.00  0.00     0.074 A 
ATOM     43  C   UNL A   1      40.814  28.169  33.672  1.00  0.00     0.031 C 
ATOM     44  C   UNL A   1      40.118  27.139  27.250  1.00  0.00     0.029 A 
ATOM     45  C   UNL A   1      41.357  26.729  27.882  1.00  0.00     0.049 A 
ATOM     46  H   UNL A   1      42.274  27.623  29.537  1.00  0.00     0.167 HD
ATOM     47  C   UNL A   1      43.319  28.610  33.733  1.00  0.00     0.031 A 
ATOM     48  C   UNL A   1      42.203  25.724  27.552  1.00  0.00     0.031 A 
ATOM     49  C   UNL A   1      44.280  29.341  32.945  1.00  0.00     0.049 A 
ATOM     50  C   UNL A   1      43.471  25.960  28.281  1.00  0.00     0.074 A 
ATOM     51  C   UNL A   1      44.456  30.669  32.608  1.00  0.00     0.029 A 
ATOM     52  N   UNL A   1      45.009  28.619  32.029  1.00  0.00    -0.354 N 
ATOM     53  N   UNL A   1      44.259  26.971  28.044  1.00  0.00    -0.248 NA
ATOM     54  C   UNL A   1      43.633  25.337  29.584  1.00  0.00     0.031 C 
ATOM     55  C   UNL A   1      44.872  30.647  31.243  1.00  0.00     0.029 A 
ATOM     56  C   UNL A   1      45.000  29.313  30.848  1.00  0.00     0.049 A 
ATOM     57  H   UNL A   1      45.458  27.758  32.193  1.00  0.00     0.167 HD
ATOM     58  C   UNL A   1      44.690  27.384  29.297  1.00  0.00     0.074 A 
ATOM     59  C   UNL A   1      44.362  26.276  30.193  1.00  0.00     0.031 C 
ATOM     60  C   UNL A   1      45.000  28.693  29.540  1.00  0.00     0.031 A 
BRANCH  47  61
ATOM     61  C   UNL A   1      43.738  27.457  34.616  1.00  0.00    -0.014 A 
ATOM     62  C   UNL A   1      43.652  26.151  34.101  1.00  0.00     0.009 A 
ATOM     63  C   UNL A   1      43.946  27.572  36.004  1.00  0.00     0.009 A 
ATOM     64  C   UNL A   1      43.688  25.032  34.940  1.00  0.00     0.001 A 
ATOM     65  C   UNL A   1      44.030  26.456  36.839  1.00  0.00     0.001 A 
ATOM     66  C   UNL A   1      43.870  25.184  36.310  1.00  0.00     0.000 A 
ENDBRANCH  47  61
BRANCH  48  67
ATOM     67  C   UNL A   1      41.907  24.447  26.869  1.00  0.00    -0.014 A 
ATOM     68  C   UNL A   1      42.812  23.895  25.950  1.00  0.00     0.009 A 
ATOM     69  C   UNL A   1      40.849  23.633  27.318  1.00  0.00     0.009 A 
ATOM     70  C   UNL A   1      42.684  22.565  25.523  1.00  0.00     0.001 A 
ATOM     71  C   UNL A   1      40.721  22.306  26.892  1.00  0.00     0.001 A 
ATOM     72  C   UNL A   1      41.647  21.768  26.005  1.00  0.00     0.000 A 
ENDBRANCH  48  67
BRANCH  60  73
ATOM     73  C   UNL A   1      45.100  29.631  28.360  1.00  0.00    -0.014 A 
ATOM     74  C   UNL A   1      43.996  30.326  27.834  1.00  0.00     0.009 A 
ATOM     75  C   UNL A   1      46.377  29.954  27.881  1.00  0.00     0.009 A 
ATOM     76  C   UNL A   1      44.168  31.298  26.842  1.00  0.00     0.001 A 
ATOM     77  C   UNL A   1      46.551  30.938  26.906  1.00  0.00     0.001 A 
ATOM     78  C   UNL A   1      45.446  31.608  26.383  1.00  0.00     0.000 A 
ENDBRANCH  60  73
ENDBRANCH  34  35
ENDBRANCH  26  29
ENDBRANCH  24  25
ENDBRANCH  23  24
ENDBRANCH   1  23
TORSDOF 13
ENDMDL
