MODEL 1
REMARK VINA RESULT:     -12.2      0.000      0.000
REMARK SMILES Cc1ccc(C(c2ccccc2)(c2ccccc2)n2cnc(C[C@H]([NH3+])C(=O)NCCCNC(=O)c3ccc(-c4c5nc(c(-c6ccccc6)c6ccc([nH]6)c(-c6ccccc6)c6nc(c(-c7ccccc7)c7ccc4[nH]7)C=C6)C=C5)cc3)c2)cc1
REMARK SMILES IDX 29 1 28 2 26 3 27 4 24 6 23 7 22 8 19 9 20 10 83 11 21 12
REMARK SMILES IDX 6 13 5 14 1 15 2 16 3 17 85 18 4 19 84 20 7 21 8 22 12 23
REMARK SMILES IDX 9 24 11 25 10 26 13 27 14 28 18 29 15 30 17 31 16 32 25 33
REMARK SMILES IDX 30 37 31 38 32 39 33 40 34 42 35 43 36 44 82 45 37 46 81 47
REMARK SMILES IDX 38 48 39 49 40 50 75 51 41 52 80 53 74 54 76 55 42 56 79 57
REMARK SMILES IDX 73 58 72 59 43 61 65 62 50 63 64 64 51 65 54 66 63 67 77 68
REMARK SMILES IDX 52 69 53 70 62 72 78 73 55 74 44 75 45 76 49 77 46 78 48 79
REMARK SMILES IDX 47 80 66 81 67 82 71 83 68 84 70 85 69 86 56 87 57 88 61 89
REMARK SMILES IDX 58 90 60 91 59 92
REMARK H PARENT 28 5 25 34 25 35 25 36 32 41 76 60 54 71
REMARK Flexibility Score: inf
ROOT
ATOM      1  C   UNL A   1      37.511  20.621  24.742  1.00  0.00     0.118 C 
ENDROOT
BRANCH   1   2
ATOM      2  N   UNL A   1      36.489  21.212  25.582  1.00  0.00    -0.351 N 
ATOM      3  C   UNL A   1      35.331  21.871  25.285  1.00  0.00     0.278 C 
ATOM      4  O   UNL A   1      34.738  22.389  26.240  1.00  0.00    -0.268 OA
ATOM      5  H   UNL A   1      36.661  21.120  26.547  1.00  0.00     0.163 HD
BRANCH   3   6
ATOM      6  C   UNL A   1      34.818  22.065  23.840  1.00  0.00     0.276 C 
BRANCH   6   7
ATOM      7  C   UNL A   1      35.134  23.399  23.158  1.00  0.00     0.133 C 
BRANCH   7   8
ATOM      8  C   UNL A   1      34.075  24.437  23.229  1.00  0.00     0.065 A 
ATOM      9  N   UNL A   1      32.575  25.842  23.998  1.00  0.00    -0.319 N 
ATOM     10  C   UNL A   1      32.397  25.625  22.650  1.00  0.00     0.201 A 
ATOM     11  C   UNL A   1      33.732  25.181  24.334  1.00  0.00     0.112 A 
ATOM     12  N   UNL A   1      33.282  24.779  22.172  1.00  0.00    -0.241 NA
BRANCH   9  13
ATOM     13  C   UNL A   1      31.621  26.552  24.918  1.00  0.00     0.121 C 
BRANCH  13  14
ATOM     14  C   UNL A   1      30.636  27.447  24.062  1.00  0.00    -0.013 A 
ATOM     15  C   UNL A   1      28.037  30.037  21.725  1.00  0.00     0.044 C 
ATOM     16  C   UNL A   1      28.949  29.143  22.511  1.00  0.00    -0.051 A 
ATOM     17  C   UNL A   1      28.480  27.923  23.005  1.00  0.00     0.004 A 
ATOM     18  C   UNL A   1      30.270  29.508  22.766  1.00  0.00     0.004 A 
ATOM     19  C   UNL A   1      29.308  27.087  23.766  1.00  0.00     0.007 A 
ATOM     20  C   UNL A   1      31.101  28.669  23.516  1.00  0.00     0.007 A 
ENDBRANCH  13  14
BRANCH  13  21
ATOM     21  C   UNL A   1      30.833  25.423  25.720  1.00  0.00    -0.013 A 
ATOM     22  C   UNL A   1      31.427  24.166  25.986  1.00  0.00     0.007 A 
ATOM     23  C   UNL A   1      29.487  25.553  26.123  1.00  0.00     0.007 A 
ATOM     24  C   UNL A   1      30.761  23.153  26.687  1.00  0.00     0.000 A 
ATOM     25  C   UNL A   1      28.813  24.537  26.815  1.00  0.00     0.000 A 
ATOM     26  C   UNL A   1      29.455  23.345  27.113  1.00  0.00     0.000 A 
ENDBRANCH  13  21
BRANCH  13  27
ATOM     27  C   UNL A   1      32.507  27.489  25.865  1.00  0.00    -0.013 A 
ATOM     28  C   UNL A   1      31.921  28.205  26.939  1.00  0.00     0.007 A 
ATOM     29  C   UNL A   1      33.842  27.831  25.557  1.00  0.00     0.007 A 
ATOM     30  C   UNL A   1      32.621  29.185  27.653  1.00  0.00     0.000 A 
ATOM     31  C   UNL A   1      34.531  28.836  26.250  1.00  0.00     0.000 A 
ATOM     32  C   UNL A   1      33.922  29.513  27.297  1.00  0.00     0.000 A 
ENDBRANCH  13  27
ENDBRANCH   9  13
ENDBRANCH   7   8
ENDBRANCH   6   7
BRANCH   6  33
ATOM     33  N   UNL A   1      33.360  21.765  23.782  1.00  0.00    -0.347 N 
ATOM     34  H   UNL A   1      32.847  22.618  23.557  1.00  0.00     0.345 HD
ATOM     35  H   UNL A   1      33.049  21.411  24.687  1.00  0.00     0.345 HD
ATOM     36  H   UNL A   1      33.185  21.063  23.064  1.00  0.00     0.345 HD
ENDBRANCH   6  33
ENDBRANCH   3   6
ENDBRANCH   1   2
BRANCH   1  37
ATOM     37  C   UNL A   1      38.876  20.620  25.415  1.00  0.00     0.042 C 
BRANCH  37  38
ATOM     38  C   UNL A   1      39.223  21.965  26.027  1.00  0.00     0.118 C 
BRANCH  38  39
ATOM     39  N   UNL A   1      40.655  22.221  26.144  1.00  0.00    -0.352 N 
ATOM     40  C   UNL A   1      41.329  23.410  26.381  1.00  0.00     0.251 C 
ATOM     41  H   UNL A   1      41.230  21.430  26.038  1.00  0.00     0.163 HD
ATOM     42  O   UNL A   1      42.547  23.422  26.394  1.00  0.00    -0.269 OA
BRANCH  40  43
ATOM     43  C   UNL A   1      40.567  24.626  26.776  1.00  0.00     0.039 A 
ATOM     44  C   UNL A   1      40.782  25.794  26.033  1.00  0.00     0.014 A 
ATOM     45  C   UNL A   1      39.889  24.690  27.985  1.00  0.00     0.014 A 
ATOM     46  C   UNL A   1      40.584  27.031  26.639  1.00  0.00     0.010 A 
ATOM     47  C   UNL A   1      39.833  25.898  28.640  1.00  0.00     0.010 A 
ATOM     48  C   UNL A   1      40.243  27.063  27.987  1.00  0.00    -0.014 A 
BRANCH  48  49
ATOM     49  C   UNL A   1      40.410  28.235  28.834  1.00  0.00     0.031 A 
ATOM     50  C   UNL A   1      39.319  29.214  28.980  1.00  0.00     0.074 A 
ATOM     51  C   UNL A   1      41.529  28.360  29.581  1.00  0.00     0.049 A 
ATOM     52  N   UNL A   1      39.494  30.442  29.332  1.00  0.00    -0.248 NA
ATOM     53  C   UNL A   1      37.927  28.892  28.686  1.00  0.00     0.031 C 
ATOM     54  C   UNL A   1      41.748  29.252  30.715  1.00  0.00     0.029 A 
ATOM     55  N   UNL A   1      42.785  27.814  29.323  1.00  0.00    -0.354 N 
ATOM     56  C   UNL A   1      38.255  30.960  29.627  1.00  0.00     0.074 A 
ATOM     57  C   UNL A   1      37.311  29.999  29.106  1.00  0.00     0.031 C 
ATOM     58  C   UNL A   1      43.069  29.390  30.909  1.00  0.00     0.029 A 
ATOM     59  C   UNL A   1      43.744  28.718  29.812  1.00  0.00     0.049 A 
ATOM     60  H   UNL A   1      42.969  26.953  28.879  1.00  0.00     0.167 HD
ATOM     61  C   UNL A   1      38.164  32.059  30.426  1.00  0.00     0.031 A 
ATOM     62  C   UNL A   1      44.636  29.316  28.970  1.00  0.00     0.031 A 
ATOM     63  C   UNL A   1      39.483  32.585  30.781  1.00  0.00     0.049 A 
ATOM     64  C   UNL A   1      44.506  30.823  28.913  1.00  0.00     0.074 A 
ATOM     65  C   UNL A   1      40.247  32.514  31.935  1.00  0.00     0.029 A 
ATOM     66  N   UNL A   1      40.331  33.046  29.780  1.00  0.00    -0.354 N 
ATOM     67  N   UNL A   1      43.462  31.486  29.325  1.00  0.00    -0.248 NA
ATOM     68  C   UNL A   1      45.530  31.697  28.351  1.00  0.00     0.031 C 
ATOM     69  C   UNL A   1      41.571  32.905  31.614  1.00  0.00     0.029 A 
ATOM     70  C   UNL A   1      41.609  33.234  30.270  1.00  0.00     0.049 A 
ATOM     71  H   UNL A   1      40.058  33.215  28.849  1.00  0.00     0.167 HD
ATOM     72  C   UNL A   1      43.639  32.826  29.091  1.00  0.00     0.074 A 
ATOM     73  C   UNL A   1      44.958  32.907  28.491  1.00  0.00     0.031 C 
ATOM     74  C   UNL A   1      42.670  33.737  29.404  1.00  0.00     0.031 A 
BRANCH  61  75
ATOM     75  C   UNL A   1      36.890  32.464  31.137  1.00  0.00    -0.014 A 
ATOM     76  C   UNL A   1      35.985  33.331  30.497  1.00  0.00     0.009 A 
ATOM     77  C   UNL A   1      36.549  32.086  32.446  1.00  0.00     0.009 A 
ATOM     78  C   UNL A   1      34.872  33.868  31.159  1.00  0.00     0.001 A 
ATOM     79  C   UNL A   1      35.460  32.647  33.129  1.00  0.00     0.001 A 
ATOM     80  C   UNL A   1      34.627  33.552  32.488  1.00  0.00     0.000 A 
ENDBRANCH  61  75
BRANCH  62  81
ATOM     81  C   UNL A   1      45.035  28.458  27.821  1.00  0.00    -0.014 A 
ATOM     82  C   UNL A   1      45.945  27.408  28.058  1.00  0.00     0.009 A 
ATOM     83  C   UNL A   1      44.263  28.423  26.652  1.00  0.00     0.009 A 
ATOM     84  C   UNL A   1      45.994  26.298  27.209  1.00  0.00     0.001 A 
ATOM     85  C   UNL A   1      44.322  27.311  25.800  1.00  0.00     0.001 A 
ATOM     86  C   UNL A   1      45.158  26.237  26.099  1.00  0.00     0.000 A 
ENDBRANCH  62  81
BRANCH  74  87
ATOM     87  C   UNL A   1      42.621  35.201  29.007  1.00  0.00    -0.014 A 
ATOM     88  C   UNL A   1      43.192  36.254  29.730  1.00  0.00     0.009 A 
ATOM     89  C   UNL A   1      42.045  35.547  27.760  1.00  0.00     0.009 A 
ATOM     90  C   UNL A   1      43.158  37.576  29.257  1.00  0.00     0.001 A 
ATOM     91  C   UNL A   1      42.049  36.853  27.261  1.00  0.00     0.001 A 
ATOM     92  C   UNL A   1      42.598  37.873  28.019  1.00  0.00     0.000 A 
ENDBRANCH  74  87
ENDBRANCH  48  49
ENDBRANCH  40  43
ENDBRANCH  38  39
ENDBRANCH  37  38
ENDBRANCH   1  37
TORSDOF 17
ENDMDL
MODEL 2
REMARK VINA RESULT:     -12.1      1.905      3.081
REMARK SMILES Cc1ccc(C(c2ccccc2)(c2ccccc2)n2cnc(C[C@H]([NH3+])C(=O)NCCCNC(=O)c3ccc(-c4c5nc(c(-c6ccccc6)c6ccc([nH]6)c(-c6ccccc6)c6nc(c(-c7ccccc7)c7ccc4[nH]7)C=C6)C=C5)cc3)c2)cc1
REMARK SMILES IDX 29 1 28 2 26 3 27 4 24 6 23 7 22 8 19 9 20 10 83 11 21 12
REMARK SMILES IDX 6 13 5 14 1 15 2 16 3 17 85 18 4 19 84 20 7 21 8 22 12 23
REMARK SMILES IDX 9 24 11 25 10 26 13 27 14 28 18 29 15 30 17 31 16 32 25 33
REMARK SMILES IDX 30 37 31 38 32 39 33 40 34 42 35 43 36 44 82 45 37 46 81 47
REMARK SMILES IDX 38 48 39 49 40 50 75 51 41 52 80 53 74 54 76 55 42 56 79 57
REMARK SMILES IDX 73 58 72 59 43 61 65 62 50 63 64 64 51 65 54 66 63 67 77 68
REMARK SMILES IDX 52 69 53 70 62 72 78 73 55 74 44 75 45 76 49 77 46 78 48 79
REMARK SMILES IDX 47 80 66 81 67 82 71 83 68 84 70 85 69 86 56 87 57 88 61 89
REMARK SMILES IDX 58 90 60 91 59 92
REMARK H PARENT 28 5 25 34 25 35 25 36 32 41 76 60 54 71
REMARK Flexibility Score: inf
ROOT
ATOM      1  C   UNL A   1      37.897  23.456  26.278  1.00  0.00     0.118 C 
ENDROOT
BRANCH   1   2
ATOM      2  N   UNL A   1      36.845  22.486  26.054  1.00  0.00    -0.351 N 
ATOM      3  C   UNL A   1      36.004  22.278  25.000  1.00  0.00     0.278 C 
ATOM      4  O   UNL A   1      35.102  21.448  25.175  1.00  0.00    -0.268 OA
ATOM      5  H   UNL A   1      36.711  21.860  26.802  1.00  0.00     0.163 HD
BRANCH   3   6
ATOM      6  C   UNL A   1      36.083  23.088  23.685  1.00  0.00     0.276 C 
BRANCH   6   7
ATOM      7  C   UNL A   1      34.796  23.216  22.863  1.00  0.00     0.133 C 
BRANCH   7   8
ATOM      8  C   UNL A   1      33.981  24.432  23.111  1.00  0.00     0.065 A 
ATOM      9  N   UNL A   1      32.635  25.890  24.048  1.00  0.00    -0.319 N 
ATOM     10  C   UNL A   1      32.787  26.155  22.704  1.00  0.00     0.201 A 
ATOM     11  C   UNL A   1      33.507  24.865  24.327  1.00  0.00     0.112 A 
ATOM     12  N   UNL A   1      33.584  25.287  22.123  1.00  0.00    -0.241 NA
BRANCH   9  13
ATOM     13  C   UNL A   1      31.628  26.519  24.970  1.00  0.00     0.121 C 
BRANCH  13  14
ATOM     14  C   UNL A   1      30.611  27.386  24.123  1.00  0.00    -0.013 A 
ATOM     15  C   UNL A   1      27.922  29.902  21.809  1.00  0.00     0.044 C 
ATOM     16  C   UNL A   1      28.864  29.034  22.587  1.00  0.00    -0.051 A 
ATOM     17  C   UNL A   1      28.432  27.805  23.091  1.00  0.00     0.004 A 
ATOM     18  C   UNL A   1      30.179  29.432  22.825  1.00  0.00     0.004 A 
ATOM     19  C   UNL A   1      29.289  26.992  23.844  1.00  0.00     0.007 A 
ATOM     20  C   UNL A   1      31.040  28.617  23.567  1.00  0.00     0.007 A 
ENDBRANCH  13  14
BRANCH  13  21
ATOM     21  C   UNL A   1      30.889  25.324  25.722  1.00  0.00    -0.013 A 
ATOM     22  C   UNL A   1      29.573  25.479  26.224  1.00  0.00     0.007 A 
ATOM     23  C   UNL A   1      31.510  24.094  26.024  1.00  0.00     0.007 A 
ATOM     24  C   UNL A   1      28.897  24.449  26.888  1.00  0.00     0.000 A 
ATOM     25  C   UNL A   1      30.840  23.064  26.699  1.00  0.00     0.000 A 
ATOM     26  C   UNL A   1      29.528  23.235  27.115  1.00  0.00     0.000 A 
ENDBRANCH  13  21
BRANCH  13  27
ATOM     27  C   UNL A   1      32.446  27.471  25.962  1.00  0.00    -0.013 A 
ATOM     28  C   UNL A   1      31.775  28.360  26.839  1.00  0.00     0.007 A 
ATOM     29  C   UNL A   1      33.843  27.647  25.864  1.00  0.00     0.007 A 
ATOM     30  C   UNL A   1      32.453  29.347  27.565  1.00  0.00     0.000 A 
ATOM     31  C   UNL A   1      34.518  28.656  26.566  1.00  0.00     0.000 A 
ATOM     32  C   UNL A   1      33.824  29.505  27.415  1.00  0.00     0.000 A 
ENDBRANCH  13  27
ENDBRANCH   9  13
ENDBRANCH   7   8
ENDBRANCH   6   7
BRANCH   6  33
ATOM     33  N   UNL A   1      37.204  22.577  22.849  1.00  0.00    -0.347 N 
ATOM     34  H   UNL A   1      38.091  22.896  23.239  1.00  0.00     0.345 HD
ATOM     35  H   UNL A   1      37.107  22.929  21.897  1.00  0.00     0.345 HD
ATOM     36  H   UNL A   1      37.184  21.558  22.838  1.00  0.00     0.345 HD
ENDBRANCH   6  33
ENDBRANCH   3   6
ENDBRANCH   1   2
BRANCH   1  37
ATOM     37  C   UNL A   1      39.270  22.906  25.920  1.00  0.00     0.042 C 
BRANCH  37  38
ATOM     38  C   UNL A   1      39.707  21.785  26.845  1.00  0.00     0.118 C 
BRANCH  38  39
ATOM     39  N   UNL A   1      40.591  20.804  26.227  1.00  0.00    -0.352 N 
ATOM     40  C   UNL A   1      41.974  20.796  26.119  1.00  0.00     0.251 C 
ATOM     41  H   UNL A   1      40.138  20.029  25.824  1.00  0.00     0.163 HD
ATOM     42  O   UNL A   1      42.528  19.896  25.512  1.00  0.00    -0.269 OA
BRANCH  40  43
ATOM     43  C   UNL A   1      42.781  21.792  26.875  1.00  0.00     0.039 A 
ATOM     44  C   UNL A   1      42.660  21.796  28.271  1.00  0.00     0.014 A 
ATOM     45  C   UNL A   1      43.406  22.850  26.231  1.00  0.00     0.014 A 
ATOM     46  C   UNL A   1      42.896  22.977  28.970  1.00  0.00     0.010 A 
ATOM     47  C   UNL A   1      43.496  24.055  26.889  1.00  0.00     0.010 A 
ATOM     48  C   UNL A   1      43.178  24.132  28.247  1.00  0.00    -0.014 A 
BRANCH  48  49
ATOM     49  C   UNL A   1      43.034  25.475  28.786  1.00  0.00     0.031 A 
ATOM     50  C   UNL A   1      41.838  26.279  28.481  1.00  0.00     0.074 A 
ATOM     51  C   UNL A   1      43.946  25.939  29.668  1.00  0.00     0.049 A 
ATOM     52  N   UNL A   1      41.800  27.567  28.536  1.00  0.00    -0.248 NA
ATOM     53  C   UNL A   1      40.583  25.686  28.029  1.00  0.00     0.031 C 
ATOM     54  C   UNL A   1      43.822  27.087  30.560  1.00  0.00     0.029 A 
ATOM     55  N   UNL A   1      45.280  25.552  29.788  1.00  0.00    -0.354 N 
ATOM     56  C   UNL A   1      40.478  27.938  28.461  1.00  0.00     0.074 A 
ATOM     57  C   UNL A   1      39.776  26.749  28.038  1.00  0.00     0.031 C 
ATOM     58  C   UNL A   1      45.048  27.470  30.949  1.00  0.00     0.029 A 
ATOM     59  C   UNL A   1      46.009  26.681  30.199  1.00  0.00     0.049 A 
ATOM     60  H   UNL A   1      45.645  24.653  29.617  1.00  0.00     0.167 HD
ATOM     61  C   UNL A   1      40.102  29.161  28.927  1.00  0.00     0.031 A 
ATOM     62  C   UNL A   1      46.991  27.205  29.408  1.00  0.00     0.031 A 
ATOM     63  C   UNL A   1      41.250  29.954  29.370  1.00  0.00     0.049 A 
ATOM     64  C   UNL A   1      46.715  28.621  28.951  1.00  0.00     0.074 A 
ATOM     65  C   UNL A   1      41.752  30.265  30.623  1.00  0.00     0.029 A 
ATOM     66  N   UNL A   1      42.237  30.303  28.456  1.00  0.00    -0.354 N 
ATOM     67  N   UNL A   1      45.542  29.189  28.986  1.00  0.00    -0.248 NA
ATOM     68  C   UNL A   1      47.736  29.495  28.381  1.00  0.00     0.031 C 
ATOM     69  C   UNL A   1      43.065  30.775  30.459  1.00  0.00     0.029 A 
ATOM     70  C   UNL A   1      43.353  30.794  29.106  1.00  0.00     0.049 A 
ATOM     71  H   UNL A   1      42.153  30.213  27.479  1.00  0.00     0.167 HD
ATOM     72  C   UNL A   1      45.621  30.452  28.457  1.00  0.00     0.074 A 
ATOM     73  C   UNL A   1      47.021  30.600  28.105  1.00  0.00     0.031 C 
ATOM     74  C   UNL A   1      44.515  31.248  28.348  1.00  0.00     0.031 A 
BRANCH  61  75
ATOM     75  C   UNL A   1      38.669  29.513  29.269  1.00  0.00    -0.014 A 
ATOM     76  C   UNL A   1      37.991  30.481  28.505  1.00  0.00     0.009 A 
ATOM     77  C   UNL A   1      37.953  28.983  30.355  1.00  0.00     0.009 A 
ATOM     78  C   UNL A   1      36.726  30.964  28.866  1.00  0.00     0.001 A 
ATOM     79  C   UNL A   1      36.704  29.487  30.747  1.00  0.00     0.001 A 
ATOM     80  C   UNL A   1      36.094  30.490  30.007  1.00  0.00     0.000 A 
ENDBRANCH  61  75
BRANCH  62  81
ATOM     81  C   UNL A   1      47.717  26.183  28.606  1.00  0.00    -0.014 A 
ATOM     82  C   UNL A   1      47.447  26.105  27.225  1.00  0.00     0.009 A 
ATOM     83  C   UNL A   1      48.891  25.594  29.093  1.00  0.00     0.009 A 
ATOM     84  C   UNL A   1      48.384  25.558  26.343  1.00  0.00     0.001 A 
ATOM     85  C   UNL A   1      49.824  25.040  28.205  1.00  0.00     0.001 A 
ATOM     86  C   UNL A   1      49.586  25.055  26.831  1.00  0.00     0.000 A 
ENDBRANCH  62  81
BRANCH  74  87
ATOM     87  C   UNL A   1      44.395  32.558  27.592  1.00  0.00    -0.014 A 
ATOM     88  C   UNL A   1      44.267  32.682  26.204  1.00  0.00     0.009 A 
ATOM     89  C   UNL A   1      44.302  33.763  28.333  1.00  0.00     0.009 A 
ATOM     90  C   UNL A   1      44.094  33.933  25.590  1.00  0.00     0.001 A 
ATOM     91  C   UNL A   1      44.082  35.005  27.731  1.00  0.00     0.001 A 
ATOM     92  C   UNL A   1      43.990  35.091  26.353  1.00  0.00     0.000 A 
ENDBRANCH  74  87
ENDBRANCH  48  49
ENDBRANCH  40  43
ENDBRANCH  38  39
ENDBRANCH  37  38
ENDBRANCH   1  37
TORSDOF 17
ENDMDL
MODEL 3
REMARK VINA RESULT:     -11.9      0.301      2.702
REMARK SMILES Cc1ccc(C(c2ccccc2)(c2ccccc2)n2cnc(C[C@H]([NH3+])C(=O)NCCCNC(=O)c3ccc(-c4c5nc(c(-c6ccccc6)c6ccc([nH]6)c(-c6ccccc6)c6nc(c(-c7ccccc7)c7ccc4[nH]7)C=C6)C=C5)cc3)c2)cc1
REMARK SMILES IDX 29 1 28 2 26 3 27 4 24 6 23 7 22 8 19 9 20 10 83 11 21 12
REMARK SMILES IDX 6 13 5 14 1 15 2 16 3 17 85 18 4 19 84 20 7 21 8 22 12 23
REMARK SMILES IDX 9 24 11 25 10 26 13 27 14 28 18 29 15 30 17 31 16 32 25 33
REMARK SMILES IDX 30 37 31 38 32 39 33 40 34 42 35 43 36 44 82 45 37 46 81 47
REMARK SMILES IDX 38 48 39 49 40 50 75 51 41 52 80 53 74 54 76 55 42 56 79 57
REMARK SMILES IDX 73 58 72 59 43 61 65 62 50 63 64 64 51 65 54 66 63 67 77 68
REMARK SMILES IDX 52 69 53 70 62 72 78 73 55 74 44 75 45 76 49 77 46 78 48 79
REMARK SMILES IDX 47 80 66 81 67 82 71 83 68 84 70 85 69 86 56 87 57 88 61 89
REMARK SMILES IDX 58 90 60 91 59 92
REMARK H PARENT 28 5 25 34 25 35 25 36 32 41 76 60 54 71
REMARK Flexibility Score: inf
ROOT
ATOM      1  C   UNL A   1      37.511  20.660  24.872  1.00  0.00     0.118 C 
ENDROOT
BRANCH   1   2
ATOM      2  N   UNL A   1      36.459  21.297  25.638  1.00  0.00    -0.351 N 
ATOM      3  C   UNL A   1      35.350  21.998  25.260  1.00  0.00     0.278 C 
ATOM      4  O   UNL A   1      34.715  22.547  26.169  1.00  0.00    -0.268 OA
ATOM      5  H   UNL A   1      36.562  21.208  26.613  1.00  0.00     0.163 HD
BRANCH   3   6
ATOM      6  C   UNL A   1      34.942  22.197  23.782  1.00  0.00     0.276 C 
BRANCH   6   7
ATOM      7  C   UNL A   1      35.307  23.535  23.130  1.00  0.00     0.133 C 
BRANCH   7   8
ATOM      8  C   UNL A   1      34.260  24.586  23.163  1.00  0.00     0.065 A 
ATOM      9  N   UNL A   1      32.706  25.966  23.870  1.00  0.00    -0.319 N 
ATOM     10  C   UNL A   1      32.667  25.843  22.498  1.00  0.00     0.201 A 
ATOM     11  C   UNL A   1      33.814  25.261  24.275  1.00  0.00     0.112 A 
ATOM     12  N   UNL A   1      33.585  25.014  22.056  1.00  0.00    -0.241 NA
BRANCH   9  13
ATOM     13  C   UNL A   1      31.672  26.632  24.733  1.00  0.00     0.121 C 
BRANCH  13  14
ATOM     14  C   UNL A   1      30.858  25.528  25.522  1.00  0.00    -0.013 A 
ATOM     15  C   UNL A   1      28.718  22.372  27.615  1.00  0.00     0.044 C 
ATOM     16  C   UNL A   1      29.475  23.456  26.908  1.00  0.00    -0.051 A 
ATOM     17  C   UNL A   1      28.964  24.755  26.865  1.00  0.00     0.004 A 
ATOM     18  C   UNL A   1      30.693  23.192  26.282  1.00  0.00     0.004 A 
ATOM     19  C   UNL A   1      29.643  25.775  26.187  1.00  0.00     0.007 A 
ATOM     20  C   UNL A   1      31.377  24.212  25.613  1.00  0.00     0.007 A 
ENDBRANCH  13  14
BRANCH  13  21
ATOM     21  C   UNL A   1      32.459  27.596  25.729  1.00  0.00    -0.013 A 
ATOM     22  C   UNL A   1      33.870  27.705  25.677  1.00  0.00     0.007 A 
ATOM     23  C   UNL A   1      31.834  28.312  26.772  1.00  0.00     0.007 A 
ATOM     24  C   UNL A   1      34.590  28.543  26.538  1.00  0.00     0.000 A 
ATOM     25  C   UNL A   1      32.553  29.142  27.644  1.00  0.00     0.000 A 
ATOM     26  C   UNL A   1      33.928  29.271  27.515  1.00  0.00     0.000 A 
ENDBRANCH  13  21
BRANCH  13  27
ATOM     27  C   UNL A   1      30.688  27.420  23.747  1.00  0.00    -0.013 A 
ATOM     28  C   UNL A   1      31.099  28.617  23.110  1.00  0.00     0.007 A 
ATOM     29  C   UNL A   1      29.316  27.107  23.637  1.00  0.00     0.007 A 
ATOM     30  C   UNL A   1      30.204  29.436  22.411  1.00  0.00     0.000 A 
ATOM     31  C   UNL A   1      28.414  27.944  22.966  1.00  0.00     0.000 A 
ATOM     32  C   UNL A   1      28.857  29.108  22.353  1.00  0.00     0.000 A 
ENDBRANCH  13  27
ENDBRANCH   9  13
ENDBRANCH   7   8
ENDBRANCH   6   7
BRANCH   6  33
ATOM     33  N   UNL A   1      33.492  21.900  23.619  1.00  0.00    -0.347 N 
ATOM     34  H   UNL A   1      33.367  21.215  22.874  1.00  0.00     0.345 HD
ATOM     35  H   UNL A   1      32.993  22.757  23.379  1.00  0.00     0.345 HD
ATOM     36  H   UNL A   1      33.121  21.524  24.491  1.00  0.00     0.345 HD
ENDBRANCH   6  33
ENDBRANCH   3   6
ENDBRANCH   1   2
BRANCH   1  37
ATOM     37  C   UNL A   1      38.853  20.711  25.588  1.00  0.00     0.042 C 
BRANCH  37  38
ATOM     38  C   UNL A   1      39.193  22.104  26.087  1.00  0.00     0.118 C 
BRANCH  38  39
ATOM     39  N   UNL A   1      40.622  22.372  26.196  1.00  0.00    -0.352 N 
ATOM     40  C   UNL A   1      41.289  23.567  26.424  1.00  0.00     0.251 C 
ATOM     41  H   UNL A   1      41.204  21.585  26.091  1.00  0.00     0.163 HD
ATOM     42  O   UNL A   1      42.507  23.589  26.431  1.00  0.00    -0.269 OA
BRANCH  40  43
ATOM     43  C   UNL A   1      40.519  24.779  26.816  1.00  0.00     0.039 A 
ATOM     44  C   UNL A   1      40.758  25.958  26.099  1.00  0.00     0.014 A 
ATOM     45  C   UNL A   1      39.807  24.826  28.007  1.00  0.00     0.014 A 
ATOM     46  C   UNL A   1      40.546  27.186  26.719  1.00  0.00     0.010 A 
ATOM     47  C   UNL A   1      39.736  26.024  28.680  1.00  0.00     0.010 A 
ATOM     48  C   UNL A   1      40.167  27.198  28.057  1.00  0.00    -0.014 A 
BRANCH  48  49
ATOM     49  C   UNL A   1      40.314  28.355  28.927  1.00  0.00     0.031 A 
ATOM     50  C   UNL A   1      39.232  29.349  29.037  1.00  0.00     0.074 A 
ATOM     51  C   UNL A   1      41.399  28.452  29.725  1.00  0.00     0.049 A 
ATOM     52  N   UNL A   1      39.410  30.570  29.413  1.00  0.00    -0.248 NA
ATOM     53  C   UNL A   1      37.850  29.054  28.675  1.00  0.00     0.031 C 
ATOM     54  C   UNL A   1      41.580  29.326  30.880  1.00  0.00     0.029 A 
ATOM     55  N   UNL A   1      42.657  27.890  29.517  1.00  0.00    -0.354 N 
ATOM     56  C   UNL A   1      38.167  31.104  29.659  1.00  0.00     0.074 A 
ATOM     57  C   UNL A   1      37.232  30.165  29.083  1.00  0.00     0.031 C 
ATOM     58  C   UNL A   1      42.893  29.441  31.137  1.00  0.00     0.029 A 
ATOM     59  C   UNL A   1      43.606  28.772  30.062  1.00  0.00     0.049 A 
ATOM     60  H   UNL A   1      42.847  27.033  29.070  1.00  0.00     0.167 HD
ATOM     61  C   UNL A   1      38.056  32.193  30.469  1.00  0.00     0.031 A 
ATOM     62  C   UNL A   1      44.545  29.367  29.269  1.00  0.00     0.031 A 
ATOM     63  C   UNL A   1      39.366  32.694  30.890  1.00  0.00     0.049 A 
ATOM     64  C   UNL A   1      44.441  30.876  29.228  1.00  0.00     0.074 A 
ATOM     65  C   UNL A   1      40.075  32.595  32.077  1.00  0.00     0.029 A 
ATOM     66  N   UNL A   1      40.265  33.155  29.936  1.00  0.00    -0.354 N 
ATOM     67  N   UNL A   1      43.389  31.551  29.602  1.00  0.00    -0.248 NA
ATOM     68  C   UNL A   1      45.503  31.742  28.725  1.00  0.00     0.031 C 
ATOM     69  C   UNL A   1      41.418  32.969  31.822  1.00  0.00     0.029 A 
ATOM     70  C   UNL A   1      41.522  33.316  30.486  1.00  0.00     0.049 A 
ATOM     71  H   UNL A   1      40.038  33.340  28.996  1.00  0.00     0.167 HD
ATOM     72  C   UNL A   1      43.598  32.891  29.394  1.00  0.00     0.074 A 
ATOM     73  C   UNL A   1      44.943  32.959  28.855  1.00  0.00     0.031 C 
ATOM     74  C   UNL A   1      42.629  33.813  29.675  1.00  0.00     0.031 A 
BRANCH  61  75
ATOM     75  C   UNL A   1      36.758  32.609  31.127  1.00  0.00    -0.014 A 
ATOM     76  C   UNL A   1      35.862  33.441  30.430  1.00  0.00     0.009 A 
ATOM     77  C   UNL A   1      36.382  32.275  32.439  1.00  0.00     0.009 A 
ATOM     78  C   UNL A   1      34.725  33.990  31.039  1.00  0.00     0.001 A 
ATOM     79  C   UNL A   1      35.268  32.848  33.068  1.00  0.00     0.001 A 
ATOM     80  C   UNL A   1      34.444  33.719  32.370  1.00  0.00     0.000 A 
ENDBRANCH  61  75
BRANCH  62  81
ATOM     81  C   UNL A   1      44.983  28.518  28.128  1.00  0.00    -0.014 A 
ATOM     82  C   UNL A   1      45.860  27.447  28.392  1.00  0.00     0.009 A 
ATOM     83  C   UNL A   1      44.268  28.516  26.922  1.00  0.00     0.009 A 
ATOM     84  C   UNL A   1      45.929  26.349  27.529  1.00  0.00     0.001 A 
ATOM     85  C   UNL A   1      44.346  27.416  26.057  1.00  0.00     0.001 A 
ATOM     86  C   UNL A   1      45.147  26.321  26.379  1.00  0.00     0.000 A 
ENDBRANCH  62  81
BRANCH  74  87
ATOM     87  C   UNL A   1      42.621  35.282  29.297  1.00  0.00    -0.014 A 
ATOM     88  C   UNL A   1      43.398  36.277  29.902  1.00  0.00     0.009 A 
ATOM     89  C   UNL A   1      41.849  35.692  28.183  1.00  0.00     0.009 A 
ATOM     90  C   UNL A   1      43.379  37.605  29.445  1.00  0.00     0.001 A 
ATOM     91  C   UNL A   1      41.860  37.002  27.694  1.00  0.00     0.001 A 
ATOM     92  C   UNL A   1      42.621  37.964  28.336  1.00  0.00     0.000 A 
ENDBRANCH  74  87
ENDBRANCH  48  49
ENDBRANCH  40  43
ENDBRANCH  38  39
ENDBRANCH  37  38
ENDBRANCH   1  37
TORSDOF 17
ENDMDL
