MODEL 1
REMARK VINA RESULT:     -12.2      0.000      0.000
REMARK SMILES Cc1ccnc(C(=O)c2[nH]c3cc(F)ccc3c2CC(=O)NCCCNC(=O)c2ccc(-c3c4nc(c(-c5ccccc5)c5ccc([nH]5)c(-c5ccccc5)c5nc(c(-c6ccccc6)c6ccc3[nH]6)C=C5)C=C4)cc2)c1
REMARK SMILES IDX 23 1 22 2 20 3 21 4 19 6 18 7 9 8 10 9 11 10 17 12 12 13
REMARK SMILES IDX 16 14 13 15 15 16 14 17 7 18 8 19 6 20 1 21 2 22 3 23 77 24
REMARK SMILES IDX 4 25 5 26 24 27 25 28 26 29 27 30 28 32 29 33 30 34 76 35
REMARK SMILES IDX 31 36 75 37 32 38 33 39 34 40 69 41 35 42 74 43 68 44 70 45
REMARK SMILES IDX 36 46 73 47 67 48 66 49 37 51 59 52 44 53 58 54 45 55 48 56
REMARK SMILES IDX 57 57 71 58 46 59 47 60 56 62 72 63 49 64 38 65 39 66 43 67
REMARK SMILES IDX 40 68 42 69 41 70 60 71 61 72 65 73 62 74 64 75 63 76 50 77
REMARK SMILES IDX 51 78 55 79 52 80 54 81 53 82
REMARK H PARENT 22 5 10 11 26 31 70 50 48 61
REMARK Flexibility Score: inf
ROOT
ATOM      1  C   UNL A   1      32.383  26.343  26.093  1.00  0.00     0.117 C 
ENDROOT
BRANCH   1   2
ATOM      2  N   UNL A   1      31.978  25.197  26.884  1.00  0.00    -0.356 N 
ATOM      3  C   UNL A   1      32.069  23.865  26.601  1.00  0.00     0.224 C 
ATOM      4  O   UNL A   1      31.745  23.056  27.473  1.00  0.00    -0.275 OA
ATOM      5  H   UNL A   1      31.577  25.412  27.758  1.00  0.00     0.163 HD
BRANCH   3   6
ATOM      6  C   UNL A   1      32.633  23.392  25.274  1.00  0.00     0.138 C 
BRANCH   6   7
ATOM      7  C   UNL A   1      33.782  22.430  25.387  1.00  0.00    -0.002 A 
ATOM      8  C   UNL A   1      33.733  21.040  25.381  1.00  0.00     0.093 A 
ATOM      9  N   UNL A   1      35.025  20.576  25.462  1.00  0.00    -0.351 N 
ATOM     10  C   UNL A   1      35.906  21.618  25.595  1.00  0.00     0.049 A 
ATOM     11  H   UNL A   1      35.281  19.626  25.430  1.00  0.00     0.167 HD
ATOM     12  C   UNL A   1      35.160  22.796  25.557  1.00  0.00     0.004 A 
ATOM     13  C   UNL A   1      37.299  21.604  25.729  1.00  0.00     0.066 A 
ATOM     14  C   UNL A   1      35.845  24.027  25.663  1.00  0.00     0.013 A 
ATOM     15  C   UNL A   1      37.941  22.837  25.830  1.00  0.00     0.125 A 
ATOM     16  C   UNL A   1      37.237  24.033  25.799  1.00  0.00     0.040 A 
ATOM     17  F   UNL A   1      39.274  22.866  25.958  1.00  0.00    -0.207 F 
BRANCH   8  18
ATOM     18  C   UNL A   1      32.604  20.138  25.231  1.00  0.00     0.227 C 
ATOM     19  O   UNL A   1      31.455  20.553  25.354  1.00  0.00    -0.285 OA
BRANCH  18  20
ATOM     20  C   UNL A   1      32.885  18.714  24.808  1.00  0.00     0.113 A 
ATOM     21  C   UNL A   1      32.435  15.128  25.971  1.00  0.00     0.044 C 
ATOM     22  C   UNL A   1      32.836  16.332  25.173  1.00  0.00    -0.047 A 
ATOM     23  C   UNL A   1      33.560  16.182  23.989  1.00  0.00     0.023 A 
ATOM     24  C   UNL A   1      32.476  17.621  25.577  1.00  0.00     0.036 A 
ATOM     25  C   UNL A   1      33.914  17.316  23.278  1.00  0.00     0.112 A 
ATOM     26  N   UNL A   1      33.608  18.570  23.667  1.00  0.00    -0.253 NA
ENDBRANCH  18  20
ENDBRANCH   8  18
ENDBRANCH   6   7
ENDBRANCH   3   6
ENDBRANCH   1   2
BRANCH   1  27
ATOM     27  C   UNL A   1      32.397  27.654  26.877  1.00  0.00     0.042 C 
BRANCH  27  28
ATOM     28  C   UNL A   1      33.759  28.336  26.965  1.00  0.00     0.118 C 
BRANCH  28  29
ATOM     29  N   UNL A   1      33.659  29.728  27.376  1.00  0.00    -0.352 N 
ATOM     30  C   UNL A   1      34.541  30.513  28.076  1.00  0.00     0.251 C 
ATOM     31  H   UNL A   1      32.826  30.180  27.108  1.00  0.00     0.163 HD
ATOM     32  O   UNL A   1      34.182  31.619  28.472  1.00  0.00    -0.269 OA
BRANCH  30  33
ATOM     33  C   UNL A   1      35.915  30.047  28.379  1.00  0.00     0.039 A 
ATOM     34  C   UNL A   1      36.885  30.141  27.373  1.00  0.00     0.014 A 
ATOM     35  C   UNL A   1      36.235  29.448  29.600  1.00  0.00     0.014 A 
ATOM     36  C   UNL A   1      38.185  29.685  27.608  1.00  0.00     0.010 A 
ATOM     37  C   UNL A   1      37.542  29.019  29.845  1.00  0.00     0.010 A 
ATOM     38  C   UNL A   1      38.526  29.134  28.851  1.00  0.00    -0.014 A 
BRANCH  38  39
ATOM     39  C   UNL A   1      39.905  28.665  29.125  1.00  0.00     0.031 A 
ATOM     40  C   UNL A   1      40.895  29.569  29.797  1.00  0.00     0.074 A 
ATOM     41  C   UNL A   1      40.285  27.433  28.737  1.00  0.00     0.049 A 
ATOM     42  N   UNL A   1      42.178  29.391  29.985  1.00  0.00    -0.248 NA
ATOM     43  C   UNL A   1      40.377  30.843  30.320  1.00  0.00     0.031 C 
ATOM     44  C   UNL A   1      39.428  26.447  28.078  1.00  0.00     0.029 A 
ATOM     45  N   UNL A   1      41.501  26.807  28.841  1.00  0.00    -0.354 N 
ATOM     46  C   UNL A   1      42.631  30.545  30.609  1.00  0.00     0.074 A 
ATOM     47  C   UNL A   1      41.481  31.407  30.790  1.00  0.00     0.031 C 
ATOM     48  C   UNL A   1      40.144  25.334  27.846  1.00  0.00     0.029 A 
ATOM     49  C   UNL A   1      41.511  25.540  28.315  1.00  0.00     0.049 A 
ATOM     50  H   UNL A   1      42.291  27.227  29.251  1.00  0.00     0.167 HD
ATOM     51  C   UNL A   1      43.891  30.866  30.987  1.00  0.00     0.031 A 
ATOM     52  C   UNL A   1      42.512  24.649  28.207  1.00  0.00     0.031 A 
ATOM     53  C   UNL A   1      45.037  30.010  30.843  1.00  0.00     0.049 A 
ATOM     54  C   UNL A   1      43.890  25.007  28.680  1.00  0.00     0.074 A 
ATOM     55  C   UNL A   1      46.356  30.267  31.174  1.00  0.00     0.029 A 
ATOM     56  N   UNL A   1      44.994  28.720  30.342  1.00  0.00    -0.354 N 
ATOM     57  N   UNL A   1      44.315  26.129  29.204  1.00  0.00    -0.248 NA
ATOM     58  C   UNL A   1      44.929  23.977  28.528  1.00  0.00     0.031 C 
ATOM     59  C   UNL A   1      47.113  29.125  30.882  1.00  0.00     0.029 A 
ATOM     60  C   UNL A   1      46.260  28.161  30.369  1.00  0.00     0.049 A 
ATOM     61  H   UNL A   1      44.182  28.267  30.015  1.00  0.00     0.167 HD
ATOM     62  C   UNL A   1      45.671  25.948  29.432  1.00  0.00     0.074 A 
ATOM     63  C   UNL A   1      45.998  24.604  29.003  1.00  0.00     0.031 C 
ATOM     64  C   UNL A   1      46.568  26.825  29.941  1.00  0.00     0.031 A 
BRANCH  51  65
ATOM     65  C   UNL A   1      44.092  32.226  31.577  1.00  0.00    -0.014 A 
ATOM     66  C   UNL A   1      43.985  32.428  32.960  1.00  0.00     0.009 A 
ATOM     67  C   UNL A   1      44.407  33.309  30.743  1.00  0.00     0.009 A 
ATOM     68  C   UNL A   1      44.174  33.702  33.498  1.00  0.00     0.001 A 
ATOM     69  C   UNL A   1      44.599  34.581  31.284  1.00  0.00     0.001 A 
ATOM     70  C   UNL A   1      44.479  34.776  32.660  1.00  0.00     0.000 A 
ENDBRANCH  51  65
BRANCH  52  71
ATOM     71  C   UNL A   1      42.253  23.325  27.599  1.00  0.00    -0.014 A 
ATOM     72  C   UNL A   1      41.616  22.320  28.341  1.00  0.00     0.009 A 
ATOM     73  C   UNL A   1      42.640  23.066  26.276  1.00  0.00     0.009 A 
ATOM     74  C   UNL A   1      41.377  21.071  27.770  1.00  0.00     0.001 A 
ATOM     75  C   UNL A   1      42.396  21.816  25.706  1.00  0.00     0.001 A 
ATOM     76  C   UNL A   1      41.767  20.820  26.453  1.00  0.00     0.000 A 
ENDBRANCH  52  71
BRANCH  64  77
ATOM     77  C   UNL A   1      47.985  26.355  30.048  1.00  0.00    -0.014 A 
ATOM     78  C   UNL A   1      48.862  26.507  28.964  1.00  0.00     0.009 A 
ATOM     79  C   UNL A   1      48.450  25.775  31.237  1.00  0.00     0.009 A 
ATOM     80  C   UNL A   1      50.184  26.072  29.065  1.00  0.00     0.001 A 
ATOM     81  C   UNL A   1      49.773  25.340  31.333  1.00  0.00     0.001 A 
ATOM     82  C   UNL A   1      50.638  25.487  30.247  1.00  0.00     0.000 A 
ENDBRANCH  64  77
ENDBRANCH  38  39
ENDBRANCH  30  33
ENDBRANCH  28  29
ENDBRANCH  27  28
ENDBRANCH   1  27
TORSDOF 13
ENDMDL
MODEL 2
REMARK VINA RESULT:     -12.0      2.088      4.032
REMARK SMILES Cc1ccnc(C(=O)c2[nH]c3cc(F)ccc3c2CC(=O)NCCCNC(=O)c2ccc(-c3c4nc(c(-c5ccccc5)c5ccc([nH]5)c(-c5ccccc5)c5nc(c(-c6ccccc6)c6ccc3[nH]6)C=C5)C=C4)cc2)c1
REMARK SMILES IDX 23 1 22 2 20 3 21 4 19 6 18 7 9 8 10 9 11 10 17 12 12 13
REMARK SMILES IDX 16 14 13 15 15 16 14 17 7 18 8 19 6 20 1 21 2 22 3 23 77 24
REMARK SMILES IDX 4 25 5 26 24 27 25 28 26 29 27 30 28 32 29 33 30 34 76 35
REMARK SMILES IDX 31 36 75 37 32 38 33 39 34 40 69 41 35 42 74 43 68 44 70 45
REMARK SMILES IDX 36 46 73 47 67 48 66 49 37 51 59 52 44 53 58 54 45 55 48 56
REMARK SMILES IDX 57 57 71 58 46 59 47 60 56 62 72 63 49 64 38 65 39 66 43 67
REMARK SMILES IDX 40 68 42 69 41 70 60 71 61 72 65 73 62 74 64 75 63 76 50 77
REMARK SMILES IDX 51 78 55 79 52 80 54 81 53 82
REMARK H PARENT 22 5 10 11 26 31 70 50 48 61
REMARK Flexibility Score: inf
ROOT
ATOM      1  C   UNL A   1      33.509  26.928  25.165  1.00  0.00     0.117 C 
ENDROOT
BRANCH   1   2
ATOM      2  N   UNL A   1      33.611  25.792  26.061  1.00  0.00    -0.356 N 
ATOM      3  C   UNL A   1      34.096  24.537  25.828  1.00  0.00     0.224 C 
ATOM      4  O   UNL A   1      34.173  23.752  26.775  1.00  0.00    -0.275 OA
ATOM      5  H   UNL A   1      33.281  25.949  26.976  1.00  0.00     0.163 HD
BRANCH   3   6
ATOM      6  C   UNL A   1      34.602  24.147  24.452  1.00  0.00     0.138 C 
BRANCH   6   7
ATOM      7  C   UNL A   1      33.674  23.262  23.669  1.00  0.00    -0.002 A 
ATOM      8  C   UNL A   1      32.826  23.626  22.627  1.00  0.00     0.093 A 
ATOM      9  N   UNL A   1      32.200  22.486  22.181  1.00  0.00    -0.351 N 
ATOM     10  C   UNL A   1      32.558  21.405  22.946  1.00  0.00     0.049 A 
ATOM     11  H   UNL A   1      31.579  22.450  21.418  1.00  0.00     0.167 HD
ATOM     12  C   UNL A   1      33.477  21.857  23.892  1.00  0.00     0.004 A 
ATOM     13  C   UNL A   1      32.151  20.070  22.859  1.00  0.00     0.066 A 
ATOM     14  C   UNL A   1      34.016  20.922  24.804  1.00  0.00     0.013 A 
ATOM     15  C   UNL A   1      32.702  19.175  23.774  1.00  0.00     0.125 A 
ATOM     16  C   UNL A   1      33.618  19.582  24.733  1.00  0.00     0.040 A 
ATOM     17  F   UNL A   1      32.339  17.886  23.723  1.00  0.00    -0.207 F 
BRANCH   8  18
ATOM     18  C   UNL A   1      32.621  24.913  21.986  1.00  0.00     0.227 C 
ATOM     19  O   UNL A   1      33.278  25.229  20.999  1.00  0.00    -0.285 OA
BRANCH  18  20
ATOM     20  C   UNL A   1      31.502  25.791  22.501  1.00  0.00     0.113 A 
ATOM     21  C   UNL A   1      30.235  29.368  22.370  1.00  0.00     0.044 C 
ATOM     22  C   UNL A   1      30.384  27.916  22.712  1.00  0.00    -0.047 A 
ATOM     23  C   UNL A   1      29.491  27.306  23.595  1.00  0.00     0.023 A 
ATOM     24  C   UNL A   1      31.395  27.137  22.140  1.00  0.00     0.036 A 
ATOM     25  C   UNL A   1      29.658  25.964  23.889  1.00  0.00     0.112 A 
ATOM     26  N   UNL A   1      30.647  25.202  23.377  1.00  0.00    -0.253 NA
ENDBRANCH  18  20
ENDBRANCH   8  18
ENDBRANCH   6   7
ENDBRANCH   3   6
ENDBRANCH   1   2
BRANCH   1  27
ATOM     27  C   UNL A   1      33.990  28.239  25.785  1.00  0.00     0.042 C 
BRANCH  27  28
ATOM     28  C   UNL A   1      33.543  28.470  27.227  1.00  0.00     0.118 C 
BRANCH  28  29
ATOM     29  N   UNL A   1      33.536  29.879  27.588  1.00  0.00    -0.352 N 
ATOM     30  C   UNL A   1      34.513  30.654  28.160  1.00  0.00     0.251 C 
ATOM     31  H   UNL A   1      32.695  30.353  27.390  1.00  0.00     0.163 HD
ATOM     32  O   UNL A   1      34.236  31.787  28.546  1.00  0.00    -0.269 OA
BRANCH  30  33
ATOM     33  C   UNL A   1      35.894  30.147  28.337  1.00  0.00     0.039 A 
ATOM     34  C   UNL A   1      36.281  29.701  29.607  1.00  0.00     0.014 A 
ATOM     35  C   UNL A   1      36.829  30.183  27.298  1.00  0.00     0.014 A 
ATOM     36  C   UNL A   1      37.584  29.243  29.823  1.00  0.00     0.010 A 
ATOM     37  C   UNL A   1      38.123  29.699  27.507  1.00  0.00     0.010 A 
ATOM     38  C   UNL A   1      38.509  29.225  28.770  1.00  0.00    -0.014 A 
BRANCH  38  39
ATOM     39  C   UNL A   1      39.889  28.724  28.975  1.00  0.00     0.031 A 
ATOM     40  C   UNL A   1      40.950  29.628  29.528  1.00  0.00     0.074 A 
ATOM     41  C   UNL A   1      40.203  27.461  28.633  1.00  0.00     0.049 A 
ATOM     42  N   UNL A   1      42.237  29.416  29.639  1.00  0.00    -0.248 NA
ATOM     43  C   UNL A   1      40.509  30.946  30.013  1.00  0.00     0.031 C 
ATOM     44  C   UNL A   1      39.272  26.471  28.089  1.00  0.00     0.029 A 
ATOM     45  N   UNL A   1      41.403  26.800  28.689  1.00  0.00    -0.354 N 
ATOM     46  C   UNL A   1      42.767  30.586  30.166  1.00  0.00     0.074 A 
ATOM     47  C   UNL A   1      41.659  31.495  30.375  1.00  0.00     0.031 C 
ATOM     48  C   UNL A   1      39.936  25.322  27.872  1.00  0.00     0.029 A 
ATOM     49  C   UNL A   1      41.338  25.506  28.236  1.00  0.00     0.049 A 
ATOM     50  H   UNL A   1      42.232  27.213  29.022  1.00  0.00     0.167 HD
ATOM     51  C   UNL A   1      44.060  30.883  30.439  1.00  0.00     0.031 A 
ATOM     52  C   UNL A   1      42.302  24.577  28.110  1.00  0.00     0.031 A 
ATOM     53  C   UNL A   1      45.166  29.981  30.266  1.00  0.00     0.049 A 
ATOM     54  C   UNL A   1      43.719  24.912  28.468  1.00  0.00     0.074 A 
ATOM     55  C   UNL A   1      46.512  30.210  30.493  1.00  0.00     0.029 A 
ATOM     56  N   UNL A   1      45.049  28.669  29.843  1.00  0.00    -0.354 N 
ATOM     57  N   UNL A   1      44.213  26.045  28.900  1.00  0.00    -0.248 NA
ATOM     58  C   UNL A   1      44.713  23.841  28.305  1.00  0.00     0.031 C 
ATOM     59  C   UNL A   1      47.211  29.029  30.215  1.00  0.00     0.029 A 
ATOM     60  C   UNL A   1      46.296  28.069  29.815  1.00  0.00     0.049 A 
ATOM     61  H   UNL A   1      44.203  28.227  29.597  1.00  0.00     0.167 HD
ATOM     62  C   UNL A   1      45.576  25.830  29.045  1.00  0.00     0.074 A 
ATOM     63  C   UNL A   1      45.831  24.455  28.671  1.00  0.00     0.031 C 
ATOM     64  C   UNL A   1      46.533  26.702  29.443  1.00  0.00     0.031 A 
BRANCH  51  65
ATOM     65  C   UNL A   1      44.343  32.265  30.938  1.00  0.00    -0.014 A 
ATOM     66  C   UNL A   1      44.450  32.521  32.311  1.00  0.00     0.009 A 
ATOM     67  C   UNL A   1      44.518  33.314  30.023  1.00  0.00     0.009 A 
ATOM     68  C   UNL A   1      44.714  33.816  32.763  1.00  0.00     0.001 A 
ATOM     69  C   UNL A   1      44.784  34.606  30.478  1.00  0.00     0.001 A 
ATOM     70  C   UNL A   1      44.879  34.855  31.847  1.00  0.00     0.000 A 
ENDBRANCH  51  65
BRANCH  52  71
ATOM     71  C   UNL A   1      41.960  23.232  27.596  1.00  0.00    -0.014 A 
ATOM     72  C   UNL A   1      42.121  22.936  26.234  1.00  0.00     0.009 A 
ATOM     73  C   UNL A   1      41.476  22.244  28.465  1.00  0.00     0.009 A 
ATOM     74  C   UNL A   1      41.793  21.671  25.748  1.00  0.00     0.001 A 
ATOM     75  C   UNL A   1      41.153  20.977  27.976  1.00  0.00     0.001 A 
ATOM     76  C   UNL A   1      41.310  20.693  26.619  1.00  0.00     0.000 A 
ENDBRANCH  52  71
BRANCH  64  77
ATOM     77  C   UNL A   1      47.938  26.190  29.480  1.00  0.00    -0.014 A 
ATOM     78  C   UNL A   1      48.714  26.173  28.312  1.00  0.00     0.009 A 
ATOM     79  C   UNL A   1      48.496  25.739  30.685  1.00  0.00     0.009 A 
ATOM     80  C   UNL A   1      50.026  25.699  28.347  1.00  0.00     0.001 A 
ATOM     81  C   UNL A   1      49.808  25.264  30.716  1.00  0.00     0.001 A 
ATOM     82  C   UNL A   1      50.571  25.243  29.548  1.00  0.00     0.000 A 
ENDBRANCH  64  77
ENDBRANCH  38  39
ENDBRANCH  30  33
ENDBRANCH  28  29
ENDBRANCH  27  28
ENDBRANCH   1  27
TORSDOF 13
ENDMDL
MODEL 3
REMARK VINA RESULT:     -11.8      3.625      8.971
REMARK SMILES Cc1ccnc(C(=O)c2[nH]c3cc(F)ccc3c2CC(=O)NCCCNC(=O)c2ccc(-c3c4nc(c(-c5ccccc5)c5ccc([nH]5)c(-c5ccccc5)c5nc(c(-c6ccccc6)c6ccc3[nH]6)C=C5)C=C4)cc2)c1
REMARK SMILES IDX 23 1 22 2 20 3 21 4 19 6 18 7 9 8 10 9 11 10 17 12 12 13
REMARK SMILES IDX 16 14 13 15 15 16 14 17 7 18 8 19 6 20 1 21 2 22 3 23 77 24
REMARK SMILES IDX 4 25 5 26 24 27 25 28 26 29 27 30 28 32 29 33 30 34 76 35
REMARK SMILES IDX 31 36 75 37 32 38 33 39 34 40 69 41 35 42 74 43 68 44 70 45
REMARK SMILES IDX 36 46 73 47 67 48 66 49 37 51 59 52 44 53 58 54 45 55 48 56
REMARK SMILES IDX 57 57 71 58 46 59 47 60 56 62 72 63 49 64 38 65 39 66 43 67
REMARK SMILES IDX 40 68 42 69 41 70 60 71 61 72 65 73 62 74 64 75 63 76 50 77
REMARK SMILES IDX 51 78 55 79 52 80 54 81 53 82
REMARK H PARENT 22 5 10 11 26 31 70 50 48 61
REMARK Flexibility Score: inf
ROOT
ATOM      1  C   UNL A   1      34.532  24.282  24.366  1.00  0.00     0.117 C 
ENDROOT
BRANCH   1   2
ATOM      2  N   UNL A   1      34.394  25.065  23.154  1.00  0.00    -0.356 N 
ATOM      3  C   UNL A   1      33.435  25.973  22.806  1.00  0.00     0.224 C 
ATOM      4  O   UNL A   1      33.573  26.598  21.752  1.00  0.00    -0.275 OA
ATOM      5  H   UNL A   1      35.098  24.923  22.480  1.00  0.00     0.163 HD
BRANCH   3   6
ATOM      6  C   UNL A   1      32.272  26.264  23.735  1.00  0.00     0.138 C 
BRANCH   6   7
ATOM      7  C   UNL A   1      32.180  27.689  24.200  1.00  0.00    -0.002 A 
ATOM      8  C   UNL A   1      31.399  28.711  23.669  1.00  0.00     0.093 A 
ATOM      9  N   UNL A   1      31.600  29.833  24.438  1.00  0.00    -0.351 N 
ATOM     10  C   UNL A   1      32.540  29.594  25.407  1.00  0.00     0.049 A 
ATOM     11  H   UNL A   1      31.132  30.690  24.311  1.00  0.00     0.167 HD
ATOM     12  C   UNL A   1      32.930  28.261  25.283  1.00  0.00     0.004 A 
ATOM     13  C   UNL A   1      33.058  30.450  26.385  1.00  0.00     0.066 A 
ATOM     14  C   UNL A   1      33.894  27.758  26.185  1.00  0.00     0.013 A 
ATOM     15  C   UNL A   1      34.006  29.920  27.257  1.00  0.00     0.125 A 
ATOM     16  C   UNL A   1      34.425  28.600  27.168  1.00  0.00     0.040 A 
ATOM     17  F   UNL A   1      34.526  30.707  28.209  1.00  0.00    -0.207 F 
BRANCH   8  18
ATOM     18  C   UNL A   1      30.447  28.695  22.572  1.00  0.00     0.227 C 
ATOM     19  O   UNL A   1      30.417  27.752  21.787  1.00  0.00    -0.285 OA
BRANCH  18  20
ATOM     20  C   UNL A   1      29.429  29.811  22.501  1.00  0.00     0.113 A 
ATOM     21  C   UNL A   1      27.997  32.373  20.092  1.00  0.00     0.044 C 
ATOM     22  C   UNL A   1      28.286  31.583  21.332  1.00  0.00    -0.047 A 
ATOM     23  C   UNL A   1      27.641  31.894  22.530  1.00  0.00     0.023 A 
ATOM     24  C   UNL A   1      29.181  30.508  21.315  1.00  0.00     0.036 A 
ATOM     25  C   UNL A   1      27.932  31.143  23.657  1.00  0.00     0.112 A 
ATOM     26  N   UNL A   1      28.818  30.127  23.671  1.00  0.00    -0.253 NA
ENDBRANCH  18  20
ENDBRANCH   8  18
ENDBRANCH   6   7
ENDBRANCH   3   6
ENDBRANCH   1   2
BRANCH   1  27
ATOM     27  C   UNL A   1      35.859  23.530  24.460  1.00  0.00     0.042 C 
BRANCH  27  28
ATOM     28  C   UNL A   1      36.570  23.647  25.806  1.00  0.00     0.118 C 
BRANCH  28  29
ATOM     29  N   UNL A   1      37.692  22.728  25.924  1.00  0.00    -0.352 N 
ATOM     30  C   UNL A   1      38.984  22.953  26.330  1.00  0.00     0.251 C 
ATOM     31  H   UNL A   1      37.492  21.797  25.675  1.00  0.00     0.163 HD
ATOM     32  O   UNL A   1      39.823  22.067  26.187  1.00  0.00    -0.269 OA
BRANCH  30  33
ATOM     33  C   UNL A   1      39.392  24.248  26.923  1.00  0.00     0.039 A 
ATOM     34  C   UNL A   1      39.032  24.514  28.250  1.00  0.00     0.014 A 
ATOM     35  C   UNL A   1      40.045  25.227  26.170  1.00  0.00     0.014 A 
ATOM     36  C   UNL A   1      39.371  25.736  28.837  1.00  0.00     0.010 A 
ATOM     37  C   UNL A   1      40.410  26.438  26.766  1.00  0.00     0.010 A 
ATOM     38  C   UNL A   1      40.076  26.700  28.103  1.00  0.00    -0.014 A 
BRANCH  38  39
ATOM     39  C   UNL A   1      40.462  27.993  28.716  1.00  0.00     0.031 A 
ATOM     40  C   UNL A   1      41.853  28.200  29.237  1.00  0.00     0.074 A 
ATOM     41  C   UNL A   1      39.552  28.977  28.840  1.00  0.00     0.049 A 
ATOM     42  N   UNL A   1      42.331  29.200  29.934  1.00  0.00    -0.248 NA
ATOM     43  C   UNL A   1      42.833  27.142  28.944  1.00  0.00     0.031 C 
ATOM     44  C   UNL A   1      38.165  28.916  28.375  1.00  0.00     0.029 A 
ATOM     45  N   UNL A   1      39.663  30.222  29.404  1.00  0.00    -0.354 N 
ATOM     46  C   UNL A   1      43.655  28.876  30.198  1.00  0.00     0.074 A 
ATOM     47  C   UNL A   1      43.911  27.597  29.567  1.00  0.00     0.031 C 
ATOM     48  C   UNL A   1      37.558  30.080  28.663  1.00  0.00     0.029 A 
ATOM     49  C   UNL A   1      38.503  30.952  29.354  1.00  0.00     0.049 A 
ATOM     50  H   UNL A   1      40.496  30.560  29.806  1.00  0.00     0.167 HD
ATOM     51  C   UNL A   1      44.571  29.570  30.912  1.00  0.00     0.031 A 
ATOM     52  C   UNL A   1      38.224  32.180  29.827  1.00  0.00     0.031 A 
ATOM     53  C   UNL A   1      44.343  30.853  31.518  1.00  0.00     0.049 A 
ATOM     54  C   UNL A   1      39.272  32.953  30.571  1.00  0.00     0.074 A 
ATOM     55  C   UNL A   1      45.209  31.616  32.283  1.00  0.00     0.029 A 
ATOM     56  N   UNL A   1      43.166  31.574  31.409  1.00  0.00    -0.354 N 
ATOM     57  N   UNL A   1      40.497  32.602  30.872  1.00  0.00    -0.248 NA
ATOM     58  C   UNL A   1      38.889  34.289  31.054  1.00  0.00     0.031 C 
ATOM     59  C   UNL A   1      44.557  32.806  32.630  1.00  0.00     0.029 A 
ATOM     60  C   UNL A   1      43.286  32.779  32.079  1.00  0.00     0.049 A 
ATOM     61  H   UNL A   1      42.361  31.273  30.926  1.00  0.00     0.167 HD
ATOM     62  C   UNL A   1      41.027  33.662  31.591  1.00  0.00     0.074 A 
ATOM     63  C   UNL A   1      39.997  34.678  31.670  1.00  0.00     0.031 C 
ATOM     64  C   UNL A   1      42.256  33.778  32.147  1.00  0.00     0.031 A 
BRANCH  51  65
ATOM     65  C   UNL A   1      45.912  28.930  31.093  1.00  0.00    -0.014 A 
ATOM     66  C   UNL A   1      46.152  28.067  32.171  1.00  0.00     0.009 A 
ATOM     67  C   UNL A   1      46.935  29.180  30.167  1.00  0.00     0.009 A 
ATOM     68  C   UNL A   1      47.407  27.476  32.329  1.00  0.00     0.001 A 
ATOM     69  C   UNL A   1      48.187  28.586  30.325  1.00  0.00     0.001 A 
ATOM     70  C   UNL A   1      48.422  27.737  31.408  1.00  0.00     0.000 A 
ENDBRANCH  51  65
BRANCH  52  71
ATOM     71  C   UNL A   1      36.873  32.752  29.630  1.00  0.00    -0.014 A 
ATOM     72  C   UNL A   1      36.546  33.387  28.423  1.00  0.00     0.009 A 
ATOM     73  C   UNL A   1      35.912  32.662  30.646  1.00  0.00     0.009 A 
ATOM     74  C   UNL A   1      35.275  33.931  28.240  1.00  0.00     0.001 A 
ATOM     75  C   UNL A   1      34.640  33.204  30.458  1.00  0.00     0.001 A 
ATOM     76  C   UNL A   1      34.324  33.840  29.257  1.00  0.00     0.000 A 
ENDBRANCH  52  71
BRANCH  64  77
ATOM     77  C   UNL A   1      42.542  35.042  32.895  1.00  0.00    -0.014 A 
ATOM     78  C   UNL A   1      43.302  36.058  32.298  1.00  0.00     0.009 A 
ATOM     79  C   UNL A   1      42.039  35.227  34.191  1.00  0.00     0.009 A 
ATOM     80  C   UNL A   1      43.567  37.238  32.994  1.00  0.00     0.001 A 
ATOM     81  C   UNL A   1      42.307  36.409  34.884  1.00  0.00     0.001 A 
ATOM     82  C   UNL A   1      43.071  37.412  34.286  1.00  0.00     0.000 A 
ENDBRANCH  64  77
ENDBRANCH  38  39
ENDBRANCH  30  33
ENDBRANCH  28  29
ENDBRANCH  27  28
ENDBRANCH   1  27
TORSDOF 13
ENDMDL
