MODEL 1
REMARK VINA RESULT:     -11.5      0.000      0.000
REMARK SMILES O=C(NCc1cccc(F)c1)NCc1ccc(C(=O)NCCCNC(=O)c2ccc(-c3c4nc(c(-c5ccccc5)c5ccc([nH]5)c(-c5ccccc5)c5nc(c(-c6ccccc6)c6ccc3[nH]6)C=C5)C=C4)cc2)o1
REMARK SMILES IDX 21 1 20 2 18 3 19 4 17 6 14 7 15 8 75 9 16 10 13 11 12 12
REMARK SMILES IDX 1 13 2 14 3 15 4 18 5 19 6 20 11 21 7 22 9 23 8 24 10 25
REMARK SMILES IDX 22 26 23 27 24 28 25 29 26 31 27 32 28 33 74 34 29 35 73 36
REMARK SMILES IDX 30 37 31 38 32 39 67 40 33 41 72 42 66 43 68 44 34 45 71 46
REMARK SMILES IDX 65 47 64 48 35 50 57 51 42 52 56 53 43 54 46 55 55 56 69 57
REMARK SMILES IDX 44 58 45 59 54 61 70 62 47 63 36 64 37 65 41 66 38 67 40 68
REMARK SMILES IDX 39 69 58 70 59 71 63 72 60 73 62 74 61 75 48 76 49 77 53 78
REMARK SMILES IDX 50 79 52 80 51 81
REMARK H PARENT 20 5 3 16 12 17 24 30 68 49 46 60
REMARK Flexibility Score: inf
ROOT
ATOM      1  C   UNL A   1      36.976  21.051  24.720  1.00  0.00     0.118 C 
ENDROOT
BRANCH   1   2
ATOM      2  N   UNL A   1      36.086  21.007  25.864  1.00  0.00    -0.349 N 
ATOM      3  C   UNL A   1      34.990  21.777  26.186  1.00  0.00     0.286 C 
ATOM      4  O   UNL A   1      34.364  21.419  27.185  1.00  0.00    -0.266 OA
ATOM      5  H   UNL A   1      36.302  20.309  26.522  1.00  0.00     0.163 HD
BRANCH   3   6
ATOM      6  C   UNL A   1      34.606  22.920  25.378  1.00  0.00     0.191 A 
ATOM      7  C   UNL A   1      33.637  23.834  23.605  1.00  0.00     0.124 A 
ATOM      8  C   UNL A   1      34.203  24.868  24.317  1.00  0.00     0.048 A 
ATOM      9  O   UNL A   1      33.869  22.656  24.247  1.00  0.00    -0.454 OA
ATOM     10  C   UNL A   1      34.785  24.290  25.469  1.00  0.00     0.056 A 
BRANCH   7  11
ATOM     11  C   UNL A   1      32.866  23.752  22.336  1.00  0.00     0.193 C 
BRANCH  11  12
ATOM     12  N   UNL A   1      31.979  24.893  22.260  1.00  0.00    -0.331 N 
ATOM     13  O   UNL A   1      33.327  26.137  20.914  1.00  0.00    -0.249 OA
ATOM     14  C   UNL A   1      32.329  26.033  21.620  1.00  0.00     0.315 C 
ATOM     15  N   UNL A   1      31.540  27.115  21.803  1.00  0.00    -0.334 N 
ATOM     16  H   UNL A   1      31.766  27.884  21.232  1.00  0.00     0.165 HD
ATOM     17  H   UNL A   1      31.093  24.837  22.687  1.00  0.00     0.165 HD
BRANCH  15  18
ATOM     18  C   UNL A   1      30.422  27.340  22.692  1.00  0.00     0.153 C 
BRANCH  18  19
ATOM     19  C   UNL A   1      30.908  27.803  24.042  1.00  0.00    -0.026 A 
ATOM     20  C   UNL A   1      31.059  26.889  25.098  1.00  0.00     0.006 A 
ATOM     21  C   UNL A   1      31.175  29.158  24.279  1.00  0.00     0.044 A 
ATOM     22  C   UNL A   1      31.480  27.319  26.360  1.00  0.00     0.003 A 
ATOM     23  C   UNL A   1      31.594  29.574  25.540  1.00  0.00     0.123 A 
ATOM     24  C   UNL A   1      31.749  28.667  26.581  1.00  0.00     0.039 A 
ATOM     25  F   UNL A   1      31.848  30.872  25.752  1.00  0.00    -0.207 F 
ENDBRANCH  18  19
ENDBRANCH  15  18
ENDBRANCH  11  12
ENDBRANCH   7  11
ENDBRANCH   3   6
ENDBRANCH   1   2
BRANCH   1  26
ATOM     26  C   UNL A   1      38.042  19.960  24.791  1.00  0.00     0.042 C 
BRANCH  26  27
ATOM     27  C   UNL A   1      38.964  20.092  26.003  1.00  0.00     0.118 C 
BRANCH  27  28
ATOM     28  N   UNL A   1      40.174  19.295  25.858  1.00  0.00    -0.352 N 
ATOM     29  C   UNL A   1      41.495  19.648  25.977  1.00  0.00     0.251 C 
ATOM     30  H   UNL A   1      40.020  18.347  25.640  1.00  0.00     0.163 HD
ATOM     31  O   UNL A   1      42.363  18.865  25.602  1.00  0.00    -0.269 OA
BRANCH  29  32
ATOM     32  C   UNL A   1      41.889  20.956  26.546  1.00  0.00     0.039 A 
ATOM     33  C   UNL A   1      42.262  21.981  25.669  1.00  0.00     0.014 A 
ATOM     34  C   UNL A   1      41.959  21.160  27.927  1.00  0.00     0.014 A 
ATOM     35  C   UNL A   1      42.655  23.223  26.174  1.00  0.00     0.010 A 
ATOM     36  C   UNL A   1      42.292  22.419  28.427  1.00  0.00     0.010 A 
ATOM     37  C   UNL A   1      42.647  23.460  27.557  1.00  0.00    -0.014 A 
BRANCH  37  38
ATOM     38  C   UNL A   1      43.005  24.791  28.111  1.00  0.00     0.031 A 
ATOM     39  C   UNL A   1      41.941  25.825  28.354  1.00  0.00     0.074 A 
ATOM     40  C   UNL A   1      44.299  25.091  28.331  1.00  0.00     0.049 A 
ATOM     41  N   UNL A   1      42.072  27.064  28.759  1.00  0.00    -0.248 NA
ATOM     42  C   UNL A   1      40.551  25.425  28.085  1.00  0.00     0.031 C 
ATOM     43  C   UNL A   1      45.431  24.189  28.104  1.00  0.00     0.029 A 
ATOM     44  N   UNL A   1      44.882  26.247  28.786  1.00  0.00    -0.354 N 
ATOM     45  C   UNL A   1      40.789  27.596  28.770  1.00  0.00     0.074 A 
ATOM     46  C   UNL A   1      39.897  26.557  28.298  1.00  0.00     0.031 C 
ATOM     47  C   UNL A   1      46.568  24.819  28.436  1.00  0.00     0.029 A 
ATOM     48  C   UNL A   1      46.252  26.178  28.864  1.00  0.00     0.049 A 
ATOM     49  H   UNL A   1      44.367  27.049  29.033  1.00  0.00     0.167 HD
ATOM     50  C   UNL A   1      40.385  28.831  29.150  1.00  0.00     0.031 A 
ATOM     51  C   UNL A   1      47.154  27.108  29.230  1.00  0.00     0.031 A 
ATOM     52  C   UNL A   1      41.267  29.858  29.638  1.00  0.00     0.049 A 
ATOM     53  C   UNL A   1      46.681  28.471  29.647  1.00  0.00     0.074 A 
ATOM     54  C   UNL A   1      40.944  31.120  30.109  1.00  0.00     0.029 A 
ATOM     55  N   UNL A   1      42.645  29.742  29.718  1.00  0.00    -0.354 N 
ATOM     56  N   UNL A   1      45.457  28.936  29.712  1.00  0.00    -0.248 NA
ATOM     57  C   UNL A   1      47.715  29.434  30.051  1.00  0.00     0.031 C 
ATOM     58  C   UNL A   1      42.132  31.783  30.433  1.00  0.00     0.029 A 
ATOM     59  C   UNL A   1      43.190  30.917  30.209  1.00  0.00     0.049 A 
ATOM     60  H   UNL A   1      43.161  28.943  29.463  1.00  0.00     0.167 HD
ATOM     61  C   UNL A   1      45.571  30.235  30.188  1.00  0.00     0.074 A 
ATOM     62  C   UNL A   1      46.982  30.480  30.408  1.00  0.00     0.031 C 
ATOM     63  C   UNL A   1      44.595  31.144  30.423  1.00  0.00     0.031 A 
BRANCH  50  64
ATOM     64  C   UNL A   1      38.920  29.146  29.042  1.00  0.00    -0.014 A 
ATOM     65  C   UNL A   1      38.058  28.983  30.137  1.00  0.00     0.009 A 
ATOM     66  C   UNL A   1      38.402  29.649  27.838  1.00  0.00     0.009 A 
ATOM     67  C   UNL A   1      36.699  29.283  30.019  1.00  0.00     0.001 A 
ATOM     68  C   UNL A   1      37.048  29.974  27.731  1.00  0.00     0.001 A 
ATOM     69  C   UNL A   1      36.196  29.782  28.817  1.00  0.00     0.000 A 
ENDBRANCH  50  64
BRANCH  51  70
ATOM     70  C   UNL A   1      48.601  26.777  29.229  1.00  0.00    -0.014 A 
ATOM     71  C   UNL A   1      49.209  26.251  30.379  1.00  0.00     0.009 A 
ATOM     72  C   UNL A   1      49.382  26.987  28.082  1.00  0.00     0.009 A 
ATOM     73  C   UNL A   1      50.577  25.965  30.389  1.00  0.00     0.001 A 
ATOM     74  C   UNL A   1      50.744  26.675  28.087  1.00  0.00     0.001 A 
ATOM     75  C   UNL A   1      51.341  26.174  29.242  1.00  0.00     0.000 A 
ENDBRANCH  51  70
BRANCH  63  76
ATOM     76  C   UNL A   1      45.016  32.476  30.973  1.00  0.00    -0.014 A 
ATOM     77  C   UNL A   1      45.309  33.555  30.125  1.00  0.00     0.009 A 
ATOM     78  C   UNL A   1      45.087  32.661  32.363  1.00  0.00     0.009 A 
ATOM     79  C   UNL A   1      45.693  34.787  30.660  1.00  0.00     0.001 A 
ATOM     80  C   UNL A   1      45.446  33.901  32.894  1.00  0.00     0.001 A 
ATOM     81  C   UNL A   1      45.757  34.960  32.042  1.00  0.00     0.000 A 
ENDBRANCH  63  76
ENDBRANCH  37  38
ENDBRANCH  29  32
ENDBRANCH  27  28
ENDBRANCH  26  27
ENDBRANCH   1  26
TORSDOF 14
ENDMDL
MODEL 2
REMARK VINA RESULT:     -11.3      1.588      2.190
REMARK SMILES O=C(NCc1cccc(F)c1)NCc1ccc(C(=O)NCCCNC(=O)c2ccc(-c3c4nc(c(-c5ccccc5)c5ccc([nH]5)c(-c5ccccc5)c5nc(c(-c6ccccc6)c6ccc3[nH]6)C=C5)C=C4)cc2)o1
REMARK SMILES IDX 21 1 20 2 18 3 19 4 17 6 14 7 15 8 75 9 16 10 13 11 12 12
REMARK SMILES IDX 1 13 2 14 3 15 4 18 5 19 6 20 11 21 7 22 9 23 8 24 10 25
REMARK SMILES IDX 22 26 23 27 24 28 25 29 26 31 27 32 28 33 74 34 29 35 73 36
REMARK SMILES IDX 30 37 31 38 32 39 67 40 33 41 72 42 66 43 68 44 34 45 71 46
REMARK SMILES IDX 65 47 64 48 35 50 57 51 42 52 56 53 43 54 46 55 55 56 69 57
REMARK SMILES IDX 44 58 45 59 54 61 70 62 47 63 36 64 37 65 41 66 38 67 40 68
REMARK SMILES IDX 39 69 58 70 59 71 63 72 60 73 62 74 61 75 48 76 49 77 53 78
REMARK SMILES IDX 50 79 52 80 51 81
REMARK H PARENT 20 5 3 16 12 17 24 30 68 49 46 60
REMARK Flexibility Score: inf
ROOT
ATOM      1  C   UNL A   1      35.855  20.418  24.957  1.00  0.00     0.118 C 
ENDROOT
BRANCH   1   2
ATOM      2  N   UNL A   1      34.717  19.588  25.296  1.00  0.00    -0.349 N 
ATOM      3  C   UNL A   1      33.367  19.781  25.099  1.00  0.00     0.286 C 
ATOM      4  O   UNL A   1      32.643  18.830  25.401  1.00  0.00    -0.266 OA
ATOM      5  H   UNL A   1      34.946  18.742  25.743  1.00  0.00     0.163 HD
BRANCH   3   6
ATOM      6  C   UNL A   1      32.854  21.025  24.556  1.00  0.00     0.191 A 
ATOM      7  C   UNL A   1      31.717  22.922  24.729  1.00  0.00     0.124 A 
ATOM      8  C   UNL A   1      32.156  22.847  23.425  1.00  0.00     0.048 A 
ATOM      9  O   UNL A   1      32.145  21.829  25.418  1.00  0.00    -0.454 OA
ATOM     10  C   UNL A   1      32.916  21.659  23.326  1.00  0.00     0.056 A 
BRANCH   7  11
ATOM     11  C   UNL A   1      30.906  23.907  25.492  1.00  0.00     0.193 C 
BRANCH  11  12
ATOM     12  N   UNL A   1      31.130  25.222  24.931  1.00  0.00    -0.331 N 
ATOM     13  O   UNL A   1      31.181  26.312  26.928  1.00  0.00    -0.249 OA
ATOM     14  C   UNL A   1      31.161  26.335  25.701  1.00  0.00     0.315 C 
ATOM     15  N   UNL A   1      31.140  27.529  25.068  1.00  0.00    -0.334 N 
ATOM     16  H   UNL A   1      31.279  28.304  25.659  1.00  0.00     0.165 HD
ATOM     17  H   UNL A   1      31.265  25.310  23.960  1.00  0.00     0.165 HD
BRANCH  15  18
ATOM     18  C   UNL A   1      30.949  27.866  23.675  1.00  0.00     0.153 C 
BRANCH  18  19
ATOM     19  C   UNL A   1      29.780  28.806  23.518  1.00  0.00    -0.026 A 
ATOM     20  C   UNL A   1      28.526  28.324  23.107  1.00  0.00     0.006 A 
ATOM     21  C   UNL A   1      29.935  30.182  23.736  1.00  0.00     0.044 A 
ATOM     22  C   UNL A   1      27.448  29.196  22.930  1.00  0.00     0.003 A 
ATOM     23  C   UNL A   1      28.854  31.041  23.556  1.00  0.00     0.123 A 
ATOM     24  C   UNL A   1      27.614  30.560  23.156  1.00  0.00     0.039 A 
ATOM     25  F   UNL A   1      29.016  32.353  23.771  1.00  0.00    -0.207 F 
ENDBRANCH  18  19
ENDBRANCH  15  18
ENDBRANCH  11  12
ENDBRANCH   7  11
ENDBRANCH   3   6
ENDBRANCH   1   2
BRANCH   1  26
ATOM     26  C   UNL A   1      37.132  19.593  24.809  1.00  0.00     0.042 C 
BRANCH  26  27
ATOM     27  C   UNL A   1      38.375  20.299  25.352  1.00  0.00     0.118 C 
BRANCH  27  28
ATOM     28  N   UNL A   1      39.472  19.370  25.588  1.00  0.00    -0.352 N 
ATOM     29  C   UNL A   1      40.760  19.598  26.003  1.00  0.00     0.251 C 
ATOM     30  H   UNL A   1      39.253  18.425  25.424  1.00  0.00     0.163 HD
ATOM     31  O   UNL A   1      41.585  18.691  25.929  1.00  0.00    -0.269 OA
BRANCH  29  32
ATOM     32  C   UNL A   1      41.172  20.917  26.532  1.00  0.00     0.039 A 
ATOM     33  C   UNL A   1      41.016  21.167  27.900  1.00  0.00     0.014 A 
ATOM     34  C   UNL A   1      41.645  21.926  25.689  1.00  0.00     0.014 A 
ATOM     35  C   UNL A   1      41.380  22.407  28.429  1.00  0.00     0.010 A 
ATOM     36  C   UNL A   1      42.065  23.142  26.228  1.00  0.00     0.010 A 
ATOM     37  C   UNL A   1      41.933  23.395  27.601  1.00  0.00    -0.014 A 
BRANCH  37  38
ATOM     38  C   UNL A   1      42.381  24.699  28.154  1.00  0.00     0.031 A 
ATOM     39  C   UNL A   1      41.391  25.808  28.385  1.00  0.00     0.074 A 
ATOM     40  C   UNL A   1      43.691  24.908  28.382  1.00  0.00     0.049 A 
ATOM     41  N   UNL A   1      41.607  27.036  28.788  1.00  0.00    -0.248 NA
ATOM     42  C   UNL A   1      39.978  25.506  28.108  1.00  0.00     0.031 C 
ATOM     43  C   UNL A   1      44.758  23.928  28.166  1.00  0.00     0.029 A 
ATOM     44  N   UNL A   1      44.351  26.022  28.837  1.00  0.00    -0.354 N 
ATOM     45  C   UNL A   1      40.365  27.657  28.788  1.00  0.00     0.074 A 
ATOM     46  C   UNL A   1      39.405  26.683  28.312  1.00  0.00     0.031 C 
ATOM     47  C   UNL A   1      45.934  24.476  28.505  1.00  0.00     0.029 A 
ATOM     48  C   UNL A   1      45.712  25.856  28.926  1.00  0.00     0.049 A 
ATOM     49  H   UNL A   1      43.894  26.859  29.078  1.00  0.00     0.167 HD
ATOM     50  C   UNL A   1      40.047  28.920  29.161  1.00  0.00     0.031 A 
ATOM     51  C   UNL A   1      46.676  26.720  29.295  1.00  0.00     0.031 A 
ATOM     52  C   UNL A   1      40.996  29.883  29.652  1.00  0.00     0.049 A 
ATOM     53  C   UNL A   1      46.298  28.115  29.704  1.00  0.00     0.074 A 
ATOM     54  C   UNL A   1      40.760  31.167  30.116  1.00  0.00     0.029 A 
ATOM     55  N   UNL A   1      42.362  29.670  29.742  1.00  0.00    -0.354 N 
ATOM     56  N   UNL A   1      45.110  28.666  29.758  1.00  0.00    -0.248 NA
ATOM     57  C   UNL A   1      47.395  29.004  30.113  1.00  0.00     0.031 C 
ATOM     58  C   UNL A   1      41.990  31.745  30.447  1.00  0.00     0.029 A 
ATOM     59  C   UNL A   1      42.986  30.805  30.233  1.00  0.00     0.049 A 
ATOM     60  H   UNL A   1      42.822  28.835  29.493  1.00  0.00     0.167 HD
ATOM     61  C   UNL A   1      45.313  29.956  30.231  1.00  0.00     0.074 A 
ATOM     62  C   UNL A   1      46.736  30.101  30.460  1.00  0.00     0.031 C 
ATOM     63  C   UNL A   1      44.402  30.933  30.456  1.00  0.00     0.031 A 
BRANCH  50  64
ATOM     64  C   UNL A   1      38.609  29.337  29.041  1.00  0.00    -0.014 A 
ATOM     65  C   UNL A   1      38.107  29.884  27.850  1.00  0.00     0.009 A 
ATOM     66  C   UNL A   1      37.734  29.142  30.121  1.00  0.00     0.009 A 
ATOM     67  C   UNL A   1      36.766  30.263  27.755  1.00  0.00     0.001 A 
ATOM     68  C   UNL A   1      36.387  29.496  30.014  1.00  0.00     0.001 A 
ATOM     69  C   UNL A   1      35.906  30.065  28.836  1.00  0.00     0.000 A 
ENDBRANCH  50  64
BRANCH  51  70
ATOM     70  C   UNL A   1      48.096  26.288  29.306  1.00  0.00    -0.014 A 
ATOM     71  C   UNL A   1      48.887  26.419  28.154  1.00  0.00     0.009 A 
ATOM     72  C   UNL A   1      48.668  25.740  30.464  1.00  0.00     0.009 A 
ATOM     73  C   UNL A   1      50.215  25.986  28.154  1.00  0.00     0.001 A 
ATOM     74  C   UNL A   1      50.004  25.333  30.469  1.00  0.00     0.001 A 
ATOM     75  C   UNL A   1      50.773  25.448  29.313  1.00  0.00     0.000 A 
ENDBRANCH  51  70
BRANCH  63  76
ATOM     76  C   UNL A   1      44.913  32.233  31.005  1.00  0.00    -0.014 A 
ATOM     77  C   UNL A   1      45.174  33.326  30.165  1.00  0.00     0.009 A 
ATOM     78  C   UNL A   1      45.101  32.376  32.388  1.00  0.00     0.009 A 
ATOM     79  C   UNL A   1      45.643  34.529  30.698  1.00  0.00     0.001 A 
ATOM     80  C   UNL A   1      45.545  33.587  32.921  1.00  0.00     0.001 A 
ATOM     81  C   UNL A   1      45.824  34.659  32.075  1.00  0.00     0.000 A 
ENDBRANCH  63  76
ENDBRANCH  37  38
ENDBRANCH  29  32
ENDBRANCH  27  28
ENDBRANCH  26  27
ENDBRANCH   1  26
TORSDOF 14
ENDMDL
MODEL 3
REMARK VINA RESULT:     -11.3      2.527      7.820
REMARK SMILES O=C(NCc1cccc(F)c1)NCc1ccc(C(=O)NCCCNC(=O)c2ccc(-c3c4nc(c(-c5ccccc5)c5ccc([nH]5)c(-c5ccccc5)c5nc(c(-c6ccccc6)c6ccc3[nH]6)C=C5)C=C4)cc2)o1
REMARK SMILES IDX 21 1 20 2 18 3 19 4 17 6 14 7 15 8 75 9 16 10 13 11 12 12
REMARK SMILES IDX 1 13 2 14 3 15 4 18 5 19 6 20 11 21 7 22 9 23 8 24 10 25
REMARK SMILES IDX 22 26 23 27 24 28 25 29 26 31 27 32 28 33 74 34 29 35 73 36
REMARK SMILES IDX 30 37 31 38 32 39 67 40 33 41 72 42 66 43 68 44 34 45 71 46
REMARK SMILES IDX 65 47 64 48 35 50 57 51 42 52 56 53 43 54 46 55 55 56 69 57
REMARK SMILES IDX 44 58 45 59 54 61 70 62 47 63 36 64 37 65 41 66 38 67 40 68
REMARK SMILES IDX 39 69 58 70 59 71 63 72 60 73 62 74 61 75 48 76 49 77 53 78
REMARK SMILES IDX 50 79 52 80 51 81
REMARK H PARENT 20 5 3 16 12 17 24 30 68 49 46 60
REMARK Flexibility Score: inf
ROOT
ATOM      1  C   UNL A   1      31.766  29.401  25.786  1.00  0.00     0.118 C 
ENDROOT
BRANCH   1   2
ATOM      2  N   UNL A   1      31.846  29.637  24.358  1.00  0.00    -0.349 N 
ATOM      3  C   UNL A   1      31.293  28.954  23.297  1.00  0.00     0.286 C 
ATOM      4  O   UNL A   1      31.451  29.471  22.190  1.00  0.00    -0.266 OA
ATOM      5  H   UNL A   1      32.387  30.418  24.103  1.00  0.00     0.163 HD
BRANCH   3   6
ATOM      6  C   UNL A   1      30.562  27.716  23.496  1.00  0.00     0.191 A 
ATOM      7  C   UNL A   1      30.427  25.502  23.549  1.00  0.00     0.124 A 
ATOM      8  C   UNL A   1      29.161  25.977  23.814  1.00  0.00     0.048 A 
ATOM      9  O   UNL A   1      31.278  26.549  23.366  1.00  0.00    -0.454 OA
ATOM     10  C   UNL A   1      29.257  27.388  23.822  1.00  0.00     0.056 A 
BRANCH   7  11
ATOM     11  C   UNL A   1      31.016  24.143  23.424  1.00  0.00     0.193 C 
BRANCH  11  12
ATOM     12  N   UNL A   1      32.454  24.250  23.543  1.00  0.00    -0.331 N 
ATOM     13  O   UNL A   1      32.928  22.692  21.954  1.00  0.00    -0.249 OA
ATOM     14  C   UNL A   1      33.293  23.443  22.852  1.00  0.00     0.315 C 
ATOM     15  N   UNL A   1      34.598  23.459  23.203  1.00  0.00    -0.334 N 
ATOM     16  H   UNL A   1      35.186  22.947  22.603  1.00  0.00     0.165 HD
ATOM     17  H   UNL A   1      32.833  24.931  24.145  1.00  0.00     0.165 HD
BRANCH  15  18
ATOM     18  C   UNL A   1      35.280  24.096  24.307  1.00  0.00     0.153 C 
BRANCH  18  19
ATOM     19  C   UNL A   1      36.387  23.211  24.822  1.00  0.00    -0.026 A 
ATOM     20  C   UNL A   1      37.411  23.743  25.625  1.00  0.00     0.006 A 
ATOM     21  C   UNL A   1      36.439  21.854  24.474  1.00  0.00     0.044 A 
ATOM     22  C   UNL A   1      38.456  22.933  26.079  1.00  0.00     0.003 A 
ATOM     23  C   UNL A   1      37.484  21.058  24.933  1.00  0.00     0.123 A 
ATOM     24  C   UNL A   1      38.491  21.585  25.731  1.00  0.00     0.039 A 
ATOM     25  F   UNL A   1      37.519  19.762  24.594  1.00  0.00    -0.207 F 
ENDBRANCH  18  19
ENDBRANCH  15  18
ENDBRANCH  11  12
ENDBRANCH   7  11
ENDBRANCH   3   6
ENDBRANCH   1   2
BRANCH   1  26
ATOM     26  C   UNL A   1      32.608  28.198  26.208  1.00  0.00     0.042 C 
BRANCH  26  27
ATOM     27  C   UNL A   1      33.671  28.541  27.252  1.00  0.00     0.118 C 
BRANCH  27  28
ATOM     28  N   UNL A   1      33.652  29.953  27.609  1.00  0.00    -0.352 N 
ATOM     29  C   UNL A   1      34.577  30.719  28.272  1.00  0.00     0.251 C 
ATOM     30  H   UNL A   1      32.842  30.438  27.328  1.00  0.00     0.163 HD
ATOM     31  O   UNL A   1      34.264  31.842  28.657  1.00  0.00    -0.269 OA
BRANCH  29  32
ATOM     32  C   UNL A   1      35.943  30.213  28.534  1.00  0.00     0.039 A 
ATOM     33  C   UNL A   1      36.877  30.238  27.492  1.00  0.00     0.014 A 
ATOM     34  C   UNL A   1      36.291  29.656  29.768  1.00  0.00     0.014 A 
ATOM     35  C   UNL A   1      38.170  29.752  27.701  1.00  0.00     0.010 A 
ATOM     36  C   UNL A   1      37.599  29.229  29.994  1.00  0.00     0.010 A 
ATOM     37  C   UNL A   1      38.549  29.269  28.963  1.00  0.00    -0.014 A 
BRANCH  37  38
ATOM     38  C   UNL A   1      39.935  28.803  29.222  1.00  0.00     0.031 A 
ATOM     39  C   UNL A   1      40.940  29.721  29.862  1.00  0.00     0.074 A 
ATOM     40  C   UNL A   1      40.308  27.573  28.819  1.00  0.00     0.049 A 
ATOM     41  N   UNL A   1      42.212  29.516  30.097  1.00  0.00    -0.248 NA
ATOM     42  C   UNL A   1      40.459  31.050  30.271  1.00  0.00     0.031 C 
ATOM     43  C   UNL A   1      39.440  26.598  28.155  1.00  0.00     0.029 A 
ATOM     44  N   UNL A   1      41.521  26.938  28.898  1.00  0.00    -0.354 N 
ATOM     45  C   UNL A   1      42.687  30.695  30.656  1.00  0.00     0.074 A 
ATOM     46  C   UNL A   1      41.576  31.623  30.693  1.00  0.00     0.031 C 
ATOM     47  C   UNL A   1      40.143  25.483  27.904  1.00  0.00     0.029 A 
ATOM     48  C   UNL A   1      41.518  25.676  28.354  1.00  0.00     0.049 A 
ATOM     49  H   UNL A   1      42.319  27.346  29.306  1.00  0.00     0.167 HD
ATOM     50  C   UNL A   1      43.932  30.979  31.109  1.00  0.00     0.031 A 
ATOM     51  C   UNL A   1      42.512  24.778  28.222  1.00  0.00     0.031 A 
ATOM     52  C   UNL A   1      45.032  30.052  31.090  1.00  0.00     0.049 A 
ATOM     53  C   UNL A   1      43.884  25.117  28.733  1.00  0.00     0.074 A 
ATOM     54  C   UNL A   1      46.314  30.225  31.587  1.00  0.00     0.029 A 
ATOM     55  N   UNL A   1      44.982  28.779  30.546  1.00  0.00    -0.354 N 
ATOM     56  N   UNL A   1      44.300  26.214  29.317  1.00  0.00    -0.248 NA
ATOM     57  C   UNL A   1      44.920  24.087  28.574  1.00  0.00     0.031 C 
ATOM     58  C   UNL A   1      47.052  29.071  31.304  1.00  0.00     0.029 A 
ATOM     59  C   UNL A   1      46.216  28.162  30.674  1.00  0.00     0.049 A 
ATOM     60  H   UNL A   1      44.187  28.373  30.130  1.00  0.00     0.167 HD
ATOM     61  C   UNL A   1      45.637  25.997  29.619  1.00  0.00     0.074 A 
ATOM     62  C   UNL A   1      45.960  24.660  29.165  1.00  0.00     0.031 C 
ATOM     63  C   UNL A   1      46.520  26.831  30.218  1.00  0.00     0.031 A 
BRANCH  50  64
ATOM     64  C   UNL A   1      44.173  32.357  31.656  1.00  0.00    -0.014 A 
ATOM     65  C   UNL A   1      44.612  33.402  30.828  1.00  0.00     0.009 A 
ATOM     66  C   UNL A   1      43.920  32.625  33.010  1.00  0.00     0.009 A 
ATOM     67  C   UNL A   1      44.827  34.678  31.353  1.00  0.00     0.001 A 
ATOM     68  C   UNL A   1      44.110  33.908  33.527  1.00  0.00     0.001 A 
ATOM     69  C   UNL A   1      44.572  34.931  32.701  1.00  0.00     0.000 A 
ENDBRANCH  50  64
BRANCH  51  70
ATOM     70  C   UNL A   1      42.245  23.463  27.587  1.00  0.00    -0.014 A 
ATOM     71  C   UNL A   1      41.757  22.392  28.352  1.00  0.00     0.009 A 
ATOM     72  C   UNL A   1      42.477  23.271  26.216  1.00  0.00     0.009 A 
ATOM     73  C   UNL A   1      41.532  21.146  27.761  1.00  0.00     0.001 A 
ATOM     74  C   UNL A   1      42.225  22.031  25.624  1.00  0.00     0.001 A 
ATOM     75  C   UNL A   1      41.762  20.969  26.398  1.00  0.00     0.000 A 
ENDBRANCH  51  70
BRANCH  63  76
ATOM     76  C   UNL A   1      47.909  26.310  30.447  1.00  0.00    -0.014 A 
ATOM     77  C   UNL A   1      48.881  26.361  29.435  1.00  0.00     0.009 A 
ATOM     78  C   UNL A   1      48.259  25.794  31.704  1.00  0.00     0.009 A 
ATOM     79  C   UNL A   1      50.169  25.876  29.672  1.00  0.00     0.001 A 
ATOM     80  C   UNL A   1      49.555  25.334  31.945  1.00  0.00     0.001 A 
ATOM     81  C   UNL A   1      50.506  25.367  30.926  1.00  0.00     0.000 A 
ENDBRANCH  63  76
ENDBRANCH  37  38
ENDBRANCH  29  32
ENDBRANCH  27  28
ENDBRANCH  26  27
ENDBRANCH   1  26
TORSDOF 14
ENDMDL
