MODEL 1
REMARK VINA RESULT:     -11.0      0.000      0.000
REMARK SMILES Cc1ccccc1C[C@H](CCSc1ccccc1)C(=O)NCCCNC(=O)c1ccc(-c2c3nc(c(-c4ccccc4)c4ccc([nH]4)c(-c4ccccc4)c4nc(c(-c5ccccc5)c5ccc2[nH]5)C=C4)C=C3)cc1
REMARK SMILES IDX 22 1 21 2 19 3 20 4 9 6 8 7 7 8 1 9 2 10 3 11 4 12 6 13 5 14
REMARK SMILES IDX 10 15 11 16 12 17 13 18 14 19 18 20 15 21 17 22 16 23 23 24
REMARK SMILES IDX 24 25 25 26 26 27 27 29 28 30 29 31 75 32 30 33 74 34 31 35
REMARK SMILES IDX 32 36 33 37 68 38 34 39 73 40 67 41 69 42 35 43 72 44 66 45
REMARK SMILES IDX 65 46 36 48 58 49 43 50 57 51 44 52 47 53 56 54 70 55 45 56
REMARK SMILES IDX 46 57 55 59 71 60 48 61 37 62 38 63 42 64 39 65 41 66 40 67
REMARK SMILES IDX 59 68 60 69 64 70 61 71 63 72 62 73 49 74 50 75 54 76 51 77
REMARK SMILES IDX 53 78 52 79
REMARK H PARENT 21 5 25 28 69 47 47 58
REMARK Flexibility Score: inf
ROOT
ATOM      1  C   UNL A   1      33.313  29.119  25.096  1.00  0.00     0.117 C 
ENDROOT
BRANCH   1   2
ATOM      2  N   UNL A   1      33.930  29.072  23.781  1.00  0.00    -0.356 N 
ATOM      3  C   UNL A   1      33.727  28.200  22.756  1.00  0.00     0.223 C 
ATOM      4  O   UNL A   1      34.328  28.413  21.700  1.00  0.00    -0.275 OA
ATOM      5  H   UNL A   1      34.594  29.777  23.606  1.00  0.00     0.163 HD
BRANCH   3   6
ATOM      6  C   UNL A   1      32.845  26.972  22.922  1.00  0.00     0.083 C 
BRANCH   6   7
ATOM      7  C   UNL A   1      33.442  25.634  22.420  1.00  0.00     0.049 C 
BRANCH   7   8
ATOM      8  C   UNL A   1      33.941  24.638  23.460  1.00  0.00    -0.044 A 
ATOM      9  C   UNL A   1      32.954  22.581  22.248  1.00  0.00     0.044 C 
ATOM     10  C   UNL A   1      33.692  23.251  23.376  1.00  0.00    -0.048 A 
ATOM     11  C   UNL A   1      34.243  22.388  24.347  1.00  0.00     0.004 A 
ATOM     12  C   UNL A   1      35.035  22.868  25.385  1.00  0.00     0.000 A 
ATOM     13  C   UNL A   1      34.776  25.088  24.503  1.00  0.00     0.004 A 
ATOM     14  C   UNL A   1      35.309  24.222  25.459  1.00  0.00     0.000 A 
ENDBRANCH   7   8
ENDBRANCH   6   7
BRANCH   6  15
ATOM     15  C   UNL A   1      31.446  27.335  22.359  1.00  0.00     0.025 C 
BRANCH  15  16
ATOM     16  C   UNL A   1      30.375  27.809  23.343  1.00  0.00     0.076 C 
BRANCH  16  17
ATOM     17  S   UNL A   1      29.255  26.488  23.921  1.00  0.00    -0.126 SA
BRANCH  17  18
ATOM     18  C   UNL A   1      30.321  25.544  24.988  1.00  0.00     0.007 A 
ATOM     19  C   UNL A   1      31.101  26.193  25.949  1.00  0.00     0.015 A 
ATOM     20  C   UNL A   1      30.314  24.147  24.951  1.00  0.00     0.015 A 
ATOM     21  C   UNL A   1      31.923  25.466  26.809  1.00  0.00     0.001 A 
ATOM     22  C   UNL A   1      31.099  23.415  25.847  1.00  0.00     0.001 A 
ATOM     23  C   UNL A   1      31.913  24.075  26.767  1.00  0.00     0.000 A 
ENDBRANCH  17  18
ENDBRANCH  16  17
ENDBRANCH  15  16
ENDBRANCH   6  15
ENDBRANCH   3   6
ENDBRANCH   1   2
BRANCH   1  24
ATOM     24  C   UNL A   1      34.257  28.679  26.195  1.00  0.00     0.042 C 
BRANCH  24  25
ATOM     25  C   UNL A   1      34.110  29.551  27.417  1.00  0.00     0.118 C 
BRANCH  25  26
ATOM     26  N   UNL A   1      33.426  30.811  27.188  1.00  0.00    -0.352 N 
ATOM     27  C   UNL A   1      33.601  32.043  27.795  1.00  0.00     0.251 C 
ATOM     28  H   UNL A   1      32.729  30.784  26.493  1.00  0.00     0.163 HD
ATOM     29  O   UNL A   1      32.812  32.939  27.536  1.00  0.00    -0.269 OA
BRANCH  27  30
ATOM     30  C   UNL A   1      34.823  32.341  28.599  1.00  0.00     0.039 A 
ATOM     31  C   UNL A   1      35.863  33.037  27.965  1.00  0.00     0.014 A 
ATOM     32  C   UNL A   1      35.077  31.698  29.799  1.00  0.00     0.014 A 
ATOM     33  C   UNL A   1      37.175  32.837  28.381  1.00  0.00     0.010 A 
ATOM     34  C   UNL A   1      36.360  31.317  30.076  1.00  0.00     0.010 A 
ATOM     35  C   UNL A   1      37.407  31.870  29.346  1.00  0.00    -0.014 A 
BRANCH  35  36
ATOM     36  C   UNL A   1      38.701  31.370  29.752  1.00  0.00     0.031 A 
ATOM     37  C   UNL A   1      39.206  30.161  29.082  1.00  0.00     0.074 A 
ATOM     38  C   UNL A   1      39.477  32.148  30.532  1.00  0.00     0.049 A 
ATOM     39  N   UNL A   1      40.174  29.450  29.531  1.00  0.00    -0.248 NA
ATOM     40  C   UNL A   1      38.628  29.633  27.846  1.00  0.00     0.031 C 
ATOM     41  C   UNL A   1      40.912  32.044  30.769  1.00  0.00     0.029 A 
ATOM     42  N   UNL A   1      39.045  33.104  31.451  1.00  0.00    -0.354 N 
ATOM     43  C   UNL A   1      40.542  28.585  28.529  1.00  0.00     0.074 A 
ATOM     44  C   UNL A   1      39.506  28.678  27.532  1.00  0.00     0.031 C 
ATOM     45  C   UNL A   1      41.204  32.665  31.926  1.00  0.00     0.029 A 
ATOM     46  C   UNL A   1      39.941  33.047  32.537  1.00  0.00     0.049 A 
ATOM     47  H   UNL A   1      38.267  33.701  31.360  1.00  0.00     0.167 HD
ATOM     48  C   UNL A   1      41.762  27.993  28.600  1.00  0.00     0.031 A 
ATOM     49  C   UNL A   1      39.501  32.601  33.753  1.00  0.00     0.031 A 
ATOM     50  C   UNL A   1      42.445  28.361  29.837  1.00  0.00     0.049 A 
ATOM     51  C   UNL A   1      40.157  31.304  34.183  1.00  0.00     0.074 A 
ATOM     52  C   UNL A   1      43.411  29.307  30.138  1.00  0.00     0.029 A 
ATOM     53  N   UNL A   1      41.874  27.981  31.044  1.00  0.00    -0.354 N 
ATOM     54  N   UNL A   1      40.768  30.484  33.369  1.00  0.00    -0.248 NA
ATOM     55  C   UNL A   1      40.183  30.828  35.562  1.00  0.00     0.031 C 
ATOM     56  C   UNL A   1      43.376  29.534  31.541  1.00  0.00     0.029 A 
ATOM     57  C   UNL A   1      42.414  28.703  32.089  1.00  0.00     0.049 A 
ATOM     58  H   UNL A   1      41.179  27.292  31.141  1.00  0.00     0.167 HD
ATOM     59  C   UNL A   1      41.280  29.422  34.069  1.00  0.00     0.074 A 
ATOM     60  C   UNL A   1      40.882  29.684  35.442  1.00  0.00     0.031 C 
ATOM     61  C   UNL A   1      41.983  28.422  33.452  1.00  0.00     0.031 A 
BRANCH  48  62
ATOM     62  C   UNL A   1      42.432  27.300  27.447  1.00  0.00    -0.014 A 
ATOM     63  C   UNL A   1      42.581  25.903  27.483  1.00  0.00     0.009 A 
ATOM     64  C   UNL A   1      42.961  27.953  26.320  1.00  0.00     0.009 A 
ATOM     65  C   UNL A   1      43.274  25.204  26.488  1.00  0.00     0.001 A 
ATOM     66  C   UNL A   1      43.684  27.264  25.336  1.00  0.00     0.001 A 
ATOM     67  C   UNL A   1      43.844  25.888  25.424  1.00  0.00     0.000 A 
ENDBRANCH  48  62
BRANCH  49  68
ATOM     68  C   UNL A   1      38.089  33.010  34.027  1.00  0.00    -0.014 A 
ATOM     69  C   UNL A   1      37.800  34.393  34.019  1.00  0.00     0.009 A 
ATOM     70  C   UNL A   1      37.031  32.110  33.830  1.00  0.00     0.009 A 
ATOM     71  C   UNL A   1      36.531  34.861  33.661  1.00  0.00     0.001 A 
ATOM     72  C   UNL A   1      35.754  32.587  33.494  1.00  0.00     0.001 A 
ATOM     73  C   UNL A   1      35.519  33.955  33.360  1.00  0.00     0.000 A 
ENDBRANCH  49  68
BRANCH  61  74
ATOM     74  C   UNL A   1      42.383  27.078  34.031  1.00  0.00    -0.014 A 
ATOM     75  C   UNL A   1      43.633  26.472  33.878  1.00  0.00     0.009 A 
ATOM     76  C   UNL A   1      41.479  26.421  34.907  1.00  0.00     0.009 A 
ATOM     77  C   UNL A   1      43.955  25.279  34.547  1.00  0.00     0.001 A 
ATOM     78  C   UNL A   1      41.814  25.268  35.619  1.00  0.00     0.001 A 
ATOM     79  C   UNL A   1      43.055  24.690  35.431  1.00  0.00     0.000 A 
ENDBRANCH  61  74
ENDBRANCH  35  36
ENDBRANCH  27  30
ENDBRANCH  25  26
ENDBRANCH  24  25
ENDBRANCH   1  24
TORSDOF 16
ENDMDL
MODEL 2
REMARK VINA RESULT:     -10.9      1.839      3.098
REMARK SMILES Cc1ccccc1C[C@H](CCSc1ccccc1)C(=O)NCCCNC(=O)c1ccc(-c2c3nc(c(-c4ccccc4)c4ccc([nH]4)c(-c4ccccc4)c4nc(c(-c5ccccc5)c5ccc2[nH]5)C=C4)C=C3)cc1
REMARK SMILES IDX 22 1 21 2 19 3 20 4 9 6 8 7 7 8 1 9 2 10 3 11 4 12 6 13 5 14
REMARK SMILES IDX 10 15 11 16 12 17 13 18 14 19 18 20 15 21 17 22 16 23 23 24
REMARK SMILES IDX 24 25 25 26 26 27 27 29 28 30 29 31 75 32 30 33 74 34 31 35
REMARK SMILES IDX 32 36 33 37 68 38 34 39 73 40 67 41 69 42 35 43 72 44 66 45
REMARK SMILES IDX 65 46 36 48 58 49 43 50 57 51 44 52 47 53 56 54 70 55 45 56
REMARK SMILES IDX 46 57 55 59 71 60 48 61 37 62 38 63 42 64 39 65 41 66 40 67
REMARK SMILES IDX 59 68 60 69 64 70 61 71 63 72 62 73 49 74 50 75 54 76 51 77
REMARK SMILES IDX 53 78 52 79
REMARK H PARENT 21 5 25 28 69 47 47 58
REMARK Flexibility Score: inf
ROOT
ATOM      1  C   UNL A   1      31.463  29.923  25.709  1.00  0.00     0.117 C 
ENDROOT
BRANCH   1   2
ATOM      2  N   UNL A   1      31.058  30.048  24.320  1.00  0.00    -0.356 N 
ATOM      3  C   UNL A   1      31.014  29.106  23.339  1.00  0.00     0.223 C 
ATOM      4  O   UNL A   1      30.560  29.447  22.243  1.00  0.00    -0.275 OA
ATOM      5  H   UNL A   1      30.773  30.950  24.048  1.00  0.00     0.163 HD
BRANCH   3   6
ATOM      6  C   UNL A   1      31.561  27.704  23.560  1.00  0.00     0.083 C 
BRANCH   6   7
ATOM      7  C   UNL A   1      33.046  27.487  23.178  1.00  0.00     0.049 C 
BRANCH   7   8
ATOM      8  C   UNL A   1      33.700  26.168  23.572  1.00  0.00    -0.044 A 
ATOM      9  C   UNL A   1      33.996  26.831  26.051  1.00  0.00     0.044 C 
ATOM     10  C   UNL A   1      34.144  25.893  24.884  1.00  0.00    -0.048 A 
ATOM     11  C   UNL A   1      34.682  24.623  25.181  1.00  0.00     0.004 A 
ATOM     12  C   UNL A   1      34.779  23.626  24.215  1.00  0.00     0.000 A 
ATOM     13  C   UNL A   1      33.779  25.126  22.625  1.00  0.00     0.004 A 
ATOM     14  C   UNL A   1      34.318  23.876  22.935  1.00  0.00     0.000 A 
ENDBRANCH   7   8
ENDBRANCH   6   7
BRANCH   6  15
ATOM     15  C   UNL A   1      30.553  26.714  22.919  1.00  0.00     0.025 C 
BRANCH  15  16
ATOM     16  C   UNL A   1      29.694  25.857  23.851  1.00  0.00     0.076 C 
BRANCH  16  17
ATOM     17  S   UNL A   1      30.223  25.896  25.598  1.00  0.00    -0.126 SA
BRANCH  17  18
ATOM     18  C   UNL A   1      30.976  24.296  25.790  1.00  0.00     0.007 A 
ATOM     19  C   UNL A   1      31.006  23.404  24.715  1.00  0.00     0.015 A 
ATOM     20  C   UNL A   1      31.633  23.953  26.975  1.00  0.00     0.015 A 
ATOM     21  C   UNL A   1      31.615  22.155  24.842  1.00  0.00     0.001 A 
ATOM     22  C   UNL A   1      32.288  22.723  27.087  1.00  0.00     0.001 A 
ATOM     23  C   UNL A   1      32.267  21.820  26.025  1.00  0.00     0.000 A 
ENDBRANCH  17  18
ENDBRANCH  16  17
ENDBRANCH  15  16
ENDBRANCH   6  15
ENDBRANCH   3   6
ENDBRANCH   1   2
BRANCH   1  24
ATOM     24  C   UNL A   1      32.955  30.110  25.898  1.00  0.00     0.042 C 
BRANCH  24  25
ATOM     25  C   UNL A   1      33.317  30.141  27.361  1.00  0.00     0.118 C 
BRANCH  25  26
ATOM     26  N   UNL A   1      34.081  31.304  27.776  1.00  0.00    -0.352 N 
ATOM     27  C   UNL A   1      35.314  31.383  28.401  1.00  0.00     0.251 C 
ATOM     28  H   UNL A   1      33.656  32.170  27.582  1.00  0.00     0.163 HD
ATOM     29  O   UNL A   1      35.706  32.476  28.782  1.00  0.00    -0.269 OA
BRANCH  27  30
ATOM     30  C   UNL A   1      36.233  30.208  28.447  1.00  0.00     0.039 A 
ATOM     31  C   UNL A   1      36.384  29.550  29.676  1.00  0.00     0.014 A 
ATOM     32  C   UNL A   1      37.144  29.958  27.433  1.00  0.00     0.014 A 
ATOM     33  C   UNL A   1      37.579  28.897  29.962  1.00  0.00     0.010 A 
ATOM     34  C   UNL A   1      38.394  29.522  27.773  1.00  0.00     0.010 A 
ATOM     35  C   UNL A   1      38.615  29.016  29.049  1.00  0.00    -0.014 A 
BRANCH  35  36
ATOM     36  C   UNL A   1      39.982  28.597  29.259  1.00  0.00     0.031 A 
ATOM     37  C   UNL A   1      40.385  27.288  28.722  1.00  0.00     0.074 A 
ATOM     38  C   UNL A   1      40.872  29.503  29.712  1.00  0.00     0.049 A 
ATOM     39  N   UNL A   1      41.450  26.669  29.078  1.00  0.00    -0.248 NA
ATOM     40  C   UNL A   1      39.588  26.545  27.746  1.00  0.00     0.031 C 
ATOM     41  C   UNL A   1      42.328  29.444  29.661  1.00  0.00     0.029 A 
ATOM     42  N   UNL A   1      40.601  30.609  30.518  1.00  0.00    -0.354 N 
ATOM     43  C   UNL A   1      41.638  25.638  28.190  1.00  0.00     0.074 A 
ATOM     44  C   UNL A   1      40.418  25.550  27.429  1.00  0.00     0.031 C 
ATOM     45  C   UNL A   1      42.826  30.263  30.604  1.00  0.00     0.029 A 
ATOM     46  C   UNL A   1      41.700  30.748  31.387  1.00  0.00     0.049 A 
ATOM     47  H   UNL A   1      39.798  31.180  30.486  1.00  0.00     0.167 HD
ATOM     48  C   UNL A   1      42.869  25.069  28.110  1.00  0.00     0.031 A 
ATOM     49  C   UNL A   1      41.535  30.528  32.726  1.00  0.00     0.031 A 
ATOM     50  C   UNL A   1      43.775  25.653  29.095  1.00  0.00     0.049 A 
ATOM     51  C   UNL A   1      42.313  29.330  33.233  1.00  0.00     0.074 A 
ATOM     52  C   UNL A   1      44.746  26.638  29.017  1.00  0.00     0.029 A 
ATOM     53  N   UNL A   1      43.477  25.497  30.441  1.00  0.00    -0.354 N 
ATOM     54  N   UNL A   1      42.775  28.377  32.467  1.00  0.00    -0.248 NA
ATOM     55  C   UNL A   1      42.638  29.110  34.638  1.00  0.00     0.031 C 
ATOM     56  C   UNL A   1      44.989  27.114  30.335  1.00  0.00     0.029 A 
ATOM     57  C   UNL A   1      44.192  26.396  31.207  1.00  0.00     0.049 A 
ATOM     58  H   UNL A   1      42.842  24.836  30.800  1.00  0.00     0.167 HD
ATOM     59  C   UNL A   1      43.458  27.458  33.222  1.00  0.00     0.074 A 
ATOM     60  C   UNL A   1      43.340  27.964  34.579  1.00  0.00     0.031 C 
ATOM     61  C   UNL A   1      44.058  26.365  32.658  1.00  0.00     0.031 A 
BRANCH  48  62
ATOM     62  C   UNL A   1      43.315  24.180  26.983  1.00  0.00    -0.014 A 
ATOM     63  C   UNL A   1      43.810  24.766  25.806  1.00  0.00     0.009 A 
ATOM     64  C   UNL A   1      43.250  22.776  26.999  1.00  0.00     0.009 A 
ATOM     65  C   UNL A   1      44.158  24.003  24.685  1.00  0.00     0.001 A 
ATOM     66  C   UNL A   1      43.564  22.007  25.870  1.00  0.00     0.001 A 
ATOM     67  C   UNL A   1      44.015  22.623  24.710  1.00  0.00     0.000 A 
ENDBRANCH  48  62
BRANCH  49  68
ATOM     68  C   UNL A   1      40.194  30.980  33.211  1.00  0.00    -0.014 A 
ATOM     69  C   UNL A   1      39.814  32.310  32.924  1.00  0.00     0.009 A 
ATOM     70  C   UNL A   1      39.185  30.049  33.498  1.00  0.00     0.009 A 
ATOM     71  C   UNL A   1      38.467  32.656  32.767  1.00  0.00     0.001 A 
ATOM     72  C   UNL A   1      37.835  30.409  33.361  1.00  0.00     0.001 A 
ATOM     73  C   UNL A   1      37.480  31.692  32.947  1.00  0.00     0.000 A 
ENDBRANCH  49  68
BRANCH  61  74
ATOM     74  C   UNL A   1      44.618  25.146  33.369  1.00  0.00    -0.014 A 
ATOM     75  C   UNL A   1      43.899  23.988  33.677  1.00  0.00     0.009 A 
ATOM     76  C   UNL A   1      46.011  25.101  33.640  1.00  0.00     0.009 A 
ATOM     77  C   UNL A   1      44.528  22.861  34.232  1.00  0.00     0.001 A 
ATOM     78  C   UNL A   1      46.652  23.965  34.137  1.00  0.00     0.001 A 
ATOM     79  C   UNL A   1      45.904  22.843  34.443  1.00  0.00     0.000 A 
ENDBRANCH  61  74
ENDBRANCH  35  36
ENDBRANCH  27  30
ENDBRANCH  25  26
ENDBRANCH  24  25
ENDBRANCH   1  24
TORSDOF 16
ENDMDL
MODEL 3
REMARK VINA RESULT:     -10.9      1.228      2.506
REMARK SMILES Cc1ccccc1C[C@H](CCSc1ccccc1)C(=O)NCCCNC(=O)c1ccc(-c2c3nc(c(-c4ccccc4)c4ccc([nH]4)c(-c4ccccc4)c4nc(c(-c5ccccc5)c5ccc2[nH]5)C=C4)C=C3)cc1
REMARK SMILES IDX 22 1 21 2 19 3 20 4 9 6 8 7 7 8 1 9 2 10 3 11 4 12 6 13 5 14
REMARK SMILES IDX 10 15 11 16 12 17 13 18 14 19 18 20 15 21 17 22 16 23 23 24
REMARK SMILES IDX 24 25 25 26 26 27 27 29 28 30 29 31 75 32 30 33 74 34 31 35
REMARK SMILES IDX 32 36 33 37 68 38 34 39 73 40 67 41 69 42 35 43 72 44 66 45
REMARK SMILES IDX 65 46 36 48 58 49 43 50 57 51 44 52 47 53 56 54 70 55 45 56
REMARK SMILES IDX 46 57 55 59 71 60 48 61 37 62 38 63 42 64 39 65 41 66 40 67
REMARK SMILES IDX 59 68 60 69 64 70 61 71 63 72 62 73 49 74 50 75 54 76 51 77
REMARK SMILES IDX 53 78 52 79
REMARK H PARENT 21 5 25 28 69 47 47 58
REMARK Flexibility Score: inf
ROOT
ATOM      1  C   UNL A   1      31.839  30.803  26.476  1.00  0.00     0.117 C 
ENDROOT
BRANCH   1   2
ATOM      2  N   UNL A   1      33.151  30.323  26.874  1.00  0.00    -0.356 N 
ATOM      3  C   UNL A   1      33.814  29.194  26.503  1.00  0.00     0.223 C 
ATOM      4  O   UNL A   1      34.961  29.042  26.929  1.00  0.00    -0.275 OA
ATOM      5  H   UNL A   1      33.632  30.902  27.508  1.00  0.00     0.163 HD
BRANCH   3   6
ATOM      6  C   UNL A   1      33.147  28.127  25.649  1.00  0.00     0.083 C 
BRANCH   6   7
ATOM      7  C   UNL A   1      33.610  26.670  25.899  1.00  0.00     0.049 C 
BRANCH   7   8
ATOM      8  C   UNL A   1      32.539  25.600  26.077  1.00  0.00    -0.044 A 
ATOM      9  C   UNL A   1      34.233  23.709  26.559  1.00  0.00     0.044 C 
ATOM     10  C   UNL A   1      32.842  24.250  26.359  1.00  0.00    -0.048 A 
ATOM     11  C   UNL A   1      31.791  23.334  26.572  1.00  0.00     0.004 A 
ATOM     12  C   UNL A   1      30.457  23.727  26.520  1.00  0.00     0.000 A 
ATOM     13  C   UNL A   1      31.180  25.974  26.066  1.00  0.00     0.004 A 
ATOM     14  C   UNL A   1      30.151  25.054  26.274  1.00  0.00     0.000 A 
ENDBRANCH   7   8
ENDBRANCH   6   7
BRANCH   6  15
ATOM     15  C   UNL A   1      33.218  28.609  24.177  1.00  0.00     0.025 C 
BRANCH  15  16
ATOM     16  C   UNL A   1      33.664  27.606  23.111  1.00  0.00     0.076 C 
BRANCH  16  17
ATOM     17  S   UNL A   1      32.287  26.779  22.242  1.00  0.00    -0.126 SA
BRANCH  17  18
ATOM     18  C   UNL A   1      32.572  25.070  22.643  1.00  0.00     0.007 A 
ATOM     19  C   UNL A   1      31.491  24.199  22.802  1.00  0.00     0.015 A 
ATOM     20  C   UNL A   1      33.871  24.558  22.701  1.00  0.00     0.015 A 
ATOM     21  C   UNL A   1      31.699  22.851  23.093  1.00  0.00     0.001 A 
ATOM     22  C   UNL A   1      34.081  23.196  22.941  1.00  0.00     0.001 A 
ATOM     23  C   UNL A   1      32.996  22.346  23.149  1.00  0.00     0.000 A 
ENDBRANCH  17  18
ENDBRANCH  16  17
ENDBRANCH  15  16
ENDBRANCH   6  15
ENDBRANCH   3   6
ENDBRANCH   1   2
BRANCH   1  24
ATOM     24  C   UNL A   1      31.436  32.066  27.209  1.00  0.00     0.042 C 
BRANCH  24  25
ATOM     25  C   UNL A   1      32.273  33.240  26.766  1.00  0.00     0.118 C 
BRANCH  25  26
ATOM     26  N   UNL A   1      32.694  34.126  27.837  1.00  0.00    -0.352 N 
ATOM     27  C   UNL A   1      33.715  33.983  28.761  1.00  0.00     0.251 C 
ATOM     28  H   UNL A   1      32.173  34.957  27.917  1.00  0.00     0.163 HD
ATOM     29  O   UNL A   1      33.801  34.800  29.666  1.00  0.00    -0.269 OA
BRANCH  27  30
ATOM     30  C   UNL A   1      34.799  32.977  28.565  1.00  0.00     0.039 A 
ATOM     31  C   UNL A   1      34.733  31.796  29.319  1.00  0.00     0.014 A 
ATOM     32  C   UNL A   1      35.985  33.302  27.926  1.00  0.00     0.014 A 
ATOM     33  C   UNL A   1      35.907  31.130  29.654  1.00  0.00     0.010 A 
ATOM     34  C   UNL A   1      37.153  32.798  28.425  1.00  0.00     0.010 A 
ATOM     35  C   UNL A   1      37.110  31.727  29.311  1.00  0.00    -0.014 A 
BRANCH  35  36
ATOM     36  C   UNL A   1      38.421  31.307  29.750  1.00  0.00     0.031 A 
ATOM     37  C   UNL A   1      39.009  30.122  29.108  1.00  0.00     0.074 A 
ATOM     38  C   UNL A   1      39.134  32.138  30.537  1.00  0.00     0.049 A 
ATOM     39  N   UNL A   1      40.006  29.473  29.587  1.00  0.00    -0.248 NA
ATOM     40  C   UNL A   1      38.490  29.546  27.867  1.00  0.00     0.031 C 
ATOM     41  C   UNL A   1      40.567  32.120  30.806  1.00  0.00     0.029 A 
ATOM     42  N   UNL A   1      38.628  33.079  31.434  1.00  0.00    -0.354 N 
ATOM     43  C   UNL A   1      40.445  28.618  28.605  1.00  0.00     0.074 A 
ATOM     44  C   UNL A   1      39.428  28.639  27.584  1.00  0.00     0.031 C 
ATOM     45  C   UNL A   1      40.797  32.770  31.960  1.00  0.00     0.029 A 
ATOM     46  C   UNL A   1      39.501  33.087  32.539  1.00  0.00     0.049 A 
ATOM     47  H   UNL A   1      37.819  33.629  31.317  1.00  0.00     0.167 HD
ATOM     48  C   UNL A   1      41.695  28.099  28.710  1.00  0.00     0.031 A 
ATOM     49  C   UNL A   1      39.061  32.631  33.751  1.00  0.00     0.031 A 
ATOM     50  C   UNL A   1      42.328  28.520  29.957  1.00  0.00     0.049 A 
ATOM     51  C   UNL A   1      39.781  31.379  34.212  1.00  0.00     0.074 A 
ATOM     52  C   UNL A   1      43.232  29.524  30.265  1.00  0.00     0.029 A 
ATOM     53  N   UNL A   1      41.754  28.123  31.156  1.00  0.00    -0.354 N 
ATOM     54  N   UNL A   1      40.455  30.586  33.423  1.00  0.00    -0.248 NA
ATOM     55  C   UNL A   1      39.803  30.922  35.598  1.00  0.00     0.031 C 
ATOM     56  C   UNL A   1      43.153  29.765  31.664  1.00  0.00     0.029 A 
ATOM     57  C   UNL A   1      42.229  28.888  32.202  1.00  0.00     0.049 A 
ATOM     58  H   UNL A   1      41.097  27.396  31.247  1.00  0.00     0.167 HD
ATOM     59  C   UNL A   1      41.011  29.563  34.148  1.00  0.00     0.074 A 
ATOM     60  C   UNL A   1      40.569  29.819  35.508  1.00  0.00     0.031 C 
ATOM     61  C   UNL A   1      41.783  28.599  33.560  1.00  0.00     0.031 A 
BRANCH  48  62
ATOM     62  C   UNL A   1      42.429  27.431  27.581  1.00  0.00    -0.014 A 
ATOM     63  C   UNL A   1      42.565  28.112  26.358  1.00  0.00     0.009 A 
ATOM     64  C   UNL A   1      42.980  26.140  27.637  1.00  0.00     0.009 A 
ATOM     65  C   UNL A   1      43.156  27.516  25.238  1.00  0.00     0.001 A 
ATOM     66  C   UNL A   1      43.543  25.524  26.511  1.00  0.00     0.001 A 
ATOM     67  C   UNL A   1      43.627  26.213  25.309  1.00  0.00     0.000 A 
ENDBRANCH  48  62
BRANCH  49  68
ATOM     68  C   UNL A   1      37.622  32.961  33.989  1.00  0.00    -0.014 A 
ATOM     69  C   UNL A   1      37.303  34.308  34.276  1.00  0.00     0.009 A 
ATOM     70  C   UNL A   1      36.605  32.129  33.499  1.00  0.00     0.009 A 
ATOM     71  C   UNL A   1      36.058  34.843  33.928  1.00  0.00     0.001 A 
ATOM     72  C   UNL A   1      35.350  32.667  33.174  1.00  0.00     0.001 A 
ATOM     73  C   UNL A   1      35.095  34.029  33.340  1.00  0.00     0.000 A 
ENDBRANCH  49  68
BRANCH  61  74
ATOM     74  C   UNL A   1      42.248  27.287  34.165  1.00  0.00    -0.014 A 
ATOM     75  C   UNL A   1      41.488  26.472  35.008  1.00  0.00     0.009 A 
ATOM     76  C   UNL A   1      43.501  26.758  33.758  1.00  0.00     0.009 A 
ATOM     77  C   UNL A   1      41.954  25.215  35.428  1.00  0.00     0.001 A 
ATOM     78  C   UNL A   1      43.945  25.487  34.124  1.00  0.00     0.001 A 
ATOM     79  C   UNL A   1      43.171  24.716  34.971  1.00  0.00     0.000 A 
ENDBRANCH  61  74
ENDBRANCH  35  36
ENDBRANCH  27  30
ENDBRANCH  25  26
ENDBRANCH  24  25
ENDBRANCH   1  24
TORSDOF 16
ENDMDL
