MODEL 1
REMARK VINA RESULT:     -11.0      0.000      0.000
REMARK SMILES CC(C)(C)OC(=O)NC[C@H]1CC[C@@H](C(=O)NCCCNC(=O)c2ccc(-c3c4nc(c(-c5ccccc5)c5ccc([nH]5)c(-c5ccccc5)c5nc(c(-c6ccccc6)c6ccc3[nH]6)C=C5)C=C4)cc2)CC1
REMARK SMILES IDX 17 1 16 2 14 3 15 4 13 6 10 7 11 8 72 9 12 10 71 11 9 12
REMARK SMILES IDX 8 13 6 14 7 15 5 17 2 18 1 19 3 20 4 21 18 22 19 23 20 24
REMARK SMILES IDX 21 25 22 27 23 28 24 29 70 30 25 31 69 32 26 33 27 34 28 35
REMARK SMILES IDX 63 36 29 37 68 38 62 39 64 40 30 41 67 42 61 43 60 44 31 46
REMARK SMILES IDX 53 47 38 48 52 49 39 50 42 51 51 52 65 53 40 54 41 55 50 57
REMARK SMILES IDX 66 58 43 59 32 60 33 61 37 62 34 63 36 64 35 65 54 66 55 67
REMARK SMILES IDX 59 68 56 69 58 70 57 71 44 72 45 73 49 74 46 75 48 76 47 77
REMARK H PARENT 16 5 8 16 20 26 64 45 42 56
REMARK Flexibility Score: inf
ROOT
ATOM      1  C   UNL A   1      31.451  26.972  26.299  1.00  0.00     0.117 C 
ENDROOT
BRANCH   1   2
ATOM      2  N   UNL A   1      31.345  25.623  26.783  1.00  0.00    -0.356 N 
ATOM      3  C   UNL A   1      32.096  24.525  26.521  1.00  0.00     0.223 C 
ATOM      4  O   UNL A   1      31.794  23.505  27.153  1.00  0.00    -0.275 OA
ATOM      5  H   UNL A   1      30.602  25.469  27.410  1.00  0.00     0.163 HD
BRANCH   3   6
ATOM      6  C   UNL A   1      33.263  24.478  25.518  1.00  0.00     0.078 C 
ATOM      7  C   UNL A   1      34.657  21.903  24.703  1.00  0.00     0.008 C 
ATOM      8  C   UNL A   1      33.350  22.361  24.016  1.00  0.00     0.006 C 
ATOM      9  C   UNL A   1      35.046  22.655  25.991  1.00  0.00     0.006 C 
ATOM     10  C   UNL A   1      32.982  23.832  24.164  1.00  0.00     0.014 C 
ATOM     11  C   UNL A   1      34.634  24.119  26.079  1.00  0.00     0.014 C 
BRANCH   7  12
ATOM     12  C   UNL A   1      34.580  20.377  24.982  1.00  0.00     0.123 C 
BRANCH  12  13
ATOM     13  N   UNL A   1      33.357  19.773  24.504  1.00  0.00    -0.321 N 
ATOM     14  C   UNL A   1      32.858  18.530  24.762  1.00  0.00     0.407 C 
ATOM     15  O   UNL A   1      31.727  18.245  24.400  1.00  0.00    -0.225 OA
ATOM     16  H   UNL A   1      32.809  20.337  23.912  1.00  0.00     0.167 HD
BRANCH  14  17
ATOM     17  O   UNL A   1      33.717  17.702  25.411  1.00  0.00    -0.444 OA
BRANCH  17  18
ATOM     18  C   UNL A   1      34.035  16.405  24.827  1.00  0.00     0.106 C 
ATOM     19  C   UNL A   1      35.440  16.051  25.342  1.00  0.00     0.056 C 
ATOM     20  C   UNL A   1      34.104  16.472  23.294  1.00  0.00     0.056 C 
ATOM     21  C   UNL A   1      33.057  15.320  25.302  1.00  0.00     0.056 C 
ENDBRANCH  17  18
ENDBRANCH  14  17
ENDBRANCH  12  13
ENDBRANCH   7  12
ENDBRANCH   3   6
ENDBRANCH   1   2
BRANCH   1  22
ATOM     22  C   UNL A   1      31.780  27.978  27.385  1.00  0.00     0.042 C 
BRANCH  22  23
ATOM     23  C   UNL A   1      33.211  28.467  27.313  1.00  0.00     0.118 C 
BRANCH  23  24
ATOM     24  N   UNL A   1      33.309  29.918  27.454  1.00  0.00    -0.352 N 
ATOM     25  C   UNL A   1      34.284  30.732  27.976  1.00  0.00     0.251 C 
ATOM     26  H   UNL A   1      32.526  30.406  27.108  1.00  0.00     0.163 HD
ATOM     27  O   UNL A   1      34.021  31.916  28.182  1.00  0.00    -0.269 OA
BRANCH  25  28
ATOM     28  C   UNL A   1      35.632  30.215  28.301  1.00  0.00     0.039 A 
ATOM     29  C   UNL A   1      36.628  30.231  27.320  1.00  0.00     0.014 A 
ATOM     30  C   UNL A   1      35.915  29.671  29.552  1.00  0.00     0.014 A 
ATOM     31  C   UNL A   1      37.908  29.753  27.617  1.00  0.00     0.010 A 
ATOM     32  C   UNL A   1      37.220  29.354  29.895  1.00  0.00     0.010 A 
ATOM     33  C   UNL A   1      38.226  29.348  28.923  1.00  0.00    -0.014 A 
BRANCH  33  34
ATOM     34  C   UNL A   1      39.575  28.858  29.299  1.00  0.00     0.031 A 
ATOM     35  C   UNL A   1      40.515  29.762  30.059  1.00  0.00     0.074 A 
ATOM     36  C   UNL A   1      39.992  27.647  28.883  1.00  0.00     0.049 A 
ATOM     37  N   UNL A   1      41.762  29.556  30.402  1.00  0.00    -0.248 NA
ATOM     38  C   UNL A   1      39.999  31.084  30.455  1.00  0.00     0.031 C 
ATOM     39  C   UNL A   1      39.193  26.694  28.111  1.00  0.00     0.029 A 
ATOM     40  N   UNL A   1      41.200  27.016  29.036  1.00  0.00    -0.354 N 
ATOM     41  C   UNL A   1      42.174  30.724  31.033  1.00  0.00     0.074 A 
ATOM     42  C   UNL A   1      41.081  31.664  30.945  1.00  0.00     0.031 C 
ATOM     43  C   UNL A   1      39.928  25.599  27.864  1.00  0.00     0.029 A 
ATOM     44  C   UNL A   1      41.255  25.781  28.438  1.00  0.00     0.049 A 
ATOM     45  H   UNL A   1      41.956  27.411  29.530  1.00  0.00     0.167 HD
ATOM     46  C   UNL A   1      43.342  30.980  31.667  1.00  0.00     0.031 A 
ATOM     47  C   UNL A   1      42.260  24.891  28.363  1.00  0.00     0.031 A 
ATOM     48  C   UNL A   1      44.420  30.036  31.769  1.00  0.00     0.049 A 
ATOM     49  C   UNL A   1      43.555  25.200  29.057  1.00  0.00     0.074 A 
ATOM     50  C   UNL A   1      45.617  30.160  32.448  1.00  0.00     0.029 A 
ATOM     51  N   UNL A   1      44.428  28.786  31.166  1.00  0.00    -0.354 N 
ATOM     52  N   UNL A   1      43.897  26.274  29.727  1.00  0.00    -0.248 NA
ATOM     53  C   UNL A   1      44.589  24.160  29.013  1.00  0.00     0.031 C 
ATOM     54  C   UNL A   1      46.376  29.010  32.206  1.00  0.00     0.029 A 
ATOM     55  C   UNL A   1      45.623  28.141  31.434  1.00  0.00     0.049 A 
ATOM     56  H   UNL A   1      43.692  28.414  30.627  1.00  0.00     0.167 HD
ATOM     57  C   UNL A   1      45.170  26.022  30.221  1.00  0.00     0.074 A 
ATOM     58  C   UNL A   1      45.531  24.690  29.780  1.00  0.00     0.031 C 
ATOM     59  C   UNL A   1      45.966  26.818  30.978  1.00  0.00     0.031 A 
BRANCH  46  60
ATOM     60  C   UNL A   1      43.501  32.338  32.299  1.00  0.00    -0.014 A 
ATOM     61  C   UNL A   1      43.115  32.576  33.630  1.00  0.00     0.009 A 
ATOM     62  C   UNL A   1      44.047  33.397  31.557  1.00  0.00     0.009 A 
ATOM     63  C   UNL A   1      43.224  33.853  34.185  1.00  0.00     0.001 A 
ATOM     64  C   UNL A   1      44.190  34.664  32.126  1.00  0.00     0.001 A 
ATOM     65  C   UNL A   1      43.765  34.895  33.434  1.00  0.00     0.000 A 
ENDBRANCH  46  60
BRANCH  47  66
ATOM     66  C   UNL A   1      42.058  23.605  27.646  1.00  0.00    -0.014 A 
ATOM     67  C   UNL A   1      41.484  22.506  28.303  1.00  0.00     0.009 A 
ATOM     68  C   UNL A   1      42.422  23.473  26.296  1.00  0.00     0.009 A 
ATOM     69  C   UNL A   1      41.305  21.294  27.632  1.00  0.00     0.001 A 
ATOM     70  C   UNL A   1      42.213  22.269  25.620  1.00  0.00     0.001 A 
ATOM     71  C   UNL A   1      41.664  21.178  26.292  1.00  0.00     0.000 A 
ENDBRANCH  47  66
BRANCH  59  72
ATOM     72  C   UNL A   1      47.288  26.248  31.409  1.00  0.00    -0.014 A 
ATOM     73  C   UNL A   1      47.444  25.608  32.649  1.00  0.00     0.009 A 
ATOM     74  C   UNL A   1      48.391  26.332  30.544  1.00  0.00     0.009 A 
ATOM     75  C   UNL A   1      48.690  25.106  33.031  1.00  0.00     0.001 A 
ATOM     76  C   UNL A   1      49.624  25.796  30.913  1.00  0.00     0.001 A 
ATOM     77  C   UNL A   1      49.776  25.196  32.162  1.00  0.00     0.000 A 
ENDBRANCH  59  72
ENDBRANCH  33  34
ENDBRANCH  25  28
ENDBRANCH  23  24
ENDBRANCH  22  23
ENDBRANCH   1  22
TORSDOF 14
ENDMDL
MODEL 2
REMARK VINA RESULT:     -10.6      2.612      7.759
REMARK SMILES CC(C)(C)OC(=O)NC[C@H]1CC[C@@H](C(=O)NCCCNC(=O)c2ccc(-c3c4nc(c(-c5ccccc5)c5ccc([nH]5)c(-c5ccccc5)c5nc(c(-c6ccccc6)c6ccc3[nH]6)C=C5)C=C4)cc2)CC1
REMARK SMILES IDX 17 1 16 2 14 3 15 4 13 6 10 7 11 8 72 9 12 10 71 11 9 12
REMARK SMILES IDX 8 13 6 14 7 15 5 17 2 18 1 19 3 20 4 21 18 22 19 23 20 24
REMARK SMILES IDX 21 25 22 27 23 28 24 29 70 30 25 31 69 32 26 33 27 34 28 35
REMARK SMILES IDX 63 36 29 37 68 38 62 39 64 40 30 41 67 42 61 43 60 44 31 46
REMARK SMILES IDX 53 47 38 48 52 49 39 50 42 51 51 52 65 53 40 54 41 55 50 57
REMARK SMILES IDX 66 58 43 59 32 60 33 61 37 62 34 63 36 64 35 65 54 66 55 67
REMARK SMILES IDX 59 68 56 69 58 70 57 71 44 72 45 73 49 74 46 75 48 76 47 77
REMARK H PARENT 16 5 8 16 20 26 64 45 42 56
REMARK Flexibility Score: inf
ROOT
ATOM      1  C   UNL A   1      36.098  19.984  24.995  1.00  0.00     0.117 C 
ENDROOT
BRANCH   1   2
ATOM      2  N   UNL A   1      35.919  21.391  25.222  1.00  0.00    -0.356 N 
ATOM      3  C   UNL A   1      34.790  22.134  25.337  1.00  0.00     0.223 C 
ATOM      4  O   UNL A   1      34.962  23.331  25.604  1.00  0.00    -0.275 OA
ATOM      5  H   UNL A   1      36.755  21.903  25.307  1.00  0.00     0.163 HD
BRANCH   3   6
ATOM      6  C   UNL A   1      33.361  21.592  25.164  1.00  0.00     0.078 C 
ATOM      7  C   UNL A   1      31.123  23.182  23.859  1.00  0.00     0.008 C 
ATOM      8  C   UNL A   1      32.132  22.372  23.014  1.00  0.00     0.006 C 
ATOM      9  C   UNL A   1      31.481  23.371  25.346  1.00  0.00     0.006 C 
ATOM     10  C   UNL A   1      32.909  21.281  23.739  1.00  0.00     0.014 C 
ATOM     11  C   UNL A   1      32.273  22.249  26.007  1.00  0.00     0.014 C 
BRANCH   7  12
ATOM     12  C   UNL A   1      30.889  24.564  23.190  1.00  0.00     0.123 C 
BRANCH  12  13
ATOM     13  N   UNL A   1      31.767  24.809  22.069  1.00  0.00    -0.321 N 
ATOM     14  C   UNL A   1      32.394  25.965  21.709  1.00  0.00     0.407 C 
ATOM     15  O   UNL A   1      33.230  25.948  20.818  1.00  0.00    -0.225 OA
ATOM     16  H   UNL A   1      31.934  24.034  21.484  1.00  0.00     0.167 HD
BRANCH  14  17
ATOM     17  O   UNL A   1      31.995  27.062  22.402  1.00  0.00    -0.444 OA
BRANCH  17  18
ATOM     18  C   UNL A   1      32.937  27.721  23.298  1.00  0.00     0.106 C 
ATOM     19  C   UNL A   1      33.644  26.589  24.064  1.00  0.00     0.056 C 
ATOM     20  C   UNL A   1      32.219  28.603  24.331  1.00  0.00     0.056 C 
ATOM     21  C   UNL A   1      33.997  28.513  22.518  1.00  0.00     0.056 C 
ENDBRANCH  17  18
ENDBRANCH  14  17
ENDBRANCH  12  13
ENDBRANCH   7  12
ENDBRANCH   3   6
ENDBRANCH   1   2
BRANCH   1  22
ATOM     22  C   UNL A   1      37.531  19.601  24.677  1.00  0.00     0.042 C 
BRANCH  22  23
ATOM     23  C   UNL A   1      38.518  20.145  25.689  1.00  0.00     0.118 C 
BRANCH  23  24
ATOM     24  N   UNL A   1      39.717  19.316  25.794  1.00  0.00    -0.352 N 
ATOM     25  C   UNL A   1      41.026  19.618  26.080  1.00  0.00     0.251 C 
ATOM     26  H   UNL A   1      39.555  18.359  25.629  1.00  0.00     0.163 HD
ATOM     27  O   UNL A   1      41.888  18.763  25.883  1.00  0.00    -0.269 OA
BRANCH  25  28
ATOM     28  C   UNL A   1      41.417  20.942  26.609  1.00  0.00     0.039 A 
ATOM     29  C   UNL A   1      41.455  21.145  27.992  1.00  0.00     0.014 A 
ATOM     30  C   UNL A   1      41.705  22.005  25.756  1.00  0.00     0.014 A 
ATOM     31  C   UNL A   1      41.833  22.391  28.505  1.00  0.00     0.010 A 
ATOM     32  C   UNL A   1      42.236  23.181  26.261  1.00  0.00     0.010 A 
ATOM     33  C   UNL A   1      42.266  23.409  27.642  1.00  0.00    -0.014 A 
BRANCH  33  34
ATOM     34  C   UNL A   1      42.703  24.738  28.134  1.00  0.00     0.031 A 
ATOM     35  C   UNL A   1      41.683  25.829  28.352  1.00  0.00     0.074 A 
ATOM     36  C   UNL A   1      44.014  24.998  28.297  1.00  0.00     0.049 A 
ATOM     37  N   UNL A   1      41.870  27.080  28.690  1.00  0.00    -0.248 NA
ATOM     38  C   UNL A   1      40.269  25.479  28.125  1.00  0.00     0.031 C 
ATOM     39  C   UNL A   1      45.101  24.042  28.085  1.00  0.00     0.029 A 
ATOM     40  N   UNL A   1      44.658  26.152  28.663  1.00  0.00    -0.354 N 
ATOM     41  C   UNL A   1      40.607  27.659  28.698  1.00  0.00     0.074 A 
ATOM     42  C   UNL A   1      39.675  26.654  28.244  1.00  0.00     0.031 C 
ATOM     43  C   UNL A   1      46.275  24.644  28.329  1.00  0.00     0.029 A 
ATOM     44  C   UNL A   1      46.026  26.033  28.692  1.00  0.00     0.049 A 
ATOM     45  H   UNL A   1      44.184  26.987  28.885  1.00  0.00     0.167 HD
ATOM     46  C   UNL A   1      40.245  28.904  29.088  1.00  0.00     0.031 A 
ATOM     47  C   UNL A   1      46.975  26.940  28.983  1.00  0.00     0.031 A 
ATOM     48  C   UNL A   1      41.173  29.896  29.557  1.00  0.00     0.049 A 
ATOM     49  C   UNL A   1      46.556  28.321  29.396  1.00  0.00     0.074 A 
ATOM     50  C   UNL A   1      40.912  31.162  30.046  1.00  0.00     0.029 A 
ATOM     51  N   UNL A   1      42.550  29.728  29.592  1.00  0.00    -0.354 N 
ATOM     52  N   UNL A   1      45.350  28.826  29.485  1.00  0.00    -0.248 NA
ATOM     53  C   UNL A   1      47.629  29.246  29.782  1.00  0.00     0.031 C 
ATOM     54  C   UNL A   1      42.135  31.783  30.319  1.00  0.00     0.029 A 
ATOM     55  C   UNL A   1      43.154  30.879  30.066  1.00  0.00     0.049 A 
ATOM     56  H   UNL A   1      43.027  28.911  29.318  1.00  0.00     0.167 HD
ATOM     57  C   UNL A   1      45.514  30.114  29.977  1.00  0.00     0.074 A 
ATOM     58  C   UNL A   1      46.937  30.305  30.176  1.00  0.00     0.031 C 
ATOM     59  C   UNL A   1      44.572  31.052  30.249  1.00  0.00     0.031 A 
BRANCH  46  60
ATOM     60  C   UNL A   1      38.780  29.250  29.022  1.00  0.00    -0.014 A 
ATOM     61  C   UNL A   1      37.942  29.100  30.140  1.00  0.00     0.009 A 
ATOM     62  C   UNL A   1      38.229  29.736  27.827  1.00  0.00     0.009 A 
ATOM     63  C   UNL A   1      36.577  29.379  30.049  1.00  0.00     0.001 A 
ATOM     64  C   UNL A   1      36.871  30.050  27.748  1.00  0.00     0.001 A 
ATOM     65  C   UNL A   1      36.043  29.857  28.853  1.00  0.00     0.000 A 
ENDBRANCH  46  60
BRANCH  47  66
ATOM     66  C   UNL A   1      48.409  26.549  28.943  1.00  0.00    -0.014 A 
ATOM     67  C   UNL A   1      49.005  25.911  30.042  1.00  0.00     0.009 A 
ATOM     68  C   UNL A   1      49.186  26.797  27.799  1.00  0.00     0.009 A 
ATOM     69  C   UNL A   1      50.354  25.554  30.007  1.00  0.00     0.001 A 
ATOM     70  C   UNL A   1      50.528  26.411  27.758  1.00  0.00     0.001 A 
ATOM     71  C   UNL A   1      51.113  25.799  28.865  1.00  0.00     0.000 A 
ENDBRANCH  47  66
BRANCH  59  72
ATOM     72  C   UNL A   1      45.053  32.353  30.828  1.00  0.00    -0.014 A 
ATOM     73  C   UNL A   1      45.185  32.537  32.213  1.00  0.00     0.009 A 
ATOM     74  C   UNL A   1      45.403  33.404  29.965  1.00  0.00     0.009 A 
ATOM     75  C   UNL A   1      45.615  33.763  32.723  1.00  0.00     0.001 A 
ATOM     76  C   UNL A   1      45.867  34.616  30.477  1.00  0.00     0.001 A 
ATOM     77  C   UNL A   1      45.959  34.799  31.856  1.00  0.00     0.000 A 
ENDBRANCH  59  72
ENDBRANCH  33  34
ENDBRANCH  25  28
ENDBRANCH  23  24
ENDBRANCH  22  23
ENDBRANCH   1  22
TORSDOF 14
ENDMDL
MODEL 3
REMARK VINA RESULT:     -10.6      1.856      2.913
REMARK SMILES CC(C)(C)OC(=O)NC[C@H]1CC[C@@H](C(=O)NCCCNC(=O)c2ccc(-c3c4nc(c(-c5ccccc5)c5ccc([nH]5)c(-c5ccccc5)c5nc(c(-c6ccccc6)c6ccc3[nH]6)C=C5)C=C4)cc2)CC1
REMARK SMILES IDX 17 1 16 2 14 3 15 4 13 6 10 7 11 8 72 9 12 10 71 11 9 12
REMARK SMILES IDX 8 13 6 14 7 15 5 17 2 18 1 19 3 20 4 21 18 22 19 23 20 24
REMARK SMILES IDX 21 25 22 27 23 28 24 29 70 30 25 31 69 32 26 33 27 34 28 35
REMARK SMILES IDX 63 36 29 37 68 38 62 39 64 40 30 41 67 42 61 43 60 44 31 46
REMARK SMILES IDX 53 47 38 48 52 49 39 50 42 51 51 52 65 53 40 54 41 55 50 57
REMARK SMILES IDX 66 58 43 59 32 60 33 61 37 62 34 63 36 64 35 65 54 66 55 67
REMARK SMILES IDX 59 68 56 69 58 70 57 71 44 72 45 73 49 74 46 75 48 76 47 77
REMARK H PARENT 16 5 8 16 20 26 64 45 42 56
REMARK Flexibility Score: inf
ROOT
ATOM      1  C   UNL A   1      31.700  29.085  24.877  1.00  0.00     0.117 C 
ENDROOT
BRANCH   1   2
ATOM      2  N   UNL A   1      31.158  29.557  23.632  1.00  0.00    -0.356 N 
ATOM      3  C   UNL A   1      30.499  28.901  22.646  1.00  0.00     0.223 C 
ATOM      4  O   UNL A   1      30.090  29.606  21.714  1.00  0.00    -0.275 OA
ATOM      5  H   UNL A   1      31.288  30.519  23.468  1.00  0.00     0.163 HD
BRANCH   3   6
ATOM      6  C   UNL A   1      30.240  27.384  22.622  1.00  0.00     0.078 C 
ATOM      7  C   UNL A   1      31.253  25.487  24.769  1.00  0.00     0.008 C 
ATOM      8  C   UNL A   1      29.936  26.274  24.950  1.00  0.00     0.006 C 
ATOM      9  C   UNL A   1      32.153  25.928  23.597  1.00  0.00     0.006 C 
ATOM     10  C   UNL A   1      29.295  26.830  23.684  1.00  0.00     0.014 C 
ATOM     11  C   UNL A   1      31.447  26.488  22.368  1.00  0.00     0.014 C 
BRANCH   7  12
ATOM     12  C   UNL A   1      32.058  25.526  26.098  1.00  0.00     0.123 C 
BRANCH  12  13
ATOM     13  N   UNL A   1      31.798  24.390  26.952  1.00  0.00    -0.321 N 
ATOM     14  C   UNL A   1      32.527  23.247  27.103  1.00  0.00     0.407 C 
ATOM     15  O   UNL A   1      32.241  22.460  27.992  1.00  0.00    -0.225 OA
ATOM     16  H   UNL A   1      30.982  24.449  27.500  1.00  0.00     0.167 HD
BRANCH  14  17
ATOM     17  O   UNL A   1      33.530  23.096  26.200  1.00  0.00    -0.444 OA
BRANCH  17  18
ATOM     18  C   UNL A   1      33.380  22.124  25.125  1.00  0.00     0.106 C 
ATOM     19  C   UNL A   1      34.171  20.883  25.572  1.00  0.00     0.056 C 
ATOM     20  C   UNL A   1      34.002  22.625  23.813  1.00  0.00     0.056 C 
ATOM     21  C   UNL A   1      31.911  21.718  24.934  1.00  0.00     0.056 C 
ENDBRANCH  17  18
ENDBRANCH  14  17
ENDBRANCH  12  13
ENDBRANCH   7  12
ENDBRANCH   3   6
ENDBRANCH   1   2
BRANCH   1  22
ATOM     22  C   UNL A   1      33.214  29.134  24.934  1.00  0.00     0.042 C 
BRANCH  22  23
ATOM     23  C   UNL A   1      33.747  29.086  26.351  1.00  0.00     0.118 C 
BRANCH  23  24
ATOM     24  N   UNL A   1      33.679  30.387  27.012  1.00  0.00    -0.352 N 
ATOM     25  C   UNL A   1      34.466  30.978  27.970  1.00  0.00     0.251 C 
ATOM     26  H   UNL A   1      32.926  30.947  26.714  1.00  0.00     0.163 HD
ATOM     27  O   UNL A   1      34.059  31.998  28.525  1.00  0.00    -0.269 OA
BRANCH  25  28
ATOM     28  C   UNL A   1      35.778  30.413  28.351  1.00  0.00     0.039 A 
ATOM     29  C   UNL A   1      36.878  30.603  27.507  1.00  0.00     0.014 A 
ATOM     30  C   UNL A   1      35.932  29.657  29.510  1.00  0.00     0.014 A 
ATOM     31  C   UNL A   1      38.126  30.081  27.860  1.00  0.00     0.010 A 
ATOM     32  C   UNL A   1      37.195  29.285  29.939  1.00  0.00     0.010 A 
ATOM     33  C   UNL A   1      38.304  29.451  29.102  1.00  0.00    -0.014 A 
BRANCH  33  34
ATOM     34  C   UNL A   1      39.612  28.904  29.537  1.00  0.00     0.031 A 
ATOM     35  C   UNL A   1      40.517  29.733  30.415  1.00  0.00     0.074 A 
ATOM     36  C   UNL A   1      40.030  27.710  29.076  1.00  0.00     0.049 A 
ATOM     37  N   UNL A   1      41.732  29.474  30.829  1.00  0.00    -0.248 NA
ATOM     38  C   UNL A   1      40.005  31.042  30.857  1.00  0.00     0.031 C 
ATOM     39  C   UNL A   1      39.266  26.827  28.193  1.00  0.00     0.029 A 
ATOM     40  N   UNL A   1      41.210  27.038  29.271  1.00  0.00    -0.354 N 
ATOM     41  C   UNL A   1      42.125  30.589  31.558  1.00  0.00     0.074 A 
ATOM     42  C   UNL A   1      41.063  31.562  31.456  1.00  0.00     0.031 C 
ATOM     43  C   UNL A   1      39.991  25.730  27.928  1.00  0.00     0.029 A 
ATOM     44  C   UNL A   1      41.279  25.841  28.602  1.00  0.00     0.049 A 
ATOM     45  H   UNL A   1      41.938  27.382  29.839  1.00  0.00     0.167 HD
ATOM     46  C   UNL A   1      43.252  30.775  32.286  1.00  0.00     0.031 A 
ATOM     47  C   UNL A   1      42.267  24.931  28.539  1.00  0.00     0.031 A 
ATOM     48  C   UNL A   1      44.299  29.798  32.401  1.00  0.00     0.049 A 
ATOM     49  C   UNL A   1      43.516  25.162  29.338  1.00  0.00     0.074 A 
ATOM     50  C   UNL A   1      45.448  29.849  33.167  1.00  0.00     0.029 A 
ATOM     51  N   UNL A   1      44.321  28.588  31.723  1.00  0.00    -0.354 N 
ATOM     52  N   UNL A   1      43.835  26.183  30.096  1.00  0.00    -0.248 NA
ATOM     53  C   UNL A   1      44.528  24.099  29.300  1.00  0.00     0.031 C 
ATOM     54  C   UNL A   1      46.196  28.696  32.905  1.00  0.00     0.029 A 
ATOM     55  C   UNL A   1      45.479  27.895  32.030  1.00  0.00     0.049 A 
ATOM     56  H   UNL A   1      43.616  28.269  31.113  1.00  0.00     0.167 HD
ATOM     57  C   UNL A   1      45.065  25.868  30.659  1.00  0.00     0.074 A 
ATOM     58  C   UNL A   1      45.425  24.556  30.161  1.00  0.00     0.031 C 
ATOM     59  C   UNL A   1      45.823  26.594  31.517  1.00  0.00     0.031 A 
BRANCH  46  60
ATOM     60  C   UNL A   1      43.397  32.088  33.011  1.00  0.00    -0.014 A 
ATOM     61  C   UNL A   1      42.907  32.260  34.317  1.00  0.00     0.009 A 
ATOM     62  C   UNL A   1      44.035  33.168  32.383  1.00  0.00     0.009 A 
ATOM     63  C   UNL A   1      43.007  33.497  34.957  1.00  0.00     0.001 A 
ATOM     64  C   UNL A   1      44.166  34.394  33.039  1.00  0.00     0.001 A 
ATOM     65  C   UNL A   1      43.639  34.562  34.318  1.00  0.00     0.000 A 
ENDBRANCH  46  60
BRANCH  47  66
ATOM     66  C   UNL A   1      42.086  23.697  27.732  1.00  0.00    -0.014 A 
ATOM     67  C   UNL A   1      41.469  22.565  28.287  1.00  0.00     0.009 A 
ATOM     68  C   UNL A   1      42.515  23.647  26.395  1.00  0.00     0.009 A 
ATOM     69  C   UNL A   1      41.310  21.402  27.530  1.00  0.00     0.001 A 
ATOM     70  C   UNL A   1      42.326  22.493  25.632  1.00  0.00     0.001 A 
ATOM     71  C   UNL A   1      41.733  21.368  26.204  1.00  0.00     0.000 A 
ENDBRANCH  47  66
BRANCH  59  72
ATOM     72  C   UNL A   1      47.099  25.964  32.000  1.00  0.00    -0.014 A 
ATOM     73  C   UNL A   1      47.150  25.231  33.196  1.00  0.00     0.009 A 
ATOM     74  C   UNL A   1      48.265  26.087  31.228  1.00  0.00     0.009 A 
ATOM     75  C   UNL A   1      48.354  24.673  33.631  1.00  0.00     0.001 A 
ATOM     76  C   UNL A   1      49.458  25.497  31.646  1.00  0.00     0.001 A 
ATOM     77  C   UNL A   1      49.505  24.803  32.854  1.00  0.00     0.000 A 
ENDBRANCH  59  72
ENDBRANCH  33  34
ENDBRANCH  25  28
ENDBRANCH  23  24
ENDBRANCH  22  23
ENDBRANCH   1  22
TORSDOF 14
ENDMDL
