MODEL 1
REMARK VINA RESULT:     -11.7      0.000      0.000
REMARK SMILES C[C@H]1[C@H](C(=O)NCCCNC(=O)c2ccc(-c3c4nc(c(-c5ccccc5)c5ccc([nH]5)c(-c5ccccc5)c5nc(c(-c6ccccc6)c6ccc3[nH]6)C=C5)C=C4)cc2)CC[N@@H+]1[C@@H](c1ccccc1)c1ccco1
REMARK SMILES IDX 8 1 7 2 6 3 4 4 5 5 3 7 1 8 2 9 63 10 61 11 62 12 64 14
REMARK SMILES IDX 65 15 66 16 70 17 67 18 69 19 68 20 71 21 72 22 75 23 73 24
REMARK SMILES IDX 74 25 9 26 10 27 11 28 12 30 13 31 14 32 60 33 15 34 59 35
REMARK SMILES IDX 16 36 17 37 18 38 53 39 19 40 58 41 52 42 54 43 20 44 57 45
REMARK SMILES IDX 51 46 50 47 21 49 43 50 28 51 42 52 29 53 32 54 41 55 55 56
REMARK SMILES IDX 30 57 31 58 40 60 56 61 33 62 22 63 23 64 27 65 24 66 26 67
REMARK SMILES IDX 25 68 44 69 45 70 49 71 46 72 48 73 47 74 34 75 35 76 39 77
REMARK SMILES IDX 36 78 38 79 37 80
REMARK H PARENT 6 6 63 13 10 29 54 48 32 59
REMARK Flexibility Score: inf
ROOT
ATOM      1  C   UNL A   1      32.040  28.087  27.169  1.00  0.00     0.042 C 
ENDROOT
BRANCH   1   2
ATOM      2  C   UNL A   1      31.635  27.677  25.756  1.00  0.00     0.117 C 
BRANCH   2   3
ATOM      3  N   UNL A   1      32.745  27.165  24.988  1.00  0.00    -0.356 N 
ATOM      4  C   UNL A   1      33.064  25.884  24.664  1.00  0.00     0.229 C 
ATOM      5  O   UNL A   1      34.042  25.736  23.923  1.00  0.00    -0.275 OA
ATOM      6  H   UNL A   1      33.365  27.847  24.645  1.00  0.00     0.163 HD
BRANCH   4   7
ATOM      7  C   UNL A   1      32.267  24.658  25.115  1.00  0.00     0.142 C 
ATOM      8  C   UNL A   1      31.224  23.186  23.373  1.00  0.00     0.076 C 
ATOM      9  C   UNL A   1      32.427  23.351  24.314  1.00  0.00     0.194 C 
ATOM     10  N   UNL A   1      32.414  22.249  25.301  1.00  0.00    -0.319 N 
ATOM     11  C   UNL A   1      32.475  24.252  26.566  1.00  0.00     0.081 C 
ATOM     12  C   UNL A   1      32.000  22.803  26.582  1.00  0.00     0.264 C 
ATOM     13  H   UNL A   1      31.713  21.561  25.024  1.00  0.00     0.349 HD
BRANCH  10  14
ATOM     14  C   UNL A   1      33.535  21.274  25.266  1.00  0.00     0.283 C 
BRANCH  14  15
ATOM     15  C   UNL A   1      33.391  19.950  24.497  1.00  0.00     0.017 A 
ATOM     16  C   UNL A   1      34.346  18.936  24.714  1.00  0.00     0.010 A 
ATOM     17  C   UNL A   1      32.443  19.725  23.485  1.00  0.00     0.010 A 
ATOM     18  C   UNL A   1      34.286  17.723  24.025  1.00  0.00     0.001 A 
ATOM     19  C   UNL A   1      32.359  18.497  22.819  1.00  0.00     0.001 A 
ATOM     20  C   UNL A   1      33.273  17.491  23.100  1.00  0.00     0.000 A 
ENDBRANCH  14  15
BRANCH  14  21
ATOM     21  C   UNL A   1      34.869  21.925  24.968  1.00  0.00     0.165 A 
ATOM     22  C   UNL A   1      35.556  22.183  23.796  1.00  0.00     0.052 A 
ATOM     23  O   UNL A   1      35.525  22.524  26.012  1.00  0.00    -0.463 OA
ATOM     24  C   UNL A   1      36.649  23.018  24.142  1.00  0.00     0.042 A 
ATOM     25  C   UNL A   1      36.580  23.199  25.502  1.00  0.00     0.195 A 
ENDBRANCH  14  21
ENDBRANCH  10  14
ENDBRANCH   4   7
ENDBRANCH   2   3
ENDBRANCH   1   2
BRANCH   1  26
ATOM     26  C   UNL A   1      33.471  28.598  27.272  1.00  0.00     0.118 C 
BRANCH  26  27
ATOM     27  N   UNL A   1      33.564  30.004  27.660  1.00  0.00    -0.352 N 
ATOM     28  C   UNL A   1      34.563  30.758  28.217  1.00  0.00     0.251 C 
ATOM     29  H   UNL A   1      32.740  30.514  27.486  1.00  0.00     0.163 HD
ATOM     30  O   UNL A   1      34.311  31.920  28.557  1.00  0.00    -0.269 OA
BRANCH  28  31
ATOM     31  C   UNL A   1      35.923  30.229  28.455  1.00  0.00     0.039 A 
ATOM     32  C   UNL A   1      36.225  29.675  29.708  1.00  0.00     0.014 A 
ATOM     33  C   UNL A   1      36.929  30.333  27.498  1.00  0.00     0.014 A 
ATOM     34  C   UNL A   1      37.507  29.183  29.974  1.00  0.00     0.010 A 
ATOM     35  C   UNL A   1      38.169  29.742  27.721  1.00  0.00     0.010 A 
ATOM     36  C   UNL A   1      38.484  29.188  28.969  1.00  0.00    -0.014 A 
BRANCH  36  37
ATOM     37  C   UNL A   1      39.865  28.688  29.199  1.00  0.00     0.031 A 
ATOM     38  C   UNL A   1      40.905  29.617  29.771  1.00  0.00     0.074 A 
ATOM     39  C   UNL A   1      40.212  27.445  28.814  1.00  0.00     0.049 A 
ATOM     40  N   UNL A   1      42.198  29.448  29.887  1.00  0.00    -0.248 NA
ATOM     41  C   UNL A   1      40.431  30.933  30.233  1.00  0.00     0.031 C 
ATOM     42  C   UNL A   1      39.313  26.455  28.219  1.00  0.00     0.029 A 
ATOM     43  N   UNL A   1      41.429  26.811  28.849  1.00  0.00    -0.354 N 
ATOM     44  C   UNL A   1      42.692  30.646  30.390  1.00  0.00     0.074 A 
ATOM     45  C   UNL A   1      41.570  31.551  30.505  1.00  0.00     0.031 C 
ATOM     46  C   UNL A   1      40.005  25.333  27.961  1.00  0.00     0.029 A 
ATOM     47  C   UNL A   1      41.402  25.541  28.325  1.00  0.00     0.049 A 
ATOM     48  H   UNL A   1      42.244  27.227  29.213  1.00  0.00     0.167 HD
ATOM     49  C   UNL A   1      43.959  30.960  30.748  1.00  0.00     0.031 A 
ATOM     50  C   UNL A   1      42.394  24.650  28.145  1.00  0.00     0.031 A 
ATOM     51  C   UNL A   1      45.068  30.048  30.667  1.00  0.00     0.049 A 
ATOM     52  C   UNL A   1      43.793  25.014  28.562  1.00  0.00     0.074 A 
ATOM     53  C   UNL A   1      46.380  30.245  31.058  1.00  0.00     0.029 A 
ATOM     54  N   UNL A   1      44.988  28.757  30.167  1.00  0.00    -0.354 N 
ATOM     55  N   UNL A   1      44.236  26.136  29.074  1.00  0.00    -0.248 NA
ATOM     56  C   UNL A   1      44.823  23.982  28.386  1.00  0.00     0.031 C 
ATOM     57  C   UNL A   1      47.104  29.087  30.755  1.00  0.00     0.029 A 
ATOM     58  C   UNL A   1      46.230  28.151  30.226  1.00  0.00     0.049 A 
ATOM     59  H   UNL A   1      44.169  28.335  29.819  1.00  0.00     0.167 HD
ATOM     60  C   UNL A   1      45.592  25.937  29.305  1.00  0.00     0.074 A 
ATOM     61  C   UNL A   1      45.890  24.580  28.896  1.00  0.00     0.031 C 
ATOM     62  C   UNL A   1      46.508  26.800  29.809  1.00  0.00     0.031 A 
BRANCH  49  63
ATOM     63  C   UNL A   1      44.208  32.355  31.258  1.00  0.00    -0.014 A 
ATOM     64  C   UNL A   1      44.543  33.403  30.386  1.00  0.00     0.009 A 
ATOM     65  C   UNL A   1      44.091  32.629  32.630  1.00  0.00     0.009 A 
ATOM     66  C   UNL A   1      44.803  34.683  30.881  1.00  0.00     0.001 A 
ATOM     67  C   UNL A   1      44.318  33.917  33.118  1.00  0.00     0.001 A 
ATOM     68  C   UNL A   1      44.686  34.940  32.245  1.00  0.00     0.000 A 
ENDBRANCH  49  63
BRANCH  50  69
ATOM     69  C   UNL A   1      42.099  23.318  27.554  1.00  0.00    -0.014 A 
ATOM     70  C   UNL A   1      42.419  23.050  26.213  1.00  0.00     0.009 A 
ATOM     71  C   UNL A   1      41.505  22.307  28.324  1.00  0.00     0.009 A 
ATOM     72  C   UNL A   1      42.123  21.806  25.650  1.00  0.00     0.001 A 
ATOM     73  C   UNL A   1      41.239  21.054  27.767  1.00  0.00     0.001 A 
ATOM     74  C   UNL A   1      41.539  20.808  26.428  1.00  0.00     0.000 A 
ENDBRANCH  50  69
BRANCH  62  75
ATOM     75  C   UNL A   1      47.910  26.286  29.976  1.00  0.00    -0.014 A 
ATOM     76  C   UNL A   1      48.821  26.287  28.908  1.00  0.00     0.009 A 
ATOM     77  C   UNL A   1      48.333  25.819  31.230  1.00  0.00     0.009 A 
ATOM     78  C   UNL A   1      50.115  25.793  29.083  1.00  0.00     0.001 A 
ATOM     79  C   UNL A   1      49.637  25.354  31.410  1.00  0.00     0.001 A 
ATOM     80  C   UNL A   1      50.522  25.331  30.335  1.00  0.00     0.000 A 
ENDBRANCH  62  75
ENDBRANCH  36  37
ENDBRANCH  28  31
ENDBRANCH  26  27
ENDBRANCH   1  26
TORSDOF 13
ENDMDL
MODEL 2
REMARK VINA RESULT:     -11.6      0.716      1.955
REMARK SMILES C[C@H]1[C@H](C(=O)NCCCNC(=O)c2ccc(-c3c4nc(c(-c5ccccc5)c5ccc([nH]5)c(-c5ccccc5)c5nc(c(-c6ccccc6)c6ccc3[nH]6)C=C5)C=C4)cc2)CC[N@@H+]1[C@@H](c1ccccc1)c1ccco1
REMARK SMILES IDX 8 1 7 2 6 3 4 4 5 5 3 7 1 8 2 9 63 10 61 11 62 12 64 14
REMARK SMILES IDX 65 15 66 16 70 17 67 18 69 19 68 20 71 21 72 22 75 23 73 24
REMARK SMILES IDX 74 25 9 26 10 27 11 28 12 30 13 31 14 32 60 33 15 34 59 35
REMARK SMILES IDX 16 36 17 37 18 38 53 39 19 40 58 41 52 42 54 43 20 44 57 45
REMARK SMILES IDX 51 46 50 47 21 49 43 50 28 51 42 52 29 53 32 54 41 55 55 56
REMARK SMILES IDX 30 57 31 58 40 60 56 61 33 62 22 63 23 64 27 65 24 66 26 67
REMARK SMILES IDX 25 68 44 69 45 70 49 71 46 72 48 73 47 74 34 75 35 76 39 77
REMARK SMILES IDX 36 78 38 79 37 80
REMARK H PARENT 6 6 63 13 10 29 54 48 32 59
REMARK Flexibility Score: inf
ROOT
ATOM      1  C   UNL A   1      32.033  28.115  27.098  1.00  0.00     0.042 C 
ENDROOT
BRANCH   1   2
ATOM      2  C   UNL A   1      31.542  28.070  25.654  1.00  0.00     0.117 C 
BRANCH   2   3
ATOM      3  N   UNL A   1      32.564  27.631  24.734  1.00  0.00    -0.356 N 
ATOM      4  C   UNL A   1      32.909  26.375  24.348  1.00  0.00     0.229 C 
ATOM      5  O   UNL A   1      33.784  26.292  23.479  1.00  0.00    -0.275 OA
ATOM      6  H   UNL A   1      33.091  28.352  24.322  1.00  0.00     0.163 HD
BRANCH   4   7
ATOM      7  C   UNL A   1      32.253  25.100  24.882  1.00  0.00     0.142 C 
ATOM      8  C   UNL A   1      30.512  23.959  23.484  1.00  0.00     0.076 C 
ATOM      9  C   UNL A   1      31.992  23.947  23.893  1.00  0.00     0.194 C 
ATOM     10  N   UNL A   1      32.273  22.692  24.625  1.00  0.00    -0.319 N 
ATOM     11  C   UNL A   1      32.969  24.449  26.055  1.00  0.00     0.081 C 
ATOM     12  C   UNL A   1      32.426  23.024  26.034  1.00  0.00     0.264 C 
ATOM     13  H   UNL A   1      31.469  22.070  24.543  1.00  0.00     0.349 HD
BRANCH  10  14
ATOM     14  C   UNL A   1      33.216  21.725  24.007  1.00  0.00     0.283 C 
BRANCH  14  15
ATOM     15  C   UNL A   1      34.733  21.885  24.202  1.00  0.00     0.017 A 
ATOM     16  C   UNL A   1      35.403  20.983  25.054  1.00  0.00     0.010 A 
ATOM     17  C   UNL A   1      35.486  22.956  23.691  1.00  0.00     0.010 A 
ATOM     18  C   UNL A   1      36.774  21.094  25.294  1.00  0.00     0.001 A 
ATOM     19  C   UNL A   1      36.866  23.048  23.902  1.00  0.00     0.001 A 
ATOM     20  C   UNL A   1      37.512  22.108  24.692  1.00  0.00     0.000 A 
ENDBRANCH  14  15
BRANCH  14  21
ATOM     21  C   UNL A   1      32.798  20.284  24.211  1.00  0.00     0.165 A 
ATOM     22  C   UNL A   1      32.561  19.236  23.341  1.00  0.00     0.052 A 
ATOM     23  O   UNL A   1      32.757  19.817  25.498  1.00  0.00    -0.463 OA
ATOM     24  C   UNL A   1      32.420  18.071  24.139  1.00  0.00     0.042 A 
ATOM     25  C   UNL A   1      32.553  18.480  25.444  1.00  0.00     0.195 A 
ENDBRANCH  14  21
ENDBRANCH  10  14
ENDBRANCH   4   7
ENDBRANCH   2   3
ENDBRANCH   1   2
BRANCH   1  26
ATOM     26  C   UNL A   1      33.465  28.615  27.241  1.00  0.00     0.118 C 
BRANCH  26  27
ATOM     27  N   UNL A   1      33.558  30.015  27.654  1.00  0.00    -0.352 N 
ATOM     28  C   UNL A   1      34.558  30.760  28.221  1.00  0.00     0.251 C 
ATOM     29  H   UNL A   1      32.734  30.527  27.490  1.00  0.00     0.163 HD
ATOM     30  O   UNL A   1      34.306  31.915  28.582  1.00  0.00    -0.269 OA
BRANCH  28  31
ATOM     31  C   UNL A   1      35.919  30.228  28.447  1.00  0.00     0.039 A 
ATOM     32  C   UNL A   1      36.239  29.697  29.705  1.00  0.00     0.014 A 
ATOM     33  C   UNL A   1      36.909  30.306  27.471  1.00  0.00     0.014 A 
ATOM     34  C   UNL A   1      37.523  29.204  29.960  1.00  0.00     0.010 A 
ATOM     35  C   UNL A   1      38.149  29.713  27.685  1.00  0.00     0.010 A 
ATOM     36  C   UNL A   1      38.483  29.182  28.938  1.00  0.00    -0.014 A 
BRANCH  36  37
ATOM     37  C   UNL A   1      39.864  28.679  29.155  1.00  0.00     0.031 A 
ATOM     38  C   UNL A   1      40.916  29.609  29.702  1.00  0.00     0.074 A 
ATOM     39  C   UNL A   1      40.201  27.430  28.778  1.00  0.00     0.049 A 
ATOM     40  N   UNL A   1      42.210  29.436  29.802  1.00  0.00    -0.248 NA
ATOM     41  C   UNL A   1      40.454  30.933  30.156  1.00  0.00     0.031 C 
ATOM     42  C   UNL A   1      39.289  26.437  28.206  1.00  0.00     0.029 A 
ATOM     43  N   UNL A   1      41.415  26.791  28.804  1.00  0.00    -0.354 N 
ATOM     44  C   UNL A   1      42.715  30.637  30.284  1.00  0.00     0.074 A 
ATOM     45  C   UNL A   1      41.599  31.548  30.405  1.00  0.00     0.031 C 
ATOM     46  C   UNL A   1      39.973  25.309  27.952  1.00  0.00     0.029 A 
ATOM     47  C   UNL A   1      41.376  25.516  28.295  1.00  0.00     0.049 A 
ATOM     48  H   UNL A   1      42.237  27.207  29.152  1.00  0.00     0.167 HD
ATOM     49  C   UNL A   1      43.989  30.950  30.622  1.00  0.00     0.031 A 
ATOM     50  C   UNL A   1      42.362  24.618  28.111  1.00  0.00     0.031 A 
ATOM     51  C   UNL A   1      45.092  30.032  30.535  1.00  0.00     0.049 A 
ATOM     52  C   UNL A   1      43.768  24.981  28.504  1.00  0.00     0.074 A 
ATOM     53  C   UNL A   1      46.411  30.227  30.907  1.00  0.00     0.029 A 
ATOM     54  N   UNL A   1      45.001  28.736  30.051  1.00  0.00    -0.354 N 
ATOM     55  N   UNL A   1      44.223  26.107  28.998  1.00  0.00    -0.248 NA
ATOM     56  C   UNL A   1      44.791  23.943  28.325  1.00  0.00     0.031 C 
ATOM     57  C   UNL A   1      47.126  29.063  30.606  1.00  0.00     0.029 A 
ATOM     58  C   UNL A   1      46.241  28.125  30.100  1.00  0.00     0.049 A 
ATOM     59  H   UNL A   1      44.175  28.313  29.720  1.00  0.00     0.167 HD
ATOM     60  C   UNL A   1      45.581  25.905  29.212  1.00  0.00     0.074 A 
ATOM     61  C   UNL A   1      45.868  24.542  28.814  1.00  0.00     0.031 C 
ATOM     62  C   UNL A   1      46.507  26.769  29.694  1.00  0.00     0.031 A 
BRANCH  49  63
ATOM     63  C   UNL A   1      44.250  32.349  31.113  1.00  0.00    -0.014 A 
ATOM     64  C   UNL A   1      44.178  32.670  32.478  1.00  0.00     0.009 A 
ATOM     65  C   UNL A   1      44.588  33.360  30.199  1.00  0.00     0.009 A 
ATOM     66  C   UNL A   1      44.389  33.980  32.912  1.00  0.00     0.001 A 
ATOM     67  C   UNL A   1      44.834  34.662  30.639  1.00  0.00     0.001 A 
ATOM     68  C   UNL A   1      44.722  34.974  31.993  1.00  0.00     0.000 A 
ENDBRANCH  49  63
BRANCH  50  69
ATOM     69  C   UNL A   1      42.054  23.281  27.538  1.00  0.00    -0.014 A 
ATOM     70  C   UNL A   1      42.315  23.011  26.185  1.00  0.00     0.009 A 
ATOM     71  C   UNL A   1      41.504  22.268  28.338  1.00  0.00     0.009 A 
ATOM     72  C   UNL A   1      42.006  21.762  25.641  1.00  0.00     0.001 A 
ATOM     73  C   UNL A   1      41.225  21.010  27.798  1.00  0.00     0.001 A 
ATOM     74  C   UNL A   1      41.467  20.761  26.447  1.00  0.00     0.000 A 
ENDBRANCH  50  69
BRANCH  62  75
ATOM     75  C   UNL A   1      47.910  26.250  29.847  1.00  0.00    -0.014 A 
ATOM     76  C   UNL A   1      48.805  26.235  28.767  1.00  0.00     0.009 A 
ATOM     77  C   UNL A   1      48.348  25.797  31.101  1.00  0.00     0.009 A 
ATOM     78  C   UNL A   1      50.099  25.737  28.929  1.00  0.00     0.001 A 
ATOM     79  C   UNL A   1      49.652  25.328  31.268  1.00  0.00     0.001 A 
ATOM     80  C   UNL A   1      50.522  25.289  30.181  1.00  0.00     0.000 A 
ENDBRANCH  62  75
ENDBRANCH  36  37
ENDBRANCH  28  31
ENDBRANCH  26  27
ENDBRANCH   1  26
TORSDOF 13
ENDMDL
MODEL 3
REMARK VINA RESULT:     -11.6      2.645      8.358
REMARK SMILES C[C@H]1[C@H](C(=O)NCCCNC(=O)c2ccc(-c3c4nc(c(-c5ccccc5)c5ccc([nH]5)c(-c5ccccc5)c5nc(c(-c6ccccc6)c6ccc3[nH]6)C=C5)C=C4)cc2)CC[N@@H+]1[C@@H](c1ccccc1)c1ccco1
REMARK SMILES IDX 8 1 7 2 6 3 4 4 5 5 3 7 1 8 2 9 63 10 61 11 62 12 64 14
REMARK SMILES IDX 65 15 66 16 70 17 67 18 69 19 68 20 71 21 72 22 75 23 73 24
REMARK SMILES IDX 74 25 9 26 10 27 11 28 12 30 13 31 14 32 60 33 15 34 59 35
REMARK SMILES IDX 16 36 17 37 18 38 53 39 19 40 58 41 52 42 54 43 20 44 57 45
REMARK SMILES IDX 51 46 50 47 21 49 43 50 28 51 42 52 29 53 32 54 41 55 55 56
REMARK SMILES IDX 30 57 31 58 40 60 56 61 33 62 22 63 23 64 27 65 24 66 26 67
REMARK SMILES IDX 25 68 44 69 45 70 49 71 46 72 48 73 47 74 34 75 35 76 39 77
REMARK SMILES IDX 36 78 38 79 37 80
REMARK H PARENT 6 6 63 13 10 29 54 48 32 59
REMARK Flexibility Score: inf
ROOT
ATOM      1  C   UNL A   1      36.216  23.099  23.824  1.00  0.00     0.042 C 
ENDROOT
BRANCH   1   2
ATOM      2  C   UNL A   1      34.768  22.745  24.146  1.00  0.00     0.117 C 
BRANCH   2   3
ATOM      3  N   UNL A   1      34.231  23.535  25.229  1.00  0.00    -0.356 N 
ATOM      4  C   UNL A   1      33.386  24.599  25.197  1.00  0.00     0.229 C 
ATOM      5  O   UNL A   1      33.028  25.043  26.293  1.00  0.00    -0.275 OA
ATOM      6  H   UNL A   1      34.521  23.261  26.129  1.00  0.00     0.163 HD
BRANCH   4   7
ATOM      7  C   UNL A   1      32.835  25.222  23.913  1.00  0.00     0.142 C 
ATOM      8  C   UNL A   1      30.360  25.176  23.513  1.00  0.00     0.076 C 
ATOM      9  C   UNL A   1      31.532  26.040  24.002  1.00  0.00     0.194 C 
ATOM     10  N   UNL A   1      31.692  27.189  23.084  1.00  0.00    -0.319 N 
ATOM     11  C   UNL A   1      33.806  26.120  23.163  1.00  0.00     0.081 C 
ATOM     12  C   UNL A   1      32.883  26.953  22.280  1.00  0.00     0.264 C 
ATOM     13  H   UNL A   1      30.895  27.221  22.448  1.00  0.00     0.349 HD
BRANCH  10  14
ATOM     14  C   UNL A   1      31.448  28.550  23.627  1.00  0.00     0.283 C 
BRANCH  14  15
ATOM     15  C   UNL A   1      30.078  29.225  23.446  1.00  0.00     0.017 A 
ATOM     16  C   UNL A   1      29.920  30.558  23.876  1.00  0.00     0.010 A 
ATOM     17  C   UNL A   1      28.923  28.560  22.999  1.00  0.00     0.010 A 
ATOM     18  C   UNL A   1      28.693  31.216  23.765  1.00  0.00     0.001 A 
ATOM     19  C   UNL A   1      27.703  29.227  22.854  1.00  0.00     0.001 A 
ATOM     20  C   UNL A   1      27.592  30.560  23.224  1.00  0.00     0.000 A 
ENDBRANCH  14  15
BRANCH  14  21
ATOM     21  C   UNL A   1      31.942  28.712  25.049  1.00  0.00     0.165 A 
ATOM     22  C   UNL A   1      31.403  28.390  26.280  1.00  0.00     0.052 A 
ATOM     23  O   UNL A   1      33.234  29.134  25.222  1.00  0.00    -0.463 OA
ATOM     24  C   UNL A   1      32.434  28.578  27.236  1.00  0.00     0.042 A 
ATOM     25  C   UNL A   1      33.529  29.026  26.539  1.00  0.00     0.195 A 
ENDBRANCH  14  21
ENDBRANCH  10  14
ENDBRANCH   4   7
ENDBRANCH   2   3
ENDBRANCH   1   2
BRANCH   1  26
ATOM     26  C   UNL A   1      37.004  23.607  25.024  1.00  0.00     0.118 C 
BRANCH  26  27
ATOM     27  N   UNL A   1      38.116  22.738  25.405  1.00  0.00    -0.352 N 
ATOM     28  C   UNL A   1      39.262  22.945  26.126  1.00  0.00     0.251 C 
ATOM     29  H   UNL A   1      38.022  21.815  25.077  1.00  0.00     0.163 HD
ATOM     30  O   UNL A   1      40.099  22.036  26.184  1.00  0.00    -0.269 OA
BRANCH  28  31
ATOM     31  C   UNL A   1      39.554  24.222  26.812  1.00  0.00     0.039 A 
ATOM     32  C   UNL A   1      40.281  25.208  26.129  1.00  0.00     0.014 A 
ATOM     33  C   UNL A   1      39.190  24.442  28.138  1.00  0.00     0.014 A 
ATOM     34  C   UNL A   1      40.592  26.419  26.756  1.00  0.00     0.010 A 
ATOM     35  C   UNL A   1      39.398  25.687  28.722  1.00  0.00     0.010 A 
ATOM     36  C   UNL A   1      40.126  26.680  28.052  1.00  0.00    -0.014 A 
BRANCH  36  37
ATOM     37  C   UNL A   1      40.433  27.945  28.769  1.00  0.00     0.031 A 
ATOM     38  C   UNL A   1      41.735  28.076  29.518  1.00  0.00     0.074 A 
ATOM     39  C   UNL A   1      39.520  28.933  28.829  1.00  0.00     0.049 A 
ATOM     40  N   UNL A   1      42.126  29.009  30.349  1.00  0.00    -0.248 NA
ATOM     41  C   UNL A   1      42.708  26.984  29.345  1.00  0.00     0.031 C 
ATOM     42  C   UNL A   1      38.210  28.923  28.176  1.00  0.00     0.029 A 
ATOM     43  N   UNL A   1      39.552  30.134  29.493  1.00  0.00    -0.354 N 
ATOM     44  C   UNL A   1      43.363  28.594  30.826  1.00  0.00     0.074 A 
ATOM     45  C   UNL A   1      43.633  27.302  30.238  1.00  0.00     0.031 C 
ATOM     46  C   UNL A   1      37.571  30.071  28.457  1.00  0.00     0.029 A 
ATOM     47  C   UNL A   1      38.403  30.873  29.348  1.00  0.00     0.049 A 
ATOM     48  H   UNL A   1      40.324  30.437  30.023  1.00  0.00     0.167 HD
ATOM     49  C   UNL A   1      44.213  29.239  31.661  1.00  0.00     0.031 A 
ATOM     50  C   UNL A   1      38.053  32.057  29.884  1.00  0.00     0.031 A 
ATOM     51  C   UNL A   1      43.960  30.540  32.218  1.00  0.00     0.049 A 
ATOM     52  C   UNL A   1      39.017  32.763  30.798  1.00  0.00     0.074 A 
ATOM     53  C   UNL A   1      44.779  31.309  33.026  1.00  0.00     0.029 A 
ATOM     54  N   UNL A   1      42.799  31.271  32.014  1.00  0.00    -0.354 N 
ATOM     55  N   UNL A   1      40.201  32.376  31.208  1.00  0.00    -0.248 NA
ATOM     56  C   UNL A   1      38.598  34.073  31.313  1.00  0.00     0.031 C 
ATOM     57  C   UNL A   1      44.095  32.486  33.346  1.00  0.00     0.029 A 
ATOM     58  C   UNL A   1      42.874  32.475  32.691  1.00  0.00     0.049 A 
ATOM     59  H   UNL A   1      42.034  30.976  31.468  1.00  0.00     0.167 HD
ATOM     60  C   UNL A   1      40.679  33.407  32.007  1.00  0.00     0.074 A 
ATOM     61  C   UNL A   1      39.666  34.441  32.006  1.00  0.00     0.031 C 
ATOM     62  C   UNL A   1      41.852  33.489  32.683  1.00  0.00     0.031 A 
BRANCH  49  63
ATOM     63  C   UNL A   1      45.496  28.537  32.019  1.00  0.00    -0.014 A 
ATOM     64  C   UNL A   1      45.577  27.686  33.134  1.00  0.00     0.009 A 
ATOM     65  C   UNL A   1      46.638  28.716  31.223  1.00  0.00     0.009 A 
ATOM     66  C   UNL A   1      46.783  27.070  33.471  1.00  0.00     0.001 A 
ATOM     67  C   UNL A   1      47.834  28.071  31.542  1.00  0.00     0.001 A 
ATOM     68  C   UNL A   1      47.910  27.259  32.672  1.00  0.00     0.000 A 
ENDBRANCH  49  63
BRANCH  50  69
ATOM     69  C   UNL A   1      36.732  32.659  29.560  1.00  0.00    -0.014 A 
ATOM     70  C   UNL A   1      35.649  32.510  30.441  1.00  0.00     0.009 A 
ATOM     71  C   UNL A   1      36.549  33.388  28.376  1.00  0.00     0.009 A 
ATOM     72  C   UNL A   1      34.402  33.057  30.127  1.00  0.00     0.001 A 
ATOM     73  C   UNL A   1      35.309  33.960  28.080  1.00  0.00     0.001 A 
ATOM     74  C   UNL A   1      34.234  33.786  28.952  1.00  0.00     0.000 A 
ENDBRANCH  50  69
BRANCH  62  75
ATOM     75  C   UNL A   1      42.111  34.757  33.447  1.00  0.00    -0.014 A 
ATOM     76  C   UNL A   1      42.848  35.811  32.887  1.00  0.00     0.009 A 
ATOM     77  C   UNL A   1      41.582  34.908  34.739  1.00  0.00     0.009 A 
ATOM     78  C   UNL A   1      43.085  36.975  33.621  1.00  0.00     0.001 A 
ATOM     79  C   UNL A   1      41.794  36.084  35.459  1.00  0.00     0.001 A 
ATOM     80  C   UNL A   1      42.555  37.111  34.903  1.00  0.00     0.000 A 
ENDBRANCH  62  75
ENDBRANCH  36  37
ENDBRANCH  28  31
ENDBRANCH  26  27
ENDBRANCH   1  26
TORSDOF 13
ENDMDL
