MODEL 1
REMARK VINA RESULT:     -11.3      0.000      0.000
REMARK SMILES Cc1ccc(OCC(=O)Oc2ccc(C(=O)NCCCNC(=O)c3ccc(-c4c5nc(c(-c6ccccc6)c6ccc([nH]6)c(-c6ccccc6)c6nc(c(-c7ccccc7)c7ccc4[nH]7)C=C6)C=C5)cc3)cc2)cc1C
REMARK SMILES IDX 15 1 16 2 17 3 14 5 11 6 12 7 73 8 13 9 72 10 10 11 8 12
REMARK SMILES IDX 9 13 7 14 6 15 5 16 1 17 2 18 3 19 75 20 4 21 74 22 76 23
REMARK SMILES IDX 18 24 19 25 20 26 21 27 22 28 23 30 24 31 25 32 71 33 26 34
REMARK SMILES IDX 70 35 27 36 28 37 29 38 64 39 30 40 69 41 63 42 65 43 31 44
REMARK SMILES IDX 68 45 62 46 61 47 32 49 54 50 39 51 53 52 40 53 43 54 52 55
REMARK SMILES IDX 66 56 41 57 42 58 51 60 67 61 44 62 33 63 34 64 38 65 35 66
REMARK SMILES IDX 37 67 36 68 55 69 56 70 60 71 57 72 59 73 58 74 45 75 46 76
REMARK SMILES IDX 50 77 47 78 49 79 48 80
REMARK H PARENT 17 4 21 29 65 48 43 59
REMARK Flexibility Score: inf
ROOT
ATOM      1  C   UNL A   1      32.429  29.012  24.692  1.00  0.00     0.251 C 
ATOM      2  O   UNL A   1      32.784  29.017  23.515  1.00  0.00    -0.269 OA
ATOM      3  N   UNL A   1      32.251  30.217  25.327  1.00  0.00    -0.352 N 
ATOM      4  H   UNL A   1      32.527  31.000  24.799  1.00  0.00     0.163 HD
ENDROOT
BRANCH   1   5
ATOM      5  C   UNL A   1      32.160  27.715  25.364  1.00  0.00     0.040 A 
ATOM      6  C   UNL A   1      31.788  25.236  26.590  1.00  0.00     0.131 A 
ATOM      7  C   UNL A   1      33.077  25.745  26.453  1.00  0.00     0.048 A 
ATOM      8  C   UNL A   1      30.680  25.986  26.200  1.00  0.00     0.048 A 
ATOM      9  C   UNL A   1      33.262  26.986  25.838  1.00  0.00     0.017 A 
ATOM     10  C   UNL A   1      30.870  27.229  25.593  1.00  0.00     0.017 A 
BRANCH   6  11
ATOM     11  O   UNL A   1      31.652  23.981  27.195  1.00  0.00    -0.424 OA
BRANCH  11  12
ATOM     12  C   UNL A   1      30.498  23.269  26.874  1.00  0.00     0.349 C 
ATOM     13  O   UNL A   1      29.400  23.369  27.413  1.00  0.00    -0.248 OA
BRANCH  12  14
ATOM     14  C   UNL A   1      30.790  22.287  25.748  1.00  0.00     0.352 C 
BRANCH  14  15
ATOM     15  O   UNL A   1      31.089  22.849  24.482  1.00  0.00    -0.482 OA
BRANCH  15  16
ATOM     16  C   UNL A   1      32.401  22.916  24.105  1.00  0.00     0.120 A 
ATOM     17  C   UNL A   1      36.646  22.869  23.271  1.00  0.00     0.044 C 
ATOM     18  C   UNL A   1      35.172  22.843  23.567  1.00  0.00    -0.048 A 
ATOM     19  C   UNL A   1      34.355  23.846  23.027  1.00  0.00     0.007 A 
ATOM     20  C   UNL A   1      34.587  21.843  24.365  1.00  0.00    -0.045 A 
ATOM     21  C   UNL A   1      32.980  23.879  23.285  1.00  0.00     0.047 A 
ATOM     22  C   UNL A   1      33.206  21.901  24.627  1.00  0.00     0.050 A 
ATOM     23  C   UNL A   1      35.362  20.698  24.954  1.00  0.00     0.045 C 
ENDBRANCH  15  16
ENDBRANCH  14  15
ENDBRANCH  12  14
ENDBRANCH  11  12
ENDBRANCH   6  11
ENDBRANCH   1   5
BRANCH   3  24
ATOM     24  C   UNL A   1      31.726  30.535  26.644  1.00  0.00     0.118 C 
BRANCH  24  25
ATOM     25  C   UNL A   1      31.440  32.030  26.789  1.00  0.00     0.042 C 
BRANCH  25  26
ATOM     26  C   UNL A   1      32.695  32.887  26.916  1.00  0.00     0.118 C 
BRANCH  26  27
ATOM     27  N   UNL A   1      32.477  34.066  27.739  1.00  0.00    -0.352 N 
ATOM     28  C   UNL A   1      33.171  34.519  28.834  1.00  0.00     0.251 C 
ATOM     29  H   UNL A   1      31.714  34.627  27.469  1.00  0.00     0.163 HD
ATOM     30  O   UNL A   1      32.705  35.433  29.508  1.00  0.00    -0.269 OA
BRANCH  28  31
ATOM     31  C   UNL A   1      34.465  33.912  29.221  1.00  0.00     0.039 A 
ATOM     32  C   UNL A   1      34.497  33.051  30.324  1.00  0.00     0.014 A 
ATOM     33  C   UNL A   1      35.651  34.224  28.550  1.00  0.00     0.014 A 
ATOM     34  C   UNL A   1      35.702  32.469  30.721  1.00  0.00     0.010 A 
ATOM     35  C   UNL A   1      36.841  33.591  28.906  1.00  0.00     0.010 A 
ATOM     36  C   UNL A   1      36.881  32.714  30.000  1.00  0.00    -0.014 A 
BRANCH  36  37
ATOM     37  C   UNL A   1      38.163  32.073  30.382  1.00  0.00     0.031 A 
ATOM     38  C   UNL A   1      39.108  32.765  31.325  1.00  0.00     0.074 A 
ATOM     39  C   UNL A   1      38.509  30.892  29.834  1.00  0.00     0.049 A 
ATOM     40  N   UNL A   1      40.299  32.393  31.723  1.00  0.00    -0.248 NA
ATOM     41  C   UNL A   1      38.666  34.057  31.874  1.00  0.00     0.031 C 
ATOM     42  C   UNL A   1      37.699  30.133  28.877  1.00  0.00     0.029 A 
ATOM     43  N   UNL A   1      39.637  30.129  29.995  1.00  0.00    -0.354 N 
ATOM     44  C   UNL A   1      40.754  33.410  32.553  1.00  0.00     0.074 A 
ATOM     45  C   UNL A   1      39.732  34.435  32.565  1.00  0.00     0.031 C 
ATOM     46  C   UNL A   1      38.351  29.005  28.551  1.00  0.00     0.029 A 
ATOM     47  C   UNL A   1      39.635  28.979  29.245  1.00  0.00     0.049 A 
ATOM     48  H   UNL A   1      40.379  30.382  30.591  1.00  0.00     0.167 HD
ATOM     49  C   UNL A   1      41.909  33.481  33.256  1.00  0.00     0.031 A 
ATOM     50  C   UNL A   1      40.564  28.013  29.121  1.00  0.00     0.031 A 
ATOM     51  C   UNL A   1      42.926  32.462  33.251  1.00  0.00     0.049 A 
ATOM     52  C   UNL A   1      41.841  28.113  29.906  1.00  0.00     0.074 A 
ATOM     53  C   UNL A   1      44.110  32.419  33.966  1.00  0.00     0.029 A 
ATOM     54  N   UNL A   1      42.876  31.304  32.491  1.00  0.00    -0.354 N 
ATOM     55  N   UNL A   1      42.231  29.055  30.730  1.00  0.00    -0.248 NA
ATOM     56  C   UNL A   1      42.799  27.009  29.754  1.00  0.00     0.031 C 
ATOM     57  C   UNL A   1      44.797  31.256  33.606  1.00  0.00     0.029 A 
ATOM     58  C   UNL A   1      44.018  30.549  32.704  1.00  0.00     0.049 A 
ATOM     59  H   UNL A   1      42.139  31.055  31.887  1.00  0.00     0.167 HD
ATOM     60  C   UNL A   1      43.469  28.649  31.210  1.00  0.00     0.074 A 
ATOM     61  C   UNL A   1      43.757  27.368  30.597  1.00  0.00     0.031 C 
ATOM     62  C   UNL A   1      44.293  29.280  32.082  1.00  0.00     0.031 A 
BRANCH  49  63
ATOM     63  C   UNL A   1      42.136  34.716  34.084  1.00  0.00    -0.014 A 
ATOM     64  C   UNL A   1      42.731  35.862  33.530  1.00  0.00     0.009 A 
ATOM     65  C   UNL A   1      41.738  34.742  35.428  1.00  0.00     0.009 A 
ATOM     66  C   UNL A   1      42.960  36.992  34.317  1.00  0.00     0.001 A 
ATOM     67  C   UNL A   1      41.941  35.884  36.206  1.00  0.00     0.001 A 
ATOM     68  C   UNL A   1      42.563  37.002  35.653  1.00  0.00     0.000 A 
ENDBRANCH  49  63
BRANCH  50  69
ATOM     69  C   UNL A   1      40.310  26.856  28.225  1.00  0.00    -0.014 A 
ATOM     70  C   UNL A   1      39.535  25.773  28.665  1.00  0.00     0.009 A 
ATOM     71  C   UNL A   1      40.826  26.838  26.920  1.00  0.00     0.009 A 
ATOM     72  C   UNL A   1      39.298  24.686  27.822  1.00  0.00     0.001 A 
ATOM     73  C   UNL A   1      40.566  25.761  26.071  1.00  0.00     0.001 A 
ATOM     74  C   UNL A   1      39.808  24.683  26.524  1.00  0.00     0.000 A 
ENDBRANCH  50  69
BRANCH  62  75
ATOM     75  C   UNL A   1      45.571  28.581  32.445  1.00  0.00    -0.014 A 
ATOM     76  C   UNL A   1      45.630  27.681  33.520  1.00  0.00     0.009 A 
ATOM     77  C   UNL A   1      46.724  28.799  31.675  1.00  0.00     0.009 A 
ATOM     78  C   UNL A   1      46.827  27.037  33.836  1.00  0.00     0.001 A 
ATOM     79  C   UNL A   1      47.913  28.134  31.977  1.00  0.00     0.001 A 
ATOM     80  C   UNL A   1      47.966  27.260  33.061  1.00  0.00     0.000 A 
ENDBRANCH  62  75
ENDBRANCH  36  37
ENDBRANCH  28  31
ENDBRANCH  26  27
ENDBRANCH  25  26
ENDBRANCH  24  25
ENDBRANCH   3  24
TORSDOF 15
ENDMDL
MODEL 2
REMARK VINA RESULT:     -11.3      3.389      8.672
REMARK SMILES Cc1ccc(OCC(=O)Oc2ccc(C(=O)NCCCNC(=O)c3ccc(-c4c5nc(c(-c6ccccc6)c6ccc([nH]6)c(-c6ccccc6)c6nc(c(-c7ccccc7)c7ccc4[nH]7)C=C6)C=C5)cc3)cc2)cc1C
REMARK SMILES IDX 15 1 16 2 17 3 14 5 11 6 12 7 73 8 13 9 72 10 10 11 8 12
REMARK SMILES IDX 9 13 7 14 6 15 5 16 1 17 2 18 3 19 75 20 4 21 74 22 76 23
REMARK SMILES IDX 18 24 19 25 20 26 21 27 22 28 23 30 24 31 25 32 71 33 26 34
REMARK SMILES IDX 70 35 27 36 28 37 29 38 64 39 30 40 69 41 63 42 65 43 31 44
REMARK SMILES IDX 68 45 62 46 61 47 32 49 54 50 39 51 53 52 40 53 43 54 52 55
REMARK SMILES IDX 66 56 41 57 42 58 51 60 67 61 44 62 33 63 34 64 38 65 35 66
REMARK SMILES IDX 37 67 36 68 55 69 56 70 60 71 57 72 59 73 58 74 45 75 46 76
REMARK SMILES IDX 50 77 47 78 49 79 48 80
REMARK H PARENT 17 4 21 29 65 48 43 59
REMARK Flexibility Score: inf
ROOT
ATOM      1  C   UNL A   1      36.301  22.662  25.311  1.00  0.00     0.251 C 
ATOM      2  O   UNL A   1      36.843  23.748  25.510  1.00  0.00    -0.269 OA
ATOM      3  N   UNL A   1      37.084  21.602  24.924  1.00  0.00    -0.352 N 
ATOM      4  H   UNL A   1      38.022  21.834  24.739  1.00  0.00     0.163 HD
ENDROOT
BRANCH   1   5
ATOM      5  C   UNL A   1      34.840  22.527  25.540  1.00  0.00     0.040 A 
ATOM      6  C   UNL A   1      32.073  22.341  25.849  1.00  0.00     0.131 A 
ATOM      7  C   UNL A   1      32.612  22.455  24.570  1.00  0.00     0.048 A 
ATOM      8  C   UNL A   1      32.900  22.234  26.965  1.00  0.00     0.048 A 
ATOM      9  C   UNL A   1      33.999  22.549  24.418  1.00  0.00     0.017 A 
ATOM     10  C   UNL A   1      34.285  22.321  26.807  1.00  0.00     0.017 A 
BRANCH   6  11
ATOM     11  O   UNL A   1      30.678  22.270  25.956  1.00  0.00    -0.424 OA
BRANCH  11  12
ATOM     12  C   UNL A   1      30.088  23.157  26.853  1.00  0.00     0.349 C 
ATOM     13  O   UNL A   1      29.512  22.869  27.898  1.00  0.00    -0.248 OA
BRANCH  12  14
ATOM     14  C   UNL A   1      30.219  24.583  26.337  1.00  0.00     0.352 C 
BRANCH  14  15
ATOM     15  O   UNL A   1      31.289  25.349  26.865  1.00  0.00    -0.482 OA
BRANCH  15  16
ATOM     16  C   UNL A   1      32.009  26.125  25.999  1.00  0.00     0.120 A 
ATOM     17  C   UNL A   1      33.893  28.687  23.067  1.00  0.00     0.044 C 
ATOM     18  C   UNL A   1      33.208  27.828  24.092  1.00  0.00    -0.048 A 
ATOM     19  C   UNL A   1      33.956  26.848  24.763  1.00  0.00     0.007 A 
ATOM     20  C   UNL A   1      31.845  27.976  24.404  1.00  0.00    -0.045 A 
ATOM     21  C   UNL A   1      33.365  26.010  25.714  1.00  0.00     0.047 A 
ATOM     22  C   UNL A   1      31.264  27.113  25.352  1.00  0.00     0.050 A 
ATOM     23  C   UNL A   1      30.964  29.022  23.779  1.00  0.00     0.045 C 
ENDBRANCH  15  16
ENDBRANCH  14  15
ENDBRANCH  12  14
ENDBRANCH  11  12
ENDBRANCH   6  11
ENDBRANCH   1   5
BRANCH   3  24
ATOM     24  C   UNL A   1      36.765  20.195  24.740  1.00  0.00     0.118 C 
BRANCH  24  25
ATOM     25  C   UNL A   1      37.990  19.308  24.962  1.00  0.00     0.042 C 
BRANCH  25  26
ATOM     26  C   UNL A   1      39.103  19.983  25.757  1.00  0.00     0.118 C 
BRANCH  26  27
ATOM     27  N   UNL A   1      40.311  19.175  25.811  1.00  0.00    -0.352 N 
ATOM     28  C   UNL A   1      41.605  19.539  26.093  1.00  0.00     0.251 C 
ATOM     29  H   UNL A   1      40.181  18.219  25.616  1.00  0.00     0.163 HD
ATOM     30  O   UNL A   1      42.514  18.739  25.892  1.00  0.00    -0.269 OA
BRANCH  28  31
ATOM     31  C   UNL A   1      41.920  20.886  26.620  1.00  0.00     0.039 A 
ATOM     32  C   UNL A   1      42.327  21.878  25.720  1.00  0.00     0.014 A 
ATOM     33  C   UNL A   1      41.875  21.166  27.988  1.00  0.00     0.014 A 
ATOM     34  C   UNL A   1      42.641  23.157  26.185  1.00  0.00     0.010 A 
ATOM     35  C   UNL A   1      42.124  22.460  28.444  1.00  0.00     0.010 A 
ATOM     36  C   UNL A   1      42.518  23.466  27.549  1.00  0.00    -0.014 A 
BRANCH  36  37
ATOM     37  C   UNL A   1      42.807  24.830  28.057  1.00  0.00     0.031 A 
ATOM     38  C   UNL A   1      44.206  25.212  28.456  1.00  0.00     0.074 A 
ATOM     39  C   UNL A   1      41.801  25.711  28.217  1.00  0.00     0.049 A 
ATOM     40  N   UNL A   1      44.640  26.331  28.980  1.00  0.00    -0.248 NA
ATOM     41  C   UNL A   1      45.250  24.193  28.263  1.00  0.00     0.031 C 
ATOM     42  C   UNL A   1      40.393  25.455  27.902  1.00  0.00     0.029 A 
ATOM     43  N   UNL A   1      41.807  26.996  28.695  1.00  0.00    -0.354 N 
ATOM     44  C   UNL A   1      46.000  26.144  29.195  1.00  0.00     0.074 A 
ATOM     45  C   UNL A   1      46.310  24.791  28.787  1.00  0.00     0.031 C 
ATOM     46  C   UNL A   1      39.675  26.555  28.180  1.00  0.00     0.029 A 
ATOM     47  C   UNL A   1      40.563  27.578  28.724  1.00  0.00     0.049 A 
ATOM     48  H   UNL A   1      42.625  27.458  28.990  1.00  0.00     0.167 HD
ATOM     49  C   UNL A   1      46.914  27.023  29.672  1.00  0.00     0.031 A 
ATOM     50  C   UNL A   1      40.176  28.796  29.148  1.00  0.00     0.031 A 
ATOM     51  C   UNL A   1      46.610  28.371  30.073  1.00  0.00     0.049 A 
ATOM     52  C   UNL A   1      41.205  29.753  29.678  1.00  0.00     0.074 A 
ATOM     53  C   UNL A   1      47.474  29.354  30.525  1.00  0.00     0.029 A 
ATOM     54  N   UNL A   1      45.340  28.927  30.071  1.00  0.00    -0.354 N 
ATOM     55  N   UNL A   1      42.496  29.581  29.822  1.00  0.00    -0.248 NA
ATOM     56  C   UNL A   1      40.723  31.079  30.091  1.00  0.00     0.031 C 
ATOM     57  C   UNL A   1      46.720  30.490  30.837  1.00  0.00     0.029 A 
ATOM     58  C   UNL A   1      45.394  30.232  30.531  1.00  0.00     0.049 A 
ATOM     59  H   UNL A   1      44.520  28.462  29.784  1.00  0.00     0.167 HD
ATOM     60  C   UNL A   1      42.985  30.780  30.322  1.00  0.00     0.074 A 
ATOM     61  C   UNL A   1      41.853  31.677  30.441  1.00  0.00     0.031 C 
ATOM     62  C   UNL A   1      44.258  31.110  30.650  1.00  0.00     0.031 A 
BRANCH  49  63
ATOM     63  C   UNL A   1      48.333  26.541  29.794  1.00  0.00    -0.014 A 
ATOM     64  C   UNL A   1      48.777  25.878  30.951  1.00  0.00     0.009 A 
ATOM     65  C   UNL A   1      49.233  26.735  28.737  1.00  0.00     0.009 A 
ATOM     66  C   UNL A   1      50.104  25.460  31.062  1.00  0.00     0.001 A 
ATOM     67  C   UNL A   1      50.553  26.290  28.838  1.00  0.00     0.001 A 
ATOM     68  C   UNL A   1      50.990  25.664  30.004  1.00  0.00     0.000 A 
ENDBRANCH  49  63
BRANCH  50  69
ATOM     69  C   UNL A   1      38.744  29.182  29.071  1.00  0.00    -0.014 A 
ATOM     70  C   UNL A   1      37.899  29.002  30.176  1.00  0.00     0.009 A 
ATOM     71  C   UNL A   1      38.220  29.747  27.899  1.00  0.00     0.009 A 
ATOM     72  C   UNL A   1      36.553  29.364  30.102  1.00  0.00     0.001 A 
ATOM     73  C   UNL A   1      36.879  30.132  27.837  1.00  0.00     0.001 A 
ATOM     74  C   UNL A   1      36.045  29.934  28.936  1.00  0.00     0.000 A 
ENDBRANCH  50  69
BRANCH  62  75
ATOM     75  C   UNL A   1      44.498  32.506  31.147  1.00  0.00    -0.014 A 
ATOM     76  C   UNL A   1      44.458  32.809  32.516  1.00  0.00     0.009 A 
ATOM     77  C   UNL A   1      44.805  33.525  30.232  1.00  0.00     0.009 A 
ATOM     78  C   UNL A   1      44.690  34.114  32.956  1.00  0.00     0.001 A 
ATOM     79  C   UNL A   1      45.063  34.822  30.677  1.00  0.00     0.001 A 
ATOM     80  C   UNL A   1      44.998  35.118  32.037  1.00  0.00     0.000 A 
ENDBRANCH  62  75
ENDBRANCH  36  37
ENDBRANCH  28  31
ENDBRANCH  26  27
ENDBRANCH  25  26
ENDBRANCH  24  25
ENDBRANCH   3  24
TORSDOF 15
ENDMDL
MODEL 3
REMARK VINA RESULT:     -11.3      3.905      8.988
REMARK SMILES Cc1ccc(OCC(=O)Oc2ccc(C(=O)NCCCNC(=O)c3ccc(-c4c5nc(c(-c6ccccc6)c6ccc([nH]6)c(-c6ccccc6)c6nc(c(-c7ccccc7)c7ccc4[nH]7)C=C6)C=C5)cc3)cc2)cc1C
REMARK SMILES IDX 15 1 16 2 17 3 14 5 11 6 12 7 73 8 13 9 72 10 10 11 8 12
REMARK SMILES IDX 9 13 7 14 6 15 5 16 1 17 2 18 3 19 75 20 4 21 74 22 76 23
REMARK SMILES IDX 18 24 19 25 20 26 21 27 22 28 23 30 24 31 25 32 71 33 26 34
REMARK SMILES IDX 70 35 27 36 28 37 29 38 64 39 30 40 69 41 63 42 65 43 31 44
REMARK SMILES IDX 68 45 62 46 61 47 32 49 54 50 39 51 53 52 40 53 43 54 52 55
REMARK SMILES IDX 66 56 41 57 42 58 51 60 67 61 44 62 33 63 34 64 38 65 35 66
REMARK SMILES IDX 37 67 36 68 55 69 56 70 60 71 57 72 59 73 58 74 45 75 46 76
REMARK SMILES IDX 50 77 47 78 49 79 48 80
REMARK H PARENT 17 4 21 29 65 48 43 59
REMARK Flexibility Score: inf
ROOT
ATOM      1  C   UNL A   1      37.371  23.258  25.589  1.00  0.00     0.251 C 
ATOM      2  O   UNL A   1      38.059  24.097  26.166  1.00  0.00    -0.269 OA
ATOM      3  N   UNL A   1      37.974  22.104  25.154  1.00  0.00    -0.352 N 
ATOM      4  H   UNL A   1      38.953  22.092  25.257  1.00  0.00     0.163 HD
ENDROOT
BRANCH   1   5
ATOM      5  C   UNL A   1      35.914  23.499  25.428  1.00  0.00     0.040 A 
ATOM      6  C   UNL A   1      33.153  23.833  25.199  1.00  0.00     0.131 A 
ATOM      7  C   UNL A   1      33.667  23.096  26.263  1.00  0.00     0.048 A 
ATOM      8  C   UNL A   1      34.002  24.473  24.299  1.00  0.00     0.048 A 
ATOM      9  C   UNL A   1      35.050  22.929  26.376  1.00  0.00     0.017 A 
ATOM     10  C   UNL A   1      35.383  24.310  24.421  1.00  0.00     0.017 A 
BRANCH   6  11
ATOM     11  O   UNL A   1      31.760  23.957  25.115  1.00  0.00    -0.424 OA
BRANCH  11  12
ATOM     12  C   UNL A   1      31.148  24.668  26.144  1.00  0.00     0.349 C 
ATOM     13  O   UNL A   1      30.998  24.296  27.304  1.00  0.00    -0.248 OA
BRANCH  12  14
ATOM     14  C   UNL A   1      30.633  26.002  25.622  1.00  0.00     0.352 C 
BRANCH  14  15
ATOM     15  O   UNL A   1      31.559  26.798  24.904  1.00  0.00    -0.482 OA
BRANCH  15  16
ATOM     16  C   UNL A   1      32.227  27.777  25.587  1.00  0.00     0.120 A 
ATOM     17  C   UNL A   1      34.082  31.171  27.526  1.00  0.00     0.044 C 
ATOM     18  C   UNL A   1      33.399  30.009  26.859  1.00  0.00    -0.048 A 
ATOM     19  C   UNL A   1      34.052  28.768  26.823  1.00  0.00     0.007 A 
ATOM     20  C   UNL A   1      32.125  30.125  26.275  1.00  0.00    -0.045 A 
ATOM     21  C   UNL A   1      33.470  27.659  26.201  1.00  0.00     0.047 A 
ATOM     22  C   UNL A   1      31.561  29.003  25.640  1.00  0.00     0.050 A 
ATOM     23  C   UNL A   1      31.318  31.393  26.298  1.00  0.00     0.045 C 
ENDBRANCH  15  16
ENDBRANCH  14  15
ENDBRANCH  12  14
ENDBRANCH  11  12
ENDBRANCH   6  11
ENDBRANCH   1   5
BRANCH   3  24
ATOM     24  C   UNL A   1      37.417  20.896  24.567  1.00  0.00     0.118 C 
BRANCH  24  25
ATOM     25  C   UNL A   1      38.310  19.682  24.826  1.00  0.00     0.042 C 
BRANCH  25  26
ATOM     26  C   UNL A   1      39.226  19.838  26.035  1.00  0.00     0.118 C 
BRANCH  26  27
ATOM     27  N   UNL A   1      40.423  19.020  25.931  1.00  0.00    -0.352 N 
ATOM     28  C   UNL A   1      41.747  19.378  26.002  1.00  0.00     0.251 C 
ATOM     29  H   UNL A   1      40.259  18.059  25.787  1.00  0.00     0.163 HD
ATOM     30  O   UNL A   1      42.610  18.562  25.692  1.00  0.00    -0.269 OA
BRANCH  28  31
ATOM     31  C   UNL A   1      42.147  20.736  26.434  1.00  0.00     0.039 A 
ATOM     32  C   UNL A   1      42.234  21.004  27.805  1.00  0.00     0.014 A 
ATOM     33  C   UNL A   1      42.380  21.760  25.511  1.00  0.00     0.014 A 
ATOM     34  C   UNL A   1      42.600  22.277  28.247  1.00  0.00     0.010 A 
ATOM     35  C   UNL A   1      42.809  23.011  25.951  1.00  0.00     0.010 A 
ATOM     36  C   UNL A   1      42.915  23.286  27.323  1.00  0.00    -0.014 A 
BRANCH  36  37
ATOM     37  C   UNL A   1      43.345  24.633  27.773  1.00  0.00     0.031 A 
ATOM     38  C   UNL A   1      42.323  25.675  28.134  1.00  0.00     0.074 A 
ATOM     39  C   UNL A   1      44.655  24.941  27.799  1.00  0.00     0.049 A 
ATOM     40  N   UNL A   1      42.505  26.924  28.485  1.00  0.00    -0.248 NA
ATOM     41  C   UNL A   1      40.910  25.267  28.070  1.00  0.00     0.031 C 
ATOM     42  C   UNL A   1      45.747  24.033  27.438  1.00  0.00     0.029 A 
ATOM     43  N   UNL A   1      45.291  26.109  28.135  1.00  0.00    -0.354 N 
ATOM     44  C   UNL A   1      41.233  27.454  28.665  1.00  0.00     0.074 A 
ATOM     45  C   UNL A   1      40.289  26.406  28.341  1.00  0.00     0.031 C 
ATOM     46  C   UNL A   1      46.917  24.673  27.589  1.00  0.00     0.029 A 
ATOM     47  C   UNL A   1      46.659  26.044  28.022  1.00  0.00     0.049 A 
ATOM     48  H   UNL A   1      44.813  26.918  28.430  1.00  0.00     0.167 HD
ATOM     49  C   UNL A   1      40.880  28.694  29.078  1.00  0.00     0.031 A 
ATOM     50  C   UNL A   1      47.600  26.982  28.233  1.00  0.00     0.031 A 
ATOM     51  C   UNL A   1      41.816  29.737  29.406  1.00  0.00     0.049 A 
ATOM     52  C   UNL A   1      47.187  28.352  28.687  1.00  0.00     0.074 A 
ATOM     53  C   UNL A   1      41.558  31.012  29.879  1.00  0.00     0.029 A 
ATOM     54  N   UNL A   1      43.193  29.624  29.294  1.00  0.00    -0.354 N 
ATOM     55  N   UNL A   1      45.982  28.821  28.907  1.00  0.00    -0.248 NA
ATOM     56  C   UNL A   1      48.264  29.321  28.934  1.00  0.00     0.031 C 
ATOM     57  C   UNL A   1      42.777  31.685  30.012  1.00  0.00     0.029 A 
ATOM     58  C   UNL A   1      43.797  30.812  29.670  1.00  0.00     0.049 A 
ATOM     59  H   UNL A   1      43.670  28.818  28.990  1.00  0.00     0.167 HD
ATOM     60  C   UNL A   1      46.157  30.129  29.338  1.00  0.00     0.074 A 
ATOM     61  C   UNL A   1      47.584  30.374  29.364  1.00  0.00     0.031 C 
ATOM     62  C   UNL A   1      45.218  31.044  29.684  1.00  0.00     0.031 A 
BRANCH  49  63
ATOM     63  C   UNL A   1      39.409  28.990  29.188  1.00  0.00    -0.014 A 
ATOM     64  C   UNL A   1      38.692  29.516  28.100  1.00  0.00     0.009 A 
ATOM     65  C   UNL A   1      38.728  28.725  30.385  1.00  0.00     0.009 A 
ATOM     66  C   UNL A   1      37.333  29.811  28.225  1.00  0.00     0.001 A 
ATOM     67  C   UNL A   1      37.362  28.994  30.498  1.00  0.00     0.001 A 
ATOM     68  C   UNL A   1      36.669  29.547  29.422  1.00  0.00     0.000 A 
ENDBRANCH  49  63
BRANCH  50  69
ATOM     69  C   UNL A   1      49.033  26.646  28.031  1.00  0.00    -0.014 A 
ATOM     70  C   UNL A   1      49.798  26.131  29.088  1.00  0.00     0.009 A 
ATOM     71  C   UNL A   1      49.637  26.824  26.777  1.00  0.00     0.009 A 
ATOM     72  C   UNL A   1      51.145  25.818  28.897  1.00  0.00     0.001 A 
ATOM     73  C   UNL A   1      50.977  26.486  26.583  1.00  0.00     0.001 A 
ATOM     74  C   UNL A   1      51.732  25.989  27.644  1.00  0.00     0.000 A 
ENDBRANCH  50  69
BRANCH  62  75
ATOM     75  C   UNL A   1      45.708  32.386  30.144  1.00  0.00    -0.014 A 
ATOM     76  C   UNL A   1      46.032  32.621  31.488  1.00  0.00     0.009 A 
ATOM     77  C   UNL A   1      45.881  33.419  29.210  1.00  0.00     0.009 A 
ATOM     78  C   UNL A   1      46.492  33.876  31.894  1.00  0.00     0.001 A 
ATOM     79  C   UNL A   1      46.366  34.664  29.613  1.00  0.00     0.001 A 
ATOM     80  C   UNL A   1      46.663  34.894  30.956  1.00  0.00     0.000 A 
ENDBRANCH  62  75
ENDBRANCH  36  37
ENDBRANCH  28  31
ENDBRANCH  26  27
ENDBRANCH  25  26
ENDBRANCH  24  25
ENDBRANCH   3  24
TORSDOF 15
ENDMDL
