MODEL 1
REMARK VINA RESULT:     -10.6      0.000      0.000
REMARK SMILES COc1cccc(-n2cc(C(=O)NCCCNC(=O)c3ccc(-c4c5nc(c(-c6ccccc6)c6ccc([nH]6)c(-c6ccccc6)c6nc(c(-c7ccccc7)c7ccc4[nH]7)C=C6)C=C5)cc3)c3c2[C@H](c2cc(OC)c(OC)c(OC)c2)CC(=O)N3)c1
REMARK SMILES IDX 15 1 14 2 13 3 11 4 12 5 10 7 8 8 9 9 69 10 68 11 70 12
REMARK SMILES IDX 86 13 83 14 84 15 85 17 7 18 3 19 4 20 87 21 5 22 6 23 2 24
REMARK SMILES IDX 1 25 71 26 72 27 82 28 73 29 79 30 76 31 74 32 75 33 80 34
REMARK SMILES IDX 81 35 77 36 78 37 16 38 17 39 18 40 19 42 20 43 21 44 67 45
REMARK SMILES IDX 22 46 66 47 23 48 24 49 25 50 60 51 26 52 65 53 59 54 61 55
REMARK SMILES IDX 27 56 64 57 58 58 57 59 28 61 50 62 35 63 49 64 36 65 39 66
REMARK SMILES IDX 48 67 62 68 37 69 38 70 47 72 63 73 40 74 29 75 30 76 34 77
REMARK SMILES IDX 31 78 33 79 32 80 51 81 52 82 56 83 53 84 55 85 54 86 41 87
REMARK SMILES IDX 42 88 46 89 43 90 45 91 44 92
REMARK H PARENT 13 6 86 16 17 41 61 60 39 71
REMARK Flexibility Score: inf
ROOT
ATOM      1  C   UNL A   1      44.163  33.373  25.083  1.00  0.00     0.042 C 
ENDROOT
BRANCH   1   2
ATOM      2  C   UNL A   1      44.404  32.346  26.199  1.00  0.00     0.118 C 
BRANCH   2   3
ATOM      3  N   UNL A   1      45.790  31.941  26.266  1.00  0.00    -0.352 N 
ATOM      4  C   UNL A   1      46.427  30.795  26.660  1.00  0.00     0.254 C 
ATOM      5  O   UNL A   1      47.649  30.811  26.484  1.00  0.00    -0.269 OA
ATOM      6  H   UNL A   1      46.410  32.642  25.962  1.00  0.00     0.163 HD
BRANCH   4   7
ATOM      7  C   UNL A   1      45.778  29.606  27.238  1.00  0.00     0.081 A 
ATOM      8  N   UNL A   1      45.366  28.159  28.956  1.00  0.00    -0.317 N 
ATOM      9  C   UNL A   1      46.048  29.284  28.569  1.00  0.00     0.107 A 
ATOM     10  C   UNL A   1      44.602  27.737  27.893  1.00  0.00     0.055 A 
ATOM     11  C   UNL A   1      44.795  28.641  26.863  1.00  0.00     0.076 A 
ATOM     12  C   UNL A   1      43.607  26.592  27.835  1.00  0.00     0.078 C 
ATOM     13  N   UNL A   1      44.033  28.475  25.738  1.00  0.00    -0.324 N 
ATOM     14  C   UNL A   1      42.421  27.085  26.978  1.00  0.00     0.115 C 
ATOM     15  C   UNL A   1      42.898  27.714  25.683  1.00  0.00     0.225 C 
ATOM     16  H   UNL A   1      44.319  28.932  24.915  1.00  0.00     0.170 HD
ATOM     17  O   UNL A   1      42.275  27.610  24.627  1.00  0.00    -0.275 OA
BRANCH   8  18
ATOM     18  C   UNL A   1      45.482  27.583  30.233  1.00  0.00     0.049 A 
ATOM     19  C   UNL A   1      44.736  27.374  32.514  1.00  0.00     0.120 A 
ATOM     20  C   UNL A   1      45.721  26.399  32.718  1.00  0.00     0.046 A 
ATOM     21  C   UNL A   1      44.612  27.973  31.258  1.00  0.00     0.073 A 
ATOM     22  C   UNL A   1      46.616  26.059  31.705  1.00  0.00     0.006 A 
ATOM     23  C   UNL A   1      46.519  26.683  30.466  1.00  0.00     0.027 A 
BRANCH  19  24
ATOM     24  O   UNL A   1      43.984  27.645  33.623  1.00  0.00    -0.497 OA
ATOM     25  C   UNL A   1      44.557  27.357  34.890  1.00  0.00     0.278 C 
ENDBRANCH  19  24
ENDBRANCH   8  18
BRANCH  12  26
ATOM     26  C   UNL A   1      44.218  25.279  27.323  1.00  0.00    -0.031 A 
ATOM     27  C   UNL A   1      45.588  25.074  27.478  1.00  0.00     0.055 A 
ATOM     28  C   UNL A   1      43.505  24.258  26.671  1.00  0.00     0.055 A 
ATOM     29  C   UNL A   1      46.258  24.021  26.848  1.00  0.00     0.164 A 
ATOM     30  C   UNL A   1      44.135  23.110  26.147  1.00  0.00     0.164 A 
ATOM     31  C   UNL A   1      45.537  23.004  26.201  1.00  0.00     0.203 A 
BRANCH  29  32
ATOM     32  O   UNL A   1      47.624  24.087  26.974  1.00  0.00    -0.493 OA
ATOM     33  C   UNL A   1      48.220  25.269  26.440  1.00  0.00     0.278 C 
ENDBRANCH  29  32
BRANCH  30  34
ATOM     34  O   UNL A   1      43.429  22.115  25.520  1.00  0.00    -0.493 OA
ATOM     35  C   UNL A   1      42.656  21.234  26.329  1.00  0.00     0.278 C 
ENDBRANCH  30  34
BRANCH  31  36
ATOM     36  O   UNL A   1      46.296  21.997  25.664  1.00  0.00    -0.490 OA
ATOM     37  C   UNL A   1      46.204  21.738  24.272  1.00  0.00     0.278 C 
ENDBRANCH  31  36
ENDBRANCH  12  26
ENDBRANCH   4   7
ENDBRANCH   2   3
ENDBRANCH   1   2
BRANCH   1  38
ATOM     38  C   UNL A   1      43.598  34.688  25.579  1.00  0.00     0.118 C 
BRANCH  38  39
ATOM     39  N   UNL A   1      44.663  35.547  26.098  1.00  0.00    -0.352 N 
ATOM     40  C   UNL A   1      44.717  36.220  27.301  1.00  0.00     0.251 C 
ATOM     41  H   UNL A   1      45.445  35.658  25.511  1.00  0.00     0.163 HD
ATOM     42  O   UNL A   1      45.477  37.152  27.472  1.00  0.00    -0.269 OA
BRANCH  40  43
ATOM     43  C   UNL A   1      43.802  35.786  28.366  1.00  0.00     0.039 A 
ATOM     44  C   UNL A   1      42.582  36.437  28.549  1.00  0.00     0.014 A 
ATOM     45  C   UNL A   1      44.139  34.650  29.098  1.00  0.00     0.014 A 
ATOM     46  C   UNL A   1      41.648  35.869  29.407  1.00  0.00     0.010 A 
ATOM     47  C   UNL A   1      43.167  34.022  29.837  1.00  0.00     0.010 A 
ATOM     48  C   UNL A   1      41.929  34.637  30.019  1.00  0.00    -0.014 A 
BRANCH  48  49
ATOM     49  C   UNL A   1      40.862  33.907  30.704  1.00  0.00     0.031 A 
ATOM     50  C   UNL A   1      41.073  33.733  32.169  1.00  0.00     0.074 A 
ATOM     51  C   UNL A   1      39.671  33.618  30.135  1.00  0.00     0.049 A 
ATOM     52  N   UNL A   1      41.255  32.630  32.815  1.00  0.00    -0.248 NA
ATOM     53  C   UNL A   1      41.216  34.940  33.003  1.00  0.00     0.031 C 
ATOM     54  C   UNL A   1      39.202  34.023  28.805  1.00  0.00     0.029 A 
ATOM     55  N   UNL A   1      38.568  33.023  30.675  1.00  0.00    -0.354 N 
ATOM     56  C   UNL A   1      41.314  32.981  34.161  1.00  0.00     0.074 A 
ATOM     57  C   UNL A   1      41.474  34.411  34.201  1.00  0.00     0.031 C 
ATOM     58  C   UNL A   1      37.859  33.911  28.747  1.00  0.00     0.029 A 
ATOM     59  C   UNL A   1      37.403  33.243  29.950  1.00  0.00     0.049 A 
ATOM     60  H   UNL A   1      38.595  32.488  31.502  1.00  0.00     0.167 HD
ATOM     61  C   UNL A   1      40.911  32.110  35.127  1.00  0.00     0.031 A 
ATOM     62  C   UNL A   1      36.140  32.912  30.302  1.00  0.00     0.031 A 
ATOM     63  C   UNL A   1      40.750  30.780  34.599  1.00  0.00     0.049 A 
ATOM     64  C   UNL A   1      36.219  31.839  31.312  1.00  0.00     0.074 A 
ATOM     65  C   UNL A   1      41.561  29.764  34.150  1.00  0.00     0.029 A 
ATOM     66  N   UNL A   1      39.484  30.527  34.144  1.00  0.00    -0.354 N 
ATOM     67  N   UNL A   1      36.668  30.646  31.049  1.00  0.00    -0.248 NA
ATOM     68  C   UNL A   1      36.100  32.165  32.726  1.00  0.00     0.031 C 
ATOM     69  C   UNL A   1      40.776  29.025  33.214  1.00  0.00     0.029 A 
ATOM     70  C   UNL A   1      39.500  29.586  33.153  1.00  0.00     0.049 A 
ATOM     71  H   UNL A   1      38.670  30.964  34.485  1.00  0.00     0.167 HD
ATOM     72  C   UNL A   1      37.300  30.257  32.214  1.00  0.00     0.074 A 
ATOM     73  C   UNL A   1      36.751  31.123  33.249  1.00  0.00     0.031 C 
ATOM     74  C   UNL A   1      38.438  29.506  32.172  1.00  0.00     0.031 A 
BRANCH  61  75
ATOM     75  C   UNL A   1      40.128  32.527  36.360  1.00  0.00    -0.014 A 
ATOM     76  C   UNL A   1      38.823  33.029  36.183  1.00  0.00     0.009 A 
ATOM     77  C   UNL A   1      40.724  32.762  37.614  1.00  0.00     0.009 A 
ATOM     78  C   UNL A   1      38.190  33.792  37.173  1.00  0.00     0.001 A 
ATOM     79  C   UNL A   1      40.079  33.493  38.618  1.00  0.00     0.001 A 
ATOM     80  C   UNL A   1      38.823  34.032  38.387  1.00  0.00     0.000 A 
ENDBRANCH  61  75
BRANCH  62  81
ATOM     81  C   UNL A   1      34.865  33.560  29.940  1.00  0.00    -0.014 A 
ATOM     82  C   UNL A   1      34.342  34.598  30.727  1.00  0.00     0.009 A 
ATOM     83  C   UNL A   1      34.300  33.345  28.670  1.00  0.00     0.009 A 
ATOM     84  C   UNL A   1      33.325  35.426  30.237  1.00  0.00     0.001 A 
ATOM     85  C   UNL A   1      33.280  34.170  28.183  1.00  0.00     0.001 A 
ATOM     86  C   UNL A   1      32.807  35.223  28.960  1.00  0.00     0.000 A 
ENDBRANCH  62  81
BRANCH  74  87
ATOM     87  C   UNL A   1      38.696  28.701  30.930  1.00  0.00    -0.014 A 
ATOM     88  C   UNL A   1      38.706  27.298  30.896  1.00  0.00     0.009 A 
ATOM     89  C   UNL A   1      38.860  29.402  29.726  1.00  0.00     0.009 A 
ATOM     90  C   UNL A   1      38.908  26.618  29.690  1.00  0.00     0.001 A 
ATOM     91  C   UNL A   1      39.038  28.724  28.521  1.00  0.00     0.001 A 
ATOM     92  C   UNL A   1      39.069  27.332  28.504  1.00  0.00     0.000 A 
ENDBRANCH  74  87
ENDBRANCH  48  49
ENDBRANCH  40  43
ENDBRANCH  38  39
ENDBRANCH   1  38
TORSDOF 16
ENDMDL
MODEL 2
REMARK VINA RESULT:     -10.3      2.706      7.599
REMARK SMILES COc1cccc(-n2cc(C(=O)NCCCNC(=O)c3ccc(-c4c5nc(c(-c6ccccc6)c6ccc([nH]6)c(-c6ccccc6)c6nc(c(-c7ccccc7)c7ccc4[nH]7)C=C6)C=C5)cc3)c3c2[C@H](c2cc(OC)c(OC)c(OC)c2)CC(=O)N3)c1
REMARK SMILES IDX 15 1 14 2 13 3 11 4 12 5 10 7 8 8 9 9 69 10 68 11 70 12
REMARK SMILES IDX 86 13 83 14 84 15 85 17 7 18 3 19 4 20 87 21 5 22 6 23 2 24
REMARK SMILES IDX 1 25 71 26 72 27 82 28 73 29 79 30 76 31 74 32 75 33 80 34
REMARK SMILES IDX 81 35 77 36 78 37 16 38 17 39 18 40 19 42 20 43 21 44 67 45
REMARK SMILES IDX 22 46 66 47 23 48 24 49 25 50 60 51 26 52 65 53 59 54 61 55
REMARK SMILES IDX 27 56 64 57 58 58 57 59 28 61 50 62 35 63 49 64 36 65 39 66
REMARK SMILES IDX 48 67 62 68 37 69 38 70 47 72 63 73 40 74 29 75 30 76 34 77
REMARK SMILES IDX 31 78 33 79 32 80 51 81 52 82 56 83 53 84 55 85 54 86 41 87
REMARK SMILES IDX 42 88 46 89 43 90 45 91 44 92
REMARK H PARENT 13 6 86 16 17 41 61 60 39 71
REMARK Flexibility Score: inf
ROOT
ATOM      1  C   UNL A   1      44.104  21.457  25.544  1.00  0.00     0.042 C 
ENDROOT
BRANCH   1   2
ATOM      2  C   UNL A   1      45.576  21.878  25.664  1.00  0.00     0.118 C 
BRANCH   2   3
ATOM      3  N   UNL A   1      45.857  23.072  24.899  1.00  0.00    -0.352 N 
ATOM      4  C   UNL A   1      46.403  24.289  25.205  1.00  0.00     0.254 C 
ATOM      5  O   UNL A   1      46.555  25.034  24.231  1.00  0.00    -0.269 OA
ATOM      6  H   UNL A   1      45.599  22.992  23.953  1.00  0.00     0.163 HD
BRANCH   4   7
ATOM      7  C   UNL A   1      46.808  24.737  26.548  1.00  0.00     0.081 A 
ATOM      8  N   UNL A   1      46.376  25.212  28.740  1.00  0.00    -0.317 N 
ATOM      9  C   UNL A   1      45.840  24.782  27.552  1.00  0.00     0.107 A 
ATOM     10  C   UNL A   1      47.721  25.425  28.548  1.00  0.00     0.055 A 
ATOM     11  C   UNL A   1      48.009  25.082  27.238  1.00  0.00     0.076 A 
ATOM     12  C   UNL A   1      48.774  25.824  29.567  1.00  0.00     0.078 C 
ATOM     13  N   UNL A   1      49.326  25.109  26.863  1.00  0.00    -0.324 N 
ATOM     14  C   UNL A   1      50.047  25.023  29.217  1.00  0.00     0.115 C 
ATOM     15  C   UNL A   1      50.375  25.123  27.740  1.00  0.00     0.225 C 
ATOM     16  H   UNL A   1      49.531  25.118  25.901  1.00  0.00     0.170 HD
ATOM     17  O   UNL A   1      51.531  25.156  27.318  1.00  0.00    -0.275 OA
BRANCH   8  18
ATOM     18  C   UNL A   1      45.620  25.392  29.911  1.00  0.00     0.049 A 
ATOM     19  C   UNL A   1      44.474  24.485  31.826  1.00  0.00     0.120 A 
ATOM     20  C   UNL A   1      44.168  25.792  32.228  1.00  0.00     0.046 A 
ATOM     21  C   UNL A   1      45.209  24.280  30.656  1.00  0.00     0.073 A 
ATOM     22  C   UNL A   1      44.536  26.887  31.448  1.00  0.00     0.006 A 
ATOM     23  C   UNL A   1      45.234  26.683  30.263  1.00  0.00     0.027 A 
BRANCH  19  24
ATOM     24  O   UNL A   1      43.984  23.519  32.659  1.00  0.00    -0.497 OA
ATOM     25  C   UNL A   1      44.847  23.029  33.675  1.00  0.00     0.278 C 
ENDBRANCH  19  24
ENDBRANCH   8  18
BRANCH  12  26
ATOM     26  C   UNL A   1      49.012  27.339  29.635  1.00  0.00    -0.031 A 
ATOM     27  C   UNL A   1      49.904  27.834  30.586  1.00  0.00     0.055 A 
ATOM     28  C   UNL A   1      48.373  28.293  28.824  1.00  0.00     0.055 A 
ATOM     29  C   UNL A   1      50.010  29.199  30.865  1.00  0.00     0.164 A 
ATOM     30  C   UNL A   1      48.570  29.680  28.989  1.00  0.00     0.164 A 
ATOM     31  C   UNL A   1      49.370  30.145  30.049  1.00  0.00     0.203 A 
BRANCH  29  32
ATOM     32  O   UNL A   1      50.806  29.476  31.950  1.00  0.00    -0.493 OA
ATOM     33  C   UNL A   1      52.201  29.255  31.743  1.00  0.00     0.278 C 
ENDBRANCH  29  32
BRANCH  30  34
ATOM     34  O   UNL A   1      47.947  30.604  28.188  1.00  0.00    -0.493 OA
ATOM     35  C   UNL A   1      47.556  30.196  26.880  1.00  0.00     0.278 C 
ENDBRANCH  30  34
BRANCH  31  36
ATOM     36  O   UNL A   1      49.586  31.455  30.388  1.00  0.00    -0.490 OA
ATOM     37  C   UNL A   1      48.640  32.114  31.215  1.00  0.00     0.278 C 
ENDBRANCH  31  36
ENDBRANCH  12  26
ENDBRANCH   4   7
ENDBRANCH   2   3
ENDBRANCH   1   2
BRANCH   1  38
ATOM     38  C   UNL A   1      43.162  22.611  25.270  1.00  0.00     0.118 C 
BRANCH  38  39
ATOM     39  N   UNL A   1      41.782  22.241  25.590  1.00  0.00    -0.352 N 
ATOM     40  C   UNL A   1      40.904  22.859  26.455  1.00  0.00     0.251 C 
ATOM     41  H   UNL A   1      41.436  21.447  25.124  1.00  0.00     0.163 HD
ATOM     42  O   UNL A   1      39.927  22.279  26.887  1.00  0.00    -0.269 OA
BRANCH  40  43
ATOM     43  C   UNL A   1      41.202  24.240  26.859  1.00  0.00     0.039 A 
ATOM     44  C   UNL A   1      40.496  25.302  26.295  1.00  0.00     0.014 A 
ATOM     45  C   UNL A   1      42.119  24.439  27.888  1.00  0.00     0.014 A 
ATOM     46  C   UNL A   1      40.640  26.567  26.853  1.00  0.00     0.010 A 
ATOM     47  C   UNL A   1      42.156  25.658  28.521  1.00  0.00     0.010 A 
ATOM     48  C   UNL A   1      41.441  26.733  27.994  1.00  0.00    -0.014 A 
BRANCH  48  49
ATOM     49  C   UNL A   1      41.389  27.991  28.740  1.00  0.00     0.031 A 
ATOM     50  C   UNL A   1      42.438  28.979  28.359  1.00  0.00     0.074 A 
ATOM     51  C   UNL A   1      40.355  28.347  29.532  1.00  0.00     0.049 A 
ATOM     52  N   UNL A   1      43.406  29.424  29.090  1.00  0.00    -0.248 NA
ATOM     53  C   UNL A   1      42.487  29.443  26.961  1.00  0.00     0.031 C 
ATOM     54  C   UNL A   1      39.100  27.613  29.735  1.00  0.00     0.029 A 
ATOM     55  N   UNL A   1      40.137  29.509  30.214  1.00  0.00    -0.354 N 
ATOM     56  C   UNL A   1      44.054  30.386  28.320  1.00  0.00     0.074 A 
ATOM     57  C   UNL A   1      43.571  30.221  26.973  1.00  0.00     0.031 C 
ATOM     58  C   UNL A   1      38.169  28.445  30.247  1.00  0.00     0.029 A 
ATOM     59  C   UNL A   1      38.813  29.697  30.591  1.00  0.00     0.049 A 
ATOM     60  H   UNL A   1      40.853  30.155  30.419  1.00  0.00     0.167 HD
ATOM     61  C   UNL A   1      44.689  31.438  28.907  1.00  0.00     0.031 A 
ATOM     62  C   UNL A   1      38.264  30.802  31.143  1.00  0.00     0.031 A 
ATOM     63  C   UNL A   1      44.852  31.226  30.323  1.00  0.00     0.049 A 
ATOM     64  C   UNL A   1      39.351  31.588  31.757  1.00  0.00     0.074 A 
ATOM     65  C   UNL A   1      45.610  30.425  31.146  1.00  0.00     0.029 A 
ATOM     66  N   UNL A   1      43.813  31.715  31.067  1.00  0.00    -0.354 N 
ATOM     67  N   UNL A   1      40.034  31.175  32.786  1.00  0.00    -0.248 NA
ATOM     68  C   UNL A   1      39.922  32.719  31.040  1.00  0.00     0.031 C 
ATOM     69  C   UNL A   1      44.848  30.270  32.344  1.00  0.00     0.029 A 
ATOM     70  C   UNL A   1      43.672  31.012  32.231  1.00  0.00     0.049 A 
ATOM     71  H   UNL A   1      43.242  32.472  30.800  1.00  0.00     0.167 HD
ATOM     72  C   UNL A   1      41.303  31.677  32.573  1.00  0.00     0.074 A 
ATOM     73  C   UNL A   1      41.125  32.763  31.618  1.00  0.00     0.031 C 
ATOM     74  C   UNL A   1      42.405  30.958  32.931  1.00  0.00     0.031 A 
BRANCH  61  75
ATOM     75  C   UNL A   1      44.652  32.854  28.361  1.00  0.00    -0.014 A 
ATOM     76  C   UNL A   1      43.502  33.632  28.604  1.00  0.00     0.009 A 
ATOM     77  C   UNL A   1      45.522  33.321  27.358  1.00  0.00     0.009 A 
ATOM     78  C   UNL A   1      43.203  34.762  27.832  1.00  0.00     0.001 A 
ATOM     79  C   UNL A   1      45.245  34.471  26.609  1.00  0.00     0.001 A 
ATOM     80  C   UNL A   1      44.071  35.175  26.827  1.00  0.00     0.000 A 
ENDBRANCH  61  75
BRANCH  62  81
ATOM     81  C   UNL A   1      36.881  31.310  31.049  1.00  0.00    -0.014 A 
ATOM     82  C   UNL A   1      36.162  31.643  32.207  1.00  0.00     0.009 A 
ATOM     83  C   UNL A   1      36.365  31.725  29.808  1.00  0.00     0.009 A 
ATOM     84  C   UNL A   1      34.995  32.413  32.129  1.00  0.00     0.001 A 
ATOM     85  C   UNL A   1      35.196  32.490  29.730  1.00  0.00     0.001 A 
ATOM     86  C   UNL A   1      34.522  32.850  30.894  1.00  0.00     0.000 A 
ENDBRANCH  62  81
BRANCH  74  87
ATOM     87  C   UNL A   1      42.235  29.899  33.982  1.00  0.00    -0.014 A 
ATOM     88  C   UNL A   1      41.930  28.558  33.698  1.00  0.00     0.009 A 
ATOM     89  C   UNL A   1      42.473  30.264  35.315  1.00  0.00     0.009 A 
ATOM     90  C   UNL A   1      41.834  27.618  34.730  1.00  0.00     0.001 A 
ATOM     91  C   UNL A   1      42.400  29.323  36.341  1.00  0.00     0.001 A 
ATOM     92  C   UNL A   1      42.073  28.001  36.048  1.00  0.00     0.000 A 
ENDBRANCH  74  87
ENDBRANCH  48  49
ENDBRANCH  40  43
ENDBRANCH  38  39
ENDBRANCH   1  38
TORSDOF 16
ENDMDL
MODEL 3
REMARK VINA RESULT:     -10.0      6.508     13.019
REMARK SMILES COc1cccc(-n2cc(C(=O)NCCCNC(=O)c3ccc(-c4c5nc(c(-c6ccccc6)c6ccc([nH]6)c(-c6ccccc6)c6nc(c(-c7ccccc7)c7ccc4[nH]7)C=C6)C=C5)cc3)c3c2[C@H](c2cc(OC)c(OC)c(OC)c2)CC(=O)N3)c1
REMARK SMILES IDX 15 1 14 2 13 3 11 4 12 5 10 7 8 8 9 9 69 10 68 11 70 12
REMARK SMILES IDX 86 13 83 14 84 15 85 17 7 18 3 19 4 20 87 21 5 22 6 23 2 24
REMARK SMILES IDX 1 25 71 26 72 27 82 28 73 29 79 30 76 31 74 32 75 33 80 34
REMARK SMILES IDX 81 35 77 36 78 37 16 38 17 39 18 40 19 42 20 43 21 44 67 45
REMARK SMILES IDX 22 46 66 47 23 48 24 49 25 50 60 51 26 52 65 53 59 54 61 55
REMARK SMILES IDX 27 56 64 57 58 58 57 59 28 61 50 62 35 63 49 64 36 65 39 66
REMARK SMILES IDX 48 67 62 68 37 69 38 70 47 72 63 73 40 74 29 75 30 76 34 77
REMARK SMILES IDX 31 78 33 79 32 80 51 81 52 82 56 83 53 84 55 85 54 86 41 87
REMARK SMILES IDX 42 88 46 89 43 90 45 91 44 92
REMARK H PARENT 13 6 86 16 17 41 61 60 39 71
REMARK Flexibility Score: inf
ROOT
ATOM      1  C   UNL A   1      45.985  26.157  38.771  1.00  0.00     0.042 C 
ENDROOT
BRANCH   1   2
ATOM      2  C   UNL A   1      46.820  25.193  39.628  1.00  0.00     0.118 C 
BRANCH   2   3
ATOM      3  N   UNL A   1      48.220  25.550  39.628  1.00  0.00    -0.352 N 
ATOM      4  C   UNL A   1      49.371  24.881  39.311  1.00  0.00     0.254 C 
ATOM      5  O   UNL A   1      50.391  25.577  39.362  1.00  0.00    -0.269 OA
ATOM      6  H   UNL A   1      48.380  26.477  39.918  1.00  0.00     0.163 HD
BRANCH   4   7
ATOM      7  C   UNL A   1      49.463  23.463  38.925  1.00  0.00     0.081 A 
ATOM      8  N   UNL A   1      49.644  21.793  37.378  1.00  0.00    -0.317 N 
ATOM      9  C   UNL A   1      49.562  23.149  37.569  1.00  0.00     0.107 A 
ATOM     10  C   UNL A   1      49.636  21.187  38.612  1.00  0.00     0.055 A 
ATOM     11  C   UNL A   1      49.588  22.192  39.563  1.00  0.00     0.076 A 
ATOM     12  C   UNL A   1      49.789  19.715  38.948  1.00  0.00     0.078 C 
ATOM     13  N   UNL A   1      49.688  21.812  40.875  1.00  0.00    -0.324 N 
ATOM     14  C   UNL A   1      50.659  19.644  40.223  1.00  0.00     0.115 C 
ATOM     15  C   UNL A   1      50.153  20.595  41.290  1.00  0.00     0.225 C 
ATOM     16  H   UNL A   1      49.410  22.457  41.565  1.00  0.00     0.170 HD
ATOM     17  O   UNL A   1      50.203  20.330  42.491  1.00  0.00    -0.275 OA
BRANCH   8  18
ATOM     18  C   UNL A   1      49.712  21.192  36.109  1.00  0.00     0.049 A 
ATOM     19  C   UNL A   1      50.984  20.153  34.347  1.00  0.00     0.120 A 
ATOM     20  C   UNL A   1      49.796  19.983  33.626  1.00  0.00     0.046 A 
ATOM     21  C   UNL A   1      50.946  20.763  35.603  1.00  0.00     0.073 A 
ATOM     22  C   UNL A   1      48.583  20.462  34.118  1.00  0.00     0.006 A 
ATOM     23  C   UNL A   1      48.547  21.105  35.349  1.00  0.00     0.027 A 
BRANCH  19  24
ATOM     24  O   UNL A   1      52.097  19.692  33.700  1.00  0.00    -0.497 OA
ATOM     25  C   UNL A   1      53.294  19.576  34.456  1.00  0.00     0.278 C 
ENDBRANCH  19  24
ENDBRANCH   8  18
BRANCH  12  26
ATOM     26  C   UNL A   1      48.449  18.978  39.089  1.00  0.00    -0.031 A 
ATOM     27  C   UNL A   1      47.459  19.203  38.134  1.00  0.00     0.055 A 
ATOM     28  C   UNL A   1      48.117  18.102  40.137  1.00  0.00     0.055 A 
ATOM     29  C   UNL A   1      46.147  18.754  38.305  1.00  0.00     0.164 A 
ATOM     30  C   UNL A   1      46.839  17.519  40.259  1.00  0.00     0.164 A 
ATOM     31  C   UNL A   1      45.824  17.877  39.353  1.00  0.00     0.203 A 
BRANCH  29  32
ATOM     32  O   UNL A   1      45.278  19.223  37.348  1.00  0.00    -0.493 OA
ATOM     33  C   UNL A   1      45.587  18.828  36.012  1.00  0.00     0.278 C 
ENDBRANCH  29  32
BRANCH  30  34
ATOM     34  O   UNL A   1      46.527  16.657  41.281  1.00  0.00    -0.493 OA
ATOM     35  C   UNL A   1      46.302  17.210  42.573  1.00  0.00     0.278 C 
ENDBRANCH  30  34
BRANCH  31  36
ATOM     36  O   UNL A   1      44.518  17.464  39.391  1.00  0.00    -0.490 OA
ATOM     37  C   UNL A   1      44.167  16.243  38.761  1.00  0.00     0.278 C 
ENDBRANCH  31  36
ENDBRANCH  12  26
ENDBRANCH   4   7
ENDBRANCH   2   3
ENDBRANCH   1   2
BRANCH   1  38
ATOM     38  C   UNL A   1      45.919  25.768  37.309  1.00  0.00     0.118 C 
BRANCH  38  39
ATOM     39  N   UNL A   1      45.908  24.311  37.161  1.00  0.00    -0.352 N 
ATOM     40  C   UNL A   1      45.572  23.561  36.052  1.00  0.00     0.251 C 
ATOM     41  H   UNL A   1      46.176  23.800  37.957  1.00  0.00     0.163 HD
ATOM     42  O   UNL A   1      45.277  22.386  36.148  1.00  0.00    -0.269 OA
BRANCH  40  43
ATOM     43  C   UNL A   1      45.559  24.239  34.749  1.00  0.00     0.039 A 
ATOM     44  C   UNL A   1      46.737  24.361  34.012  1.00  0.00     0.014 A 
ATOM     45  C   UNL A   1      44.331  24.647  34.233  1.00  0.00     0.014 A 
ATOM     46  C   UNL A   1      46.655  24.802  32.697  1.00  0.00     0.010 A 
ATOM     47  C   UNL A   1      44.238  24.951  32.897  1.00  0.00     0.010 A 
ATOM     48  C   UNL A   1      45.396  25.058  32.129  1.00  0.00    -0.014 A 
BRANCH  48  49
ATOM     49  C   UNL A   1      45.280  25.262  30.684  1.00  0.00     0.031 A 
ATOM     50  C   UNL A   1      46.379  26.070  30.083  1.00  0.00     0.074 A 
ATOM     51  C   UNL A   1      44.404  24.592  29.904  1.00  0.00     0.049 A 
ATOM     52  N   UNL A   1      46.290  27.231  29.526  1.00  0.00    -0.248 NA
ATOM     53  C   UNL A   1      47.762  25.581  30.223  1.00  0.00     0.031 C 
ATOM     54  C   UNL A   1      43.488  23.522  30.316  1.00  0.00     0.029 A 
ATOM     55  N   UNL A   1      44.243  24.621  28.549  1.00  0.00    -0.354 N 
ATOM     56  C   UNL A   1      47.565  27.522  29.046  1.00  0.00     0.074 A 
ATOM     57  C   UNL A   1      48.457  26.573  29.662  1.00  0.00     0.031 C 
ATOM     58  C   UNL A   1      43.082  22.833  29.229  1.00  0.00     0.029 A 
ATOM     59  C   UNL A   1      43.543  23.531  28.046  1.00  0.00     0.049 A 
ATOM     60  H   UNL A   1      44.591  25.347  27.981  1.00  0.00     0.167 HD
ATOM     61  C   UNL A   1      47.735  28.308  27.947  1.00  0.00     0.031 A 
ATOM     62  C   UNL A   1      43.352  23.205  26.748  1.00  0.00     0.031 A 
ATOM     63  C   UNL A   1      46.516  28.995  27.602  1.00  0.00     0.049 A 
ATOM     64  C   UNL A   1      43.545  24.426  25.942  1.00  0.00     0.074 A 
ATOM     65  C   UNL A   1      45.755  30.023  28.108  1.00  0.00     0.029 A 
ATOM     66  N   UNL A   1      45.734  28.300  26.719  1.00  0.00    -0.354 N 
ATOM     67  N   UNL A   1      42.748  25.454  26.005  1.00  0.00    -0.248 NA
ATOM     68  C   UNL A   1      44.820  24.662  25.278  1.00  0.00     0.031 C 
ATOM     69  C   UNL A   1      44.420  29.769  27.670  1.00  0.00     0.029 A 
ATOM     70  C   UNL A   1      44.415  28.621  26.877  1.00  0.00     0.049 A 
ATOM     71  H   UNL A   1      46.076  27.654  26.058  1.00  0.00     0.167 HD
ATOM     72  C   UNL A   1      43.580  26.540  25.809  1.00  0.00     0.074 A 
ATOM     73  C   UNL A   1      44.773  25.993  25.177  1.00  0.00     0.031 C 
ATOM     74  C   UNL A   1      43.364  27.711  26.474  1.00  0.00     0.031 A 
BRANCH  61  75
ATOM     75  C   UNL A   1      48.773  28.038  26.872  1.00  0.00    -0.014 A 
ATOM     76  C   UNL A   1      48.655  26.856  26.114  1.00  0.00     0.009 A 
ATOM     77  C   UNL A   1      50.014  28.700  26.809  1.00  0.00     0.009 A 
ATOM     78  C   UNL A   1      49.741  26.328  25.404  1.00  0.00     0.001 A 
ATOM     79  C   UNL A   1      51.089  28.194  26.071  1.00  0.00     0.001 A 
ATOM     80  C   UNL A   1      50.962  26.993  25.391  1.00  0.00     0.000 A 
ENDBRANCH  61  75
BRANCH  62  81
ATOM     81  C   UNL A   1      43.161  21.878  26.132  1.00  0.00    -0.014 A 
ATOM     82  C   UNL A   1      44.219  21.237  25.470  1.00  0.00     0.009 A 
ATOM     83  C   UNL A   1      42.015  21.119  26.432  1.00  0.00     0.009 A 
ATOM     84  C   UNL A   1      44.155  19.872  25.168  1.00  0.00     0.001 A 
ATOM     85  C   UNL A   1      41.948  19.756  26.126  1.00  0.00     0.001 A 
ATOM     86  C   UNL A   1      43.028  19.129  25.511  1.00  0.00     0.000 A 
ENDBRANCH  62  81
BRANCH  74  87
ATOM     87  C   UNL A   1      41.979  27.971  26.996  1.00  0.00    -0.014 A 
ATOM     88  C   UNL A   1      41.044  28.798  26.353  1.00  0.00     0.009 A 
ATOM     89  C   UNL A   1      41.583  27.283  28.152  1.00  0.00     0.009 A 
ATOM     90  C   UNL A   1      39.756  28.953  26.876  1.00  0.00     0.001 A 
ATOM     91  C   UNL A   1      40.292  27.420  28.660  1.00  0.00     0.001 A 
ATOM     92  C   UNL A   1      39.381  28.261  28.026  1.00  0.00     0.000 A 
ENDBRANCH  74  87
ENDBRANCH  48  49
ENDBRANCH  40  43
ENDBRANCH  38  39
ENDBRANCH   1  38
TORSDOF 16
ENDMDL
