MODEL 1
REMARK VINA RESULT:     -12.7      0.000      0.000
REMARK SMILES O=C(NCCCNC(=O)[C@H]1CC2=c3ccccc3=N[C@H]2[C@H](c2ccccc2F)[NH2+]1)c1ccc(-c2c3nc(c(-c4ccccc4)c4ccc([nH]4)c(-c4ccccc4)c4nc(c(-c5ccccc5)c5ccc2[nH]5)C=C4)C=C3)cc1
REMARK SMILES IDX 4 1 3 2 1 3 2 4 30 6 31 7 77 8 32 9 76 10 33 11 34 12 35 13
REMARK SMILES IDX 70 14 36 15 75 16 69 17 71 18 37 19 74 20 68 21 67 22 38 24
REMARK SMILES IDX 60 25 45 26 59 27 46 28 49 29 58 30 72 31 47 32 48 33 57 35
REMARK SMILES IDX 73 36 50 37 39 38 40 39 44 40 41 41 43 42 42 43 61 44 62 45
REMARK SMILES IDX 66 46 63 47 65 48 64 49 51 50 52 51 56 52 53 53 55 54 54 55
REMARK SMILES IDX 5 56 6 57 7 58 8 59 9 61 10 62 11 63 29 64 12 65 21 66 13 69
REMARK SMILES IDX 20 70 14 71 18 72 19 73 15 74 17 75 16 76 22 77 23 78 27 79
REMARK SMILES IDX 24 80 26 81 28 82 25 83
REMARK H PARENT 3 5 71 23 49 34 7 60 29 67 29 68
REMARK Flexibility Score: inf
ROOT
ATOM      1  C   UNL A   1      39.212  19.341  26.097  1.00  0.00     0.118 C 
ENDROOT
BRANCH   1   2
ATOM      2  N   UNL A   1      40.586  18.948  25.843  1.00  0.00    -0.352 N 
ATOM      3  O   UNL A   1      42.740  19.225  25.293  1.00  0.00    -0.269 OA
ATOM      4  C   UNL A   1      41.731  19.698  25.825  1.00  0.00     0.251 C 
ATOM      5  H   UNL A   1      40.714  17.992  25.653  1.00  0.00     0.163 HD
BRANCH   4   6
ATOM      6  C   UNL A   1      41.796  21.049  26.430  1.00  0.00     0.039 A 
ATOM      7  C   UNL A   1      42.020  22.144  25.587  1.00  0.00     0.014 A 
ATOM      8  C   UNL A   1      41.775  21.246  27.814  1.00  0.00     0.014 A 
ATOM      9  C   UNL A   1      42.243  23.413  26.129  1.00  0.00     0.010 A 
ATOM     10  C   UNL A   1      41.884  22.528  28.348  1.00  0.00     0.010 A 
ATOM     11  C   UNL A   1      42.189  23.613  27.517  1.00  0.00    -0.014 A 
BRANCH  11  12
ATOM     12  C   UNL A   1      42.600  24.906  28.121  1.00  0.00     0.031 A 
ATOM     13  C   UNL A   1      41.560  25.973  28.367  1.00  0.00     0.074 A 
ATOM     14  C   UNL A   1      43.887  25.127  28.456  1.00  0.00     0.049 A 
ATOM     15  N   UNL A   1      41.710  27.172  28.872  1.00  0.00    -0.248 NA
ATOM     16  C   UNL A   1      40.175  25.665  27.973  1.00  0.00     0.031 C 
ATOM     17  C   UNL A   1      44.988  24.184  28.259  1.00  0.00     0.029 A 
ATOM     18  N   UNL A   1      44.477  26.212  29.055  1.00  0.00    -0.354 N 
ATOM     19  C   UNL A   1      40.452  27.761  28.822  1.00  0.00     0.074 A 
ATOM     20  C   UNL A   1      39.561  26.817  28.193  1.00  0.00     0.031 C 
ATOM     21  C   UNL A   1      46.109  24.709  28.778  1.00  0.00     0.029 A 
ATOM     22  C   UNL A   1      45.815  26.036  29.313  1.00  0.00     0.049 A 
ATOM     23  H   UNL A   1      43.989  27.037  29.277  1.00  0.00     0.167 HD
ATOM     24  C   UNL A   1      40.061  28.970  29.289  1.00  0.00     0.031 A 
ATOM     25  C   UNL A   1      46.698  26.843  29.932  1.00  0.00     0.031 A 
ATOM     26  C   UNL A   1      40.930  29.887  29.971  1.00  0.00     0.049 A 
ATOM     27  C   UNL A   1      46.233  28.168  30.473  1.00  0.00     0.074 A 
ATOM     28  C   UNL A   1      40.620  31.119  30.520  1.00  0.00     0.029 A 
ATOM     29  N   UNL A   1      42.274  29.659  30.219  1.00  0.00    -0.354 N 
ATOM     30  N   UNL A   1      45.034  28.697  30.440  1.00  0.00    -0.248 NA
ATOM     31  C   UNL A   1      47.238  28.997  31.154  1.00  0.00     0.031 C 
ATOM     32  C   UNL A   1      41.785  31.653  31.073  1.00  0.00     0.029 A 
ATOM     33  C   UNL A   1      42.807  30.729  30.914  1.00  0.00     0.049 A 
ATOM     34  H   UNL A   1      42.774  28.858  29.942  1.00  0.00     0.167 HD
ATOM     35  C   UNL A   1      45.132  29.900  31.128  1.00  0.00     0.074 A 
ATOM     36  C   UNL A   1      46.505  30.022  31.571  1.00  0.00     0.031 C 
ATOM     37  C   UNL A   1      44.167  30.820  31.372  1.00  0.00     0.031 A 
BRANCH  24  38
ATOM     38  C   UNL A   1      38.623  29.368  29.101  1.00  0.00    -0.014 A 
ATOM     39  C   UNL A   1      37.715  29.226  30.161  1.00  0.00     0.009 A 
ATOM     40  C   UNL A   1      38.150  29.811  27.856  1.00  0.00     0.009 A 
ATOM     41  C   UNL A   1      36.361  29.513  29.977  1.00  0.00     0.001 A 
ATOM     42  C   UNL A   1      36.802  30.125  27.682  1.00  0.00     0.001 A 
ATOM     43  C   UNL A   1      35.906  29.967  28.740  1.00  0.00     0.000 A 
ENDBRANCH  24  38
BRANCH  25  44
ATOM     44  C   UNL A   1      48.096  26.384  30.139  1.00  0.00    -0.014 A 
ATOM     45  C   UNL A   1      49.075  26.581  29.154  1.00  0.00     0.009 A 
ATOM     46  C   UNL A   1      48.449  25.716  31.322  1.00  0.00     0.009 A 
ATOM     47  C   UNL A   1      50.377  26.110  29.344  1.00  0.00     0.001 A 
ATOM     48  C   UNL A   1      49.758  25.270  31.521  1.00  0.00     0.001 A 
ATOM     49  C   UNL A   1      50.718  25.461  30.530  1.00  0.00     0.000 A 
ENDBRANCH  25  44
BRANCH  37  50
ATOM     50  C   UNL A   1      44.530  32.021  32.196  1.00  0.00    -0.014 A 
ATOM     51  C   UNL A   1      44.331  31.987  33.586  1.00  0.00     0.009 A 
ATOM     52  C   UNL A   1      44.955  33.214  31.597  1.00  0.00     0.009 A 
ATOM     53  C   UNL A   1      44.540  33.129  34.360  1.00  0.00     0.001 A 
ATOM     54  C   UNL A   1      45.188  34.349  32.377  1.00  0.00     0.001 A 
ATOM     55  C   UNL A   1      44.972  34.307  33.755  1.00  0.00     0.000 A 
ENDBRANCH  37  50
ENDBRANCH  11  12
ENDBRANCH   4   6
ENDBRANCH   1   2
BRANCH   1  56
ATOM     56  C   UNL A   1      38.664  20.220  24.983  1.00  0.00     0.042 C 
BRANCH  56  57
ATOM     57  C   UNL A   1      38.038  21.517  25.484  1.00  0.00     0.118 C 
BRANCH  57  58
ATOM     58  N   UNL A   1      37.737  22.413  24.383  1.00  0.00    -0.351 N 
ATOM     59  C   UNL A   1      36.556  22.766  23.803  1.00  0.00     0.278 C 
ATOM     60  H   UNL A   1      38.528  22.841  23.983  1.00  0.00     0.163 HD
ATOM     61  O   UNL A   1      36.626  23.333  22.707  1.00  0.00    -0.268 OA
BRANCH  59  62
ATOM     62  C   UNL A   1      35.196  22.482  24.468  1.00  0.00     0.277 C 
ATOM     63  C   UNL A   1      34.920  23.354  25.710  1.00  0.00     0.109 C 
ATOM     64  N   UNL A   1      34.126  22.491  23.429  1.00  0.00    -0.327 N 
ATOM     65  C   UNL A   1      33.518  23.856  25.685  1.00  0.00    -0.024 C 
ATOM     66  C   UNL A   1      32.810  22.075  23.981  1.00  0.00     0.246 C 
ATOM     67  H   UNL A   1      34.388  21.849  22.682  1.00  0.00     0.347 HD
ATOM     68  H   UNL A   1      34.034  23.445  23.081  1.00  0.00     0.347 HD
ATOM     69  C   UNL A   1      33.009  25.074  25.827  1.00  0.00     0.002 A 
ATOM     70  C   UNL A   1      32.461  22.853  25.311  1.00  0.00     0.196 C 
ATOM     71  C   UNL A   1      33.527  26.369  26.124  1.00  0.00     0.010 A 
ATOM     72  C   UNL A   1      31.588  24.859  25.496  1.00  0.00     0.066 A 
ATOM     73  N   UNL A   1      31.212  23.659  25.169  1.00  0.00    -0.270 NA
ATOM     74  C   UNL A   1      32.683  27.413  26.130  1.00  0.00     0.001 A 
ATOM     75  C   UNL A   1      30.719  26.056  25.541  1.00  0.00     0.028 A 
ATOM     76  C   UNL A   1      31.266  27.246  25.845  1.00  0.00     0.002 A 
BRANCH  66  77
ATOM     77  C   UNL A   1      32.653  20.558  24.139  1.00  0.00     0.048 A 
ATOM     78  C   UNL A   1      32.803  19.981  25.417  1.00  0.00     0.013 A 
ATOM     79  C   UNL A   1      32.325  19.687  23.087  1.00  0.00     0.132 A 
ATOM     80  C   UNL A   1      32.732  18.597  25.606  1.00  0.00     0.001 A 
ATOM     81  C   UNL A   1      32.258  18.306  23.270  1.00  0.00     0.040 A 
ATOM     82  F   UNL A   1      32.073  20.140  21.850  1.00  0.00    -0.206 F 
ATOM     83  C   UNL A   1      32.476  17.756  24.527  1.00  0.00     0.003 A 
ENDBRANCH  66  77
ENDBRANCH  59  62
ENDBRANCH  57  58
ENDBRANCH  56  57
ENDBRANCH   1  56
TORSDOF 11
ENDMDL
MODEL 2
REMARK VINA RESULT:     -12.7      3.531      7.559
REMARK SMILES O=C(NCCCNC(=O)[C@H]1CC2=c3ccccc3=N[C@H]2[C@H](c2ccccc2F)[NH2+]1)c1ccc(-c2c3nc(c(-c4ccccc4)c4ccc([nH]4)c(-c4ccccc4)c4nc(c(-c5ccccc5)c5ccc2[nH]5)C=C4)C=C3)cc1
REMARK SMILES IDX 4 1 3 2 1 3 2 4 30 6 31 7 77 8 32 9 76 10 33 11 34 12 35 13
REMARK SMILES IDX 70 14 36 15 75 16 69 17 71 18 37 19 74 20 68 21 67 22 38 24
REMARK SMILES IDX 60 25 45 26 59 27 46 28 49 29 58 30 72 31 47 32 48 33 57 35
REMARK SMILES IDX 73 36 50 37 39 38 40 39 44 40 41 41 43 42 42 43 61 44 62 45
REMARK SMILES IDX 66 46 63 47 65 48 64 49 51 50 52 51 56 52 53 53 55 54 54 55
REMARK SMILES IDX 5 56 6 57 7 58 8 59 9 61 10 62 11 63 29 64 12 65 21 66 13 69
REMARK SMILES IDX 20 70 14 71 18 72 19 73 15 74 17 75 16 76 22 77 23 78 27 79
REMARK SMILES IDX 24 80 26 81 28 82 25 83
REMARK H PARENT 3 5 71 23 49 34 7 60 29 67 29 68
REMARK Flexibility Score: inf
ROOT
ATOM      1  C   UNL A   1      39.896  23.259  26.843  1.00  0.00     0.118 C 
ENDROOT
BRANCH   1   2
ATOM      2  N   UNL A   1      40.866  23.979  26.040  1.00  0.00    -0.352 N 
ATOM      3  O   UNL A   1      41.770  25.736  24.984  1.00  0.00    -0.269 OA
ATOM      4  C   UNL A   1      41.113  25.321  25.945  1.00  0.00     0.251 C 
ATOM      5  H   UNL A   1      41.437  23.412  25.473  1.00  0.00     0.163 HD
BRANCH   4   6
ATOM      6  C   UNL A   1      40.626  26.285  26.959  1.00  0.00     0.039 A 
ATOM      7  C   UNL A   1      41.000  27.628  26.834  1.00  0.00     0.014 A 
ATOM      8  C   UNL A   1      39.924  25.876  28.096  1.00  0.00     0.014 A 
ATOM      9  C   UNL A   1      40.693  28.540  27.848  1.00  0.00     0.010 A 
ATOM     10  C   UNL A   1      39.520  26.805  29.052  1.00  0.00     0.010 A 
ATOM     11  C   UNL A   1      39.960  28.132  28.973  1.00  0.00    -0.014 A 
BRANCH  11  12
ATOM     12  C   UNL A   1      39.783  29.034  30.139  1.00  0.00     0.031 A 
ATOM     13  C   UNL A   1      40.713  28.908  31.323  1.00  0.00     0.074 A 
ATOM     14  C   UNL A   1      38.807  29.964  30.144  1.00  0.00     0.049 A 
ATOM     15  N   UNL A   1      40.723  29.587  32.442  1.00  0.00    -0.248 NA
ATOM     16  C   UNL A   1      41.753  27.867  31.252  1.00  0.00     0.031 C 
ATOM     17  C   UNL A   1      37.837  30.179  29.071  1.00  0.00     0.029 A 
ATOM     18  N   UNL A   1      38.490  30.916  31.080  1.00  0.00    -0.354 N 
ATOM     19  C   UNL A   1      41.741  29.033  33.209  1.00  0.00     0.074 A 
ATOM     20  C   UNL A   1      42.293  27.932  32.458  1.00  0.00     0.031 C 
ATOM     21  C   UNL A   1      37.067  31.234  29.384  1.00  0.00     0.029 A 
ATOM     22  C   UNL A   1      37.467  31.748  30.692  1.00  0.00     0.049 A 
ATOM     23  H   UNL A   1      38.950  30.996  31.946  1.00  0.00     0.167 HD
ATOM     24  C   UNL A   1      42.202  29.425  34.420  1.00  0.00     0.031 A 
ATOM     25  C   UNL A   1      36.929  32.818  31.309  1.00  0.00     0.031 A 
ATOM     26  C   UNL A   1      41.697  30.558  35.143  1.00  0.00     0.049 A 
ATOM     27  C   UNL A   1      37.480  33.256  32.639  1.00  0.00     0.074 A 
ATOM     28  C   UNL A   1      42.126  31.063  36.358  1.00  0.00     0.029 A 
ATOM     29  N   UNL A   1      40.670  31.376  34.704  1.00  0.00    -0.354 N 
ATOM     30  N   UNL A   1      38.461  32.736  33.337  1.00  0.00    -0.248 NA
ATOM     31  C   UNL A   1      36.864  34.440  33.256  1.00  0.00     0.031 C 
ATOM     32  C   UNL A   1      41.334  32.170  36.671  1.00  0.00     0.029 A 
ATOM     33  C   UNL A   1      40.450  32.383  35.625  1.00  0.00     0.049 A 
ATOM     34  H   UNL A   1      40.170  31.258  33.863  1.00  0.00     0.167 HD
ATOM     35  C   UNL A   1      38.604  33.550  34.453  1.00  0.00     0.074 A 
ATOM     36  C   UNL A   1      37.615  34.601  34.338  1.00  0.00     0.031 C 
ATOM     37  C   UNL A   1      39.481  33.437  35.480  1.00  0.00     0.031 A 
BRANCH  24  38
ATOM     38  C   UNL A   1      43.326  28.639  35.036  1.00  0.00    -0.014 A 
ATOM     39  C   UNL A   1      43.040  27.593  35.927  1.00  0.00     0.009 A 
ATOM     40  C   UNL A   1      44.667  28.978  34.794  1.00  0.00     0.009 A 
ATOM     41  C   UNL A   1      44.073  26.909  36.570  1.00  0.00     0.001 A 
ATOM     42  C   UNL A   1      45.698  28.273  35.416  1.00  0.00     0.001 A 
ATOM     43  C   UNL A   1      45.401  27.245  36.311  1.00  0.00     0.000 A 
ENDBRANCH  24  38
BRANCH  25  44
ATOM     44  C   UNL A   1      35.854  33.592  30.637  1.00  0.00    -0.014 A 
ATOM     45  C   UNL A   1      36.044  34.132  29.356  1.00  0.00     0.009 A 
ATOM     46  C   UNL A   1      34.634  33.818  31.294  1.00  0.00     0.009 A 
ATOM     47  C   UNL A   1      35.039  34.891  28.750  1.00  0.00     0.001 A 
ATOM     48  C   UNL A   1      33.621  34.555  30.675  1.00  0.00     0.001 A 
ATOM     49  C   UNL A   1      33.827  35.096  29.408  1.00  0.00     0.000 A 
ENDBRANCH  25  44
BRANCH  37  50
ATOM     50  C   UNL A   1      39.462  34.495  36.545  1.00  0.00    -0.014 A 
ATOM     51  C   UNL A   1      40.234  35.656  36.376  1.00  0.00     0.009 A 
ATOM     52  C   UNL A   1      38.779  34.299  37.753  1.00  0.00     0.009 A 
ATOM     53  C   UNL A   1      40.334  36.595  37.402  1.00  0.00     0.001 A 
ATOM     54  C   UNL A   1      38.859  35.254  38.769  1.00  0.00     0.001 A 
ATOM     55  C   UNL A   1      39.643  36.396  38.596  1.00  0.00     0.000 A 
ENDBRANCH  37  50
ENDBRANCH  11  12
ENDBRANCH   4   6
ENDBRANCH   1   2
BRANCH   1  56
ATOM     56  C   UNL A   1      39.481  21.951  26.185  1.00  0.00     0.042 C 
BRANCH  56  57
ATOM     57  C   UNL A   1      37.999  21.893  25.829  1.00  0.00     0.118 C 
BRANCH  57  58
ATOM     58  N   UNL A   1      37.723  22.643  24.618  1.00  0.00    -0.351 N 
ATOM     59  C   UNL A   1      36.565  22.855  23.932  1.00  0.00     0.278 C 
ATOM     60  H   UNL A   1      38.513  23.076  24.222  1.00  0.00     0.163 HD
ATOM     61  O   UNL A   1      36.676  23.303  22.786  1.00  0.00    -0.268 OA
BRANCH  59  62
ATOM     62  C   UNL A   1      35.182  22.557  24.541  1.00  0.00     0.277 C 
ATOM     63  C   UNL A   1      34.846  23.428  25.770  1.00  0.00     0.109 C 
ATOM     64  N   UNL A   1      34.156  22.554  23.459  1.00  0.00    -0.327 N 
ATOM     65  C   UNL A   1      33.441  23.915  25.686  1.00  0.00    -0.024 C 
ATOM     66  C   UNL A   1      32.823  22.124  23.957  1.00  0.00     0.246 C 
ATOM     67  H   UNL A   1      34.454  21.914  22.724  1.00  0.00     0.347 HD
ATOM     68  H   UNL A   1      34.068  23.507  23.106  1.00  0.00     0.347 HD
ATOM     69  C   UNL A   1      32.913  25.128  25.805  1.00  0.00     0.002 A 
ATOM     70  C   UNL A   1      32.411  22.900  25.271  1.00  0.00     0.196 C 
ATOM     71  C   UNL A   1      33.405  26.428  26.122  1.00  0.00     0.010 A 
ATOM     72  C   UNL A   1      31.510  24.898  25.417  1.00  0.00     0.066 A 
ATOM     73  N   UNL A   1      31.160  23.693  25.076  1.00  0.00    -0.270 NA
ATOM     74  C   UNL A   1      32.551  27.463  26.090  1.00  0.00     0.001 A 
ATOM     75  C   UNL A   1      30.628  26.085  25.424  1.00  0.00     0.028 A 
ATOM     76  C   UNL A   1      31.149  27.281  25.748  1.00  0.00     0.002 A 
BRANCH  66  77
ATOM     77  C   UNL A   1      32.675  20.606  24.111  1.00  0.00     0.048 A 
ATOM     78  C   UNL A   1      32.845  20.025  25.384  1.00  0.00     0.013 A 
ATOM     79  C   UNL A   1      32.338  19.738  23.060  1.00  0.00     0.132 A 
ATOM     80  C   UNL A   1      32.783  18.640  25.569  1.00  0.00     0.001 A 
ATOM     81  C   UNL A   1      32.279  18.356  23.238  1.00  0.00     0.040 A 
ATOM     82  F   UNL A   1      32.067  20.194  21.828  1.00  0.00    -0.206 F 
ATOM     83  C   UNL A   1      32.517  17.802  24.490  1.00  0.00     0.003 A 
ENDBRANCH  66  77
ENDBRANCH  59  62
ENDBRANCH  57  58
ENDBRANCH  56  57
ENDBRANCH   1  56
TORSDOF 11
ENDMDL
MODEL 3
REMARK VINA RESULT:     -12.7      4.585      9.356
REMARK SMILES O=C(NCCCNC(=O)[C@H]1CC2=c3ccccc3=N[C@H]2[C@H](c2ccccc2F)[NH2+]1)c1ccc(-c2c3nc(c(-c4ccccc4)c4ccc([nH]4)c(-c4ccccc4)c4nc(c(-c5ccccc5)c5ccc2[nH]5)C=C4)C=C3)cc1
REMARK SMILES IDX 4 1 3 2 1 3 2 4 30 6 31 7 77 8 32 9 76 10 33 11 34 12 35 13
REMARK SMILES IDX 70 14 36 15 75 16 69 17 71 18 37 19 74 20 68 21 67 22 38 24
REMARK SMILES IDX 60 25 45 26 59 27 46 28 49 29 58 30 72 31 47 32 48 33 57 35
REMARK SMILES IDX 73 36 50 37 39 38 40 39 44 40 41 41 43 42 42 43 61 44 62 45
REMARK SMILES IDX 66 46 63 47 65 48 64 49 51 50 52 51 56 52 53 53 55 54 54 55
REMARK SMILES IDX 5 56 6 57 7 58 8 59 9 61 10 62 11 63 29 64 12 65 21 66 13 69
REMARK SMILES IDX 20 70 14 71 18 72 19 73 15 74 17 75 16 76 22 77 23 78 27 79
REMARK SMILES IDX 24 80 26 81 28 82 25 83
REMARK H PARENT 3 5 71 23 49 34 7 60 29 67 29 68
REMARK Flexibility Score: inf
ROOT
ATOM      1  C   UNL A   1      32.572  32.795  27.326  1.00  0.00     0.118 C 
ENDROOT
BRANCH   1   2
ATOM      2  N   UNL A   1      32.392  34.203  27.626  1.00  0.00    -0.352 N 
ATOM      3  O   UNL A   1      32.421  36.065  28.873  1.00  0.00    -0.269 OA
ATOM      4  C   UNL A   1      32.939  34.973  28.617  1.00  0.00     0.251 C 
ATOM      5  H   UNL A   1      31.780  34.681  27.022  1.00  0.00     0.163 HD
BRANCH   4   6
ATOM      6  C   UNL A   1      34.132  34.540  29.381  1.00  0.00     0.039 A 
ATOM      7  C   UNL A   1      35.394  34.720  28.803  1.00  0.00     0.014 A 
ATOM      8  C   UNL A   1      34.028  33.845  30.590  1.00  0.00     0.014 A 
ATOM      9  C   UNL A   1      36.531  34.188  29.419  1.00  0.00     0.010 A 
ATOM     10  C   UNL A   1      35.171  33.415  31.259  1.00  0.00     0.010 A 
ATOM     11  C   UNL A   1      36.426  33.519  30.648  1.00  0.00    -0.014 A 
BRANCH  11  12
ATOM     12  C   UNL A   1      37.586  32.793  31.225  1.00  0.00     0.031 A 
ATOM     13  C   UNL A   1      38.110  33.193  32.584  1.00  0.00     0.074 A 
ATOM     14  C   UNL A   1      38.165  31.780  30.550  1.00  0.00     0.049 A 
ATOM     15  N   UNL A   1      39.115  32.698  33.260  1.00  0.00    -0.248 NA
ATOM     16  C   UNL A   1      37.433  34.312  33.262  1.00  0.00     0.031 C 
ATOM     17  C   UNL A   1      37.762  31.305  29.226  1.00  0.00     0.029 A 
ATOM     18  N   UNL A   1      39.203  30.954  30.902  1.00  0.00    -0.354 N 
ATOM     19  C   UNL A   1      39.205  33.464  34.417  1.00  0.00     0.074 A 
ATOM     20  C   UNL A   1      38.192  34.488  34.332  1.00  0.00     0.031 C 
ATOM     21  C   UNL A   1      38.509  30.237  28.901  1.00  0.00     0.029 A 
ATOM     22  C   UNL A   1      39.462  29.973  29.976  1.00  0.00     0.049 A 
ATOM     23  H   UNL A   1      39.714  31.056  31.737  1.00  0.00     0.167 HD
ATOM     24  C   UNL A   1      40.034  33.311  35.475  1.00  0.00     0.031 A 
ATOM     25  C   UNL A   1      40.351  28.961  30.001  1.00  0.00     0.031 A 
ATOM     26  C   UNL A   1      41.001  32.257  35.592  1.00  0.00     0.049 A 
ATOM     27  C   UNL A   1      41.240  28.790  31.203  1.00  0.00     0.074 A 
ATOM     28  C   UNL A   1      41.860  31.990  36.643  1.00  0.00     0.029 A 
ATOM     29  N   UNL A   1      41.219  31.280  34.633  1.00  0.00    -0.354 N 
ATOM     30  N   UNL A   1      41.292  29.508  32.298  1.00  0.00    -0.248 NA
ATOM     31  C   UNL A   1      42.177  27.658  31.180  1.00  0.00     0.031 C 
ATOM     32  C   UNL A   1      42.622  30.868  36.308  1.00  0.00     0.029 A 
ATOM     33  C   UNL A   1      42.199  30.408  35.070  1.00  0.00     0.049 A 
ATOM     34  H   UNL A   1      40.747  31.217  33.771  1.00  0.00     0.167 HD
ATOM     35  C   UNL A   1      42.237  28.893  33.110  1.00  0.00     0.074 A 
ATOM     36  C   UNL A   1      42.730  27.742  32.384  1.00  0.00     0.031 C 
ATOM     37  C   UNL A   1      42.656  29.252  34.348  1.00  0.00     0.031 A 
BRANCH  24  38
ATOM     38  C   UNL A   1      39.921  34.293  36.608  1.00  0.00    -0.014 A 
ATOM     39  C   UNL A   1      39.082  34.010  37.697  1.00  0.00     0.009 A 
ATOM     40  C   UNL A   1      40.585  35.529  36.565  1.00  0.00     0.009 A 
ATOM     41  C   UNL A   1      38.903  34.948  38.715  1.00  0.00     0.001 A 
ATOM     42  C   UNL A   1      40.427  36.453  37.600  1.00  0.00     0.001 A 
ATOM     43  C   UNL A   1      39.580  36.166  38.669  1.00  0.00     0.000 A 
ENDBRANCH  24  38
BRANCH  25  44
ATOM     44  C   UNL A   1      40.390  27.987  28.880  1.00  0.00    -0.014 A 
ATOM     45  C   UNL A   1      41.154  28.237  27.730  1.00  0.00     0.009 A 
ATOM     46  C   UNL A   1      39.633  26.806  28.948  1.00  0.00     0.009 A 
ATOM     47  C   UNL A   1      41.151  27.330  26.666  1.00  0.00     0.001 A 
ATOM     48  C   UNL A   1      39.653  25.889  27.894  1.00  0.00     0.001 A 
ATOM     49  C   UNL A   1      40.406  26.155  26.752  1.00  0.00     0.000 A 
ENDBRANCH  25  44
BRANCH  37  50
ATOM     50  C   UNL A   1      43.660  28.372  35.035  1.00  0.00    -0.014 A 
ATOM     51  C   UNL A   1      43.213  27.365  35.905  1.00  0.00     0.009 A 
ATOM     52  C   UNL A   1      45.037  28.608  34.915  1.00  0.00     0.009 A 
ATOM     53  C   UNL A   1      44.123  26.618  36.652  1.00  0.00     0.001 A 
ATOM     54  C   UNL A   1      45.948  27.841  35.645  1.00  0.00     0.001 A 
ATOM     55  C   UNL A   1      45.490  26.854  36.517  1.00  0.00     0.000 A 
ENDBRANCH  37  50
ENDBRANCH  11  12
ENDBRANCH   4   6
ENDBRANCH   1   2
BRANCH   1  56
ATOM     56  C   UNL A   1      31.418  32.245  26.501  1.00  0.00     0.042 C 
BRANCH  56  57
ATOM     57  C   UNL A   1      31.403  30.722  26.417  1.00  0.00     0.118 C 
BRANCH  57  58
ATOM     58  N   UNL A   1      32.749  30.182  26.459  1.00  0.00    -0.351 N 
ATOM     59  C   UNL A   1      33.312  29.111  25.834  1.00  0.00     0.278 C 
ATOM     60  H   UNL A   1      33.365  30.678  27.045  1.00  0.00     0.163 HD
ATOM     61  O   UNL A   1      34.401  28.726  26.271  1.00  0.00    -0.268 OA
BRANCH  59  62
ATOM     62  C   UNL A   1      32.639  28.408  24.640  1.00  0.00     0.277 C 
ATOM     63  C   UNL A   1      33.622  27.618  23.751  1.00  0.00     0.109 C 
ATOM     64  N   UNL A   1      31.454  27.641  25.122  1.00  0.00    -0.327 N 
ATOM     65  C   UNL A   1      33.042  26.293  23.394  1.00  0.00    -0.024 C 
ATOM     66  C   UNL A   1      30.671  27.062  23.999  1.00  0.00     0.246 C 
ATOM     67  H   UNL A   1      30.852  28.267  25.655  1.00  0.00     0.347 HD
ATOM     68  H   UNL A   1      31.792  26.872  25.700  1.00  0.00     0.347 HD
ATOM     69  C   UNL A   1      33.529  25.060  23.476  1.00  0.00     0.002 A 
ATOM     70  C   UNL A   1      31.597  26.293  22.975  1.00  0.00     0.196 C 
ATOM     71  C   UNL A   1      34.776  24.477  23.849  1.00  0.00     0.010 A 
ATOM     72  C   UNL A   1      32.353  24.237  23.139  1.00  0.00     0.066 A 
ATOM     73  N   UNL A   1      31.235  24.848  22.878  1.00  0.00    -0.270 NA
ATOM     74  C   UNL A   1      34.881  23.139  23.861  1.00  0.00     0.001 A 
ATOM     75  C   UNL A   1      32.555  22.772  23.157  1.00  0.00     0.028 A 
ATOM     76  C   UNL A   1      33.760  22.285  23.501  1.00  0.00     0.002 A 
BRANCH  66  77
ATOM     77  C   UNL A   1      29.746  28.066  23.302  1.00  0.00     0.048 A 
ATOM     78  C   UNL A   1      30.313  29.099  22.527  1.00  0.00     0.013 A 
ATOM     79  C   UNL A   1      28.344  28.007  23.348  1.00  0.00     0.132 A 
ATOM     80  C   UNL A   1      29.518  30.078  21.922  1.00  0.00     0.001 A 
ATOM     81  C   UNL A   1      27.547  28.984  22.751  1.00  0.00     0.040 A 
ATOM     82  F   UNL A   1      27.700  27.016  23.982  1.00  0.00    -0.206 F 
ATOM     83  C   UNL A   1      28.133  30.030  22.049  1.00  0.00     0.003 A 
ENDBRANCH  66  77
ENDBRANCH  59  62
ENDBRANCH  57  58
ENDBRANCH  56  57
ENDBRANCH   1  56
TORSDOF 11
ENDMDL
