MODEL 1
REMARK VINA RESULT:     -11.3      0.000      0.000
REMARK SMILES O=C(NCCCNC(=O)c1csc(-c2ccnc(N3CCOCC3)c2)n1)c1ccc(-c2c3nc(c(-c4ccccc4)c4ccc([nH]4)c(-c4ccccc4)c4nc(c(-c5ccccc5)c5ccc2[nH]5)C=C4)C=C3)cc1
REMARK SMILES IDX 5 1 4 2 3 3 1 4 2 5 27 7 28 8 74 9 29 10 73 11 30 12 31 13
REMARK SMILES IDX 32 14 67 15 33 16 72 17 66 18 68 19 34 20 71 21 65 22 64 23
REMARK SMILES IDX 35 25 57 26 42 27 56 28 43 29 46 30 55 31 69 32 44 33 45 34
REMARK SMILES IDX 54 36 70 37 47 38 36 39 37 40 41 41 38 42 40 43 39 44 58 45
REMARK SMILES IDX 59 46 63 47 60 48 62 49 61 50 48 51 49 52 53 53 50 54 52 55
REMARK SMILES IDX 51 56 6 57 7 58 8 59 9 61 10 62 11 63 26 64 12 65 13 66
REMARK SMILES IDX 14 67 15 68 25 69 16 70 18 71 17 72 19 73 20 74 24 75 21 76
REMARK SMILES IDX 23 77 22 78
REMARK H PARENT 3 6 68 24 46 35 7 60
REMARK Flexibility Score: inf
ROOT
ATOM      1  C   UNL A   1      34.026  28.658  25.879  1.00  0.00     0.042 C 
ENDROOT
BRANCH   1   2
ATOM      2  C   UNL A   1      33.590  28.791  27.333  1.00  0.00     0.118 C 
BRANCH   2   3
ATOM      3  N   UNL A   1      33.669  30.161  27.827  1.00  0.00    -0.352 N 
ATOM      4  O   UNL A   1      34.479  31.943  28.931  1.00  0.00    -0.269 OA
ATOM      5  C   UNL A   1      34.690  30.832  28.454  1.00  0.00     0.251 C 
ATOM      6  H   UNL A   1      32.854  30.695  27.685  1.00  0.00     0.163 HD
BRANCH   5   7
ATOM      7  C   UNL A   1      36.031  30.220  28.587  1.00  0.00     0.039 A 
ATOM      8  C   UNL A   1      36.418  29.570  29.758  1.00  0.00     0.014 A 
ATOM      9  C   UNL A   1      36.912  30.277  27.502  1.00  0.00     0.014 A 
ATOM     10  C   UNL A   1      37.733  29.142  29.911  1.00  0.00     0.010 A 
ATOM     11  C   UNL A   1      38.206  29.758  27.623  1.00  0.00     0.010 A 
ATOM     12  C   UNL A   1      38.644  29.231  28.846  1.00  0.00    -0.014 A 
BRANCH  12  13
ATOM     13  C   UNL A   1      40.037  28.753  29.041  1.00  0.00     0.031 A 
ATOM     14  C   UNL A   1      40.449  27.366  28.623  1.00  0.00     0.074 A 
ATOM     15  C   UNL A   1      40.955  29.598  29.551  1.00  0.00     0.049 A 
ATOM     16  N   UNL A   1      41.641  26.821  28.643  1.00  0.00    -0.248 NA
ATOM     17  C   UNL A   1      39.393  26.472  28.125  1.00  0.00     0.031 C 
ATOM     18  C   UNL A   1      40.684  30.964  30.004  1.00  0.00     0.029 A 
ATOM     19  N   UNL A   1      42.305  29.446  29.740  1.00  0.00    -0.354 N 
ATOM     20  C   UNL A   1      41.473  25.519  28.188  1.00  0.00     0.074 A 
ATOM     21  C   UNL A   1      40.061  25.346  27.921  1.00  0.00     0.031 C 
ATOM     22  C   UNL A   1      41.840  31.547  30.356  1.00  0.00     0.029 A 
ATOM     23  C   UNL A   1      42.923  30.581  30.206  1.00  0.00     0.049 A 
ATOM     24  H   UNL A   1      42.784  28.606  29.560  1.00  0.00     0.167 HD
ATOM     25  C   UNL A   1      42.407  24.555  28.002  1.00  0.00     0.031 A 
ATOM     26  C   UNL A   1      44.217  30.824  30.481  1.00  0.00     0.031 A 
ATOM     27  C   UNL A   1      43.815  24.726  28.251  1.00  0.00     0.049 A 
ATOM     28  C   UNL A   1      45.230  29.738  30.269  1.00  0.00     0.074 A 
ATOM     29  C   UNL A   1      44.842  23.819  28.053  1.00  0.00     0.029 A 
ATOM     30  N   UNL A   1      44.393  25.879  28.757  1.00  0.00    -0.354 N 
ATOM     31  N   UNL A   1      45.057  28.528  29.796  1.00  0.00    -0.248 NA
ATOM     32  C   UNL A   1      46.620  30.056  30.625  1.00  0.00     0.031 C 
ATOM     33  C   UNL A   1      46.037  24.409  28.480  1.00  0.00     0.029 A 
ATOM     34  C   UNL A   1      45.759  25.700  28.896  1.00  0.00     0.049 A 
ATOM     35  H   UNL A   1      43.905  26.704  28.983  1.00  0.00     0.167 HD
ATOM     36  C   UNL A   1      46.317  27.947  29.777  1.00  0.00     0.074 A 
ATOM     37  C   UNL A   1      47.247  28.944  30.268  1.00  0.00     0.031 C 
ATOM     38  C   UNL A   1      46.672  26.699  29.387  1.00  0.00     0.031 A 
BRANCH  25  39
ATOM     39  C   UNL A   1      41.933  23.212  27.522  1.00  0.00    -0.014 A 
ATOM     40  C   UNL A   1      41.891  22.894  26.156  1.00  0.00     0.009 A 
ATOM     41  C   UNL A   1      41.561  22.232  28.458  1.00  0.00     0.009 A 
ATOM     42  C   UNL A   1      41.456  21.635  25.735  1.00  0.00     0.001 A 
ATOM     43  C   UNL A   1      41.151  20.967  28.035  1.00  0.00     0.001 A 
ATOM     44  C   UNL A   1      41.091  20.671  26.674  1.00  0.00     0.000 A 
ENDBRANCH  25  39
BRANCH  26  45
ATOM     45  C   UNL A   1      44.630  32.162  30.976  1.00  0.00    -0.014 A 
ATOM     46  C   UNL A   1      44.656  32.435  32.352  1.00  0.00     0.009 A 
ATOM     47  C   UNL A   1      45.006  33.170  30.075  1.00  0.00     0.009 A 
ATOM     48  C   UNL A   1      45.030  33.698  32.814  1.00  0.00     0.001 A 
ATOM     49  C   UNL A   1      45.406  34.423  30.541  1.00  0.00     0.001 A 
ATOM     50  C   UNL A   1      45.410  34.688  31.909  1.00  0.00     0.000 A 
ENDBRANCH  26  45
BRANCH  38  51
ATOM     51  C   UNL A   1      48.134  26.358  29.445  1.00  0.00    -0.014 A 
ATOM     52  C   UNL A   1      48.960  26.493  28.319  1.00  0.00     0.009 A 
ATOM     53  C   UNL A   1      48.693  25.913  30.652  1.00  0.00     0.009 A 
ATOM     54  C   UNL A   1      50.311  26.150  28.391  1.00  0.00     0.001 A 
ATOM     55  C   UNL A   1      50.051  25.595  30.728  1.00  0.00     0.001 A 
ATOM     56  C   UNL A   1      50.855  25.705  29.595  1.00  0.00     0.000 A 
ENDBRANCH  38  51
ENDBRANCH  12  13
ENDBRANCH   5   7
ENDBRANCH   2   3
ENDBRANCH   1   2
BRANCH   1  57
ATOM     57  C   UNL A   1      32.923  28.974  24.873  1.00  0.00     0.118 C 
BRANCH  57  58
ATOM     58  N   UNL A   1      33.429  28.979  23.507  1.00  0.00    -0.351 N 
ATOM     59  C   UNL A   1      33.657  27.934  22.647  1.00  0.00     0.270 C 
ATOM     60  H   UNL A   1      33.640  29.870  23.145  1.00  0.00     0.163 HD
ATOM     61  O   UNL A   1      34.330  28.149  21.634  1.00  0.00    -0.267 OA
BRANCH  59  62
ATOM     62  C   UNL A   1      33.128  26.605  22.951  1.00  0.00     0.139 A 
ATOM     63  C   UNL A   1      31.867  26.181  22.563  1.00  0.00     0.101 A 
ATOM     64  N   UNL A   1      33.828  25.671  23.710  1.00  0.00    -0.231 NA
ATOM     65  S   UNL A   1      31.601  24.564  23.059  1.00  0.00    -0.122 S 
ATOM     66  C   UNL A   1      33.156  24.546  23.790  1.00  0.00     0.124 A 
BRANCH  66  67
ATOM     67  C   UNL A   1      33.663  23.335  24.420  1.00  0.00     0.016 A 
ATOM     68  C   UNL A   1      34.550  23.400  25.487  1.00  0.00     0.031 A 
ATOM     69  C   UNL A   1      33.279  22.086  23.936  1.00  0.00     0.058 A 
ATOM     70  C   UNL A   1      34.949  22.208  26.060  1.00  0.00     0.114 A 
ATOM     71  C   UNL A   1      33.723  20.929  24.565  1.00  0.00     0.129 A 
ATOM     72  N   UNL A   1      34.530  20.992  25.644  1.00  0.00    -0.239 NA
BRANCH  71  73
ATOM     73  N   UNL A   1      33.272  19.714  24.128  1.00  0.00    -0.352 N 
ATOM     74  C   UNL A   1      33.654  18.459  24.768  1.00  0.00     0.146 C 
ATOM     75  C   UNL A   1      32.149  19.627  23.203  1.00  0.00     0.146 C 
ATOM     76  C   UNL A   1      33.931  17.419  23.672  1.00  0.00     0.181 C 
ATOM     77  C   UNL A   1      32.499  18.552  22.156  1.00  0.00     0.181 C 
ATOM     78  O   UNL A   1      32.814  17.286  22.772  1.00  0.00    -0.378 OA
ENDBRANCH  71  73
ENDBRANCH  66  67
ENDBRANCH  59  62
ENDBRANCH  57  58
ENDBRANCH   1  57
TORSDOF 12
ENDMDL
MODEL 2
REMARK VINA RESULT:     -11.2      0.855      5.986
REMARK SMILES O=C(NCCCNC(=O)c1csc(-c2ccnc(N3CCOCC3)c2)n1)c1ccc(-c2c3nc(c(-c4ccccc4)c4ccc([nH]4)c(-c4ccccc4)c4nc(c(-c5ccccc5)c5ccc2[nH]5)C=C4)C=C3)cc1
REMARK SMILES IDX 5 1 4 2 3 3 1 4 2 5 27 7 28 8 74 9 29 10 73 11 30 12 31 13
REMARK SMILES IDX 32 14 67 15 33 16 72 17 66 18 68 19 34 20 71 21 65 22 64 23
REMARK SMILES IDX 35 25 57 26 42 27 56 28 43 29 46 30 55 31 69 32 44 33 45 34
REMARK SMILES IDX 54 36 70 37 47 38 36 39 37 40 41 41 38 42 40 43 39 44 58 45
REMARK SMILES IDX 59 46 63 47 60 48 62 49 61 50 48 51 49 52 53 53 50 54 52 55
REMARK SMILES IDX 51 56 6 57 7 58 8 59 9 61 10 62 11 63 26 64 12 65 13 66
REMARK SMILES IDX 14 67 15 68 25 69 16 70 18 71 17 72 19 73 20 74 24 75 21 76
REMARK SMILES IDX 23 77 22 78
REMARK H PARENT 3 6 68 24 46 35 7 60
REMARK Flexibility Score: inf
ROOT
ATOM      1  C   UNL A   1      33.791  28.300  25.867  1.00  0.00     0.042 C 
ENDROOT
BRANCH   1   2
ATOM      2  C   UNL A   1      33.412  28.569  27.319  1.00  0.00     0.118 C 
BRANCH   2   3
ATOM      3  N   UNL A   1      33.447  29.986  27.662  1.00  0.00    -0.352 N 
ATOM      4  O   UNL A   1      34.200  31.900  28.567  1.00  0.00    -0.269 OA
ATOM      5  C   UNL A   1      34.446  30.751  28.211  1.00  0.00     0.251 C 
ATOM      6  H   UNL A   1      32.616  30.476  27.465  1.00  0.00     0.163 HD
BRANCH   5   7
ATOM      7  C   UNL A   1      35.805  30.199  28.407  1.00  0.00     0.039 A 
ATOM      8  C   UNL A   1      36.200  29.662  29.632  1.00  0.00     0.014 A 
ATOM      9  C   UNL A   1      36.696  30.196  27.329  1.00  0.00     0.014 A 
ATOM     10  C   UNL A   1      37.526  29.294  29.832  1.00  0.00     0.010 A 
ATOM     11  C   UNL A   1      38.005  29.733  27.505  1.00  0.00     0.010 A 
ATOM     12  C   UNL A   1      38.446  29.326  28.771  1.00  0.00    -0.014 A 
BRANCH  12  13
ATOM     13  C   UNL A   1      39.852  28.913  29.019  1.00  0.00     0.031 A 
ATOM     14  C   UNL A   1      40.799  29.798  29.786  1.00  0.00     0.074 A 
ATOM     15  C   UNL A   1      40.264  27.701  28.595  1.00  0.00     0.049 A 
ATOM     16  N   UNL A   1      42.030  29.552  30.165  1.00  0.00    -0.248 NA
ATOM     17  C   UNL A   1      40.309  31.129  30.175  1.00  0.00     0.031 C 
ATOM     18  C   UNL A   1      39.449  26.752  27.833  1.00  0.00     0.029 A 
ATOM     19  N   UNL A   1      41.456  27.047  28.774  1.00  0.00    -0.354 N 
ATOM     20  C   UNL A   1      42.468  30.703  30.809  1.00  0.00     0.074 A 
ATOM     21  C   UNL A   1      41.380  31.657  30.751  1.00  0.00     0.031 C 
ATOM     22  C   UNL A   1      40.140  25.615  27.668  1.00  0.00     0.029 A 
ATOM     23  C   UNL A   1      41.463  25.772  28.263  1.00  0.00     0.049 A 
ATOM     24  H   UNL A   1      42.231  27.452  29.226  1.00  0.00     0.167 HD
ATOM     25  C   UNL A   1      43.662  30.945  31.401  1.00  0.00     0.031 A 
ATOM     26  C   UNL A   1      42.423  24.830  28.271  1.00  0.00     0.031 A 
ATOM     27  C   UNL A   1      44.742  29.995  31.474  1.00  0.00     0.049 A 
ATOM     28  C   UNL A   1      43.737  25.126  28.930  1.00  0.00     0.074 A 
ATOM     29  C   UNL A   1      45.974  30.137  32.090  1.00  0.00     0.029 A 
ATOM     30  N   UNL A   1      44.720  28.729  30.912  1.00  0.00    -0.354 N 
ATOM     31  N   UNL A   1      44.115  26.204  29.572  1.00  0.00    -0.248 NA
ATOM     32  C   UNL A   1      44.756  24.069  28.870  1.00  0.00     0.031 C 
ATOM     33  C   UNL A   1      46.715  28.972  31.861  1.00  0.00     0.029 A 
ATOM     34  C   UNL A   1      45.924  28.087  31.148  1.00  0.00     0.049 A 
ATOM     35  H   UNL A   1      43.960  28.343  30.417  1.00  0.00     0.167 HD
ATOM     36  C   UNL A   1      45.406  25.948  30.011  1.00  0.00     0.074 A 
ATOM     37  C   UNL A   1      45.739  24.606  29.578  1.00  0.00     0.031 C 
ATOM     38  C   UNL A   1      46.242  26.753  30.711  1.00  0.00     0.031 A 
BRANCH  25  39
ATOM     39  C   UNL A   1      43.877  32.306  32.001  1.00  0.00    -0.014 A 
ATOM     40  C   UNL A   1      44.274  33.399  31.216  1.00  0.00     0.009 A 
ATOM     41  C   UNL A   1      43.635  32.507  33.370  1.00  0.00     0.009 A 
ATOM     42  C   UNL A   1      44.456  34.657  31.794  1.00  0.00     0.001 A 
ATOM     43  C   UNL A   1      43.794  33.771  33.940  1.00  0.00     0.001 A 
ATOM     44  C   UNL A   1      44.213  34.844  33.155  1.00  0.00     0.000 A 
ENDBRANCH  25  39
BRANCH  26  45
ATOM     45  C   UNL A   1      42.168  23.510  27.641  1.00  0.00    -0.014 A 
ATOM     46  C   UNL A   1      42.578  23.257  26.324  1.00  0.00     0.009 A 
ATOM     47  C   UNL A   1      41.519  22.493  28.358  1.00  0.00     0.009 A 
ATOM     48  C   UNL A   1      42.325  22.020  25.729  1.00  0.00     0.001 A 
ATOM     49  C   UNL A   1      41.291  21.247  27.771  1.00  0.00     0.001 A 
ATOM     50  C   UNL A   1      41.687  21.015  26.455  1.00  0.00     0.000 A 
ENDBRANCH  26  45
BRANCH  38  51
ATOM     51  C   UNL A   1      47.583  26.186  31.079  1.00  0.00    -0.014 A 
ATOM     52  C   UNL A   1      48.647  26.178  30.164  1.00  0.00     0.009 A 
ATOM     53  C   UNL A   1      47.787  25.670  32.367  1.00  0.00     0.009 A 
ATOM     54  C   UNL A   1      49.879  25.626  30.521  1.00  0.00     0.001 A 
ATOM     55  C   UNL A   1      49.028  25.143  32.730  1.00  0.00     0.001 A 
ATOM     56  C   UNL A   1      50.069  25.113  31.804  1.00  0.00     0.000 A 
ENDBRANCH  38  51
ENDBRANCH  12  13
ENDBRANCH   5   7
ENDBRANCH   2   3
ENDBRANCH   1   2
BRANCH   1  57
ATOM     57  C   UNL A   1      32.668  28.582  24.873  1.00  0.00     0.118 C 
BRANCH  57  58
ATOM     58  N   UNL A   1      33.161  28.617  23.503  1.00  0.00    -0.351 N 
ATOM     59  C   UNL A   1      33.490  27.588  22.657  1.00  0.00     0.270 C 
ATOM     60  H   UNL A   1      33.277  29.519  23.126  1.00  0.00     0.163 HD
ATOM     61  O   UNL A   1      34.130  27.855  21.636  1.00  0.00    -0.267 OA
BRANCH  59  62
ATOM     62  C   UNL A   1      33.102  26.216  22.985  1.00  0.00     0.139 A 
ATOM     63  C   UNL A   1      31.846  25.696  22.717  1.00  0.00     0.101 A 
ATOM     64  N   UNL A   1      33.947  25.334  23.652  1.00  0.00    -0.231 NA
ATOM     65  S   UNL A   1      31.762  24.056  23.204  1.00  0.00    -0.122 S 
ATOM     66  C   UNL A   1      33.379  24.156  23.775  1.00  0.00     0.124 A 
BRANCH  66  67
ATOM     67  C   UNL A   1      34.042  22.983  24.328  1.00  0.00     0.016 A 
ATOM     68  C   UNL A   1      35.121  23.111  25.193  1.00  0.00     0.031 A 
ATOM     69  C   UNL A   1      33.614  21.707  23.966  1.00  0.00     0.058 A 
ATOM     70  C   UNL A   1      35.667  21.952  25.710  1.00  0.00     0.114 A 
ATOM     71  C   UNL A   1      34.213  20.587  24.528  1.00  0.00     0.129 A 
ATOM     72  N   UNL A   1      35.215  20.710  25.422  1.00  0.00    -0.239 NA
BRANCH  71  73
ATOM     73  N   UNL A   1      33.726  19.345  24.226  1.00  0.00    -0.352 N 
ATOM     74  C   UNL A   1      34.418  18.117  24.605  1.00  0.00     0.146 C 
ATOM     75  C   UNL A   1      32.347  19.174  23.786  1.00  0.00     0.146 C 
ATOM     76  C   UNL A   1      34.340  17.131  23.430  1.00  0.00     0.181 C 
ATOM     77  C   UNL A   1      32.357  18.158  22.626  1.00  0.00     0.181 C 
ATOM     78  O   UNL A   1      32.980  16.915  23.008  1.00  0.00    -0.378 OA
ENDBRANCH  71  73
ENDBRANCH  66  67
ENDBRANCH  59  62
ENDBRANCH  57  58
ENDBRANCH   1  57
TORSDOF 12
ENDMDL
MODEL 3
REMARK VINA RESULT:     -11.2      2.100      8.069
REMARK SMILES O=C(NCCCNC(=O)c1csc(-c2ccnc(N3CCOCC3)c2)n1)c1ccc(-c2c3nc(c(-c4ccccc4)c4ccc([nH]4)c(-c4ccccc4)c4nc(c(-c5ccccc5)c5ccc2[nH]5)C=C4)C=C3)cc1
REMARK SMILES IDX 5 1 4 2 3 3 1 4 2 5 27 7 28 8 74 9 29 10 73 11 30 12 31 13
REMARK SMILES IDX 32 14 67 15 33 16 72 17 66 18 68 19 34 20 71 21 65 22 64 23
REMARK SMILES IDX 35 25 57 26 42 27 56 28 43 29 46 30 55 31 69 32 44 33 45 34
REMARK SMILES IDX 54 36 70 37 47 38 36 39 37 40 41 41 38 42 40 43 39 44 58 45
REMARK SMILES IDX 59 46 63 47 60 48 62 49 61 50 48 51 49 52 53 53 50 54 52 55
REMARK SMILES IDX 51 56 6 57 7 58 8 59 9 61 10 62 11 63 26 64 12 65 13 66
REMARK SMILES IDX 14 67 15 68 25 69 16 70 18 71 17 72 19 73 20 74 24 75 21 76
REMARK SMILES IDX 23 77 22 78
REMARK H PARENT 3 6 68 24 46 35 7 60
REMARK Flexibility Score: inf
ROOT
ATOM      1  C   UNL A   1      37.641  19.799  24.915  1.00  0.00     0.042 C 
ENDROOT
BRANCH   1   2
ATOM      2  C   UNL A   1      38.822  20.319  25.726  1.00  0.00     0.118 C 
BRANCH   2   3
ATOM      3  N   UNL A   1      39.942  19.386  25.758  1.00  0.00    -0.352 N 
ATOM      4  O   UNL A   1      42.072  18.678  25.888  1.00  0.00    -0.269 OA
ATOM      5  C   UNL A   1      41.262  19.579  26.088  1.00  0.00     0.251 C 
ATOM      6  H   UNL A   1      39.714  18.463  25.503  1.00  0.00     0.163 HD
BRANCH   5   7
ATOM      7  C   UNL A   1      41.723  20.867  26.651  1.00  0.00     0.039 A 
ATOM      8  C   UNL A   1      41.738  21.093  28.027  1.00  0.00     0.014 A 
ATOM      9  C   UNL A   1      42.177  21.863  25.780  1.00  0.00     0.014 A 
ATOM     10  C   UNL A   1      42.028  22.361  28.518  1.00  0.00     0.010 A 
ATOM     11  C   UNL A   1      42.563  23.110  26.284  1.00  0.00     0.010 A 
ATOM     12  C   UNL A   1      42.444  23.387  27.653  1.00  0.00    -0.014 A 
BRANCH  12  13
ATOM     13  C   UNL A   1      42.758  24.727  28.215  1.00  0.00     0.031 A 
ATOM     14  C   UNL A   1      44.179  25.135  28.502  1.00  0.00     0.074 A 
ATOM     15  C   UNL A   1      41.755  25.605  28.415  1.00  0.00     0.049 A 
ATOM     16  N   UNL A   1      44.634  26.295  28.910  1.00  0.00    -0.248 NA
ATOM     17  C   UNL A   1      45.223  24.117  28.315  1.00  0.00     0.031 C 
ATOM     18  C   UNL A   1      40.335  25.330  28.186  1.00  0.00     0.029 A 
ATOM     19  N   UNL A   1      41.780  26.914  28.823  1.00  0.00    -0.354 N 
ATOM     20  C   UNL A   1      46.007  26.137  29.054  1.00  0.00     0.074 A 
ATOM     21  C   UNL A   1      46.310  24.763  28.712  1.00  0.00     0.031 C 
ATOM     22  C   UNL A   1      39.632  26.454  28.391  1.00  0.00     0.029 A 
ATOM     23  C   UNL A   1      40.542  27.511  28.819  1.00  0.00     0.049 A 
ATOM     24  H   UNL A   1      42.603  27.381  29.091  1.00  0.00     0.167 HD
ATOM     25  C   UNL A   1      46.934  27.051  29.429  1.00  0.00     0.031 A 
ATOM     26  C   UNL A   1      40.175  28.769  29.122  1.00  0.00     0.031 A 
ATOM     27  C   UNL A   1      46.641  28.422  29.757  1.00  0.00     0.049 A 
ATOM     28  C   UNL A   1      41.223  29.759  29.539  1.00  0.00     0.074 A 
ATOM     29  C   UNL A   1      47.520  29.432  30.108  1.00  0.00     0.029 A 
ATOM     30  N   UNL A   1      45.370  28.975  29.775  1.00  0.00    -0.354 N 
ATOM     31  N   UNL A   1      42.520  29.602  29.625  1.00  0.00    -0.248 NA
ATOM     32  C   UNL A   1      40.750  31.105  29.894  1.00  0.00     0.031 C 
ATOM     33  C   UNL A   1      46.777  30.585  30.383  1.00  0.00     0.029 A 
ATOM     34  C   UNL A   1      45.441  30.306  30.152  1.00  0.00     0.049 A 
ATOM     35  H   UNL A   1      44.541  28.493  29.553  1.00  0.00     0.167 HD
ATOM     36  C   UNL A   1      43.023  30.832  30.023  1.00  0.00     0.074 A 
ATOM     37  C   UNL A   1      41.893  31.730  30.143  1.00  0.00     0.031 C 
ATOM     38  C   UNL A   1      44.308  31.187  30.268  1.00  0.00     0.031 A 
BRANCH  25  39
ATOM     39  C   UNL A   1      48.361  26.590  29.530  1.00  0.00    -0.014 A 
ATOM     40  C   UNL A   1      49.247  26.708  28.448  1.00  0.00     0.009 A 
ATOM     41  C   UNL A   1      48.838  26.068  30.744  1.00  0.00     0.009 A 
ATOM     42  C   UNL A   1      50.572  26.283  28.569  1.00  0.00     0.001 A 
ATOM     43  C   UNL A   1      50.169  25.668  30.869  1.00  0.00     0.001 A 
ATOM     44  C   UNL A   1      51.034  25.767  29.780  1.00  0.00     0.000 A 
ENDBRANCH  25  39
BRANCH  26  45
ATOM     45  C   UNL A   1      38.747  29.166  29.031  1.00  0.00    -0.014 A 
ATOM     46  C   UNL A   1      38.220  29.656  27.827  1.00  0.00     0.009 A 
ATOM     47  C   UNL A   1      37.903  29.049  30.146  1.00  0.00     0.009 A 
ATOM     48  C   UNL A   1      36.880  30.041  27.748  1.00  0.00     0.001 A 
ATOM     49  C   UNL A   1      36.558  29.409  30.057  1.00  0.00     0.001 A 
ATOM     50  C   UNL A   1      36.050  29.912  28.860  1.00  0.00     0.000 A 
ENDBRANCH  26  45
BRANCH  38  51
ATOM     51  C   UNL A   1      44.558  32.616  30.656  1.00  0.00    -0.014 A 
ATOM     52  C   UNL A   1      44.587  33.012  32.002  1.00  0.00     0.009 A 
ATOM     53  C   UNL A   1      44.784  33.575  29.657  1.00  0.00     0.009 A 
ATOM     54  C   UNL A   1      44.800  34.351  32.337  1.00  0.00     0.001 A 
ATOM     55  C   UNL A   1      45.023  34.908  29.997  1.00  0.00     0.001 A 
ATOM     56  C   UNL A   1      45.020  35.296  31.336  1.00  0.00     0.000 A 
ENDBRANCH  38  51
ENDBRANCH  12  13
ENDBRANCH   5   7
ENDBRANCH   2   3
ENDBRANCH   1   2
BRANCH   1  57
ATOM     57  C   UNL A   1      36.392  20.670  25.016  1.00  0.00     0.118 C 
BRANCH  57  58
ATOM     58  N   UNL A   1      35.177  19.868  24.995  1.00  0.00    -0.351 N 
ATOM     59  C   UNL A   1      33.868  20.244  25.166  1.00  0.00     0.270 C 
ATOM     60  H   UNL A   1      35.315  18.906  24.832  1.00  0.00     0.163 HD
ATOM     61  O   UNL A   1      33.028  19.361  25.365  1.00  0.00    -0.267 OA
BRANCH  59  62
ATOM     62  C   UNL A   1      33.502  21.660  25.133  1.00  0.00     0.139 A 
ATOM     63  C   UNL A   1      33.502  22.472  26.255  1.00  0.00     0.101 A 
ATOM     64  N   UNL A   1      33.064  22.298  23.976  1.00  0.00    -0.231 NA
ATOM     65  S   UNL A   1      33.056  24.072  25.836  1.00  0.00    -0.122 S 
ATOM     66  C   UNL A   1      32.853  23.573  24.204  1.00  0.00     0.124 A 
BRANCH  66  67
ATOM     67  C   UNL A   1      32.495  24.540  23.176  1.00  0.00     0.016 A 
ATOM     68  C   UNL A   1      32.953  24.401  21.871  1.00  0.00     0.031 A 
ATOM     69  C   UNL A   1      31.704  25.641  23.500  1.00  0.00     0.058 A 
ATOM     70  C   UNL A   1      32.532  25.334  20.944  1.00  0.00     0.114 A 
ATOM     71  C   UNL A   1      31.322  26.539  22.512  1.00  0.00     0.129 A 
ATOM     72  N   UNL A   1      31.708  26.367  21.231  1.00  0.00    -0.239 NA
BRANCH  71  73
ATOM     73  N   UNL A   1      30.478  27.567  22.831  1.00  0.00    -0.352 N 
ATOM     74  C   UNL A   1      29.262  27.370  23.614  1.00  0.00     0.146 C 
ATOM     75  C   UNL A   1      30.904  28.953  22.677  1.00  0.00     0.146 C 
ATOM     76  C   UNL A   1      28.141  28.217  22.992  1.00  0.00     0.181 C 
ATOM     77  C   UNL A   1      29.719  29.732  22.071  1.00  0.00     0.181 C 
ATOM     78  O   UNL A   1      28.526  29.600  22.871  1.00  0.00    -0.378 OA
ENDBRANCH  71  73
ENDBRANCH  66  67
ENDBRANCH  59  62
ENDBRANCH  57  58
ENDBRANCH   1  57
TORSDOF 12
ENDMDL
