MODEL 1
REMARK VINA RESULT:     -13.2      0.000      0.000
REMARK SMILES Cc1ccc(S(=O)(=O)Nc2ccc(N3CCNC3=O)cc2)cc1C(=O)NCCCNC(=O)c1ccc(-c2c3nc(c(-c4ccccc4)c4ccc([nH]4)c(-c4ccccc4)c4nc(c(-c5ccccc5)c5ccc2[nH]5)C=C4)C=C3)cc1
REMARK SMILES IDX 27 1 26 2 24 3 25 4 23 6 1 7 2 8 3 9 4 10 22 11 5 12 6 13
REMARK SMILES IDX 7 14 8 15 9 16 10 18 11 19 21 20 12 21 20 22 13 23 14 24
REMARK SMILES IDX 15 25 18 26 16 27 17 28 19 29 28 31 29 32 30 33 31 34 32 36
REMARK SMILES IDX 33 37 34 38 80 39 35 40 79 41 36 42 37 43 38 44 73 45 39 46
REMARK SMILES IDX 78 47 72 48 74 49 40 50 77 51 71 52 70 53 41 55 63 56 48 57
REMARK SMILES IDX 62 58 49 59 52 60 61 61 75 62 50 63 51 64 60 66 76 67 53 68
REMARK SMILES IDX 42 69 43 70 47 71 44 72 46 73 45 74 64 75 65 76 69 77 66 78
REMARK SMILES IDX 68 79 67 80 54 81 55 82 59 83 56 84 58 85 57 86
REMARK H PARENT 26 5 9 17 17 30 30 35 74 54 52 65
REMARK Flexibility Score: inf
ROOT
ATOM      1  C   UNL A   1      37.939  23.771  25.815  1.00  0.00     0.118 C 
ENDROOT
BRANCH   1   2
ATOM      2  N   UNL A   1      37.602  23.397  24.456  1.00  0.00    -0.352 N 
ATOM      3  C   UNL A   1      36.475  23.026  23.776  1.00  0.00     0.251 C 
ATOM      4  O   UNL A   1      36.659  22.999  22.551  1.00  0.00    -0.269 OA
ATOM      5  H   UNL A   1      38.391  23.413  23.870  1.00  0.00     0.163 HD
BRANCH   3   6
ATOM      6  C   UNL A   1      35.091  22.679  24.293  1.00  0.00     0.044 A 
ATOM      7  C   UNL A   1      35.274  20.159  24.902  1.00  0.00     0.045 C 
ATOM      8  C   UNL A   1      34.580  21.475  24.826  1.00  0.00    -0.038 A 
ATOM      9  C   UNL A   1      33.228  21.398  25.225  1.00  0.00     0.005 A 
ATOM     10  C   UNL A   1      32.326  22.393  24.901  1.00  0.00     0.022 A 
ATOM     11  C   UNL A   1      34.139  23.712  24.037  1.00  0.00     0.036 A 
ATOM     12  C   UNL A   1      32.767  23.520  24.220  1.00  0.00     0.088 A 
BRANCH  12  13
ATOM     13  S   UNL A   1      31.468  24.456  23.449  1.00  0.00     0.261 S 
ATOM     14  O   UNL A   1      32.067  25.063  22.276  1.00  0.00    -0.201 OA
ATOM     15  O   UNL A   1      30.349  23.547  23.297  1.00  0.00    -0.201 OA
BRANCH  13  16
ATOM     16  N   UNL A   1      30.890  25.734  24.374  1.00  0.00    -0.280 N 
ATOM     17  H   UNL A   1      30.805  25.605  25.346  1.00  0.00     0.180 HD
BRANCH  16  18
ATOM     18  C   UNL A   1      30.518  26.991  23.825  1.00  0.00     0.049 A 
ATOM     19  C   UNL A   1      29.170  27.101  23.499  1.00  0.00     0.029 A 
ATOM     20  C   UNL A   1      31.392  28.037  23.535  1.00  0.00     0.029 A 
ATOM     21  C   UNL A   1      28.651  28.319  23.079  1.00  0.00     0.028 A 
ATOM     22  C   UNL A   1      30.869  29.262  23.088  1.00  0.00     0.028 A 
ATOM     23  C   UNL A   1      29.486  29.429  22.924  1.00  0.00     0.046 A 
BRANCH  23  24
ATOM     24  N   UNL A   1      28.913  30.699  22.714  1.00  0.00    -0.293 N 
ATOM     25  C   UNL A   1      29.010  31.757  23.701  1.00  0.00     0.149 C 
ATOM     26  C   UNL A   1      28.293  31.172  21.555  1.00  0.00     0.321 C 
ATOM     27  C   UNL A   1      28.708  33.019  22.909  1.00  0.00     0.139 C 
ATOM     28  N   UNL A   1      28.053  32.530  21.732  1.00  0.00    -0.336 N 
ATOM     29  O   UNL A   1      27.972  30.559  20.543  1.00  0.00    -0.248 OA
ATOM     30  H   UNL A   1      27.507  33.083  21.127  1.00  0.00     0.165 HD
ENDBRANCH  23  24
ENDBRANCH  16  18
ENDBRANCH  13  16
ENDBRANCH  12  13
ENDBRANCH   3   6
ENDBRANCH   1   2
BRANCH   1  31
ATOM     31  C   UNL A   1      38.734  22.677  26.515  1.00  0.00     0.042 C 
BRANCH  31  32
ATOM     32  C   UNL A   1      40.237  22.807  26.430  1.00  0.00     0.118 C 
BRANCH  32  33
ATOM     33  N   UNL A   1      40.904  21.671  25.795  1.00  0.00    -0.352 N 
ATOM     34  C   UNL A   1      42.212  21.232  25.941  1.00  0.00     0.251 C 
ATOM     35  H   UNL A   1      40.346  21.144  25.178  1.00  0.00     0.163 HD
ATOM     36  O   UNL A   1      42.587  20.211  25.373  1.00  0.00    -0.269 OA
BRANCH  34  37
ATOM     37  C   UNL A   1      43.093  21.903  26.930  1.00  0.00     0.039 A 
ATOM     38  C   UNL A   1      42.699  21.771  28.265  1.00  0.00     0.014 A 
ATOM     39  C   UNL A   1      43.856  22.986  26.519  1.00  0.00     0.014 A 
ATOM     40  C   UNL A   1      42.692  22.906  29.060  1.00  0.00     0.010 A 
ATOM     41  C   UNL A   1      43.720  24.147  27.241  1.00  0.00     0.010 A 
ATOM     42  C   UNL A   1      43.056  24.112  28.468  1.00  0.00    -0.014 A 
BRANCH  42  43
ATOM     43  C   UNL A   1      42.878  25.394  29.112  1.00  0.00     0.031 A 
ATOM     44  C   UNL A   1      41.713  26.163  28.668  1.00  0.00     0.074 A 
ATOM     45  C   UNL A   1      43.742  25.849  30.044  1.00  0.00     0.049 A 
ATOM     46  N   UNL A   1      41.683  27.444  28.600  1.00  0.00    -0.248 NA
ATOM     47  C   UNL A   1      40.512  25.521  28.140  1.00  0.00     0.031 C 
ATOM     48  C   UNL A   1      43.617  27.032  30.888  1.00  0.00     0.029 A 
ATOM     49  N   UNL A   1      45.041  25.415  30.267  1.00  0.00    -0.354 N 
ATOM     50  C   UNL A   1      40.378  27.791  28.347  1.00  0.00     0.074 A 
ATOM     51  C   UNL A   1      39.732  26.578  27.917  1.00  0.00     0.031 C 
ATOM     52  C   UNL A   1      44.836  27.378  31.338  1.00  0.00     0.029 A 
ATOM     53  C   UNL A   1      45.809  26.509  30.698  1.00  0.00     0.049 A 
ATOM     54  H   UNL A   1      45.370  24.494  30.145  1.00  0.00     0.167 HD
ATOM     55  C   UNL A   1      39.958  29.030  28.715  1.00  0.00     0.031 A 
ATOM     56  C   UNL A   1      46.872  26.939  29.952  1.00  0.00     0.031 A 
ATOM     57  C   UNL A   1      41.082  29.821  29.230  1.00  0.00     0.049 A 
ATOM     58  C   UNL A   1      46.622  28.267  29.282  1.00  0.00     0.074 A 
ATOM     59  C   UNL A   1      41.529  30.090  30.514  1.00  0.00     0.029 A 
ATOM     60  N   UNL A   1      42.154  30.096  28.386  1.00  0.00    -0.354 N 
ATOM     61  N   UNL A   1      45.479  28.894  29.285  1.00  0.00    -0.248 NA
ATOM     62  C   UNL A   1      47.637  28.963  28.505  1.00  0.00     0.031 C 
ATOM     63  C   UNL A   1      42.896  30.488  30.433  1.00  0.00     0.029 A 
ATOM     64  C   UNL A   1      43.269  30.509  29.100  1.00  0.00     0.049 A 
ATOM     65  H   UNL A   1      42.124  30.009  27.406  1.00  0.00     0.167 HD
ATOM     66  C   UNL A   1      45.567  30.039  28.539  1.00  0.00     0.074 A 
ATOM     67  C   UNL A   1      46.943  30.025  28.060  1.00  0.00     0.031 C 
ATOM     68  C   UNL A   1      44.493  30.877  28.378  1.00  0.00     0.031 A 
BRANCH  55  69
ATOM     69  C   UNL A   1      38.501  29.383  28.905  1.00  0.00    -0.014 A 
ATOM     70  C   UNL A   1      37.809  30.015  27.857  1.00  0.00     0.009 A 
ATOM     71  C   UNL A   1      37.767  29.187  30.090  1.00  0.00     0.009 A 
ATOM     72  C   UNL A   1      36.496  30.484  28.010  1.00  0.00     0.001 A 
ATOM     73  C   UNL A   1      36.466  29.680  30.261  1.00  0.00     0.001 A 
ATOM     74  C   UNL A   1      35.830  30.335  29.219  1.00  0.00     0.000 A 
ENDBRANCH  55  69
BRANCH  56  75
ATOM     75  C   UNL A   1      47.642  25.801  29.363  1.00  0.00    -0.014 A 
ATOM     76  C   UNL A   1      47.234  25.413  28.070  1.00  0.00     0.009 A 
ATOM     77  C   UNL A   1      48.979  25.614  29.736  1.00  0.00     0.009 A 
ATOM     78  C   UNL A   1      48.191  25.205  27.078  1.00  0.00     0.001 A 
ATOM     79  C   UNL A   1      49.926  25.348  28.744  1.00  0.00     0.001 A 
ATOM     80  C   UNL A   1      49.542  25.244  27.406  1.00  0.00     0.000 A 
ENDBRANCH  56  75
BRANCH  68  81
ATOM     81  C   UNL A   1      44.448  32.136  27.529  1.00  0.00    -0.014 A 
ATOM     82  C   UNL A   1      44.543  32.180  26.135  1.00  0.00     0.009 A 
ATOM     83  C   UNL A   1      44.320  33.394  28.166  1.00  0.00     0.009 A 
ATOM     84  C   UNL A   1      44.423  33.380  25.419  1.00  0.00     0.001 A 
ATOM     85  C   UNL A   1      44.198  34.595  27.465  1.00  0.00     0.001 A 
ATOM     86  C   UNL A   1      44.234  34.585  26.083  1.00  0.00     0.000 A 
ENDBRANCH  68  81
ENDBRANCH  42  43
ENDBRANCH  34  37
ENDBRANCH  32  33
ENDBRANCH  31  32
ENDBRANCH   1  31
TORSDOF 14
ENDMDL
MODEL 2
REMARK VINA RESULT:     -13.2      4.202      9.792
REMARK SMILES Cc1ccc(S(=O)(=O)Nc2ccc(N3CCNC3=O)cc2)cc1C(=O)NCCCNC(=O)c1ccc(-c2c3nc(c(-c4ccccc4)c4ccc([nH]4)c(-c4ccccc4)c4nc(c(-c5ccccc5)c5ccc2[nH]5)C=C4)C=C3)cc1
REMARK SMILES IDX 27 1 26 2 24 3 25 4 23 6 1 7 2 8 3 9 4 10 22 11 5 12 6 13
REMARK SMILES IDX 7 14 8 15 9 16 10 18 11 19 21 20 12 21 20 22 13 23 14 24
REMARK SMILES IDX 15 25 18 26 16 27 17 28 19 29 28 31 29 32 30 33 31 34 32 36
REMARK SMILES IDX 33 37 34 38 80 39 35 40 79 41 36 42 37 43 38 44 73 45 39 46
REMARK SMILES IDX 78 47 72 48 74 49 40 50 77 51 71 52 70 53 41 55 63 56 48 57
REMARK SMILES IDX 62 58 49 59 52 60 61 61 75 62 50 63 51 64 60 66 76 67 53 68
REMARK SMILES IDX 42 69 43 70 47 71 44 72 46 73 45 74 64 75 65 76 69 77 66 78
REMARK SMILES IDX 68 79 67 80 54 81 55 82 59 83 56 84 58 85 57 86
REMARK H PARENT 26 5 9 17 17 30 30 35 74 54 52 65
REMARK Flexibility Score: inf
ROOT
ATOM      1  C   UNL A   1      33.999  29.982  27.103  1.00  0.00     0.118 C 
ENDROOT
BRANCH   1   2
ATOM      2  N   UNL A   1      32.825  29.265  27.558  1.00  0.00    -0.352 N 
ATOM      3  C   UNL A   1      31.929  28.379  27.025  1.00  0.00     0.251 C 
ATOM      4  O   UNL A   1      31.196  27.881  27.890  1.00  0.00    -0.269 OA
ATOM      5  H   UNL A   1      32.617  29.470  28.498  1.00  0.00     0.163 HD
BRANCH   3   6
ATOM      6  C   UNL A   1      31.736  27.931  25.588  1.00  0.00     0.044 A 
ATOM      7  C   UNL A   1      30.596  29.973  24.453  1.00  0.00     0.045 C 
ATOM      8  C   UNL A   1      31.218  28.619  24.469  1.00  0.00    -0.038 A 
ATOM      9  C   UNL A   1      31.121  27.965  23.221  1.00  0.00     0.005 A 
ATOM     10  C   UNL A   1      31.305  26.600  23.110  1.00  0.00     0.022 A 
ATOM     11  C   UNL A   1      31.981  26.535  25.414  1.00  0.00     0.036 A 
ATOM     12  C   UNL A   1      31.649  25.863  24.235  1.00  0.00     0.088 A 
BRANCH  12  13
ATOM     13  S   UNL A   1      31.374  24.115  24.070  1.00  0.00     0.261 S 
ATOM     14  O   UNL A   1      31.220  23.614  25.422  1.00  0.00    -0.201 OA
ATOM     15  O   UNL A   1      30.290  23.965  23.119  1.00  0.00    -0.201 OA
BRANCH  13  16
ATOM     16  N   UNL A   1      32.669  23.267  23.418  1.00  0.00    -0.280 N 
ATOM     17  H   UNL A   1      33.366  23.773  22.941  1.00  0.00     0.180 HD
BRANCH  16  18
ATOM     18  C   UNL A   1      32.811  21.856  23.520  1.00  0.00     0.049 A 
ATOM     19  C   UNL A   1      33.820  21.441  24.384  1.00  0.00     0.029 A 
ATOM     20  C   UNL A   1      32.093  20.916  22.785  1.00  0.00     0.029 A 
ATOM     21  C   UNL A   1      33.976  20.092  24.676  1.00  0.00     0.028 A 
ATOM     22  C   UNL A   1      32.269  19.550  23.064  1.00  0.00     0.028 A 
ATOM     23  C   UNL A   1      33.163  19.135  24.061  1.00  0.00     0.046 A 
BRANCH  23  24
ATOM     24  N   UNL A   1      33.186  17.807  24.530  1.00  0.00    -0.293 N 
ATOM     25  C   UNL A   1      32.683  17.447  25.842  1.00  0.00     0.149 C 
ATOM     26  C   UNL A   1      33.563  16.661  23.824  1.00  0.00     0.321 C 
ATOM     27  C   UNL A   1      32.459  15.947  25.744  1.00  0.00     0.139 C 
ATOM     28  N   UNL A   1      33.248  15.560  24.612  1.00  0.00    -0.336 N 
ATOM     29  O   UNL A   1      34.095  16.570  22.723  1.00  0.00    -0.248 OA
ATOM     30  H   UNL A   1      33.527  14.637  24.417  1.00  0.00     0.165 HD
ENDBRANCH  23  24
ENDBRANCH  16  18
ENDBRANCH  13  16
ENDBRANCH  12  13
ENDBRANCH   3   6
ENDBRANCH   1   2
BRANCH   1  31
ATOM     31  C   UNL A   1      35.188  29.747  28.025  1.00  0.00     0.042 C 
BRANCH  31  32
ATOM     32  C   UNL A   1      35.579  30.919  28.897  1.00  0.00     0.118 C 
BRANCH  32  33
ATOM     33  N   UNL A   1      34.524  31.916  29.073  1.00  0.00    -0.352 N 
ATOM     34  C   UNL A   1      34.564  33.116  29.768  1.00  0.00     0.251 C 
ATOM     35  H   UNL A   1      33.666  31.705  28.639  1.00  0.00     0.163 HD
ATOM     36  O   UNL A   1      33.594  33.867  29.757  1.00  0.00    -0.269 OA
BRANCH  34  37
ATOM     37  C   UNL A   1      35.848  33.564  30.364  1.00  0.00     0.039 A 
ATOM     38  C   UNL A   1      36.777  34.084  29.459  1.00  0.00     0.014 A 
ATOM     39  C   UNL A   1      36.263  32.994  31.559  1.00  0.00     0.014 A 
ATOM     40  C   UNL A   1      38.089  33.649  29.545  1.00  0.00     0.010 A 
ATOM     41  C   UNL A   1      37.519  32.438  31.574  1.00  0.00     0.010 A 
ATOM     42  C   UNL A   1      38.392  32.699  30.516  1.00  0.00    -0.014 A 
BRANCH  42  43
ATOM     43  C   UNL A   1      39.655  31.997  30.570  1.00  0.00     0.031 A 
ATOM     44  C   UNL A   1      39.693  30.715  29.863  1.00  0.00     0.074 A 
ATOM     45  C   UNL A   1      40.716  32.491  31.242  1.00  0.00     0.049 A 
ATOM     46  N   UNL A   1      40.386  29.706  30.245  1.00  0.00    -0.248 NA
ATOM     47  C   UNL A   1      38.834  30.434  28.715  1.00  0.00     0.031 C 
ATOM     48  C   UNL A   1      42.086  31.991  31.260  1.00  0.00     0.029 A 
ATOM     49  N   UNL A   1      40.703  33.463  32.234  1.00  0.00    -0.354 N 
ATOM     50  C   UNL A   1      40.323  28.782  29.230  1.00  0.00     0.074 A 
ATOM     51  C   UNL A   1      39.235  29.206  28.387  1.00  0.00     0.031 C 
ATOM     52  C   UNL A   1      42.710  32.461  32.355  1.00  0.00     0.029 A 
ATOM     53  C   UNL A   1      41.728  33.176  33.151  1.00  0.00     0.049 A 
ATOM     54  H   UNL A   1      40.080  34.224  32.286  1.00  0.00     0.167 HD
ATOM     55  C   UNL A   1      41.327  27.871  29.124  1.00  0.00     0.031 A 
ATOM     56  C   UNL A   1      41.425  32.899  34.456  1.00  0.00     0.031 A 
ATOM     57  C   UNL A   1      42.259  28.003  30.251  1.00  0.00     0.049 A 
ATOM     58  C   UNL A   1      41.648  31.451  34.817  1.00  0.00     0.074 A 
ATOM     59  C   UNL A   1      43.476  28.649  30.391  1.00  0.00     0.029 A 
ATOM     60  N   UNL A   1      41.786  27.794  31.543  1.00  0.00    -0.354 N 
ATOM     61  N   UNL A   1      41.964  30.516  33.964  1.00  0.00    -0.248 NA
ATOM     62  C   UNL A   1      41.473  30.937  36.167  1.00  0.00     0.031 C 
ATOM     63  C   UNL A   1      43.706  28.865  31.782  1.00  0.00     0.029 A 
ATOM     64  C   UNL A   1      42.657  28.308  32.491  1.00  0.00     0.049 A 
ATOM     65  H   UNL A   1      40.940  27.337  31.757  1.00  0.00     0.167 HD
ATOM     66  C   UNL A   1      42.034  29.304  34.598  1.00  0.00     0.074 A 
ATOM     67  C   UNL A   1      41.702  29.626  35.979  1.00  0.00     0.031 C 
ATOM     68  C   UNL A   1      42.345  28.154  33.917  1.00  0.00     0.031 A 
BRANCH  55  69
ATOM     69  C   UNL A   1      41.620  27.112  27.851  1.00  0.00    -0.014 A 
ATOM     70  C   UNL A   1      42.070  27.819  26.723  1.00  0.00     0.009 A 
ATOM     71  C   UNL A   1      41.419  25.731  27.665  1.00  0.00     0.009 A 
ATOM     72  C   UNL A   1      42.239  27.200  25.476  1.00  0.00     0.001 A 
ATOM     73  C   UNL A   1      41.555  25.111  26.415  1.00  0.00     0.001 A 
ATOM     74  C   UNL A   1      41.962  25.849  25.317  1.00  0.00     0.000 A 
ENDBRANCH  55  69
BRANCH  56  75
ATOM     75  C   UNL A   1      40.317  33.761  34.972  1.00  0.00    -0.014 A 
ATOM     76  C   UNL A   1      39.031  33.187  34.895  1.00  0.00     0.009 A 
ATOM     77  C   UNL A   1      40.587  34.684  35.990  1.00  0.00     0.009 A 
ATOM     78  C   UNL A   1      38.183  33.243  35.999  1.00  0.00     0.001 A 
ATOM     79  C   UNL A   1      39.702  34.778  37.068  1.00  0.00     0.001 A 
ATOM     80  C   UNL A   1      38.555  33.985  37.115  1.00  0.00     0.000 A 
ENDBRANCH  56  75
BRANCH  68  81
ATOM     81  C   UNL A   1      42.392  26.748  34.492  1.00  0.00    -0.014 A 
ATOM     82  C   UNL A   1      41.418  26.173  35.314  1.00  0.00     0.009 A 
ATOM     83  C   UNL A   1      43.510  25.926  34.214  1.00  0.00     0.009 A 
ATOM     84  C   UNL A   1      41.503  24.842  35.748  1.00  0.00     0.001 A 
ATOM     85  C   UNL A   1      43.606  24.600  34.639  1.00  0.00     0.001 A 
ATOM     86  C   UNL A   1      42.588  24.051  35.397  1.00  0.00     0.000 A 
ENDBRANCH  68  81
ENDBRANCH  42  43
ENDBRANCH  34  37
ENDBRANCH  32  33
ENDBRANCH  31  32
ENDBRANCH   1  31
TORSDOF 14
ENDMDL
MODEL 3
REMARK VINA RESULT:     -12.8      3.661      9.441
REMARK SMILES Cc1ccc(S(=O)(=O)Nc2ccc(N3CCNC3=O)cc2)cc1C(=O)NCCCNC(=O)c1ccc(-c2c3nc(c(-c4ccccc4)c4ccc([nH]4)c(-c4ccccc4)c4nc(c(-c5ccccc5)c5ccc2[nH]5)C=C4)C=C3)cc1
REMARK SMILES IDX 27 1 26 2 24 3 25 4 23 6 1 7 2 8 3 9 4 10 22 11 5 12 6 13
REMARK SMILES IDX 7 14 8 15 9 16 10 18 11 19 21 20 12 21 20 22 13 23 14 24
REMARK SMILES IDX 15 25 18 26 16 27 17 28 19 29 28 31 29 32 30 33 31 34 32 36
REMARK SMILES IDX 33 37 34 38 80 39 35 40 79 41 36 42 37 43 38 44 73 45 39 46
REMARK SMILES IDX 78 47 72 48 74 49 40 50 77 51 71 52 70 53 41 55 63 56 48 57
REMARK SMILES IDX 62 58 49 59 52 60 61 61 75 62 50 63 51 64 60 66 76 67 53 68
REMARK SMILES IDX 42 69 43 70 47 71 44 72 46 73 45 74 64 75 65 76 69 77 66 78
REMARK SMILES IDX 68 79 67 80 54 81 55 82 59 83 56 84 58 85 57 86
REMARK H PARENT 26 5 9 17 17 30 30 35 74 54 52 65
REMARK Flexibility Score: inf
ROOT
ATOM      1  C   UNL A   1      33.867  29.273  26.641  1.00  0.00     0.118 C 
ENDROOT
BRANCH   1   2
ATOM      2  N   UNL A   1      33.957  29.308  25.195  1.00  0.00    -0.352 N 
ATOM      3  C   UNL A   1      33.179  28.919  24.139  1.00  0.00     0.251 C 
ATOM      4  O   UNL A   1      33.607  29.355  23.062  1.00  0.00    -0.269 OA
ATOM      5  H   UNL A   1      34.799  29.719  24.894  1.00  0.00     0.163 HD
BRANCH   3   6
ATOM      6  C   UNL A   1      31.913  28.083  24.113  1.00  0.00     0.044 A 
ATOM      7  C   UNL A   1      30.078  29.763  23.362  1.00  0.00     0.045 C 
ATOM      8  C   UNL A   1      30.595  28.416  23.733  1.00  0.00    -0.038 A 
ATOM      9  C   UNL A   1      29.569  27.448  23.819  1.00  0.00     0.005 A 
ATOM     10  C   UNL A   1      29.767  26.250  24.479  1.00  0.00     0.022 A 
ATOM     11  C   UNL A   1      32.091  26.806  24.727  1.00  0.00     0.036 A 
ATOM     12  C   UNL A   1      31.014  25.965  25.018  1.00  0.00     0.088 A 
BRANCH  12  13
ATOM     13  S   UNL A   1      31.000  24.665  26.231  1.00  0.00     0.261 S 
ATOM     14  O   UNL A   1      31.929  25.083  27.263  1.00  0.00    -0.201 OA
ATOM     15  O   UNL A   1      29.608  24.439  26.564  1.00  0.00    -0.201 OA
BRANCH  13  16
ATOM     16  N   UNL A   1      31.577  23.190  25.673  1.00  0.00    -0.280 N 
ATOM     17  H   UNL A   1      30.929  22.537  25.322  1.00  0.00     0.180 HD
BRANCH  16  18
ATOM     18  C   UNL A   1      32.954  22.835  25.681  1.00  0.00     0.049 A 
ATOM     19  C   UNL A   1      33.694  23.377  24.634  1.00  0.00     0.029 A 
ATOM     20  C   UNL A   1      33.558  21.958  26.579  1.00  0.00     0.029 A 
ATOM     21  C   UNL A   1      35.073  23.218  24.599  1.00  0.00     0.028 A 
ATOM     22  C   UNL A   1      34.950  21.779  26.529  1.00  0.00     0.028 A 
ATOM     23  C   UNL A   1      35.724  22.463  25.580  1.00  0.00     0.046 A 
BRANCH  23  24
ATOM     24  N   UNL A   1      37.130  22.496  25.654  1.00  0.00    -0.293 N 
ATOM     25  C   UNL A   1      37.845  23.653  26.156  1.00  0.00     0.149 C 
ATOM     26  C   UNL A   1      38.021  21.453  25.387  1.00  0.00     0.321 C 
ATOM     27  C   UNL A   1      39.220  23.106  26.503  1.00  0.00     0.139 C 
ATOM     28  N   UNL A   1      39.288  21.874  25.774  1.00  0.00    -0.336 N 
ATOM     29  O   UNL A   1      37.800  20.355  24.889  1.00  0.00    -0.248 OA
ATOM     30  H   UNL A   1      40.122  21.390  25.575  1.00  0.00     0.165 HD
ENDBRANCH  23  24
ENDBRANCH  16  18
ENDBRANCH  13  16
ENDBRANCH  12  13
ENDBRANCH   3   6
ENDBRANCH   1   2
BRANCH   1  31
ATOM     31  C   UNL A   1      35.243  29.354  27.287  1.00  0.00     0.042 C 
BRANCH  31  32
ATOM     32  C   UNL A   1      35.405  30.418  28.348  1.00  0.00     0.118 C 
BRANCH  32  33
ATOM     33  N   UNL A   1      34.341  31.421  28.360  1.00  0.00    -0.352 N 
ATOM     34  C   UNL A   1      34.288  32.631  29.038  1.00  0.00     0.251 C 
ATOM     35  H   UNL A   1      33.552  31.208  27.810  1.00  0.00     0.163 HD
ATOM     36  O   UNL A   1      33.334  33.385  28.880  1.00  0.00    -0.269 OA
BRANCH  34  37
ATOM     37  C   UNL A   1      35.476  33.081  29.806  1.00  0.00     0.039 A 
ATOM     38  C   UNL A   1      36.436  33.776  29.065  1.00  0.00     0.014 A 
ATOM     39  C   UNL A   1      35.830  32.390  30.955  1.00  0.00     0.014 A 
ATOM     40  C   UNL A   1      37.767  33.422  29.222  1.00  0.00     0.010 A 
ATOM     41  C   UNL A   1      37.120  31.922  31.021  1.00  0.00     0.010 A 
ATOM     42  C   UNL A   1      38.058  32.376  30.093  1.00  0.00    -0.014 A 
BRANCH  42  43
ATOM     43  C   UNL A   1      39.363  31.759  30.180  1.00  0.00     0.031 A 
ATOM     44  C   UNL A   1      39.492  30.464  29.510  1.00  0.00     0.074 A 
ATOM     45  C   UNL A   1      40.381  32.339  30.851  1.00  0.00     0.049 A 
ATOM     46  N   UNL A   1      40.244  29.512  29.927  1.00  0.00    -0.248 NA
ATOM     47  C   UNL A   1      38.668  30.097  28.360  1.00  0.00     0.031 C 
ATOM     48  C   UNL A   1      41.780  31.929  30.897  1.00  0.00     0.029 A 
ATOM     49  N   UNL A   1      40.292  33.333  31.815  1.00  0.00    -0.354 N 
ATOM     50  C   UNL A   1      40.254  28.559  28.937  1.00  0.00     0.074 A 
ATOM     51  C   UNL A   1      39.152  28.890  28.071  1.00  0.00     0.031 C 
ATOM     52  C   UNL A   1      42.357  32.467  31.986  1.00  0.00     0.029 A 
ATOM     53  C   UNL A   1      41.321  33.139  32.751  1.00  0.00     0.049 A 
ATOM     54  H   UNL A   1      39.621  34.054  31.839  1.00  0.00     0.167 HD
ATOM     55  C   UNL A   1      41.315  27.713  28.868  1.00  0.00     0.031 A 
ATOM     56  C   UNL A   1      41.020  32.878  34.060  1.00  0.00     0.031 A 
ATOM     57  C   UNL A   1      42.222  27.935  30.001  1.00  0.00     0.049 A 
ATOM     58  C   UNL A   1      41.331  31.457  34.463  1.00  0.00     0.074 A 
ATOM     59  C   UNL A   1      43.393  28.662  30.137  1.00  0.00     0.029 A 
ATOM     60  N   UNL A   1      41.747  27.730  31.293  1.00  0.00    -0.354 N 
ATOM     61  N   UNL A   1      41.718  30.522  33.640  1.00  0.00    -0.248 NA
ATOM     62  C   UNL A   1      41.172  30.969  35.824  1.00  0.00     0.031 C 
ATOM     63  C   UNL A   1      43.591  28.929  31.524  1.00  0.00     0.029 A 
ATOM     64  C   UNL A   1      42.570  28.325  32.237  1.00  0.00     0.049 A 
ATOM     65  H   UNL A   1      40.930  27.226  31.510  1.00  0.00     0.167 HD
ATOM     66  C   UNL A   1      41.857  29.335  34.308  1.00  0.00     0.074 A 
ATOM     67  C   UNL A   1      41.487  29.671  35.676  1.00  0.00     0.031 C 
ATOM     68  C   UNL A   1      42.250  28.190  33.663  1.00  0.00     0.031 A 
BRANCH  55  69
ATOM     69  C   UNL A   1      41.673  26.940  27.619  1.00  0.00    -0.014 A 
ATOM     70  C   UNL A   1      41.941  25.564  27.720  1.00  0.00     0.009 A 
ATOM     71  C   UNL A   1      41.827  27.499  26.336  1.00  0.00     0.009 A 
ATOM     72  C   UNL A   1      42.401  24.814  26.629  1.00  0.00     0.001 A 
ATOM     73  C   UNL A   1      42.317  26.764  25.248  1.00  0.00     0.001 A 
ATOM     74  C   UNL A   1      42.609  25.419  25.396  1.00  0.00     0.000 A 
ENDBRANCH  55  69
BRANCH  56  75
ATOM     75  C   UNL A   1      39.852  33.679  34.539  1.00  0.00    -0.014 A 
ATOM     76  C   UNL A   1      38.645  32.960  34.658  1.00  0.00     0.009 A 
ATOM     77  C   UNL A   1      40.075  34.773  35.384  1.00  0.00     0.009 A 
ATOM     78  C   UNL A   1      37.875  33.092  35.812  1.00  0.00     0.001 A 
ATOM     79  C   UNL A   1      39.263  34.934  36.510  1.00  0.00     0.001 A 
ATOM     80  C   UNL A   1      38.228  34.034  36.772  1.00  0.00     0.000 A 
ENDBRANCH  56  75
BRANCH  68  81
ATOM     81  C   UNL A   1      42.381  26.806  34.277  1.00  0.00    -0.014 A 
ATOM     82  C   UNL A   1      41.450  26.204  35.128  1.00  0.00     0.009 A 
ATOM     83  C   UNL A   1      43.538  26.037  34.005  1.00  0.00     0.009 A 
ATOM     84  C   UNL A   1      41.612  24.893  35.599  1.00  0.00     0.001 A 
ATOM     85  C   UNL A   1      43.710  24.730  34.467  1.00  0.00     0.001 A 
ATOM     86  C   UNL A   1      42.733  24.150  35.255  1.00  0.00     0.000 A 
ENDBRANCH  68  81
ENDBRANCH  42  43
ENDBRANCH  34  37
ENDBRANCH  32  33
ENDBRANCH  31  32
ENDBRANCH   1  31
TORSDOF 14
ENDMDL
