MODEL 1
REMARK VINA RESULT:     -12.1      0.000      0.000
REMARK SMILES O=C(C[C@H](NC(=O)[C@]12C[C@H]3C[C@H](C[C@H](C3)C1)C2)c1ccc(Cl)cc1Cl)NCCCNC(=O)c1ccc(-c2c3nc(c(-c4ccccc4)c4ccc([nH]4)c(-c4ccccc4)c4nc(c(-c5ccccc5)c5ccc2[nH]5)C=C4)C=C3)cc1
REMARK SMILES IDX 27 1 26 2 1 3 2 4 3 6 4 7 18 8 19 9 24 10 20 11 23 12 25 13
REMARK SMILES IDX 21 14 22 15 5 16 6 17 7 19 8 20 9 21 16 22 17 23 10 24 14 25
REMARK SMILES IDX 12 26 11 27 15 28 13 29 28 30 29 31 30 32 31 33 32 35 33 36
REMARK SMILES IDX 34 37 80 38 35 39 79 40 36 41 37 42 38 43 73 44 39 45 78 46
REMARK SMILES IDX 72 47 74 48 40 49 77 50 71 51 70 52 41 54 63 55 48 56 62 57
REMARK SMILES IDX 49 58 52 59 61 60 75 61 50 62 51 63 60 65 76 66 53 67 42 68
REMARK SMILES IDX 43 69 47 70 44 71 46 72 45 73 64 74 65 75 69 76 66 77 68 78
REMARK SMILES IDX 67 79 54 80 55 81 59 82 56 83 58 84 57 85
REMARK H PARENT 26 5 5 18 30 34 74 53 52 64
REMARK Flexibility Score: inf
ROOT
ATOM      1  C   UNL A   1      38.082  21.883  25.433  1.00  0.00     0.117 C 
ENDROOT
BRANCH   1   2
ATOM      2  N   UNL A   1      36.745  21.919  25.979  1.00  0.00    -0.356 N 
ATOM      3  O   UNL A   1      36.200  24.016  25.213  1.00  0.00    -0.275 OA
ATOM      4  C   UNL A   1      35.911  22.999  25.827  1.00  0.00     0.222 C 
ATOM      5  H   UNL A   1      36.418  21.137  26.481  1.00  0.00     0.163 HD
BRANCH   4   6
ATOM      6  C   UNL A   1      34.597  22.824  26.531  1.00  0.00     0.129 C 
BRANCH   6   7
ATOM      7  C   UNL A   1      33.379  22.868  25.600  1.00  0.00     0.123 C 
BRANCH   7   8
ATOM      8  C   UNL A   1      33.126  21.619  24.771  1.00  0.00    -0.006 A 
ATOM      9  C   UNL A   1      33.412  20.337  25.288  1.00  0.00     0.009 A 
ATOM     10  C   UNL A   1      32.576  21.690  23.474  1.00  0.00     0.047 A 
ATOM     11  C   UNL A   1      33.138  19.181  24.553  1.00  0.00     0.021 A 
ATOM     12  C   UNL A   1      32.315  20.533  22.735  1.00  0.00     0.041 A 
ATOM     13  Cl  UNL A   1      32.152  23.195  22.733  1.00  0.00    -0.084 Cl
ATOM     14  C   UNL A   1      32.592  19.284  23.280  1.00  0.00     0.042 A 
ATOM     15  Cl  UNL A   1      32.242  17.862  22.382  1.00  0.00    -0.084 Cl
ENDBRANCH   7   8
BRANCH   7  16
ATOM     16  N   UNL A   1      32.164  23.335  26.279  1.00  0.00    -0.348 N 
ATOM     17  C   UNL A   1      31.571  24.540  26.471  1.00  0.00     0.226 C 
ATOM     18  H   UNL A   1      31.658  22.599  26.694  1.00  0.00     0.164 HD
ATOM     19  O   UNL A   1      30.504  24.475  27.099  1.00  0.00    -0.274 OA
BRANCH  17  20
ATOM     20  C   UNL A   1      32.067  25.896  25.920  1.00  0.00     0.050 C 
ATOM     21  C   UNL A   1      33.590  26.117  25.913  1.00  0.00     0.020 C 
ATOM     22  C   UNL A   1      31.418  27.023  26.779  1.00  0.00     0.020 C 
ATOM     23  C   UNL A   1      31.556  26.082  24.468  1.00  0.00     0.020 C 
ATOM     24  C   UNL A   1      33.980  27.509  25.418  1.00  0.00    -0.010 C 
ATOM     25  C   UNL A   1      31.807  28.418  26.261  1.00  0.00    -0.010 C 
ATOM     26  C   UNL A   1      31.953  27.474  23.927  1.00  0.00    -0.010 C 
ATOM     27  C   UNL A   1      33.481  27.639  23.969  1.00  0.00     0.007 C 
ATOM     28  C   UNL A   1      33.332  28.565  26.313  1.00  0.00     0.007 C 
ATOM     29  C   UNL A   1      31.328  28.570  24.807  1.00  0.00     0.007 C 
ENDBRANCH  17  20
ENDBRANCH   7  16
ENDBRANCH   6   7
ENDBRANCH   4   6
ENDBRANCH   1   2
BRANCH   1  30
ATOM     30  C   UNL A   1      38.442  20.477  24.977  1.00  0.00     0.042 C 
BRANCH  30  31
ATOM     31  C   UNL A   1      38.999  19.596  26.090  1.00  0.00     0.118 C 
BRANCH  31  32
ATOM     32  N   UNL A   1      40.305  19.039  25.774  1.00  0.00    -0.352 N 
ATOM     33  C   UNL A   1      41.540  19.643  25.834  1.00  0.00     0.251 C 
ATOM     34  H   UNL A   1      40.307  18.100  25.477  1.00  0.00     0.163 HD
ATOM     35  O   UNL A   1      42.527  19.097  25.363  1.00  0.00    -0.269 OA
BRANCH  33  36
ATOM     36  C   UNL A   1      41.649  20.982  26.445  1.00  0.00     0.039 A 
ATOM     37  C   UNL A   1      41.578  21.103  27.833  1.00  0.00     0.014 A 
ATOM     38  C   UNL A   1      41.876  22.105  25.644  1.00  0.00     0.014 A 
ATOM     39  C   UNL A   1      41.826  22.341  28.428  1.00  0.00     0.010 A 
ATOM     40  C   UNL A   1      42.207  23.315  26.241  1.00  0.00     0.010 A 
ATOM     41  C   UNL A   1      42.193  23.444  27.640  1.00  0.00    -0.014 A 
BRANCH  41  42
ATOM     42  C   UNL A   1      42.581  24.742  28.245  1.00  0.00     0.031 A 
ATOM     43  C   UNL A   1      41.547  25.814  28.446  1.00  0.00     0.074 A 
ATOM     44  C   UNL A   1      43.876  24.990  28.526  1.00  0.00     0.049 A 
ATOM     45  N   UNL A   1      41.707  27.052  28.840  1.00  0.00    -0.248 NA
ATOM     46  C   UNL A   1      40.153  25.457  28.137  1.00  0.00     0.031 C 
ATOM     47  C   UNL A   1      44.980  24.044  28.352  1.00  0.00     0.029 A 
ATOM     48  N   UNL A   1      44.484  26.124  29.004  1.00  0.00    -0.354 N 
ATOM     49  C   UNL A   1      40.441  27.623  28.806  1.00  0.00     0.074 A 
ATOM     50  C   UNL A   1      39.534  26.615  28.305  1.00  0.00     0.031 C 
ATOM     51  C   UNL A   1      46.125  24.630  28.737  1.00  0.00     0.029 A 
ATOM     52  C   UNL A   1      45.847  26.007  29.133  1.00  0.00     0.049 A 
ATOM     53  H   UNL A   1      43.990  26.944  29.234  1.00  0.00     0.167 HD
ATOM     54  C   UNL A   1      40.065  28.871  29.172  1.00  0.00     0.031 A 
ATOM     55  C   UNL A   1      46.773  26.911  29.508  1.00  0.00     0.031 A 
ATOM     56  C   UNL A   1      40.969  29.871  29.674  1.00  0.00     0.049 A 
ATOM     57  C   UNL A   1      46.335  28.303  29.872  1.00  0.00     0.074 A 
ATOM     58  C   UNL A   1      40.677  31.149  30.119  1.00  0.00     0.029 A 
ATOM     59  N   UNL A   1      42.340  29.709  29.793  1.00  0.00    -0.354 N 
ATOM     60  N   UNL A   1      45.127  28.810  29.889  1.00  0.00    -0.248 NA
ATOM     61  C   UNL A   1      47.389  29.246  30.275  1.00  0.00     0.031 C 
ATOM     62  C   UNL A   1      41.879  31.781  30.448  1.00  0.00     0.029 A 
ATOM     63  C   UNL A   1      42.912  30.873  30.277  1.00  0.00     0.049 A 
ATOM     64  H   UNL A   1      42.834  28.887  29.566  1.00  0.00     0.167 HD
ATOM     65  C   UNL A   1      45.270  30.116  30.341  1.00  0.00     0.074 A 
ATOM     66  C   UNL A   1      46.681  30.320  30.591  1.00  0.00     0.031 C 
ATOM     67  C   UNL A   1      44.317  31.059  30.535  1.00  0.00     0.031 A 
BRANCH  54  68
ATOM     68  C   UNL A   1      38.612  29.229  29.028  1.00  0.00    -0.014 A 
ATOM     69  C   UNL A   1      37.729  29.149  30.118  1.00  0.00     0.009 A 
ATOM     70  C   UNL A   1      38.127  29.689  27.795  1.00  0.00     0.009 A 
ATOM     71  C   UNL A   1      36.382  29.485  29.963  1.00  0.00     0.001 A 
ATOM     72  C   UNL A   1      36.787  30.056  27.652  1.00  0.00     0.001 A 
ATOM     73  C   UNL A   1      35.914  29.944  28.733  1.00  0.00     0.000 A 
ENDBRANCH  54  68
BRANCH  55  74
ATOM     74  C   UNL A   1      48.210  26.530  29.562  1.00  0.00    -0.014 A 
ATOM     75  C   UNL A   1      48.754  25.965  30.725  1.00  0.00     0.009 A 
ATOM     76  C   UNL A   1      49.047  26.738  28.454  1.00  0.00     0.009 A 
ATOM     77  C   UNL A   1      50.113  25.646  30.789  1.00  0.00     0.001 A 
ATOM     78  C   UNL A   1      50.399  26.388  28.510  1.00  0.00     0.001 A 
ATOM     79  C   UNL A   1      50.932  25.852  29.681  1.00  0.00     0.000 A 
ENDBRANCH  55  74
BRANCH  67  80
ATOM     80  C   UNL A   1      44.750  32.383  31.100  1.00  0.00    -0.014 A 
ATOM     81  C   UNL A   1      45.093  33.460  30.270  1.00  0.00     0.009 A 
ATOM     82  C   UNL A   1      44.741  32.571  32.492  1.00  0.00     0.009 A 
ATOM     83  C   UNL A   1      45.442  34.693  30.825  1.00  0.00     0.001 A 
ATOM     84  C   UNL A   1      45.060  33.813  33.041  1.00  0.00     0.001 A 
ATOM     85  C   UNL A   1      45.417  34.871  32.208  1.00  0.00     0.000 A 
ENDBRANCH  67  80
ENDBRANCH  41  42
ENDBRANCH  33  36
ENDBRANCH  31  32
ENDBRANCH  30  31
ENDBRANCH   1  30
TORSDOF 14
ENDMDL
MODEL 2
REMARK VINA RESULT:     -12.0      1.419      6.045
REMARK SMILES O=C(C[C@H](NC(=O)[C@]12C[C@H]3C[C@H](C[C@H](C3)C1)C2)c1ccc(Cl)cc1Cl)NCCCNC(=O)c1ccc(-c2c3nc(c(-c4ccccc4)c4ccc([nH]4)c(-c4ccccc4)c4nc(c(-c5ccccc5)c5ccc2[nH]5)C=C4)C=C3)cc1
REMARK SMILES IDX 27 1 26 2 1 3 2 4 3 6 4 7 18 8 19 9 24 10 20 11 23 12 25 13
REMARK SMILES IDX 21 14 22 15 5 16 6 17 7 19 8 20 9 21 16 22 17 23 10 24 14 25
REMARK SMILES IDX 12 26 11 27 15 28 13 29 28 30 29 31 30 32 31 33 32 35 33 36
REMARK SMILES IDX 34 37 80 38 35 39 79 40 36 41 37 42 38 43 73 44 39 45 78 46
REMARK SMILES IDX 72 47 74 48 40 49 77 50 71 51 70 52 41 54 63 55 48 56 62 57
REMARK SMILES IDX 49 58 52 59 61 60 75 61 50 62 51 63 60 65 76 66 53 67 42 68
REMARK SMILES IDX 43 69 47 70 44 71 46 72 45 73 64 74 65 75 69 76 66 77 68 78
REMARK SMILES IDX 67 79 54 80 55 81 59 82 56 83 58 84 57 85
REMARK H PARENT 26 5 5 18 30 34 74 53 52 64
REMARK Flexibility Score: inf
ROOT
ATOM      1  C   UNL A   1      36.553  20.501  25.289  1.00  0.00     0.117 C 
ENDROOT
BRANCH   1   2
ATOM      2  N   UNL A   1      36.025  21.756  24.805  1.00  0.00    -0.356 N 
ATOM      3  O   UNL A   1      36.970  23.086  26.424  1.00  0.00    -0.275 OA
ATOM      4  C   UNL A   1      36.275  22.954  25.426  1.00  0.00     0.222 C 
ATOM      5  H   UNL A   1      35.462  21.752  23.997  1.00  0.00     0.163 HD
BRANCH   4   6
ATOM      6  C   UNL A   1      35.572  24.108  24.772  1.00  0.00     0.129 C 
BRANCH   6   7
ATOM      7  C   UNL A   1      34.304  23.714  24.005  1.00  0.00     0.123 C 
BRANCH   7   8
ATOM      8  C   UNL A   1      33.070  23.443  24.850  1.00  0.00    -0.006 A 
ATOM      9  C   UNL A   1      33.005  23.870  26.194  1.00  0.00     0.009 A 
ATOM     10  C   UNL A   1      31.940  22.784  24.321  1.00  0.00     0.047 A 
ATOM     11  C   UNL A   1      31.857  23.670  26.964  1.00  0.00     0.021 A 
ATOM     12  C   UNL A   1      30.797  22.573  25.097  1.00  0.00     0.041 A 
ATOM     13  Cl  UNL A   1      31.876  22.236  22.681  1.00  0.00    -0.084 Cl
ATOM     14  C   UNL A   1      30.759  23.022  26.413  1.00  0.00     0.042 A 
ATOM     15  Cl  UNL A   1      29.341  22.787  27.355  1.00  0.00    -0.084 Cl
ENDBRANCH   7   8
BRANCH   7  16
ATOM     16  N   UNL A   1      34.018  24.616  22.882  1.00  0.00    -0.348 N 
ATOM     17  C   UNL A   1      33.562  25.887  22.761  1.00  0.00     0.226 C 
ATOM     18  H   UNL A   1      34.202  24.199  22.009  1.00  0.00     0.164 HD
ATOM     19  O   UNL A   1      33.495  26.282  21.588  1.00  0.00    -0.274 OA
BRANCH  17  20
ATOM     20  C   UNL A   1      33.219  26.845  23.924  1.00  0.00     0.050 C 
ATOM     21  C   UNL A   1      34.088  26.728  25.188  1.00  0.00     0.020 C 
ATOM     22  C   UNL A   1      31.736  26.585  24.331  1.00  0.00     0.020 C 
ATOM     23  C   UNL A   1      33.301  28.312  23.428  1.00  0.00     0.020 C 
ATOM     24  C   UNL A   1      33.631  27.663  26.306  1.00  0.00    -0.010 C 
ATOM     25  C   UNL A   1      31.284  27.543  25.446  1.00  0.00    -0.010 C 
ATOM     26  C   UNL A   1      32.865  29.288  24.543  1.00  0.00    -0.010 C 
ATOM     27  C   UNL A   1      33.757  29.104  25.782  1.00  0.00     0.007 C 
ATOM     28  C   UNL A   1      32.181  27.343  26.673  1.00  0.00     0.007 C 
ATOM     29  C   UNL A   1      31.412  28.994  24.951  1.00  0.00     0.007 C 
ENDBRANCH  17  20
ENDBRANCH   7  16
ENDBRANCH   6   7
ENDBRANCH   4   6
ENDBRANCH   1   2
BRANCH   1  30
ATOM     30  C   UNL A   1      37.954  20.261  24.748  1.00  0.00     0.042 C 
BRANCH  30  31
ATOM     31  C   UNL A   1      39.060  20.547  25.759  1.00  0.00     0.118 C 
BRANCH  31  32
ATOM     32  N   UNL A   1      40.058  19.491  25.824  1.00  0.00    -0.352 N 
ATOM     33  C   UNL A   1      41.399  19.585  26.120  1.00  0.00     0.251 C 
ATOM     34  H   UNL A   1      39.730  18.583  25.631  1.00  0.00     0.163 HD
ATOM     35  O   UNL A   1      42.144  18.631  25.957  1.00  0.00    -0.269 OA
BRANCH  33  36
ATOM     36  C   UNL A   1      41.932  20.874  26.604  1.00  0.00     0.039 A 
ATOM     37  C   UNL A   1      42.430  21.793  25.679  1.00  0.00     0.014 A 
ATOM     38  C   UNL A   1      41.885  21.189  27.965  1.00  0.00     0.014 A 
ATOM     39  C   UNL A   1      42.799  23.069  26.111  1.00  0.00     0.010 A 
ATOM     40  C   UNL A   1      42.171  22.484  28.377  1.00  0.00     0.010 A 
ATOM     41  C   UNL A   1      42.623  23.440  27.453  1.00  0.00    -0.014 A 
BRANCH  41  42
ATOM     42  C   UNL A   1      42.890  24.822  27.922  1.00  0.00     0.031 A 
ATOM     43  C   UNL A   1      44.279  25.216  28.343  1.00  0.00     0.074 A 
ATOM     44  C   UNL A   1      41.870  25.693  28.059  1.00  0.00     0.049 A 
ATOM     45  N   UNL A   1      44.689  26.329  28.896  1.00  0.00    -0.248 NA
ATOM     46  C   UNL A   1      45.341  24.217  28.141  1.00  0.00     0.031 C 
ATOM     47  C   UNL A   1      40.472  25.426  27.712  1.00  0.00     0.029 A 
ATOM     48  N   UNL A   1      41.850  26.977  28.543  1.00  0.00    -0.354 N 
ATOM     49  C   UNL A   1      46.048  26.155  29.126  1.00  0.00     0.074 A 
ATOM     50  C   UNL A   1      46.382  24.814  28.700  1.00  0.00     0.031 C 
ATOM     51  C   UNL A   1      39.738  26.518  27.975  1.00  0.00     0.029 A 
ATOM     52  C   UNL A   1      40.598  27.542  28.559  1.00  0.00     0.049 A 
ATOM     53  H   UNL A   1      42.658  27.449  28.850  1.00  0.00     0.167 HD
ATOM     54  C   UNL A   1      46.941  27.038  29.633  1.00  0.00     0.031 A 
ATOM     55  C   UNL A   1      40.184  28.742  29.010  1.00  0.00     0.031 A 
ATOM     56  C   UNL A   1      46.607  28.372  30.051  1.00  0.00     0.049 A 
ATOM     57  C   UNL A   1      41.189  29.690  29.606  1.00  0.00     0.074 A 
ATOM     58  C   UNL A   1      47.451  29.360  30.531  1.00  0.00     0.029 A 
ATOM     59  N   UNL A   1      45.328  28.906  30.045  1.00  0.00    -0.354 N 
ATOM     60  N   UNL A   1      42.480  29.532  29.763  1.00  0.00    -0.248 NA
ATOM     61  C   UNL A   1      40.679  30.985  30.080  1.00  0.00     0.031 C 
ATOM     62  C   UNL A   1      46.673  30.469  30.874  1.00  0.00     0.029 A 
ATOM     63  C   UNL A   1      45.355  30.198  30.539  1.00  0.00     0.049 A 
ATOM     64  H   UNL A   1      44.520  28.435  29.735  1.00  0.00     0.167 HD
ATOM     65  C   UNL A   1      42.943  30.719  30.316  1.00  0.00     0.074 A 
ATOM     66  C   UNL A   1      41.795  31.589  30.462  1.00  0.00     0.031 C 
ATOM     67  C   UNL A   1      44.207  31.059  30.667  1.00  0.00     0.031 A 
BRANCH  54  68
ATOM     68  C   UNL A   1      48.366  26.579  29.775  1.00  0.00    -0.014 A 
ATOM     69  C   UNL A   1      48.804  25.901  30.924  1.00  0.00     0.009 A 
ATOM     70  C   UNL A   1      49.274  26.796  28.728  1.00  0.00     0.009 A 
ATOM     71  C   UNL A   1      50.132  25.484  31.036  1.00  0.00     0.001 A 
ATOM     72  C   UNL A   1      50.593  26.349  28.829  1.00  0.00     0.001 A 
ATOM     73  C   UNL A   1      51.023  25.703  29.987  1.00  0.00     0.000 A 
ENDBRANCH  54  68
BRANCH  55  74
ATOM     74  C   UNL A   1      38.748  29.120  28.916  1.00  0.00    -0.014 A 
ATOM     75  C   UNL A   1      37.897  28.964  30.020  1.00  0.00     0.009 A 
ATOM     76  C   UNL A   1      38.219  29.630  27.719  1.00  0.00     0.009 A 
ATOM     77  C   UNL A   1      36.540  29.280  29.919  1.00  0.00     0.001 A 
ATOM     78  C   UNL A   1      36.869  29.976  27.631  1.00  0.00     0.001 A 
ATOM     79  C   UNL A   1      36.029  29.791  28.727  1.00  0.00     0.000 A 
ENDBRANCH  55  74
BRANCH  67  80
ATOM     80  C   UNL A   1      44.436  32.450  31.189  1.00  0.00    -0.014 A 
ATOM     81  C   UNL A   1      44.409  32.733  32.562  1.00  0.00     0.009 A 
ATOM     82  C   UNL A   1      44.757  33.478  30.287  1.00  0.00     0.009 A 
ATOM     83  C   UNL A   1      44.675  34.026  33.020  1.00  0.00     0.001 A 
ATOM     84  C   UNL A   1      45.054  34.760  30.750  1.00  0.00     0.001 A 
ATOM     85  C   UNL A   1      45.006  35.035  32.115  1.00  0.00     0.000 A 
ENDBRANCH  67  80
ENDBRANCH  41  42
ENDBRANCH  33  36
ENDBRANCH  31  32
ENDBRANCH  30  31
ENDBRANCH   1  30
TORSDOF 14
ENDMDL
MODEL 3
REMARK VINA RESULT:     -11.8      3.921      9.050
REMARK SMILES O=C(C[C@H](NC(=O)[C@]12C[C@H]3C[C@H](C[C@H](C3)C1)C2)c1ccc(Cl)cc1Cl)NCCCNC(=O)c1ccc(-c2c3nc(c(-c4ccccc4)c4ccc([nH]4)c(-c4ccccc4)c4nc(c(-c5ccccc5)c5ccc2[nH]5)C=C4)C=C3)cc1
REMARK SMILES IDX 27 1 26 2 1 3 2 4 3 6 4 7 18 8 19 9 24 10 20 11 23 12 25 13
REMARK SMILES IDX 21 14 22 15 5 16 6 17 7 19 8 20 9 21 16 22 17 23 10 24 14 25
REMARK SMILES IDX 12 26 11 27 15 28 13 29 28 30 29 31 30 32 31 33 32 35 33 36
REMARK SMILES IDX 34 37 80 38 35 39 79 40 36 41 37 42 38 43 73 44 39 45 78 46
REMARK SMILES IDX 72 47 74 48 40 49 77 50 71 51 70 52 41 54 63 55 48 56 62 57
REMARK SMILES IDX 49 58 52 59 61 60 75 61 50 62 51 63 60 65 76 66 53 67 42 68
REMARK SMILES IDX 43 69 47 70 44 71 46 72 45 73 64 74 65 75 69 76 66 77 68 78
REMARK SMILES IDX 67 79 54 80 55 81 59 82 56 83 58 84 57 85
REMARK H PARENT 26 5 5 18 30 34 74 53 52 64
REMARK Flexibility Score: inf
ROOT
ATOM      1  C   UNL A   1      32.451  30.172  27.232  1.00  0.00     0.117 C 
ENDROOT
BRANCH   1   2
ATOM      2  N   UNL A   1      31.788  28.995  26.719  1.00  0.00    -0.356 N 
ATOM      3  O   UNL A   1      33.138  28.708  24.881  1.00  0.00    -0.275 OA
ATOM      4  C   UNL A   1      32.189  28.360  25.570  1.00  0.00     0.222 C 
ATOM      5  H   UNL A   1      31.018  28.632  27.214  1.00  0.00     0.163 HD
BRANCH   4   6
ATOM      6  C   UNL A   1      31.312  27.197  25.210  1.00  0.00     0.129 C 
BRANCH   6   7
ATOM      7  C   UNL A   1      31.027  27.069  23.708  1.00  0.00     0.123 C 
BRANCH   7   8
ATOM      8  C   UNL A   1      30.173  28.167  23.095  1.00  0.00    -0.006 A 
ATOM      9  C   UNL A   1      30.770  29.267  22.440  1.00  0.00     0.009 A 
ATOM     10  C   UNL A   1      28.764  28.118  23.133  1.00  0.00     0.047 A 
ATOM     11  C   UNL A   1      29.994  30.255  21.831  1.00  0.00     0.021 A 
ATOM     12  C   UNL A   1      27.990  29.116  22.534  1.00  0.00     0.041 A 
ATOM     13  Cl  UNL A   1      27.906  26.813  23.877  1.00  0.00    -0.084 Cl
ATOM     14  C   UNL A   1      28.608  30.176  21.881  1.00  0.00     0.042 A 
ATOM     15  Cl  UNL A   1      27.653  31.385  21.119  1.00  0.00    -0.084 Cl
ENDBRANCH   7   8
BRANCH   7  16
ATOM     16  N   UNL A   1      32.239  26.807  22.922  1.00  0.00    -0.348 N 
ATOM     17  C   UNL A   1      33.142  25.798  22.854  1.00  0.00     0.226 C 
ATOM     18  H   UNL A   1      32.445  27.537  22.294  1.00  0.00     0.164 HD
ATOM     19  O   UNL A   1      34.025  25.976  22.003  1.00  0.00    -0.274 OA
BRANCH  17  20
ATOM     20  C   UNL A   1      33.099  24.482  23.664  1.00  0.00     0.050 C 
ATOM     21  C   UNL A   1      31.727  23.796  23.783  1.00  0.00     0.020 C 
ATOM     22  C   UNL A   1      33.611  24.794  25.104  1.00  0.00     0.020 C 
ATOM     23  C   UNL A   1      34.086  23.460  23.044  1.00  0.00     0.020 C 
ATOM     24  C   UNL A   1      31.770  22.544  24.658  1.00  0.00    -0.010 C 
ATOM     25  C   UNL A   1      33.663  23.523  25.968  1.00  0.00    -0.010 C 
ATOM     26  C   UNL A   1      34.138  22.171  23.893  1.00  0.00    -0.010 C 
ATOM     27  C   UNL A   1      32.735  21.549  23.992  1.00  0.00     0.007 C 
ATOM     28  C   UNL A   1      32.256  22.920  26.058  1.00  0.00     0.007 C 
ATOM     29  C   UNL A   1      34.615  22.505  25.316  1.00  0.00     0.007 C 
ENDBRANCH  17  20
ENDBRANCH   7  16
ENDBRANCH   6   7
ENDBRANCH   4   6
ENDBRANCH   1   2
BRANCH   1  30
ATOM     30  C   UNL A   1      31.594  31.410  27.019  1.00  0.00     0.042 C 
BRANCH  30  31
ATOM     31  C   UNL A   1      32.366  32.603  26.466  1.00  0.00     0.118 C 
BRANCH  31  32
ATOM     32  N   UNL A   1      32.175  33.816  27.248  1.00  0.00    -0.352 N 
ATOM     33  C   UNL A   1      32.914  34.285  28.310  1.00  0.00     0.251 C 
ATOM     34  H   UNL A   1      31.414  34.379  26.980  1.00  0.00     0.163 HD
ATOM     35  O   UNL A   1      32.519  35.229  28.977  1.00  0.00    -0.269 OA
BRANCH  33  36
ATOM     36  C   UNL A   1      34.177  33.603  28.655  1.00  0.00     0.039 A 
ATOM     37  C   UNL A   1      35.364  34.032  28.060  1.00  0.00     0.014 A 
ATOM     38  C   UNL A   1      34.188  32.581  29.608  1.00  0.00     0.014 A 
ATOM     39  C   UNL A   1      36.579  33.495  28.489  1.00  0.00     0.010 A 
ATOM     40  C   UNL A   1      35.402  32.111  30.093  1.00  0.00     0.010 A 
ATOM     41  C   UNL A   1      36.611  32.568  29.543  1.00  0.00    -0.014 A 
BRANCH  41  42
ATOM     42  C   UNL A   1      37.890  32.068  30.105  1.00  0.00     0.031 A 
ATOM     43  C   UNL A   1      38.486  30.788  29.589  1.00  0.00     0.074 A 
ATOM     44  C   UNL A   1      38.465  32.712  31.141  1.00  0.00     0.049 A 
ATOM     45  N   UNL A   1      39.523  30.124  30.031  1.00  0.00    -0.248 NA
ATOM     46  C   UNL A   1      37.811  30.159  28.442  1.00  0.00     0.031 C 
ATOM     47  C   UNL A   1      37.972  33.949  31.753  1.00  0.00     0.029 A 
ATOM     48  N   UNL A   1      39.583  32.403  31.874  1.00  0.00    -0.354 N 
ATOM     49  C   UNL A   1      39.610  28.991  29.232  1.00  0.00     0.074 A 
ATOM     50  C   UNL A   1      38.495  29.032  28.312  1.00  0.00     0.031 C 
ATOM     51  C   UNL A   1      38.796  34.302  32.752  1.00  0.00     0.029 A 
ATOM     52  C   UNL A   1      39.841  33.294  32.889  1.00  0.00     0.049 A 
ATOM     53  H   UNL A   1      40.149  31.619  31.690  1.00  0.00     0.167 HD
ATOM     54  C   UNL A   1      40.544  28.010  29.251  1.00  0.00     0.031 A 
ATOM     55  C   UNL A   1      40.799  33.289  33.836  1.00  0.00     0.031 A 
ATOM     56  C   UNL A   1      41.655  27.973  30.164  1.00  0.00     0.049 A 
ATOM     57  C   UNL A   1      41.802  32.168  33.862  1.00  0.00     0.074 A 
ATOM     58  C   UNL A   1      42.683  27.048  30.230  1.00  0.00     0.029 A 
ATOM     59  N   UNL A   1      41.882  28.897  31.172  1.00  0.00    -0.354 N 
ATOM     60  N   UNL A   1      41.904  31.134  33.062  1.00  0.00    -0.248 NA
ATOM     61  C   UNL A   1      42.824  32.216  34.917  1.00  0.00     0.031 C 
ATOM     62  C   UNL A   1      43.497  27.378  31.317  1.00  0.00     0.029 A 
ATOM     63  C   UNL A   1      43.016  28.549  31.883  1.00  0.00     0.049 A 
ATOM     64  H   UNL A   1      41.318  29.684  31.354  1.00  0.00     0.167 HD
ATOM     65  C   UNL A   1      43.024  30.432  33.492  1.00  0.00     0.074 A 
ATOM     66  C   UNL A   1      43.568  31.161  34.619  1.00  0.00     0.031 C 
ATOM     67  C   UNL A   1      43.555  29.290  32.994  1.00  0.00     0.031 A 
BRANCH  54  68
ATOM     68  C   UNL A   1      40.394  26.888  28.261  1.00  0.00    -0.014 A 
ATOM     69  C   UNL A   1      39.650  25.737  28.569  1.00  0.00     0.009 A 
ATOM     70  C   UNL A   1      40.974  27.000  26.989  1.00  0.00     0.009 A 
ATOM     71  C   UNL A   1      39.523  24.707  27.636  1.00  0.00     0.001 A 
ATOM     72  C   UNL A   1      40.817  25.982  26.046  1.00  0.00     0.001 A 
ATOM     73  C   UNL A   1      40.101  24.832  26.374  1.00  0.00     0.000 A 
ENDBRANCH  54  68
BRANCH  55  74
ATOM     74  C   UNL A   1      40.861  34.384  34.841  1.00  0.00    -0.014 A 
ATOM     75  C   UNL A   1      41.651  35.519  34.610  1.00  0.00     0.009 A 
ATOM     76  C   UNL A   1      40.138  34.294  36.041  1.00  0.00     0.009 A 
ATOM     77  C   UNL A   1      41.742  36.528  35.573  1.00  0.00     0.001 A 
ATOM     78  C   UNL A   1      40.204  35.320  36.988  1.00  0.00     0.001 A 
ATOM     79  C   UNL A   1      41.014  36.430  36.757  1.00  0.00     0.000 A 
ENDBRANCH  55  74
BRANCH  67  80
ATOM     80  C   UNL A   1      44.823  28.779  33.620  1.00  0.00    -0.014 A 
ATOM     81  C   UNL A   1      44.802  27.853  34.673  1.00  0.00     0.009 A 
ATOM     82  C   UNL A   1      46.060  29.182  33.092  1.00  0.00     0.009 A 
ATOM     83  C   UNL A   1      45.997  27.359  35.200  1.00  0.00     0.001 A 
ATOM     84  C   UNL A   1      47.251  28.662  33.600  1.00  0.00     0.001 A 
ATOM     85  C   UNL A   1      47.219  27.756  34.658  1.00  0.00     0.000 A 
ENDBRANCH  67  80
ENDBRANCH  41  42
ENDBRANCH  33  36
ENDBRANCH  31  32
ENDBRANCH  30  31
ENDBRANCH   1  30
TORSDOF 14
ENDMDL
