MODEL 1
REMARK VINA RESULT:     -11.0      0.000      0.000
REMARK SMILES O=C(NCCCNC(=O)[C@@H]1CCC[N@@H+](Cc2ccc(F)cc2Cl)C1)c1ccc(-c2c3nc(c(-c4ccccc4)c4ccc([nH]4)c(-c4ccccc4)c4nc(c(-c5ccccc5)c5ccc2[nH]5)C=C4)C=C3)cc1
REMARK SMILES IDX 5 1 4 2 3 3 1 4 2 5 25 7 26 8 72 9 27 10 71 11 28 12 29 13
REMARK SMILES IDX 30 14 65 15 31 16 70 17 64 18 66 19 32 20 69 21 63 22 62 23
REMARK SMILES IDX 33 25 55 26 40 27 54 28 41 29 44 30 53 31 67 32 42 33 43 34
REMARK SMILES IDX 52 36 68 37 45 38 34 39 35 40 39 41 36 42 38 43 37 44 56 45
REMARK SMILES IDX 57 46 61 47 58 48 60 49 59 50 46 51 47 52 51 53 48 54 50 55
REMARK SMILES IDX 49 56 6 57 7 58 8 59 9 61 10 62 11 63 24 64 12 65 14 66
REMARK SMILES IDX 13 67 15 69 16 70 17 71 22 72 18 73 21 74 23 75 19 76 20 77
REMARK H PARENT 3 6 66 24 44 35 7 60 14 68
REMARK Flexibility Score: inf
ROOT
ATOM      1  C   UNL A   1      33.729  28.398  25.688  1.00  0.00     0.042 C 
ENDROOT
BRANCH   1   2
ATOM      2  C   UNL A   1      33.661  28.558  27.196  1.00  0.00     0.118 C 
BRANCH   2   3
ATOM      3  N   UNL A   1      33.653  29.962  27.601  1.00  0.00    -0.352 N 
ATOM      4  O   UNL A   1      34.244  31.790  28.765  1.00  0.00    -0.269 OA
ATOM      5  C   UNL A   1      34.568  30.700  28.305  1.00  0.00     0.251 C 
ATOM      6  H   UNL A   1      32.853  30.462  27.319  1.00  0.00     0.163 HD
BRANCH   5   7
ATOM      7  C   UNL A   1      35.940  30.194  28.511  1.00  0.00     0.039 A 
ATOM      8  C   UNL A   1      36.897  30.298  27.500  1.00  0.00     0.014 A 
ATOM      9  C   UNL A   1      36.290  29.659  29.754  1.00  0.00     0.014 A 
ATOM     10  C   UNL A   1      38.148  29.726  27.667  1.00  0.00     0.010 A 
ATOM     11  C   UNL A   1      37.588  29.189  29.962  1.00  0.00     0.010 A 
ATOM     12  C   UNL A   1      38.518  29.198  28.910  1.00  0.00    -0.014 A 
BRANCH  12  13
ATOM     13  C   UNL A   1      39.905  28.728  29.124  1.00  0.00     0.031 A 
ATOM     14  C   UNL A   1      40.950  29.650  29.675  1.00  0.00     0.074 A 
ATOM     15  C   UNL A   1      40.216  27.460  28.791  1.00  0.00     0.049 A 
ATOM     16  N   UNL A   1      42.232  29.440  29.833  1.00  0.00    -0.248 NA
ATOM     17  C   UNL A   1      40.502  30.989  30.090  1.00  0.00     0.031 C 
ATOM     18  C   UNL A   1      39.275  26.471  28.259  1.00  0.00     0.029 A 
ATOM     19  N   UNL A   1      41.409  26.789  28.845  1.00  0.00    -0.354 N 
ATOM     20  C   UNL A   1      42.750  30.628  30.332  1.00  0.00     0.074 A 
ATOM     21  C   UNL A   1      41.647  31.560  30.431  1.00  0.00     0.031 C 
ATOM     22  C   UNL A   1      39.919  25.314  28.058  1.00  0.00     0.029 A 
ATOM     23  C   UNL A   1      41.330  25.504  28.365  1.00  0.00     0.049 A 
ATOM     24  H   UNL A   1      42.240  27.187  29.192  1.00  0.00     0.167 HD
ATOM     25  C   UNL A   1      44.031  30.911  30.670  1.00  0.00     0.031 A 
ATOM     26  C   UNL A   1      42.293  24.590  28.150  1.00  0.00     0.031 A 
ATOM     27  C   UNL A   1      45.117  29.973  30.554  1.00  0.00     0.049 A 
ATOM     28  C   UNL A   1      43.712  24.945  28.479  1.00  0.00     0.074 A 
ATOM     29  C   UNL A   1      46.448  30.148  30.893  1.00  0.00     0.029 A 
ATOM     30  N   UNL A   1      44.998  28.686  30.046  1.00  0.00    -0.354 N 
ATOM     31  N   UNL A   1      44.187  26.064  28.968  1.00  0.00    -0.248 NA
ATOM     32  C   UNL A   1      44.726  23.913  28.227  1.00  0.00     0.031 C 
ATOM     33  C   UNL A   1      47.144  28.991  30.531  1.00  0.00     0.029 A 
ATOM     34  C   UNL A   1      46.237  28.067  30.035  1.00  0.00     0.049 A 
ATOM     35  H   UNL A   1      44.158  28.276  29.738  1.00  0.00     0.167 HD
ATOM     36  C   UNL A   1      45.552  25.864  29.113  1.00  0.00     0.074 A 
ATOM     37  C   UNL A   1      45.825  24.513  28.663  1.00  0.00     0.031 C 
ATOM     38  C   UNL A   1      46.489  26.720  29.585  1.00  0.00     0.031 A 
BRANCH  25  39
ATOM     39  C   UNL A   1      44.328  32.309  31.143  1.00  0.00    -0.014 A 
ATOM     40  C   UNL A   1      44.640  33.343  30.245  1.00  0.00     0.009 A 
ATOM     41  C   UNL A   1      44.290  32.598  32.517  1.00  0.00     0.009 A 
ATOM     42  C   UNL A   1      44.958  34.619  30.715  1.00  0.00     0.001 A 
ATOM     43  C   UNL A   1      44.576  33.882  32.983  1.00  0.00     0.001 A 
ATOM     44  C   UNL A   1      44.924  34.888  32.084  1.00  0.00     0.000 A 
ENDBRANCH  25  39
BRANCH  26  45
ATOM     45  C   UNL A   1      41.927  23.273  27.570  1.00  0.00    -0.014 A 
ATOM     46  C   UNL A   1      42.065  23.033  26.197  1.00  0.00     0.009 A 
ATOM     47  C   UNL A   1      41.496  22.227  28.404  1.00  0.00     0.009 A 
ATOM     48  C   UNL A   1      41.771  21.774  25.668  1.00  0.00     0.001 A 
ATOM     49  C   UNL A   1      41.232  20.963  27.877  1.00  0.00     0.001 A 
ATOM     50  C   UNL A   1      41.364  20.738  26.509  1.00  0.00     0.000 A 
ENDBRANCH  26  45
BRANCH  38  51
ATOM     51  C   UNL A   1      47.897  26.207  29.694  1.00  0.00    -0.014 A 
ATOM     52  C   UNL A   1      48.776  26.235  28.602  1.00  0.00     0.009 A 
ATOM     53  C   UNL A   1      48.367  25.752  30.937  1.00  0.00     0.009 A 
ATOM     54  C   UNL A   1      50.095  25.798  28.749  1.00  0.00     0.001 A 
ATOM     55  C   UNL A   1      49.692  25.345  31.089  1.00  0.00     0.001 A 
ATOM     56  C   UNL A   1      50.553  25.362  29.993  1.00  0.00     0.000 A 
ENDBRANCH  38  51
ENDBRANCH  12  13
ENDBRANCH   5   7
ENDBRANCH   2   3
ENDBRANCH   1   2
BRANCH   1  57
ATOM     57  C   UNL A   1      33.616  26.949  25.251  1.00  0.00     0.117 C 
BRANCH  57  58
ATOM     58  N   UNL A   1      33.949  26.732  23.867  1.00  0.00    -0.356 N 
ATOM     59  C   UNL A   1      33.245  26.107  22.890  1.00  0.00     0.228 C 
ATOM     60  H   UNL A   1      34.821  27.093  23.586  1.00  0.00     0.163 HD
ATOM     61  O   UNL A   1      33.744  26.129  21.759  1.00  0.00    -0.275 OA
BRANCH  59  62
ATOM     62  C   UNL A   1      31.946  25.329  23.125  1.00  0.00     0.133 C 
ATOM     63  C   UNL A   1      30.790  25.994  23.880  1.00  0.00     0.025 C 
ATOM     64  C   UNL A   1      32.226  23.902  23.576  1.00  0.00     0.276 C 
ATOM     65  C   UNL A   1      30.523  25.519  25.315  1.00  0.00     0.062 C 
ATOM     66  N   UNL A   1      32.340  23.782  25.029  1.00  0.00    -0.330 N 
ATOM     67  C   UNL A   1      31.088  24.148  25.700  1.00  0.00     0.262 C 
ATOM     68  H   UNL A   1      33.036  24.462  25.335  1.00  0.00     0.348 HD
BRANCH  66  69
ATOM     69  C   UNL A   1      32.874  22.464  25.451  1.00  0.00     0.300 C 
BRANCH  69  70
ATOM     70  C   UNL A   1      34.381  22.391  25.640  1.00  0.00     0.025 A 
ATOM     71  C   UNL A   1      35.068  23.524  26.118  1.00  0.00     0.014 A 
ATOM     72  C   UNL A   1      35.138  21.266  25.258  1.00  0.00     0.052 A 
ATOM     73  C   UNL A   1      36.461  23.575  26.105  1.00  0.00     0.040 A 
ATOM     74  C   UNL A   1      36.533  21.311  25.269  1.00  0.00     0.060 A 
ATOM     75  Cl  UNL A   1      34.406  19.790  24.734  1.00  0.00    -0.084 Cl
ATOM     76  C   UNL A   1      37.179  22.474  25.665  1.00  0.00     0.124 A 
ATOM     77  F   UNL A   1      38.515  22.533  25.620  1.00  0.00    -0.207 F 
ENDBRANCH  69  70
ENDBRANCH  66  69
ENDBRANCH  59  62
ENDBRANCH  57  58
ENDBRANCH   1  57
TORSDOF 12
ENDMDL
MODEL 2
REMARK VINA RESULT:     -11.0      1.678      2.376
REMARK SMILES O=C(NCCCNC(=O)[C@@H]1CCC[N@@H+](Cc2ccc(F)cc2Cl)C1)c1ccc(-c2c3nc(c(-c4ccccc4)c4ccc([nH]4)c(-c4ccccc4)c4nc(c(-c5ccccc5)c5ccc2[nH]5)C=C4)C=C3)cc1
REMARK SMILES IDX 5 1 4 2 3 3 1 4 2 5 25 7 26 8 72 9 27 10 71 11 28 12 29 13
REMARK SMILES IDX 30 14 65 15 31 16 70 17 64 18 66 19 32 20 69 21 63 22 62 23
REMARK SMILES IDX 33 25 55 26 40 27 54 28 41 29 44 30 53 31 67 32 42 33 43 34
REMARK SMILES IDX 52 36 68 37 45 38 34 39 35 40 39 41 36 42 38 43 37 44 56 45
REMARK SMILES IDX 57 46 61 47 58 48 60 49 59 50 46 51 47 52 51 53 48 54 50 55
REMARK SMILES IDX 49 56 6 57 7 58 8 59 9 61 10 62 11 63 24 64 12 65 14 66
REMARK SMILES IDX 13 67 15 69 16 70 17 71 22 72 18 73 21 74 23 75 19 76 20 77
REMARK H PARENT 3 6 66 24 44 35 7 60 14 68
REMARK Flexibility Score: inf
ROOT
ATOM      1  C   UNL A   1      34.012  28.204  25.469  1.00  0.00     0.042 C 
ENDROOT
BRANCH   1   2
ATOM      2  C   UNL A   1      33.887  28.381  26.972  1.00  0.00     0.118 C 
BRANCH   2   3
ATOM      3  N   UNL A   1      33.799  29.788  27.355  1.00  0.00    -0.352 N 
ATOM      4  O   UNL A   1      34.249  31.653  28.523  1.00  0.00    -0.269 OA
ATOM      5  C   UNL A   1      34.643  30.573  28.098  1.00  0.00     0.251 C 
ATOM      6  H   UNL A   1      32.996  30.251  27.022  1.00  0.00     0.163 HD
BRANCH   5   7
ATOM      7  C   UNL A   1      36.021  30.126  28.387  1.00  0.00     0.039 A 
ATOM      8  C   UNL A   1      36.341  29.559  29.621  1.00  0.00     0.014 A 
ATOM      9  C   UNL A   1      36.992  30.223  27.387  1.00  0.00     0.014 A 
ATOM     10  C   UNL A   1      37.657  29.241  29.918  1.00  0.00     0.010 A 
ATOM     11  C   UNL A   1      38.294  29.791  27.646  1.00  0.00     0.010 A 
ATOM     12  C   UNL A   1      38.640  29.320  28.923  1.00  0.00    -0.014 A 
BRANCH  12  13
ATOM     13  C   UNL A   1      40.009  28.835  29.205  1.00  0.00     0.031 A 
ATOM     14  C   UNL A   1      41.021  29.728  29.855  1.00  0.00     0.074 A 
ATOM     15  C   UNL A   1      40.336  27.579  28.843  1.00  0.00     0.049 A 
ATOM     16  N   UNL A   1      42.289  29.505  30.085  1.00  0.00    -0.248 NA
ATOM     17  C   UNL A   1      40.553  31.053  30.292  1.00  0.00     0.031 C 
ATOM     18  C   UNL A   1      39.426  26.616  28.216  1.00  0.00     0.029 A 
ATOM     19  N   UNL A   1      41.521  26.898  28.946  1.00  0.00    -0.354 N 
ATOM     20  C   UNL A   1      42.779  30.670  30.660  1.00  0.00     0.074 A 
ATOM     21  C   UNL A   1      41.676  31.604  30.726  1.00  0.00     0.031 C 
ATOM     22  C   UNL A   1      40.078  25.463  28.012  1.00  0.00     0.029 A 
ATOM     23  C   UNL A   1      41.468  25.633  28.414  1.00  0.00     0.049 A 
ATOM     24  H   UNL A   1      42.329  27.278  29.360  1.00  0.00     0.167 HD
ATOM     25  C   UNL A   1      44.038  30.932  31.089  1.00  0.00     0.031 A 
ATOM     26  C   UNL A   1      42.439  24.723  28.224  1.00  0.00     0.031 A 
ATOM     27  C   UNL A   1      45.126  29.993  31.004  1.00  0.00     0.049 A 
ATOM     28  C   UNL A   1      43.835  25.056  28.655  1.00  0.00     0.074 A 
ATOM     29  C   UNL A   1      46.433  30.146  31.433  1.00  0.00     0.029 A 
ATOM     30  N   UNL A   1      45.034  28.727  30.441  1.00  0.00    -0.354 N 
ATOM     31  N   UNL A   1      44.283  26.152  29.215  1.00  0.00    -0.248 NA
ATOM     32  C   UNL A   1      44.859  24.028  28.428  1.00  0.00     0.031 C 
ATOM     33  C   UNL A   1      47.147  29.000  31.071  1.00  0.00     0.029 A 
ATOM     34  C   UNL A   1      46.269  28.101  30.484  1.00  0.00     0.049 A 
ATOM     35  H   UNL A   1      44.214  28.334  30.066  1.00  0.00     0.167 HD
ATOM     36  C   UNL A   1      45.635  25.939  29.438  1.00  0.00     0.074 A 
ATOM     37  C   UNL A   1      45.931  24.605  28.954  1.00  0.00     0.031 C 
ATOM     38  C   UNL A   1      46.544  26.771  30.000  1.00  0.00     0.031 A 
BRANCH  25  39
ATOM     39  C   UNL A   1      44.310  32.310  31.632  1.00  0.00    -0.014 A 
ATOM     40  C   UNL A   1      44.733  33.361  30.803  1.00  0.00     0.009 A 
ATOM     41  C   UNL A   1      44.133  32.560  33.002  1.00  0.00     0.009 A 
ATOM     42  C   UNL A   1      45.024  34.617  31.343  1.00  0.00     0.001 A 
ATOM     43  C   UNL A   1      44.392  33.824  33.535  1.00  0.00     0.001 A 
ATOM     44  C   UNL A   1      44.852  34.847  32.708  1.00  0.00     0.000 A 
ENDBRANCH  25  39
BRANCH  26  45
ATOM     45  C   UNL A   1      42.105  23.431  27.573  1.00  0.00    -0.014 A 
ATOM     46  C   UNL A   1      42.364  23.228  26.211  1.00  0.00     0.009 A 
ATOM     47  C   UNL A   1      41.581  22.369  28.331  1.00  0.00     0.009 A 
ATOM     48  C   UNL A   1      42.099  21.991  25.619  1.00  0.00     0.001 A 
ATOM     49  C   UNL A   1      41.345  21.126  27.743  1.00  0.00     0.001 A 
ATOM     50  C   UNL A   1      41.599  20.939  26.386  1.00  0.00     0.000 A 
ENDBRANCH  26  45
BRANCH  38  51
ATOM     51  C   UNL A   1      47.940  26.245  30.177  1.00  0.00    -0.014 A 
ATOM     52  C   UNL A   1      48.900  26.350  29.160  1.00  0.00     0.009 A 
ATOM     53  C   UNL A   1      48.316  25.699  31.415  1.00  0.00     0.009 A 
ATOM     54  C   UNL A   1      50.204  25.898  29.374  1.00  0.00     0.001 A 
ATOM     55  C   UNL A   1      49.626  25.276  31.636  1.00  0.00     0.001 A 
ATOM     56  C   UNL A   1      50.568  25.370  30.613  1.00  0.00     0.000 A 
ENDBRANCH  38  51
ENDBRANCH  12  13
ENDBRANCH   5   7
ENDBRANCH   2   3
ENDBRANCH   1   2
BRANCH   1  57
ATOM     57  C   UNL A   1      32.880  27.378  24.886  1.00  0.00     0.117 C 
BRANCH  57  58
ATOM     58  N   UNL A   1      33.278  26.549  23.777  1.00  0.00    -0.356 N 
ATOM     59  C   UNL A   1      33.850  25.320  23.770  1.00  0.00     0.228 C 
ATOM     60  H   UNL A   1      33.108  26.935  22.886  1.00  0.00     0.163 HD
ATOM     61  O   UNL A   1      34.022  24.803  22.659  1.00  0.00    -0.275 OA
BRANCH  59  62
ATOM     62  C   UNL A   1      34.355  24.595  25.023  1.00  0.00     0.133 C 
ATOM     63  C   UNL A   1      35.797  24.082  25.074  1.00  0.00     0.025 C 
ATOM     64  C   UNL A   1      33.332  23.588  25.532  1.00  0.00     0.276 C 
ATOM     65  C   UNL A   1      36.008  22.566  24.953  1.00  0.00     0.062 C 
ATOM     66  N   UNL A   1      33.496  22.266  24.930  1.00  0.00    -0.330 N 
ATOM     67  C   UNL A   1      34.798  21.679  25.264  1.00  0.00     0.262 C 
ATOM     68  H   UNL A   1      33.492  22.391  23.918  1.00  0.00     0.348 HD
BRANCH  66  69
ATOM     69  C   UNL A   1      32.351  21.366  25.214  1.00  0.00     0.300 C 
BRANCH  69  70
ATOM     70  C   UNL A   1      32.474  19.949  24.677  1.00  0.00     0.025 A 
ATOM     71  C   UNL A   1      32.791  18.903  25.567  1.00  0.00     0.014 A 
ATOM     72  C   UNL A   1      32.388  19.650  23.303  1.00  0.00     0.052 A 
ATOM     73  C   UNL A   1      33.122  17.635  25.092  1.00  0.00     0.040 A 
ATOM     74  C   UNL A   1      32.696  18.372  22.833  1.00  0.00     0.060 A 
ATOM     75  Cl  UNL A   1      31.927  20.828  22.125  1.00  0.00    -0.084 Cl
ATOM     76  C   UNL A   1      33.087  17.387  23.729  1.00  0.00     0.124 A 
ATOM     77  F   UNL A   1      33.438  16.180  23.269  1.00  0.00    -0.207 F 
ENDBRANCH  69  70
ENDBRANCH  66  69
ENDBRANCH  59  62
ENDBRANCH  57  58
ENDBRANCH   1  57
TORSDOF 12
ENDMDL
MODEL 3
REMARK VINA RESULT:     -10.9      4.255      7.020
REMARK SMILES O=C(NCCCNC(=O)[C@@H]1CCC[N@@H+](Cc2ccc(F)cc2Cl)C1)c1ccc(-c2c3nc(c(-c4ccccc4)c4ccc([nH]4)c(-c4ccccc4)c4nc(c(-c5ccccc5)c5ccc2[nH]5)C=C4)C=C3)cc1
REMARK SMILES IDX 5 1 4 2 3 3 1 4 2 5 25 7 26 8 72 9 27 10 71 11 28 12 29 13
REMARK SMILES IDX 30 14 65 15 31 16 70 17 64 18 66 19 32 20 69 21 63 22 62 23
REMARK SMILES IDX 33 25 55 26 40 27 54 28 41 29 44 30 53 31 67 32 42 33 43 34
REMARK SMILES IDX 52 36 68 37 45 38 34 39 35 40 39 41 36 42 38 43 37 44 56 45
REMARK SMILES IDX 57 46 61 47 58 48 60 49 59 50 46 51 47 52 51 53 48 54 50 55
REMARK SMILES IDX 49 56 6 57 7 58 8 59 9 61 10 62 11 63 24 64 12 65 14 66
REMARK SMILES IDX 13 67 15 69 16 70 17 71 22 72 18 73 21 74 23 75 19 76 20 77
REMARK H PARENT 3 6 66 24 44 35 7 60 14 68
REMARK Flexibility Score: inf
ROOT
ATOM      1  C   UNL A   1      34.462  34.178  27.617  1.00  0.00     0.042 C 
ENDROOT
BRANCH   1   2
ATOM      2  C   UNL A   1      35.143  32.930  28.151  1.00  0.00     0.118 C 
BRANCH   2   3
ATOM      3  N   UNL A   1      34.308  31.741  28.001  1.00  0.00    -0.352 N 
ATOM      4  O   UNL A   1      33.801  29.610  27.503  1.00  0.00    -0.269 OA
ATOM      5  C   UNL A   1      34.642  30.416  27.887  1.00  0.00     0.251 C 
ATOM      6  H   UNL A   1      33.341  31.923  27.980  1.00  0.00     0.163 HD
BRANCH   5   7
ATOM      7  C   UNL A   1      36.004  29.956  28.223  1.00  0.00     0.039 A 
ATOM      8  C   UNL A   1      37.038  30.048  27.290  1.00  0.00     0.014 A 
ATOM      9  C   UNL A   1      36.263  29.478  29.511  1.00  0.00     0.014 A 
ATOM     10  C   UNL A   1      38.285  29.517  27.581  1.00  0.00     0.010 A 
ATOM     11  C   UNL A   1      37.551  29.052  29.842  1.00  0.00     0.010 A 
ATOM     12  C   UNL A   1      38.563  29.046  28.870  1.00  0.00    -0.014 A 
BRANCH  12  13
ATOM     13  C   UNL A   1      39.939  28.623  29.213  1.00  0.00     0.031 A 
ATOM     14  C   UNL A   1      40.870  29.552  29.932  1.00  0.00     0.074 A 
ATOM     15  C   UNL A   1      40.347  27.393  28.846  1.00  0.00     0.049 A 
ATOM     16  N   UNL A   1      42.135  29.386  30.224  1.00  0.00    -0.248 NA
ATOM     17  C   UNL A   1      40.314  30.842  30.369  1.00  0.00     0.031 C 
ATOM     18  C   UNL A   1      39.521  26.400  28.154  1.00  0.00     0.029 A 
ATOM     19  N   UNL A   1      41.558  26.770  28.998  1.00  0.00    -0.354 N 
ATOM     20  C   UNL A   1      42.535  30.562  30.846  1.00  0.00     0.074 A 
ATOM     21  C   UNL A   1      41.384  31.439  30.871  1.00  0.00     0.031 C 
ATOM     22  C   UNL A   1      40.239  25.285  27.962  1.00  0.00     0.029 A 
ATOM     23  C   UNL A   1      41.597  25.515  28.440  1.00  0.00     0.049 A 
ATOM     24  H   UNL A   1      42.325  27.180  29.460  1.00  0.00     0.167 HD
ATOM     25  C   UNL A   1      43.755  30.877  31.344  1.00  0.00     0.031 A 
ATOM     26  C   UNL A   1      42.621  24.658  28.284  1.00  0.00     0.031 A 
ATOM     27  C   UNL A   1      44.892  29.995  31.299  1.00  0.00     0.049 A 
ATOM     28  C   UNL A   1      43.975  25.051  28.793  1.00  0.00     0.074 A 
ATOM     29  C   UNL A   1      46.166  30.204  31.798  1.00  0.00     0.029 A 
ATOM     30  N   UNL A   1      44.894  28.738  30.708  1.00  0.00    -0.354 N 
ATOM     31  N   UNL A   1      44.337  26.156  29.396  1.00  0.00    -0.248 NA
ATOM     32  C   UNL A   1      45.060  24.080  28.601  1.00  0.00     0.031 C 
ATOM     33  C   UNL A   1      46.955  29.102  31.452  1.00  0.00     0.029 A 
ATOM     34  C   UNL A   1      46.155  28.173  30.804  1.00  0.00     0.049 A 
ATOM     35  H   UNL A   1      44.115  28.313  30.284  1.00  0.00     0.167 HD
ATOM     36  C   UNL A   1      45.686  26.006  29.685  1.00  0.00     0.074 A 
ATOM     37  C   UNL A   1      46.073  24.698  29.193  1.00  0.00     0.031 C 
ATOM     38  C   UNL A   1      46.522  26.869  30.309  1.00  0.00     0.031 A 
BRANCH  25  39
ATOM     39  C   UNL A   1      43.929  32.254  31.926  1.00  0.00    -0.014 A 
ATOM     40  C   UNL A   1      44.298  33.352  31.132  1.00  0.00     0.009 A 
ATOM     41  C   UNL A   1      43.714  32.457  33.299  1.00  0.00     0.009 A 
ATOM     42  C   UNL A   1      44.498  34.609  31.708  1.00  0.00     0.001 A 
ATOM     43  C   UNL A   1      43.882  33.721  33.868  1.00  0.00     0.001 A 
ATOM     44  C   UNL A   1      44.289  34.792  33.075  1.00  0.00     0.000 A 
ENDBRANCH  25  39
BRANCH  26  45
ATOM     45  C   UNL A   1      42.387  23.365  27.592  1.00  0.00    -0.014 A 
ATOM     46  C   UNL A   1      41.899  22.256  28.295  1.00  0.00     0.009 A 
ATOM     47  C   UNL A   1      42.591  23.257  26.205  1.00  0.00     0.009 A 
ATOM     48  C   UNL A   1      41.629  21.060  27.625  1.00  0.00     0.001 A 
ATOM     49  C   UNL A   1      42.290  22.071  25.535  1.00  0.00     0.001 A 
ATOM     50  C   UNL A   1      41.815  20.971  26.246  1.00  0.00     0.000 A 
ENDBRANCH  26  45
BRANCH  38  51
ATOM     51  C   UNL A   1      47.932  26.410  30.549  1.00  0.00    -0.014 A 
ATOM     52  C   UNL A   1      48.308  25.788  31.749  1.00  0.00     0.009 A 
ATOM     53  C   UNL A   1      48.880  26.543  29.522  1.00  0.00     0.009 A 
ATOM     54  C   UNL A   1      49.615  25.326  31.921  1.00  0.00     0.001 A 
ATOM     55  C   UNL A   1      50.176  26.054  29.686  1.00  0.00     0.001 A 
ATOM     56  C   UNL A   1      50.544  25.452  30.888  1.00  0.00     0.000 A 
ENDBRANCH  38  51
ENDBRANCH  12  13
ENDBRANCH   5   7
ENDBRANCH   2   3
ENDBRANCH   1   2
BRANCH   1  57
ATOM     57  C   UNL A   1      33.219  34.545  28.406  1.00  0.00     0.117 C 
BRANCH  57  58
ATOM     58  N   UNL A   1      33.168  35.931  28.798  1.00  0.00    -0.356 N 
ATOM     59  C   UNL A   1      33.156  36.485  30.035  1.00  0.00     0.228 C 
ATOM     60  H   UNL A   1      33.137  36.574  28.052  1.00  0.00     0.163 HD
ATOM     61  O   UNL A   1      33.183  37.721  30.080  1.00  0.00    -0.275 OA
BRANCH  59  62
ATOM     62  C   UNL A   1      33.034  35.688  31.338  1.00  0.00     0.133 C 
ATOM     63  C   UNL A   1      32.983  36.428  32.678  1.00  0.00     0.025 C 
ATOM     64  C   UNL A   1      33.967  34.484  31.343  1.00  0.00     0.276 C 
ATOM     65  C   UNL A   1      34.235  36.363  33.565  1.00  0.00     0.062 C 
ATOM     66  N   UNL A   1      35.290  34.799  31.880  1.00  0.00    -0.330 N 
ATOM     67  C   UNL A   1      35.216  35.221  33.282  1.00  0.00     0.262 C 
ATOM     68  H   UNL A   1      35.645  35.601  31.360  1.00  0.00     0.348 HD
BRANCH  66  69
ATOM     69  C   UNL A   1      36.274  33.715  31.638  1.00  0.00     0.300 C 
BRANCH  69  70
ATOM     70  C   UNL A   1      37.651  34.162  31.176  1.00  0.00     0.025 A 
ATOM     71  C   UNL A   1      37.914  34.257  29.795  1.00  0.00     0.014 A 
ATOM     72  C   UNL A   1      38.714  34.388  32.072  1.00  0.00     0.052 A 
ATOM     73  C   UNL A   1      39.211  34.454  29.324  1.00  0.00     0.040 A 
ATOM     74  C   UNL A   1      40.008  34.610  31.598  1.00  0.00     0.060 A 
ATOM     75  Cl  UNL A   1      38.498  34.381  33.787  1.00  0.00    -0.084 Cl
ATOM     76  C   UNL A   1      40.248  34.612  30.231  1.00  0.00     0.124 A 
ATOM     77  F   UNL A   1      41.499  34.766  29.781  1.00  0.00    -0.207 F 
ENDBRANCH  69  70
ENDBRANCH  66  69
ENDBRANCH  59  62
ENDBRANCH  57  58
ENDBRANCH   1  57
TORSDOF 12
ENDMDL
