MODEL 1
REMARK VINA RESULT:     -10.6      0.000      0.000
REMARK SMILES C[C@H](CS[C@H]1CCOC2(CCCCC2)C1)C(=O)NCCCNC(=O)c1ccc(-c2c3nc(c(-c4ccccc4)c4ccc([nH]4)c(-c4ccccc4)c4nc(c(-c5ccccc5)c5ccc2[nH]5)C=C4)C=C3)cc1
REMARK SMILES IDX 19 1 18 2 16 3 17 4 2 6 1 7 3 8 4 9 5 10 6 11 15 12 7 13
REMARK SMILES IDX 9 14 8 15 10 16 14 17 11 18 13 19 12 20 20 21 21 22 22 23
REMARK SMILES IDX 23 24 24 26 25 27 26 28 72 29 27 30 71 31 28 32 29 33 30 34
REMARK SMILES IDX 65 35 31 36 70 37 64 38 66 39 32 40 69 41 63 42 62 43 33 45
REMARK SMILES IDX 55 46 40 47 54 48 41 49 44 50 53 51 67 52 42 53 43 54 52 56
REMARK SMILES IDX 68 57 45 58 34 59 35 60 39 61 36 62 38 63 37 64 56 65 57 66
REMARK SMILES IDX 61 67 58 68 60 69 59 70 46 71 47 72 51 73 48 74 50 75 49 76
REMARK H PARENT 18 5 22 25 66 44 44 55
REMARK Flexibility Score: inf
ROOT
ATOM      1  C   UNL A   1      31.871  28.251  27.253  1.00  0.00     0.117 C 
ENDROOT
BRANCH   1   2
ATOM      2  N   UNL A   1      31.062  27.052  27.160  1.00  0.00    -0.356 N 
ATOM      3  C   UNL A   1      30.593  26.379  26.079  1.00  0.00     0.223 C 
ATOM      4  O   UNL A   1      29.810  25.450  26.296  1.00  0.00    -0.275 OA
ATOM      5  H   UNL A   1      30.811  26.659  28.027  1.00  0.00     0.163 HD
BRANCH   3   6
ATOM      6  C   UNL A   1      31.001  26.717  24.646  1.00  0.00     0.085 C 
ATOM      7  C   UNL A   1      29.863  27.400  23.880  1.00  0.00     0.019 C 
BRANCH   6   8
ATOM      8  C   UNL A   1      31.791  25.579  23.962  1.00  0.00     0.083 C 
BRANCH   8   9
ATOM      9  S   UNL A   1      33.560  25.934  23.699  1.00  0.00    -0.158 SA
BRANCH   9  10
ATOM     10  C   UNL A   1      34.414  24.928  24.968  1.00  0.00     0.052 C 
ATOM     11  C   UNL A   1      33.555  24.226  26.018  1.00  0.00     0.043 C 
ATOM     12  C   UNL A   1      35.155  23.854  24.164  1.00  0.00     0.050 C 
ATOM     13  C   UNL A   1      34.425  23.303  26.873  1.00  0.00     0.162 C 
ATOM     14  C   UNL A   1      36.007  22.952  25.067  1.00  0.00     0.069 C 
ATOM     15  O   UNL A   1      35.175  22.378  26.088  1.00  0.00    -0.375 OA
ATOM     16  C   UNL A   1      37.193  23.740  25.663  1.00  0.00     0.035 C 
ATOM     17  C   UNL A   1      36.538  21.780  24.209  1.00  0.00     0.035 C 
ATOM     18  C   UNL A   1      38.175  22.847  26.413  1.00  0.00     0.003 C 
ATOM     19  C   UNL A   1      37.549  20.904  24.948  1.00  0.00     0.003 C 
ATOM     20  C   UNL A   1      38.695  21.731  25.517  1.00  0.00     0.000 C 
ENDBRANCH   9  10
ENDBRANCH   8   9
ENDBRANCH   6   8
ENDBRANCH   3   6
ENDBRANCH   1   2
BRANCH   1  21
ATOM     21  C   UNL A   1      33.322  27.958  26.900  1.00  0.00     0.042 C 
BRANCH  21  22
ATOM     22  C   UNL A   1      33.980  29.061  26.086  1.00  0.00     0.118 C 
BRANCH  22  23
ATOM     23  N   UNL A   1      33.845  30.364  26.720  1.00  0.00    -0.352 N 
ATOM     24  C   UNL A   1      34.590  30.928  27.724  1.00  0.00     0.251 C 
ATOM     25  H   UNL A   1      33.112  30.923  26.378  1.00  0.00     0.163 HD
ATOM     26  O   UNL A   1      34.197  31.953  28.277  1.00  0.00    -0.269 OA
BRANCH  24  27
ATOM     27  C   UNL A   1      35.855  30.298  28.151  1.00  0.00     0.039 A 
ATOM     28  C   UNL A   1      36.954  30.322  27.288  1.00  0.00     0.014 A 
ATOM     29  C   UNL A   1      35.953  29.673  29.397  1.00  0.00     0.014 A 
ATOM     30  C   UNL A   1      38.170  29.774  27.700  1.00  0.00     0.010 A 
ATOM     31  C   UNL A   1      37.184  29.208  29.840  1.00  0.00     0.010 A 
ATOM     32  C   UNL A   1      38.303  29.244  28.992  1.00  0.00    -0.014 A 
BRANCH  32  33
ATOM     33  C   UNL A   1      39.590  28.700  29.490  1.00  0.00     0.031 A 
ATOM     34  C   UNL A   1      40.433  29.522  30.425  1.00  0.00     0.074 A 
ATOM     35  C   UNL A   1      40.041  27.517  29.030  1.00  0.00     0.049 A 
ATOM     36  N   UNL A   1      41.648  29.298  30.858  1.00  0.00    -0.248 NA
ATOM     37  C   UNL A   1      39.844  30.781  30.914  1.00  0.00     0.031 C 
ATOM     38  C   UNL A   1      39.328  26.636  28.103  1.00  0.00     0.029 A 
ATOM     39  N   UNL A   1      41.223  26.862  29.270  1.00  0.00    -0.354 N 
ATOM     40  C   UNL A   1      41.975  30.397  31.643  1.00  0.00     0.074 A 
ATOM     41  C   UNL A   1      40.854  31.309  31.587  1.00  0.00     0.031 C 
ATOM     42  C   UNL A   1      40.079  25.549  27.867  1.00  0.00     0.029 A 
ATOM     43  C   UNL A   1      41.345  25.679  28.579  1.00  0.00     0.049 A 
ATOM     44  H   UNL A   1      41.917  27.206  29.877  1.00  0.00     0.167 HD
ATOM     45  C   UNL A   1      43.103  30.621  32.358  1.00  0.00     0.031 A 
ATOM     46  C   UNL A   1      42.371  24.811  28.512  1.00  0.00     0.031 A 
ATOM     47  C   UNL A   1      44.212  29.707  32.417  1.00  0.00     0.049 A 
ATOM     48  C   UNL A   1      43.626  25.096  29.291  1.00  0.00     0.074 A 
ATOM     49  C   UNL A   1      45.381  29.818  33.149  1.00  0.00     0.029 A 
ATOM     50  N   UNL A   1      44.289  28.514  31.715  1.00  0.00    -0.354 N 
ATOM     51  N   UNL A   1      43.903  26.115  30.068  1.00  0.00    -0.248 NA
ATOM     52  C   UNL A   1      44.709  24.106  29.189  1.00  0.00     0.031 C 
ATOM     53  C   UNL A   1      46.191  28.720  32.845  1.00  0.00     0.029 A 
ATOM     54  C   UNL A   1      45.496  27.890  31.979  1.00  0.00     0.049 A 
ATOM     55  H   UNL A   1      43.590  28.164  31.117  1.00  0.00     0.167 HD
ATOM     56  C   UNL A   1      45.172  25.869  30.579  1.00  0.00     0.074 A 
ATOM     57  C   UNL A   1      45.607  24.603  30.029  1.00  0.00     0.031 C 
ATOM     58  C   UNL A   1      45.907  26.622  31.434  1.00  0.00     0.031 A 
BRANCH  45  59
ATOM     59  C   UNL A   1      43.198  31.914  33.120  1.00  0.00    -0.014 A 
ATOM     60  C   UNL A   1      42.753  32.014  34.449  1.00  0.00     0.009 A 
ATOM     61  C   UNL A   1      43.769  33.042  32.512  1.00  0.00     0.009 A 
ATOM     62  C   UNL A   1      42.840  33.225  35.137  1.00  0.00     0.001 A 
ATOM     63  C   UNL A   1      43.889  34.243  33.214  1.00  0.00     0.001 A 
ATOM     64  C   UNL A   1      43.414  34.337  34.521  1.00  0.00     0.000 A 
ENDBRANCH  45  59
BRANCH  46  65
ATOM     65  C   UNL A   1      42.256  23.582  27.682  1.00  0.00    -0.014 A 
ATOM     66  C   UNL A   1      41.765  22.391  28.238  1.00  0.00     0.009 A 
ATOM     67  C   UNL A   1      42.642  23.589  26.332  1.00  0.00     0.009 A 
ATOM     68  C   UNL A   1      41.695  21.226  27.470  1.00  0.00     0.001 A 
ATOM     69  C   UNL A   1      42.538  22.433  25.558  1.00  0.00     0.001 A 
ATOM     70  C   UNL A   1      42.076  21.249  26.130  1.00  0.00     0.000 A 
ENDBRANCH  46  65
BRANCH  58  71
ATOM     71  C   UNL A   1      47.232  26.071  31.882  1.00  0.00    -0.014 A 
ATOM     72  C   UNL A   1      48.408  26.290  31.150  1.00  0.00     0.009 A 
ATOM     73  C   UNL A   1      47.308  25.371  33.098  1.00  0.00     0.009 A 
ATOM     74  C   UNL A   1      49.630  25.796  31.613  1.00  0.00     0.001 A 
ATOM     75  C   UNL A   1      48.534  24.907  33.574  1.00  0.00     0.001 A 
ATOM     76  C   UNL A   1      49.692  25.112  32.828  1.00  0.00     0.000 A 
ENDBRANCH  58  71
ENDBRANCH  32  33
ENDBRANCH  24  27
ENDBRANCH  22  23
ENDBRANCH  21  22
ENDBRANCH   1  21
TORSDOF 13
ENDMDL
MODEL 2
REMARK VINA RESULT:     -10.5      1.554      1.877
REMARK SMILES C[C@H](CS[C@H]1CCOC2(CCCCC2)C1)C(=O)NCCCNC(=O)c1ccc(-c2c3nc(c(-c4ccccc4)c4ccc([nH]4)c(-c4ccccc4)c4nc(c(-c5ccccc5)c5ccc2[nH]5)C=C4)C=C3)cc1
REMARK SMILES IDX 19 1 18 2 16 3 17 4 2 6 1 7 3 8 4 9 5 10 6 11 15 12 7 13
REMARK SMILES IDX 9 14 8 15 10 16 14 17 11 18 13 19 12 20 20 21 21 22 22 23
REMARK SMILES IDX 23 24 24 26 25 27 26 28 72 29 27 30 71 31 28 32 29 33 30 34
REMARK SMILES IDX 65 35 31 36 70 37 64 38 66 39 32 40 69 41 63 42 62 43 33 45
REMARK SMILES IDX 55 46 40 47 54 48 41 49 44 50 53 51 67 52 42 53 43 54 52 56
REMARK SMILES IDX 68 57 45 58 34 59 35 60 39 61 36 62 38 63 37 64 56 65 57 66
REMARK SMILES IDX 61 67 58 68 60 69 59 70 46 71 47 72 51 73 48 74 50 75 49 76
REMARK H PARENT 18 5 22 25 66 44 44 55
REMARK Flexibility Score: inf
ROOT
ATOM      1  C   UNL A   1      33.157  27.162  25.263  1.00  0.00     0.117 C 
ENDROOT
BRANCH   1   2
ATOM      2  N   UNL A   1      33.763  26.791  24.001  1.00  0.00    -0.356 N 
ATOM      3  C   UNL A   1      33.220  26.253  22.879  1.00  0.00     0.223 C 
ATOM      4  O   UNL A   1      34.004  25.914  21.987  1.00  0.00    -0.275 OA
ATOM      5  H   UNL A   1      34.732  26.957  23.948  1.00  0.00     0.163 HD
BRANCH   3   6
ATOM      6  C   UNL A   1      31.716  26.071  22.687  1.00  0.00     0.085 C 
ATOM      7  C   UNL A   1      30.998  27.415  22.531  1.00  0.00     0.019 C 
BRANCH   6   8
ATOM      8  C   UNL A   1      31.115  25.002  23.627  1.00  0.00     0.083 C 
BRANCH   8   9
ATOM      9  S   UNL A   1      31.860  23.346  23.468  1.00  0.00    -0.158 SA
BRANCH   9  10
ATOM     10  C   UNL A   1      33.082  23.269  24.828  1.00  0.00     0.052 C 
ATOM     11  C   UNL A   1      32.672  22.557  26.116  1.00  0.00     0.043 C 
ATOM     12  C   UNL A   1      34.272  22.514  24.225  1.00  0.00     0.050 C 
ATOM     13  C   UNL A   1      33.873  22.444  27.056  1.00  0.00     0.162 C 
ATOM     14  C   UNL A   1      35.447  22.423  25.209  1.00  0.00     0.069 C 
ATOM     15  O   UNL A   1      34.996  21.822  26.434  1.00  0.00    -0.375 OA
ATOM     16  C   UNL A   1      36.073  23.814  25.443  1.00  0.00     0.035 C 
ATOM     17  C   UNL A   1      36.504  21.470  24.604  1.00  0.00     0.035 C 
ATOM     18  C   UNL A   1      37.358  23.751  26.261  1.00  0.00     0.003 C 
ATOM     19  C   UNL A   1      37.806  21.432  25.404  1.00  0.00     0.003 C 
ATOM     20  C   UNL A   1      38.379  22.830  25.607  1.00  0.00     0.000 C 
ENDBRANCH   9  10
ENDBRANCH   8   9
ENDBRANCH   6   8
ENDBRANCH   3   6
ENDBRANCH   1   2
BRANCH   1  21
ATOM     21  C   UNL A   1      33.702  28.494  25.760  1.00  0.00     0.042 C 
BRANCH  21  22
ATOM     22  C   UNL A   1      33.576  28.676  27.264  1.00  0.00     0.118 C 
BRANCH  22  23
ATOM     23  N   UNL A   1      33.605  30.080  27.649  1.00  0.00    -0.352 N 
ATOM     24  C   UNL A   1      34.587  30.789  28.292  1.00  0.00     0.251 C 
ATOM     25  H   UNL A   1      32.802  30.596  27.413  1.00  0.00     0.163 HD
ATOM     26  O   UNL A   1      34.348  31.916  28.721  1.00  0.00    -0.269 OA
BRANCH  24  27
ATOM     27  C   UNL A   1      35.925  30.196  28.481  1.00  0.00     0.039 A 
ATOM     28  C   UNL A   1      36.845  30.239  27.430  1.00  0.00     0.014 A 
ATOM     29  C   UNL A   1      36.268  29.587  29.691  1.00  0.00     0.014 A 
ATOM     30  C   UNL A   1      38.131  29.726  27.614  1.00  0.00     0.010 A 
ATOM     31  C   UNL A   1      37.572  29.157  29.901  1.00  0.00     0.010 A 
ATOM     32  C   UNL A   1      38.514  29.213  28.862  1.00  0.00    -0.014 A 
BRANCH  32  33
ATOM     33  C   UNL A   1      39.885  28.707  29.116  1.00  0.00     0.031 A 
ATOM     34  C   UNL A   1      40.924  29.631  29.689  1.00  0.00     0.074 A 
ATOM     35  C   UNL A   1      40.218  27.456  28.747  1.00  0.00     0.049 A 
ATOM     36  N   UNL A   1      42.208  29.434  29.849  1.00  0.00    -0.248 NA
ATOM     37  C   UNL A   1      40.464  30.967  30.107  1.00  0.00     0.031 C 
ATOM     38  C   UNL A   1      39.306  26.470  28.161  1.00  0.00     0.029 A 
ATOM     39  N   UNL A   1      41.425  26.805  28.796  1.00  0.00    -0.354 N 
ATOM     40  C   UNL A   1      42.710  30.625  30.358  1.00  0.00     0.074 A 
ATOM     41  C   UNL A   1      41.605  31.555  30.433  1.00  0.00     0.031 C 
ATOM     42  C   UNL A   1      39.983  25.336  27.920  1.00  0.00     0.029 A 
ATOM     43  C   UNL A   1      41.382  25.529  28.284  1.00  0.00     0.049 A 
ATOM     44  H   UNL A   1      42.243  27.212  29.161  1.00  0.00     0.167 HD
ATOM     45  C   UNL A   1      43.975  30.916  30.742  1.00  0.00     0.031 A 
ATOM     46  C   UNL A   1      42.366  24.627  28.107  1.00  0.00     0.031 A 
ATOM     47  C   UNL A   1      45.070  29.985  30.674  1.00  0.00     0.049 A 
ATOM     48  C   UNL A   1      43.770  24.984  28.513  1.00  0.00     0.074 A 
ATOM     49  C   UNL A   1      46.380  30.165  31.082  1.00  0.00     0.029 A 
ATOM     50  N   UNL A   1      44.981  28.700  30.163  1.00  0.00    -0.354 N 
ATOM     51  N   UNL A   1      44.221  26.098  29.038  1.00  0.00    -0.248 NA
ATOM     52  C   UNL A   1      44.800  23.955  28.309  1.00  0.00     0.031 C 
ATOM     53  C   UNL A   1      47.098  29.009  30.764  1.00  0.00     0.029 A 
ATOM     54  C   UNL A   1      46.218  28.082  30.224  1.00  0.00     0.049 A 
ATOM     55  H   UNL A   1      44.160  28.288  29.809  1.00  0.00     0.167 HD
ATOM     56  C   UNL A   1      45.576  25.889  29.265  1.00  0.00     0.074 A 
ATOM     57  C   UNL A   1      45.871  24.541  28.826  1.00  0.00     0.031 C 
ATOM     58  C   UNL A   1      46.491  26.735  29.796  1.00  0.00     0.031 A 
BRANCH  45  59
ATOM     59  C   UNL A   1      44.245  32.304  31.255  1.00  0.00    -0.014 A 
ATOM     60  C   UNL A   1      44.609  33.347  30.387  1.00  0.00     0.009 A 
ATOM     61  C   UNL A   1      44.102  32.582  32.623  1.00  0.00     0.009 A 
ATOM     62  C   UNL A   1      44.865  34.627  30.884  1.00  0.00     0.001 A 
ATOM     63  C   UNL A   1      44.323  33.870  33.113  1.00  0.00     0.001 A 
ATOM     64  C   UNL A   1      44.715  34.888  32.245  1.00  0.00     0.000 A 
ENDBRANCH  45  59
BRANCH  46  65
ATOM     65  C   UNL A   1      42.060  23.294  27.524  1.00  0.00    -0.014 A 
ATOM     66  C   UNL A   1      41.496  22.283  28.317  1.00  0.00     0.009 A 
ATOM     67  C   UNL A   1      42.335  23.020  26.175  1.00  0.00     0.009 A 
ATOM     68  C   UNL A   1      41.246  21.017  27.781  1.00  0.00     0.001 A 
ATOM     69  C   UNL A   1      42.052  21.765  25.633  1.00  0.00     0.001 A 
ATOM     70  C   UNL A   1      41.519  20.761  26.439  1.00  0.00     0.000 A 
ENDBRANCH  46  65
BRANCH  58  71
ATOM     71  C   UNL A   1      47.888  26.213  29.995  1.00  0.00    -0.014 A 
ATOM     72  C   UNL A   1      48.833  26.224  28.960  1.00  0.00     0.009 A 
ATOM     73  C   UNL A   1      48.276  25.762  31.268  1.00  0.00     0.009 A 
ATOM     74  C   UNL A   1      50.134  25.766  29.187  1.00  0.00     0.001 A 
ATOM     75  C   UNL A   1      49.584  25.336  31.501  1.00  0.00     0.001 A 
ATOM     76  C   UNL A   1      50.509  25.330  30.459  1.00  0.00     0.000 A 
ENDBRANCH  58  71
ENDBRANCH  32  33
ENDBRANCH  24  27
ENDBRANCH  22  23
ENDBRANCH  21  22
ENDBRANCH   1  21
TORSDOF 13
ENDMDL
MODEL 3
REMARK VINA RESULT:     -10.5      1.121      1.411
REMARK SMILES C[C@H](CS[C@H]1CCOC2(CCCCC2)C1)C(=O)NCCCNC(=O)c1ccc(-c2c3nc(c(-c4ccccc4)c4ccc([nH]4)c(-c4ccccc4)c4nc(c(-c5ccccc5)c5ccc2[nH]5)C=C4)C=C3)cc1
REMARK SMILES IDX 19 1 18 2 16 3 17 4 2 6 1 7 3 8 4 9 5 10 6 11 15 12 7 13
REMARK SMILES IDX 9 14 8 15 10 16 14 17 11 18 13 19 12 20 20 21 21 22 22 23
REMARK SMILES IDX 23 24 24 26 25 27 26 28 72 29 27 30 71 31 28 32 29 33 30 34
REMARK SMILES IDX 65 35 31 36 70 37 64 38 66 39 32 40 69 41 63 42 62 43 33 45
REMARK SMILES IDX 55 46 40 47 54 48 41 49 44 50 53 51 67 52 42 53 43 54 52 56
REMARK SMILES IDX 68 57 45 58 34 59 35 60 39 61 36 62 38 63 37 64 56 65 57 66
REMARK SMILES IDX 61 67 58 68 60 69 59 70 46 71 47 72 51 73 48 74 50 75 49 76
REMARK H PARENT 18 5 22 25 66 44 44 55
REMARK Flexibility Score: inf
ROOT
ATOM      1  C   UNL A   1      32.378  26.947  26.346  1.00  0.00     0.117 C 
ENDROOT
BRANCH   1   2
ATOM      2  N   UNL A   1      31.195  26.198  26.719  1.00  0.00    -0.356 N 
ATOM      3  C   UNL A   1      30.182  25.702  25.963  1.00  0.00     0.223 C 
ATOM      4  O   UNL A   1      29.224  25.211  26.567  1.00  0.00    -0.275 OA
ATOM      5  H   UNL A   1      31.112  26.018  27.683  1.00  0.00     0.163 HD
BRANCH   3   6
ATOM      6  C   UNL A   1      30.196  25.723  24.436  1.00  0.00     0.085 C 
ATOM      7  C   UNL A   1      29.010  26.509  23.870  1.00  0.00     0.019 C 
BRANCH   6   8
ATOM      8  C   UNL A   1      30.552  24.351  23.820  1.00  0.00     0.083 C 
BRANCH   8   9
ATOM      9  S   UNL A   1      32.228  24.249  23.109  1.00  0.00    -0.158 SA
BRANCH   9  10
ATOM     10  C   UNL A   1      33.294  23.812  24.531  1.00  0.00     0.052 C 
ATOM     11  C   UNL A   1      32.705  22.910  25.613  1.00  0.00     0.043 C 
ATOM     12  C   UNL A   1      34.485  23.081  23.899  1.00  0.00     0.050 C 
ATOM     13  C   UNL A   1      33.791  22.518  26.616  1.00  0.00     0.162 C 
ATOM     14  C   UNL A   1      35.542  22.704  24.946  1.00  0.00     0.069 C 
ATOM     15  O   UNL A   1      34.926  21.927  25.986  1.00  0.00    -0.375 OA
ATOM     16  C   UNL A   1      36.236  23.966  25.501  1.00  0.00     0.035 C 
ATOM     17  C   UNL A   1      36.588  21.792  24.263  1.00  0.00     0.035 C 
ATOM     18  C   UNL A   1      37.422  23.638  26.402  1.00  0.00     0.003 C 
ATOM     19  C   UNL A   1      37.794  21.491  25.152  1.00  0.00     0.003 C 
ATOM     20  C   UNL A   1      38.438  22.769  25.674  1.00  0.00     0.000 C 
ENDBRANCH   9  10
ENDBRANCH   8   9
ENDBRANCH   6   8
ENDBRANCH   3   6
ENDBRANCH   1   2
BRANCH   1  21
ATOM     21  C   UNL A   1      32.392  28.314  27.018  1.00  0.00     0.042 C 
BRANCH  21  22
ATOM     22  C   UNL A   1      33.764  28.968  27.028  1.00  0.00     0.118 C 
BRANCH  22  23
ATOM     23  N   UNL A   1      33.734  30.290  27.636  1.00  0.00    -0.352 N 
ATOM     24  C   UNL A   1      34.650  30.893  28.460  1.00  0.00     0.251 C 
ATOM     25  H   UNL A   1      32.940  30.831  27.425  1.00  0.00     0.163 HD
ATOM     26  O   UNL A   1      34.356  31.933  29.046  1.00  0.00    -0.269 OA
BRANCH  24  27
ATOM     27  C   UNL A   1      35.982  30.289  28.653  1.00  0.00     0.039 A 
ATOM     28  C   UNL A   1      36.909  30.334  27.608  1.00  0.00     0.014 A 
ATOM     29  C   UNL A   1      36.313  29.668  29.861  1.00  0.00     0.014 A 
ATOM     30  C   UNL A   1      38.190  29.810  27.797  1.00  0.00     0.010 A 
ATOM     31  C   UNL A   1      37.612  29.227  30.076  1.00  0.00     0.010 A 
ATOM     32  C   UNL A   1      38.561  29.285  29.044  1.00  0.00    -0.014 A 
BRANCH  32  33
ATOM     33  C   UNL A   1      39.927  28.766  29.303  1.00  0.00     0.031 A 
ATOM     34  C   UNL A   1      40.959  29.668  29.922  1.00  0.00     0.074 A 
ATOM     35  C   UNL A   1      40.262  27.527  28.899  1.00  0.00     0.049 A 
ATOM     36  N   UNL A   1      42.239  29.462  30.097  1.00  0.00    -0.248 NA
ATOM     37  C   UNL A   1      40.495  30.990  30.377  1.00  0.00     0.031 C 
ATOM     38  C   UNL A   1      39.358  26.564  28.266  1.00  0.00     0.029 A 
ATOM     39  N   UNL A   1      41.467  26.871  28.945  1.00  0.00    -0.354 N 
ATOM     40  C   UNL A   1      42.736  30.635  30.653  1.00  0.00     0.074 A 
ATOM     41  C   UNL A   1      41.632  31.565  30.740  1.00  0.00     0.031 C 
ATOM     42  C   UNL A   1      40.036  25.436  27.999  1.00  0.00     0.029 A 
ATOM     43  C   UNL A   1      41.430  25.613  28.391  1.00  0.00     0.049 A 
ATOM     44  H   UNL A   1      42.280  27.264  29.337  1.00  0.00     0.167 HD
ATOM     45  C   UNL A   1      43.995  30.909  31.067  1.00  0.00     0.031 A 
ATOM     46  C   UNL A   1      42.414  24.715  28.201  1.00  0.00     0.031 A 
ATOM     47  C   UNL A   1      45.089  29.978  30.986  1.00  0.00     0.049 A 
ATOM     48  C   UNL A   1      43.812  25.054  28.641  1.00  0.00     0.074 A 
ATOM     49  C   UNL A   1      46.392  30.140  31.420  1.00  0.00     0.029 A 
ATOM     50  N   UNL A   1      45.005  28.710  30.431  1.00  0.00    -0.354 N 
ATOM     51  N   UNL A   1      44.257  26.148  29.210  1.00  0.00    -0.248 NA
ATOM     52  C   UNL A   1      44.843  24.029  28.419  1.00  0.00     0.031 C 
ATOM     53  C   UNL A   1      47.112  28.993  31.076  1.00  0.00     0.029 A 
ATOM     54  C   UNL A   1      46.240  28.087  30.492  1.00  0.00     0.049 A 
ATOM     55  H   UNL A   1      44.189  28.312  30.051  1.00  0.00     0.167 HD
ATOM     56  C   UNL A   1      45.608  25.928  29.451  1.00  0.00     0.074 A 
ATOM     57  C   UNL A   1      45.907  24.595  28.972  1.00  0.00     0.031 C 
ATOM     58  C   UNL A   1      46.517  26.754  30.025  1.00  0.00     0.031 A 
BRANCH  45  59
ATOM     59  C   UNL A   1      44.260  32.279  31.629  1.00  0.00    -0.014 A 
ATOM     60  C   UNL A   1      44.241  32.517  33.014  1.00  0.00     0.009 A 
ATOM     61  C   UNL A   1      44.565  33.341  30.765  1.00  0.00     0.009 A 
ATOM     62  C   UNL A   1      44.480  33.797  33.516  1.00  0.00     0.001 A 
ATOM     63  C   UNL A   1      44.838  34.613  31.271  1.00  0.00     0.001 A 
ATOM     64  C   UNL A   1      44.784  34.842  32.645  1.00  0.00     0.000 A 
ENDBRANCH  45  59
BRANCH  46  65
ATOM     65  C   UNL A   1      42.114  23.402  27.569  1.00  0.00    -0.014 A 
ATOM     66  C   UNL A   1      41.508  22.377  28.312  1.00  0.00     0.009 A 
ATOM     67  C   UNL A   1      42.438  23.162  26.225  1.00  0.00     0.009 A 
ATOM     68  C   UNL A   1      41.263  21.130  27.732  1.00  0.00     0.001 A 
ATOM     69  C   UNL A   1      42.160  21.926  25.637  1.00  0.00     0.001 A 
ATOM     70  C   UNL A   1      41.585  20.907  26.394  1.00  0.00     0.000 A 
ENDBRANCH  46  65
BRANCH  58  71
ATOM     71  C   UNL A   1      47.909  26.222  30.228  1.00  0.00    -0.014 A 
ATOM     72  C   UNL A   1      48.355  25.784  31.483  1.00  0.00     0.009 A 
ATOM     73  C   UNL A   1      48.764  26.100  29.120  1.00  0.00     0.009 A 
ATOM     74  C   UNL A   1      49.642  25.261  31.631  1.00  0.00     0.001 A 
ATOM     75  C   UNL A   1      50.037  25.548  29.265  1.00  0.00     0.001 A 
ATOM     76  C   UNL A   1      50.478  25.136  30.521  1.00  0.00     0.000 A 
ENDBRANCH  58  71
ENDBRANCH  32  33
ENDBRANCH  24  27
ENDBRANCH  22  23
ENDBRANCH  21  22
ENDBRANCH   1  21
TORSDOF 13
ENDMDL
