MODEL 1
REMARK VINA RESULT:      -9.8      0.000      0.000
REMARK SMILES CC[C@H](C)[NH2+]CCc1ccc(C(=O)NCCCNC(=O)c2ccc(-c3c4nc(c(-c5ccccc5)c5ccc([nH]5)c(-c5ccccc5)c5nc(c(-c6ccccc6)c6ccc3[nH]6)C=C5)C=C4)cc2)cc1
REMARK SMILES IDX 12 1 13 2 14 3 11 5 8 6 9 7 70 8 10 9 69 10 7 11 6 12 5 13
REMARK SMILES IDX 3 16 4 17 2 18 1 19 15 20 16 21 17 22 18 23 19 24 20 26
REMARK SMILES IDX 21 27 22 28 68 29 23 30 67 31 24 32 25 33 26 34 61 35 27 36
REMARK SMILES IDX 66 37 60 38 62 39 28 40 65 41 59 42 58 43 29 45 51 46 36 47
REMARK SMILES IDX 50 48 37 49 40 50 49 51 63 52 38 53 39 54 48 56 64 57 41 58
REMARK SMILES IDX 30 59 31 60 35 61 32 62 34 63 33 64 52 65 53 66 57 67 54 68
REMARK SMILES IDX 56 69 55 70 42 71 43 72 47 73 44 74 46 75 45 76
REMARK H PARENT 14 4 5 14 5 15 18 25 62 44 40 55
REMARK Flexibility Score: inf
ROOT
ATOM      1  C   UNL A   1      37.456  23.361  25.594  1.00  0.00     0.251 C 
ATOM      2  O   UNL A   1      38.259  24.225  25.943  1.00  0.00    -0.269 OA
ATOM      3  N   UNL A   1      37.928  22.253  24.935  1.00  0.00    -0.352 N 
ATOM      4  H   UNL A   1      38.879  22.299  24.687  1.00  0.00     0.163 HD
ENDROOT
BRANCH   1   5
ATOM      5  C   UNL A   1      36.023  23.518  25.944  1.00  0.00     0.039 A 
ATOM      6  C   UNL A   1      33.284  23.650  26.586  1.00  0.00    -0.042 A 
ATOM      7  C   UNL A   1      34.101  22.660  27.150  1.00  0.00     0.005 A 
ATOM      8  C   UNL A   1      33.878  24.634  25.786  1.00  0.00     0.005 A 
ATOM      9  C   UNL A   1      35.460  22.591  26.827  1.00  0.00     0.014 A 
ATOM     10  C   UNL A   1      35.236  24.569  25.473  1.00  0.00     0.014 A 
BRANCH   6  11
ATOM     11  C   UNL A   1      31.794  23.637  26.853  1.00  0.00     0.097 C 
BRANCH  11  12
ATOM     12  C   UNL A   1      30.916  24.339  25.793  1.00  0.00     0.265 C 
BRANCH  12  13
ATOM     13  N   UNL A   1      30.326  23.498  24.743  1.00  0.00    -0.344 N 
ATOM     14  H   UNL A   1      30.413  22.525  25.034  1.00  0.00     0.346 HD
ATOM     15  H   UNL A   1      29.360  23.809  24.641  1.00  0.00     0.346 HD
BRANCH  13  16
ATOM     16  C   UNL A   1      30.937  23.631  23.416  1.00  0.00     0.178 C 
ATOM     17  C   UNL A   1      31.276  25.118  23.251  1.00  0.00     0.075 C 
BRANCH  16  18
ATOM     18  C   UNL A   1      32.151  22.697  23.203  1.00  0.00     0.061 C 
ATOM     19  C   UNL A   1      33.112  23.051  22.076  1.00  0.00     0.010 C 
ENDBRANCH  16  18
ENDBRANCH  13  16
ENDBRANCH  12  13
ENDBRANCH  11  12
ENDBRANCH   6  11
ENDBRANCH   1   5
BRANCH   3  20
ATOM     20  C   UNL A   1      37.262  21.022  24.542  1.00  0.00     0.118 C 
BRANCH  20  21
ATOM     21  C   UNL A   1      38.075  19.785  24.919  1.00  0.00     0.042 C 
BRANCH  21  22
ATOM     22  C   UNL A   1      39.076  20.016  26.047  1.00  0.00     0.118 C 
BRANCH  22  23
ATOM     23  N   UNL A   1      40.309  19.273  25.853  1.00  0.00    -0.352 N 
ATOM     24  C   UNL A   1      41.615  19.683  25.933  1.00  0.00     0.251 C 
ATOM     25  H   UNL A   1      40.188  18.322  25.628  1.00  0.00     0.163 HD
ATOM     26  O   UNL A   1      42.500  18.928  25.540  1.00  0.00    -0.269 OA
BRANCH  24  27
ATOM     27  C   UNL A   1      41.982  21.016  26.472  1.00  0.00     0.039 A 
ATOM     28  C   UNL A   1      41.964  21.193  27.860  1.00  0.00     0.014 A 
ATOM     29  C   UNL A   1      42.257  22.106  25.643  1.00  0.00     0.014 A 
ATOM     30  C   UNL A   1      42.241  22.447  28.412  1.00  0.00     0.010 A 
ATOM     31  C   UNL A   1      42.607  23.340  26.195  1.00  0.00     0.010 A 
ATOM     32  C   UNL A   1      42.576  23.530  27.584  1.00  0.00    -0.014 A 
BRANCH  32  33
ATOM     33  C   UNL A   1      42.847  24.870  28.164  1.00  0.00     0.031 A 
ATOM     34  C   UNL A   1      44.251  25.265  28.541  1.00  0.00     0.074 A 
ATOM     35  C   UNL A   1      41.832  25.732  28.368  1.00  0.00     0.049 A 
ATOM     36  N   UNL A   1      44.686  26.394  29.044  1.00  0.00    -0.248 NA
ATOM     37  C   UNL A   1      45.301  24.252  28.348  1.00  0.00     0.031 C 
ATOM     38  C   UNL A   1      40.422  25.462  28.084  1.00  0.00     0.029 A 
ATOM     39  N   UNL A   1      41.834  27.013  28.859  1.00  0.00    -0.354 N 
ATOM     40  C   UNL A   1      46.051  26.220  29.242  1.00  0.00     0.074 A 
ATOM     41  C   UNL A   1      46.364  24.862  28.851  1.00  0.00     0.031 C 
ATOM     42  C   UNL A   1      39.700  26.557  28.372  1.00  0.00     0.029 A 
ATOM     43  C   UNL A   1      40.589  27.593  28.886  1.00  0.00     0.049 A 
ATOM     44  H   UNL A   1      42.650  27.474  29.163  1.00  0.00     0.167 HD
ATOM     45  C   UNL A   1      46.967  27.112  29.689  1.00  0.00     0.031 A 
ATOM     46  C   UNL A   1      40.209  28.825  29.271  1.00  0.00     0.031 A 
ATOM     47  C   UNL A   1      46.664  28.467  30.064  1.00  0.00     0.049 A 
ATOM     48  C   UNL A   1      41.247  29.805  29.742  1.00  0.00     0.074 A 
ATOM     49  C   UNL A   1      47.530  29.461  30.485  1.00  0.00     0.029 A 
ATOM     50  N   UNL A   1      45.394  29.020  30.058  1.00  0.00    -0.354 N 
ATOM     51  N   UNL A   1      42.541  29.643  29.864  1.00  0.00    -0.248 NA
ATOM     52  C   UNL A   1      40.769  31.147  30.106  1.00  0.00     0.031 C 
ATOM     53  C   UNL A   1      46.778  30.607  30.770  1.00  0.00     0.029 A 
ATOM     54  C   UNL A   1      45.450  30.339  30.477  1.00  0.00     0.049 A 
ATOM     55  H   UNL A   1      44.572  28.546  29.793  1.00  0.00     0.167 HD
ATOM     56  C   UNL A   1      43.037  30.868  30.289  1.00  0.00     0.074 A 
ATOM     57  C   UNL A   1      41.906  31.767  30.388  1.00  0.00     0.031 C 
ATOM     58  C   UNL A   1      44.316  31.220  30.570  1.00  0.00     0.031 A 
BRANCH  45  59
ATOM     59  C   UNL A   1      48.391  26.641  29.798  1.00  0.00    -0.014 A 
ATOM     60  C   UNL A   1      48.856  25.994  30.954  1.00  0.00     0.009 A 
ATOM     61  C   UNL A   1      49.273  26.825  28.722  1.00  0.00     0.009 A 
ATOM     62  C   UNL A   1      50.186  25.576  31.046  1.00  0.00     0.001 A 
ATOM     63  C   UNL A   1      50.594  26.381  28.805  1.00  0.00     0.001 A 
ATOM     64  C   UNL A   1      51.053  25.767  29.970  1.00  0.00     0.000 A 
ENDBRANCH  45  59
BRANCH  46  65
ATOM     65  C   UNL A   1      38.779  29.221  29.187  1.00  0.00    -0.014 A 
ATOM     66  C   UNL A   1      38.251  29.726  27.990  1.00  0.00     0.009 A 
ATOM     67  C   UNL A   1      37.939  29.101  30.304  1.00  0.00     0.009 A 
ATOM     68  C   UNL A   1      36.916  30.129  27.920  1.00  0.00     0.001 A 
ATOM     69  C   UNL A   1      36.597  29.481  30.224  1.00  0.00     0.001 A 
ATOM     70  C   UNL A   1      36.089  30.003  29.036  1.00  0.00     0.000 A 
ENDBRANCH  46  65
BRANCH  58  71
ATOM     71  C   UNL A   1      44.560  32.648  30.968  1.00  0.00    -0.014 A 
ATOM     72  C   UNL A   1      44.827  33.639  30.011  1.00  0.00     0.009 A 
ATOM     73  C   UNL A   1      44.505  33.007  32.324  1.00  0.00     0.009 A 
ATOM     74  C   UNL A   1      45.077  34.954  30.408  1.00  0.00     0.001 A 
ATOM     75  C   UNL A   1      44.727  34.328  32.716  1.00  0.00     0.001 A 
ATOM     76  C   UNL A   1      45.024  35.297  31.759  1.00  0.00     0.000 A 
ENDBRANCH  58  71
ENDBRANCH  32  33
ENDBRANCH  24  27
ENDBRANCH  22  23
ENDBRANCH  21  22
ENDBRANCH  20  21
ENDBRANCH   3  20
TORSDOF 15
ENDMDL
MODEL 2
REMARK VINA RESULT:      -9.5      5.763     10.680
REMARK SMILES CC[C@H](C)[NH2+]CCc1ccc(C(=O)NCCCNC(=O)c2ccc(-c3c4nc(c(-c5ccccc5)c5ccc([nH]5)c(-c5ccccc5)c5nc(c(-c6ccccc6)c6ccc3[nH]6)C=C5)C=C4)cc2)cc1
REMARK SMILES IDX 12 1 13 2 14 3 11 5 8 6 9 7 70 8 10 9 69 10 7 11 6 12 5 13
REMARK SMILES IDX 3 16 4 17 2 18 1 19 15 20 16 21 17 22 18 23 19 24 20 26
REMARK SMILES IDX 21 27 22 28 68 29 23 30 67 31 24 32 25 33 26 34 61 35 27 36
REMARK SMILES IDX 66 37 60 38 62 39 28 40 65 41 59 42 58 43 29 45 51 46 36 47
REMARK SMILES IDX 50 48 37 49 40 50 49 51 63 52 38 53 39 54 48 56 64 57 41 58
REMARK SMILES IDX 30 59 31 60 35 61 32 62 34 63 33 64 52 65 53 66 57 67 54 68
REMARK SMILES IDX 56 69 55 70 42 71 43 72 47 73 44 74 46 75 45 76
REMARK H PARENT 14 4 5 14 5 15 18 25 62 44 40 55
REMARK Flexibility Score: inf
ROOT
ATOM      1  C   UNL A   1      36.153  32.984  28.222  1.00  0.00     0.251 C 
ATOM      2  O   UNL A   1      37.368  32.968  28.411  1.00  0.00    -0.269 OA
ATOM      3  N   UNL A   1      35.496  34.188  28.269  1.00  0.00    -0.352 N 
ATOM      4  H   UNL A   1      36.048  34.944  28.574  1.00  0.00     0.163 HD
ENDROOT
BRANCH   1   5
ATOM      5  C   UNL A   1      35.452  31.718  27.898  1.00  0.00     0.039 A 
ATOM      6  C   UNL A   1      34.247  29.277  27.176  1.00  0.00    -0.042 A 
ATOM      7  C   UNL A   1      35.613  29.332  27.487  1.00  0.00     0.005 A 
ATOM      8  C   UNL A   1      33.475  30.433  27.338  1.00  0.00     0.005 A 
ATOM      9  C   UNL A   1      36.213  30.545  27.840  1.00  0.00     0.014 A 
ATOM     10  C   UNL A   1      34.073  31.641  27.700  1.00  0.00     0.014 A 
BRANCH   6  11
ATOM     11  C   UNL A   1      33.641  27.981  26.681  1.00  0.00     0.097 C 
BRANCH  11  12
ATOM     12  C   UNL A   1      32.097  27.915  26.688  1.00  0.00     0.265 C 
BRANCH  12  13
ATOM     13  N   UNL A   1      31.404  28.236  25.433  1.00  0.00    -0.344 N 
ATOM     14  H   UNL A   1      30.439  27.918  25.517  1.00  0.00     0.346 HD
ATOM     15  H   UNL A   1      31.493  29.245  25.312  1.00  0.00     0.346 HD
BRANCH  13  16
ATOM     16  C   UNL A   1      31.979  27.630  24.228  1.00  0.00     0.178 C 
ATOM     17  C   UNL A   1      30.879  26.742  23.633  1.00  0.00     0.075 C 
BRANCH  16  18
ATOM     18  C   UNL A   1      32.540  28.666  23.227  1.00  0.00     0.061 C 
ATOM     19  C   UNL A   1      34.040  28.644  22.970  1.00  0.00     0.010 C 
ENDBRANCH  16  18
ENDBRANCH  13  16
ENDBRANCH  12  13
ENDBRANCH  11  12
ENDBRANCH   6  11
ENDBRANCH   1   5
BRANCH   3  20
ATOM     20  C   UNL A   1      34.122  34.539  27.946  1.00  0.00     0.118 C 
BRANCH  20  21
ATOM     21  C   UNL A   1      33.275  34.746  29.200  1.00  0.00     0.042 C 
BRANCH  21  22
ATOM     22  C   UNL A   1      33.279  36.176  29.728  1.00  0.00     0.118 C 
BRANCH  22  23
ATOM     23  N   UNL A   1      32.396  36.347  30.869  1.00  0.00    -0.352 N 
ATOM     24  C   UNL A   1      32.457  35.806  32.128  1.00  0.00     0.251 C 
ATOM     25  H   UNL A   1      31.632  36.948  30.714  1.00  0.00     0.163 HD
ATOM     26  O   UNL A   1      31.493  35.937  32.878  1.00  0.00    -0.269 OA
BRANCH  24  27
ATOM     27  C   UNL A   1      33.650  35.061  32.600  1.00  0.00     0.039 A 
ATOM     28  C   UNL A   1      34.896  35.694  32.522  1.00  0.00     0.014 A 
ATOM     29  C   UNL A   1      33.579  33.735  33.033  1.00  0.00     0.014 A 
ATOM     30  C   UNL A   1      36.056  35.012  32.896  1.00  0.00     0.010 A 
ATOM     31  C   UNL A   1      34.727  33.077  33.477  1.00  0.00     0.010 A 
ATOM     32  C   UNL A   1      35.981  33.699  33.387  1.00  0.00    -0.014 A 
BRANCH  32  33
ATOM     33  C   UNL A   1      37.214  32.960  33.763  1.00  0.00     0.031 A 
ATOM     34  C   UNL A   1      37.794  31.926  32.834  1.00  0.00     0.074 A 
ATOM     35  C   UNL A   1      37.808  33.204  34.948  1.00  0.00     0.049 A 
ATOM     36  N   UNL A   1      38.870  31.193  32.981  1.00  0.00    -0.248 NA
ATOM     37  C   UNL A   1      37.059  31.668  31.585  1.00  0.00     0.031 C 
ATOM     38  C   UNL A   1      37.329  34.149  35.957  1.00  0.00     0.029 A 
ATOM     39  N   UNL A   1      38.948  32.676  35.499  1.00  0.00    -0.354 N 
ATOM     40  C   UNL A   1      38.929  30.377  31.856  1.00  0.00     0.074 A 
ATOM     41  C   UNL A   1      37.757  30.672  31.060  1.00  0.00     0.031 C 
ATOM     42  C   UNL A   1      38.188  34.161  36.989  1.00  0.00     0.029 A 
ATOM     43  C   UNL A   1      39.260  33.207  36.727  1.00  0.00     0.049 A 
ATOM     44  H   UNL A   1      39.492  31.984  35.057  1.00  0.00     0.167 HD
ATOM     45  C   UNL A   1      39.880  29.479  31.505  1.00  0.00     0.031 A 
ATOM     46  C   UNL A   1      40.299  32.959  37.546  1.00  0.00     0.031 A 
ATOM     47  C   UNL A   1      41.055  29.194  32.285  1.00  0.00     0.049 A 
ATOM     48  C   UNL A   1      41.354  31.974  37.124  1.00  0.00     0.074 A 
ATOM     49  C   UNL A   1      42.099  28.335  31.991  1.00  0.00     0.029 A 
ATOM     50  N   UNL A   1      41.341  29.767  33.513  1.00  0.00    -0.354 N 
ATOM     51  N   UNL A   1      41.425  31.259  36.029  1.00  0.00    -0.248 NA
ATOM     52  C   UNL A   1      42.483  31.784  38.045  1.00  0.00     0.031 C 
ATOM     53  C   UNL A   1      43.002  28.360  33.061  1.00  0.00     0.029 A 
ATOM     54  C   UNL A   1      42.542  29.274  33.997  1.00  0.00     0.049 A 
ATOM     55  H   UNL A   1      40.776  30.429  33.974  1.00  0.00     0.167 HD
ATOM     56  C   UNL A   1      42.620  30.557  36.114  1.00  0.00     0.074 A 
ATOM     57  C   UNL A   1      43.247  30.945  37.361  1.00  0.00     0.031 C 
ATOM     58  C   UNL A   1      43.152  29.671  35.237  1.00  0.00     0.031 A 
BRANCH  45  59
ATOM     59  C   UNL A   1      39.682  28.736  30.212  1.00  0.00    -0.014 A 
ATOM     60  C   UNL A   1      39.210  27.414  30.200  1.00  0.00     0.009 A 
ATOM     61  C   UNL A   1      39.947  29.374  28.991  1.00  0.00     0.009 A 
ATOM     62  C   UNL A   1      39.046  26.732  28.992  1.00  0.00     0.001 A 
ATOM     63  C   UNL A   1      39.756  28.699  27.783  1.00  0.00     0.001 A 
ATOM     64  C   UNL A   1      39.316  27.377  27.784  1.00  0.00     0.000 A 
ENDBRANCH  45  59
BRANCH  46  65
ATOM     65  C   UNL A   1      40.419  33.689  38.835  1.00  0.00    -0.014 A 
ATOM     66  C   UNL A   1      39.731  33.239  39.972  1.00  0.00     0.009 A 
ATOM     67  C   UNL A   1      41.216  34.838  38.933  1.00  0.00     0.009 A 
ATOM     68  C   UNL A   1      39.816  33.942  41.175  1.00  0.00     0.001 A 
ATOM     69  C   UNL A   1      41.321  35.525  40.145  1.00  0.00     0.001 A 
ATOM     70  C   UNL A   1      40.614  35.083  41.262  1.00  0.00     0.000 A 
ENDBRANCH  46  65
BRANCH  58  71
ATOM     71  C   UNL A   1      44.498  29.097  35.579  1.00  0.00    -0.014 A 
ATOM     72  C   UNL A   1      44.621  27.908  36.316  1.00  0.00     0.009 A 
ATOM     73  C   UNL A   1      45.661  29.751  35.143  1.00  0.00     0.009 A 
ATOM     74  C   UNL A   1      45.883  27.409  36.644  1.00  0.00     0.001 A 
ATOM     75  C   UNL A   1      46.921  29.234  35.448  1.00  0.00     0.001 A 
ATOM     76  C   UNL A   1      47.030  28.071  36.208  1.00  0.00     0.000 A 
ENDBRANCH  58  71
ENDBRANCH  32  33
ENDBRANCH  24  27
ENDBRANCH  22  23
ENDBRANCH  21  22
ENDBRANCH  20  21
ENDBRANCH   3  20
TORSDOF 15
ENDMDL
MODEL 3
REMARK VINA RESULT:      -9.4      2.657      7.708
REMARK SMILES CC[C@H](C)[NH2+]CCc1ccc(C(=O)NCCCNC(=O)c2ccc(-c3c4nc(c(-c5ccccc5)c5ccc([nH]5)c(-c5ccccc5)c5nc(c(-c6ccccc6)c6ccc3[nH]6)C=C5)C=C4)cc2)cc1
REMARK SMILES IDX 12 1 13 2 14 3 11 5 8 6 9 7 70 8 10 9 69 10 7 11 6 12 5 13
REMARK SMILES IDX 3 16 4 17 2 18 1 19 15 20 16 21 17 22 18 23 19 24 20 26
REMARK SMILES IDX 21 27 22 28 68 29 23 30 67 31 24 32 25 33 26 34 61 35 27 36
REMARK SMILES IDX 66 37 60 38 62 39 28 40 65 41 59 42 58 43 29 45 51 46 36 47
REMARK SMILES IDX 50 48 37 49 40 50 49 51 63 52 38 53 39 54 48 56 64 57 41 58
REMARK SMILES IDX 30 59 31 60 35 61 32 62 34 63 33 64 52 65 53 66 57 67 54 68
REMARK SMILES IDX 56 69 55 70 42 71 43 72 47 73 44 74 46 75 45 76
REMARK H PARENT 14 4 5 14 5 15 18 25 62 44 40 55
REMARK Flexibility Score: inf
ROOT
ATOM      1  C   UNL A   1      31.309  28.521  23.042  1.00  0.00     0.251 C 
ATOM      2  O   UNL A   1      30.247  28.899  22.552  1.00  0.00    -0.269 OA
ATOM      3  N   UNL A   1      32.032  29.403  23.806  1.00  0.00    -0.352 N 
ATOM      4  H   UNL A   1      31.688  30.325  23.801  1.00  0.00     0.163 HD
ENDROOT
BRANCH   1   5
ATOM      5  C   UNL A   1      31.744  27.117  22.838  1.00  0.00     0.039 A 
ATOM      6  C   UNL A   1      32.535  24.424  22.611  1.00  0.00    -0.042 A 
ATOM      7  C   UNL A   1      31.343  24.764  23.267  1.00  0.00     0.005 A 
ATOM      8  C   UNL A   1      33.264  25.436  21.978  1.00  0.00     0.005 A 
ATOM      9  C   UNL A   1      30.953  26.101  23.384  1.00  0.00     0.014 A 
ATOM     10  C   UNL A   1      32.868  26.770  22.088  1.00  0.00     0.014 A 
BRANCH   6  11
ATOM     11  C   UNL A   1      33.001  22.983  22.598  1.00  0.00     0.097 C 
BRANCH  11  12
ATOM     12  C   UNL A   1      34.276  22.683  23.417  1.00  0.00     0.265 C 
BRANCH  12  13
ATOM     13  N   UNL A   1      34.099  22.311  24.827  1.00  0.00    -0.344 N 
ATOM     14  H   UNL A   1      33.123  22.047  24.963  1.00  0.00     0.346 HD
ATOM     15  H   UNL A   1      34.756  21.551  25.004  1.00  0.00     0.346 HD
BRANCH  13  16
ATOM     16  C   UNL A   1      34.423  23.362  25.798  1.00  0.00     0.178 C 
ATOM     17  C   UNL A   1      35.501  24.231  25.139  1.00  0.00     0.075 C 
BRANCH  16  18
ATOM     18  C   UNL A   1      33.188  24.165  26.269  1.00  0.00     0.061 C 
ATOM     19  C   UNL A   1      31.975  23.370  26.729  1.00  0.00     0.010 C 
ENDBRANCH  16  18
ENDBRANCH  13  16
ENDBRANCH  12  13
ENDBRANCH  11  12
ENDBRANCH   6  11
ENDBRANCH   1   5
BRANCH   3  20
ATOM     20  C   UNL A   1      33.220  29.207  24.621  1.00  0.00     0.118 C 
BRANCH  20  21
ATOM     21  C   UNL A   1      32.997  28.163  25.714  1.00  0.00     0.042 C 
BRANCH  21  22
ATOM     22  C   UNL A   1      33.728  28.459  27.019  1.00  0.00     0.118 C 
BRANCH  22  23
ATOM     23  N   UNL A   1      33.581  29.842  27.436  1.00  0.00    -0.352 N 
ATOM     24  C   UNL A   1      34.429  30.651  28.149  1.00  0.00     0.251 C 
ATOM     25  H   UNL A   1      32.736  30.269  27.163  1.00  0.00     0.163 HD
ATOM     26  O   UNL A   1      34.017  31.734  28.555  1.00  0.00    -0.269 OA
BRANCH  24  27
ATOM     27  C   UNL A   1      35.825  30.245  28.447  1.00  0.00     0.039 A 
ATOM     28  C   UNL A   1      36.784  30.393  27.438  1.00  0.00     0.014 A 
ATOM     29  C   UNL A   1      36.187  29.650  29.658  1.00  0.00     0.014 A 
ATOM     30  C   UNL A   1      38.098  29.968  27.650  1.00  0.00     0.010 A 
ATOM     31  C   UNL A   1      37.515  29.293  29.897  1.00  0.00     0.010 A 
ATOM     32  C   UNL A   1      38.479  29.423  28.886  1.00  0.00    -0.014 A 
BRANCH  32  33
ATOM     33  C   UNL A   1      39.868  28.947  29.108  1.00  0.00     0.031 A 
ATOM     34  C   UNL A   1      40.881  29.842  29.773  1.00  0.00     0.074 A 
ATOM     35  C   UNL A   1      40.229  27.715  28.700  1.00  0.00     0.049 A 
ATOM     36  N   UNL A   1      42.134  29.597  30.067  1.00  0.00    -0.248 NA
ATOM     37  C   UNL A   1      40.434  31.196  30.138  1.00  0.00     0.031 C 
ATOM     38  C   UNL A   1      39.359  26.763  28.009  1.00  0.00     0.029 A 
ATOM     39  N   UNL A   1      41.425  27.053  28.813  1.00  0.00    -0.354 N 
ATOM     40  C   UNL A   1      42.626  30.768  30.632  1.00  0.00     0.074 A 
ATOM     41  C   UNL A   1      41.553  31.737  30.596  1.00  0.00     0.031 C 
ATOM     42  C   UNL A   1      40.039  25.626  27.791  1.00  0.00     0.029 A 
ATOM     43  C   UNL A   1      41.398  25.779  28.301  1.00  0.00     0.049 A 
ATOM     44  H   UNL A   1      42.227  27.452  29.223  1.00  0.00     0.167 HD
ATOM     45  C   UNL A   1      43.853  31.012  31.153  1.00  0.00     0.031 A 
ATOM     46  C   UNL A   1      42.357  24.835  28.256  1.00  0.00     0.031 A 
ATOM     47  C   UNL A   1      44.919  30.048  31.205  1.00  0.00     0.049 A 
ATOM     48  C   UNL A   1      43.704  25.122  28.860  1.00  0.00     0.074 A 
ATOM     49  C   UNL A   1      46.182  30.185  31.753  1.00  0.00     0.029 A 
ATOM     50  N   UNL A   1      44.843  28.763  30.692  1.00  0.00    -0.354 N 
ATOM     51  N   UNL A   1      44.131  26.213  29.445  1.00  0.00    -0.248 NA
ATOM     52  C   UNL A   1      44.690  24.033  28.817  1.00  0.00     0.031 C 
ATOM     53  C   UNL A   1      46.885  28.993  31.540  1.00  0.00     0.029 A 
ATOM     54  C   UNL A   1      46.040  28.098  30.902  1.00  0.00     0.049 A 
ATOM     55  H   UNL A   1      44.054  28.378  30.245  1.00  0.00     0.167 HD
ATOM     56  C   UNL A   1      45.424  25.934  29.867  1.00  0.00     0.074 A 
ATOM     57  C   UNL A   1      45.704  24.565  29.483  1.00  0.00     0.031 C 
ATOM     58  C   UNL A   1      46.302  26.737  30.515  1.00  0.00     0.031 A 
BRANCH  45  59
ATOM     59  C   UNL A   1      44.105  32.388  31.707  1.00  0.00    -0.014 A 
ATOM     60  C   UNL A   1      44.597  33.420  30.893  1.00  0.00     0.009 A 
ATOM     61  C   UNL A   1      43.824  32.660  33.055  1.00  0.00     0.009 A 
ATOM     62  C   UNL A   1      44.840  34.688  31.426  1.00  0.00     0.001 A 
ATOM     63  C   UNL A   1      44.042  33.936  33.579  1.00  0.00     0.001 A 
ATOM     64  C   UNL A   1      44.559  34.946  32.768  1.00  0.00     0.000 A 
ENDBRANCH  45  59
BRANCH  46  65
ATOM     65  C   UNL A   1      42.067  23.509  27.652  1.00  0.00    -0.014 A 
ATOM     66  C   UNL A   1      42.398  23.251  26.313  1.00  0.00     0.009 A 
ATOM     67  C   UNL A   1      41.454  22.499  28.408  1.00  0.00     0.009 A 
ATOM     68  C   UNL A   1      42.096  22.016  25.735  1.00  0.00     0.001 A 
ATOM     69  C   UNL A   1      41.176  21.256  27.834  1.00  0.00     0.001 A 
ATOM     70  C   UNL A   1      41.488  21.018  26.497  1.00  0.00     0.000 A 
ENDBRANCH  46  65
BRANCH  58  71
ATOM     71  C   UNL A   1      47.629  26.139  30.888  1.00  0.00    -0.014 A 
ATOM     72  C   UNL A   1      47.886  25.683  32.190  1.00  0.00     0.009 A 
ATOM     73  C   UNL A   1      48.631  26.017  29.912  1.00  0.00     0.009 A 
ATOM     74  C   UNL A   1      49.137  25.155  32.518  1.00  0.00     0.001 A 
ATOM     75  C   UNL A   1      49.871  25.463  30.237  1.00  0.00     0.001 A 
ATOM     76  C   UNL A   1      50.126  25.044  31.542  1.00  0.00     0.000 A 
ENDBRANCH  58  71
ENDBRANCH  32  33
ENDBRANCH  24  27
ENDBRANCH  22  23
ENDBRANCH  21  22
ENDBRANCH  20  21
ENDBRANCH   3  20
TORSDOF 15
ENDMDL
