MODEL 1
REMARK VINA RESULT:      -9.7      0.000      0.000
REMARK SMILES C[C@]1(O)CC[C@H]2[C@H]3CCC4=C/C(=N/OCC(=O)N[C@@H](CO)C(=O)NCCCNC(=O)c5ccc(-c6c7nc(c(-c8ccccc8)c8ccc([nH]8)c(-c8ccccc8)c8nc(c(-c9ccccc9)c9ccc6[nH]9)C=C8)C=C7)cc5)CC[C@@]4(C)[C@@H]3CC[C@]21C
REMARK SMILES IDX 22 1 23 2 24 3 19 5 18 6 16 7 17 8 15 10 14 11 13 12 82 13
REMARK SMILES IDX 81 14 80 15 10 16 83 17 79 18 11 19 9 20 7 21 84 22 12 23
REMARK SMILES IDX 8 24 6 25 85 26 86 27 5 28 2 29 87 30 4 31 1 32 3 33 20 35
REMARK SMILES IDX 21 36 25 38 26 39 27 40 28 41 29 42 30 44 31 45 32 46 78 47
REMARK SMILES IDX 33 48 77 49 34 50 35 51 36 52 71 53 37 54 76 55 70 56 72 57
REMARK SMILES IDX 38 58 75 59 69 60 68 61 39 63 61 64 46 65 60 66 47 67 50 68
REMARK SMILES IDX 59 69 73 70 48 71 49 72 58 74 74 75 51 76 40 77 41 78 45 79
REMARK SMILES IDX 42 80 44 81 43 82 62 83 63 84 67 85 64 86 66 87 65 88 52 89
REMARK SMILES IDX 53 90 57 91 54 92 56 93 55 94
REMARK H PARENT 24 4 18 9 3 34 21 37 28 43 72 62 50 73
REMARK Flexibility Score: inf
ROOT
ATOM      1  C   UNL A   1      32.952  35.171  32.430  1.00  0.00     0.244 C 
ATOM      2  O   UNL A   1      31.760  35.044  32.734  1.00  0.00    -0.273 OA
ATOM      3  N   UNL A   1      33.856  34.730  33.331  1.00  0.00    -0.354 N 
ATOM      4  H   UNL A   1      33.487  34.240  34.100  1.00  0.00     0.163 HD
ENDROOT
BRANCH   1   5
ATOM      5  C   UNL A   1      33.369  35.567  30.998  1.00  0.00     0.197 C 
BRANCH   5   6
ATOM      6  N   UNL A   1      32.840  34.992  29.766  1.00  0.00    -0.339 N 
ATOM      7  C   UNL A   1      33.488  34.392  28.712  1.00  0.00     0.261 C 
ATOM      8  O   UNL A   1      32.730  33.902  27.862  1.00  0.00    -0.271 OA
ATOM      9  H   UNL A   1      31.861  35.041  29.675  1.00  0.00     0.164 HD
BRANCH   7  10
ATOM     10  C   UNL A   1      35.051  34.145  28.575  1.00  0.00     0.363 C 
BRANCH  10  11
ATOM     11  O   UNL A   1      35.825  32.938  28.457  1.00  0.00    -0.385 OA
BRANCH  11  12
ATOM     12  N   UNL A   1      35.491  31.921  29.387  1.00  0.00    -0.091 NA
ATOM     13  C   UNL A   1      37.893  30.113  28.735  1.00  0.00     0.016 C 
ATOM     14  C   UNL A   1      38.567  30.372  30.072  1.00  0.00    -0.008 C 
ATOM     15  C   UNL A   1      38.768  31.902  30.323  1.00  0.00     0.018 C 
ATOM     16  C   UNL A   1      37.513  29.790  31.022  1.00  0.00    -0.062 C 
ATOM     17  C   UNL A   1      39.919  29.602  29.945  1.00  0.00     0.002 C 
ATOM     18  C   UNL A   1      37.497  32.682  30.696  1.00  0.00     0.061 C 
ATOM     19  C   UNL A   1      36.361  30.504  31.201  1.00  0.00     0.027 C 
ATOM     20  C   UNL A   1      37.624  28.297  31.331  1.00  0.00     0.032 C 
ATOM     21  C   UNL A   1      39.604  28.119  29.614  1.00  0.00    -0.003 C 
ATOM     22  C   UNL A   1      40.828  30.335  28.930  1.00  0.00     0.005 C 
ATOM     23  C   UNL A   1      36.311  31.806  30.408  1.00  0.00     0.080 C 
ATOM     24  C   UNL A   1      38.903  27.514  30.851  1.00  0.00     0.008 C 
ATOM     25  C   UNL A   1      40.695  27.328  28.877  1.00  0.00     0.001 C 
ATOM     26  C   UNL A   1      41.864  29.496  28.225  1.00  0.00     0.010 C 
ATOM     27  C   UNL A   1      41.378  28.119  27.712  1.00  0.00    -0.001 C 
ATOM     28  C   UNL A   1      41.874  26.795  29.663  1.00  0.00     0.007 C 
ATOM     29  C   UNL A   1      42.631  27.233  27.348  1.00  0.00     0.068 C 
ATOM     30  C   UNL A   1      40.404  28.295  26.524  1.00  0.00     0.015 C 
ATOM     31  C   UNL A   1      42.777  26.259  28.541  1.00  0.00     0.036 C 
ATOM     32  C   UNL A   1      42.560  26.489  26.009  1.00  0.00     0.042 C 
BRANCH  29  33
ATOM     33  O   UNL A   1      43.837  28.011  27.303  1.00  0.00    -0.390 OA
ATOM     34  H   UNL A   1      43.622  28.948  27.430  1.00  0.00     0.211 HD
ENDBRANCH  29  33
ENDBRANCH  11  12
ENDBRANCH  10  11
ENDBRANCH   7  10
ENDBRANCH   5   6
BRANCH   5  35
ATOM     35  C   UNL A   1      33.348  37.105  30.999  1.00  0.00     0.191 C 
BRANCH  35  36
ATOM     36  O   UNL A   1      32.740  37.627  32.182  1.00  0.00    -0.394 OA
ATOM     37  H   UNL A   1      33.381  38.179  32.659  1.00  0.00     0.210 HD
ENDBRANCH  35  36
ENDBRANCH   5  35
ENDBRANCH   1   5
BRANCH   3  38
ATOM     38  C   UNL A   1      35.289  34.883  33.318  1.00  0.00     0.117 C 
BRANCH  38  39
ATOM     39  C   UNL A   1      35.917  33.678  33.988  1.00  0.00     0.042 C 
BRANCH  39  40
ATOM     40  C   UNL A   1      37.178  34.048  34.758  1.00  0.00     0.118 C 
BRANCH  40  41
ATOM     41  N   UNL A   1      37.198  33.457  36.091  1.00  0.00    -0.352 N 
ATOM     42  C   UNL A   1      37.850  32.329  36.534  1.00  0.00     0.251 C 
ATOM     43  H   UNL A   1      36.669  33.932  36.772  1.00  0.00     0.163 HD
ATOM     44  O   UNL A   1      37.545  31.803  37.588  1.00  0.00    -0.269 OA
BRANCH  42  45
ATOM     45  C   UNL A   1      38.916  31.763  35.687  1.00  0.00     0.039 A 
ATOM     46  C   UNL A   1      38.575  30.980  34.584  1.00  0.00     0.014 A 
ATOM     47  C   UNL A   1      40.250  32.057  35.968  1.00  0.00     0.014 A 
ATOM     48  C   UNL A   1      39.581  30.560  33.715  1.00  0.00     0.010 A 
ATOM     49  C   UNL A   1      41.227  31.750  35.037  1.00  0.00     0.010 A 
ATOM     50  C   UNL A   1      40.907  30.983  33.909  1.00  0.00    -0.014 A 
BRANCH  50  51
ATOM     51  C   UNL A   1      41.988  30.620  32.963  1.00  0.00     0.031 A 
ATOM     52  C   UNL A   1      42.404  31.600  31.898  1.00  0.00     0.074 A 
ATOM     53  C   UNL A   1      42.541  29.392  33.018  1.00  0.00     0.049 A 
ATOM     54  N   UNL A   1      43.265  31.445  30.926  1.00  0.00    -0.248 NA
ATOM     55  C   UNL A   1      41.741  32.916  31.905  1.00  0.00     0.031 C 
ATOM     56  C   UNL A   1      42.185  28.338  33.973  1.00  0.00     0.029 A 
ATOM     57  N   UNL A   1      43.520  28.821  32.246  1.00  0.00    -0.354 N 
ATOM     58  C   UNL A   1      43.233  32.631  30.205  1.00  0.00     0.074 A 
ATOM     59  C   UNL A   1      42.221  33.469  30.802  1.00  0.00     0.031 C 
ATOM     60  C   UNL A   1      42.961  27.264  33.752  1.00  0.00     0.029 A 
ATOM     61  C   UNL A   1      43.832  27.534  32.614  1.00  0.00     0.049 A 
ATOM     62  H   UNL A   1      43.960  29.289  31.500  1.00  0.00     0.167 HD
ATOM     63  C   UNL A   1      44.003  33.004  29.157  1.00  0.00     0.031 A 
ATOM     64  C   UNL A   1      44.714  26.667  32.084  1.00  0.00     0.031 A 
ATOM     65  C   UNL A   1      45.023  32.175  28.577  1.00  0.00     0.049 A 
ATOM     66  C   UNL A   1      45.540  27.102  30.905  1.00  0.00     0.074 A 
ATOM     67  C   UNL A   1      45.890  32.477  27.542  1.00  0.00     0.029 A 
ATOM     68  N   UNL A   1      45.314  30.885  28.985  1.00  0.00    -0.354 N 
ATOM     69  N   UNL A   1      45.547  28.254  30.279  1.00  0.00    -0.248 NA
ATOM     70  C   UNL A   1      46.492  26.119  30.367  1.00  0.00     0.031 C 
ATOM     71  C   UNL A   1      46.673  31.347  27.291  1.00  0.00     0.029 A 
ATOM     72  C   UNL A   1      46.336  30.367  28.210  1.00  0.00     0.049 A 
ATOM     73  H   UNL A   1      44.862  30.407  29.719  1.00  0.00     0.167 HD
ATOM     74  C   UNL A   1      46.521  28.144  29.295  1.00  0.00     0.074 A 
ATOM     75  C   UNL A   1      47.099  26.823  29.423  1.00  0.00     0.031 C 
ATOM     76  C   UNL A   1      46.902  29.052  28.364  1.00  0.00     0.031 A 
BRANCH  63  77
ATOM     77  C   UNL A   1      43.780  34.375  28.583  1.00  0.00    -0.014 A 
ATOM     78  C   UNL A   1      42.921  34.570  27.490  1.00  0.00     0.009 A 
ATOM     79  C   UNL A   1      44.394  35.491  29.172  1.00  0.00     0.009 A 
ATOM     80  C   UNL A   1      42.702  35.852  26.981  1.00  0.00     0.001 A 
ATOM     81  C   UNL A   1      44.148  36.775  28.681  1.00  0.00     0.001 A 
ATOM     82  C   UNL A   1      43.308  36.954  27.582  1.00  0.00     0.000 A 
ENDBRANCH  63  77
BRANCH  64  83
ATOM     83  C   UNL A   1      44.869  25.301  32.654  1.00  0.00    -0.014 A 
ATOM     84  C   UNL A   1      44.118  24.226  32.150  1.00  0.00     0.009 A 
ATOM     85  C   UNL A   1      45.738  25.070  33.732  1.00  0.00     0.009 A 
ATOM     86  C   UNL A   1      44.201  22.964  32.741  1.00  0.00     0.001 A 
ATOM     87  C   UNL A   1      45.846  23.797  34.297  1.00  0.00     0.001 A 
ATOM     88  C   UNL A   1      45.067  22.749  33.812  1.00  0.00     0.000 A 
ENDBRANCH  64  83
BRANCH  76  89
ATOM     89  C   UNL A   1      48.023  28.663  27.443  1.00  0.00    -0.014 A 
ATOM     90  C   UNL A   1      49.364  28.896  27.785  1.00  0.00     0.009 A 
ATOM     91  C   UNL A   1      47.730  28.011  26.234  1.00  0.00     0.009 A 
ATOM     92  C   UNL A   1      50.388  28.517  26.915  1.00  0.00     0.001 A 
ATOM     93  C   UNL A   1      48.757  27.603  25.384  1.00  0.00     0.001 A 
ATOM     94  C   UNL A   1      50.084  27.866  25.719  1.00  0.00     0.000 A 
ENDBRANCH  76  89
ENDBRANCH  50  51
ENDBRANCH  42  45
ENDBRANCH  40  41
ENDBRANCH  39  40
ENDBRANCH  38  39
ENDBRANCH   3  38
TORSDOF 17
ENDMDL
MODEL 2
REMARK VINA RESULT:      -9.6      0.354      5.517
REMARK SMILES C[C@]1(O)CC[C@H]2[C@H]3CCC4=C/C(=N/OCC(=O)N[C@@H](CO)C(=O)NCCCNC(=O)c5ccc(-c6c7nc(c(-c8ccccc8)c8ccc([nH]8)c(-c8ccccc8)c8nc(c(-c9ccccc9)c9ccc6[nH]9)C=C8)C=C7)cc5)CC[C@@]4(C)[C@@H]3CC[C@]21C
REMARK SMILES IDX 22 1 23 2 24 3 19 5 18 6 16 7 17 8 15 10 14 11 13 12 82 13
REMARK SMILES IDX 81 14 80 15 10 16 83 17 79 18 11 19 9 20 7 21 84 22 12 23
REMARK SMILES IDX 8 24 6 25 85 26 86 27 5 28 2 29 87 30 4 31 1 32 3 33 20 35
REMARK SMILES IDX 21 36 25 38 26 39 27 40 28 41 29 42 30 44 31 45 32 46 78 47
REMARK SMILES IDX 33 48 77 49 34 50 35 51 36 52 71 53 37 54 76 55 70 56 72 57
REMARK SMILES IDX 38 58 75 59 69 60 68 61 39 63 61 64 46 65 60 66 47 67 50 68
REMARK SMILES IDX 59 69 73 70 48 71 49 72 58 74 74 75 51 76 40 77 41 78 45 79
REMARK SMILES IDX 42 80 44 81 43 82 62 83 63 84 67 85 64 86 66 87 65 88 52 89
REMARK SMILES IDX 53 90 57 91 54 92 56 93 55 94
REMARK H PARENT 24 4 18 9 3 34 21 37 28 43 72 62 50 73
REMARK Flexibility Score: inf
ROOT
ATOM      1  C   UNL A   1      32.846  35.430  32.168  1.00  0.00     0.244 C 
ATOM      2  O   UNL A   1      31.649  35.485  32.475  1.00  0.00    -0.273 OA
ATOM      3  N   UNL A   1      33.696  34.992  33.122  1.00  0.00    -0.354 N 
ATOM      4  H   UNL A   1      33.274  34.642  33.939  1.00  0.00     0.163 HD
ENDROOT
BRANCH   1   5
ATOM      5  C   UNL A   1      33.299  35.605  30.704  1.00  0.00     0.197 C 
BRANCH   5   6
ATOM      6  N   UNL A   1      32.801  34.846  29.561  1.00  0.00    -0.339 N 
ATOM      7  C   UNL A   1      33.481  34.179  28.569  1.00  0.00     0.261 C 
ATOM      8  O   UNL A   1      32.753  33.532  27.802  1.00  0.00    -0.271 OA
ATOM      9  H   UNL A   1      31.820  34.805  29.488  1.00  0.00     0.164 HD
BRANCH   7  10
ATOM     10  C   UNL A   1      35.057  34.043  28.424  1.00  0.00     0.363 C 
BRANCH  10  11
ATOM     11  O   UNL A   1      35.922  32.895  28.388  1.00  0.00    -0.385 OA
BRANCH  11  12
ATOM     12  N   UNL A   1      35.602  31.875  29.320  1.00  0.00    -0.091 NA
ATOM     13  C   UNL A   1      37.987  30.064  28.619  1.00  0.00     0.016 C 
ATOM     14  C   UNL A   1      38.685  30.316  29.946  1.00  0.00    -0.008 C 
ATOM     15  C   UNL A   1      38.894  31.844  30.198  1.00  0.00     0.018 C 
ATOM     16  C   UNL A   1      37.647  29.734  30.912  1.00  0.00    -0.062 C 
ATOM     17  C   UNL A   1      40.033  29.543  29.792  1.00  0.00     0.002 C 
ATOM     18  C   UNL A   1      37.633  32.627  30.596  1.00  0.00     0.061 C 
ATOM     19  C   UNL A   1      36.500  30.450  31.114  1.00  0.00     0.027 C 
ATOM     20  C   UNL A   1      37.759  28.239  31.214  1.00  0.00     0.032 C 
ATOM     21  C   UNL A   1      39.708  28.062  29.462  1.00  0.00    -0.003 C 
ATOM     22  C   UNL A   1      40.926  30.277  28.764  1.00  0.00     0.005 C 
ATOM     23  C   UNL A   1      36.440  31.754  30.326  1.00  0.00     0.080 C 
ATOM     24  C   UNL A   1      39.027  27.455  30.710  1.00  0.00     0.008 C 
ATOM     25  C   UNL A   1      40.784  27.270  28.703  1.00  0.00     0.001 C 
ATOM     26  C   UNL A   1      41.947  29.438  28.039  1.00  0.00     0.010 C 
ATOM     27  C   UNL A   1      41.448  28.064  27.529  1.00  0.00    -0.001 C 
ATOM     28  C   UNL A   1      41.976  26.732  29.466  1.00  0.00     0.007 C 
ATOM     29  C   UNL A   1      42.693  27.176  27.141  1.00  0.00     0.068 C 
ATOM     30  C   UNL A   1      40.454  28.246  26.359  1.00  0.00     0.015 C 
ATOM     31  C   UNL A   1      42.857  26.197  28.327  1.00  0.00     0.036 C 
ATOM     32  C   UNL A   1      42.597  26.437  25.800  1.00  0.00     0.042 C 
BRANCH  29  33
ATOM     33  O   UNL A   1      43.899  27.951  27.077  1.00  0.00    -0.390 OA
ATOM     34  H   UNL A   1      43.762  28.799  27.524  1.00  0.00     0.211 HD
ENDBRANCH  29  33
ENDBRANCH  11  12
ENDBRANCH  10  11
ENDBRANCH   7  10
ENDBRANCH   5   6
BRANCH   5  35
ATOM     35  C   UNL A   1      33.279  37.124  30.469  1.00  0.00     0.191 C 
BRANCH  35  36
ATOM     36  O   UNL A   1      33.610  37.849  31.655  1.00  0.00    -0.394 OA
ATOM     37  H   UNL A   1      33.973  38.717  31.413  1.00  0.00     0.210 HD
ENDBRANCH  35  36
ENDBRANCH   5  35
ENDBRANCH   1   5
BRANCH   3  38
ATOM     38  C   UNL A   1      35.136  34.968  33.103  1.00  0.00     0.117 C 
BRANCH  38  39
ATOM     39  C   UNL A   1      35.616  33.735  33.841  1.00  0.00     0.042 C 
BRANCH  39  40
ATOM     40  C   UNL A   1      37.005  33.933  34.433  1.00  0.00     0.118 C 
BRANCH  40  41
ATOM     41  N   UNL A   1      37.101  33.407  35.790  1.00  0.00    -0.352 N 
ATOM     42  C   UNL A   1      37.824  32.335  36.261  1.00  0.00     0.251 C 
ATOM     43  H   UNL A   1      36.572  33.888  36.468  1.00  0.00     0.163 HD
ATOM     44  O   UNL A   1      37.582  31.845  37.348  1.00  0.00    -0.269 OA
BRANCH  42  45
ATOM     45  C   UNL A   1      38.887  31.782  35.402  1.00  0.00     0.039 A 
ATOM     46  C   UNL A   1      38.550  30.929  34.352  1.00  0.00     0.014 A 
ATOM     47  C   UNL A   1      40.214  32.157  35.619  1.00  0.00     0.014 A 
ATOM     48  C   UNL A   1      39.546  30.518  33.466  1.00  0.00     0.010 A 
ATOM     49  C   UNL A   1      41.173  31.854  34.668  1.00  0.00     0.010 A 
ATOM     50  C   UNL A   1      40.853  31.017  33.590  1.00  0.00    -0.014 A 
BRANCH  50  51
ATOM     51  C   UNL A   1      41.918  30.662  32.623  1.00  0.00     0.031 A 
ATOM     52  C   UNL A   1      42.581  29.313  32.710  1.00  0.00     0.074 A 
ATOM     53  C   UNL A   1      42.331  31.571  31.718  1.00  0.00     0.049 A 
ATOM     54  N   UNL A   1      43.585  28.841  32.017  1.00  0.00    -0.248 NA
ATOM     55  C   UNL A   1      42.073  28.383  33.735  1.00  0.00     0.031 C 
ATOM     56  C   UNL A   1      41.799  32.929  31.570  1.00  0.00     0.029 A 
ATOM     57  N   UNL A   1      43.302  31.490  30.753  1.00  0.00    -0.354 N 
ATOM     58  C   UNL A   1      43.833  27.576  32.530  1.00  0.00     0.074 A 
ATOM     59  C   UNL A   1      42.927  27.376  33.638  1.00  0.00     0.031 C 
ATOM     60  C   UNL A   1      42.425  33.538  30.549  1.00  0.00     0.029 A 
ATOM     61  C   UNL A   1      43.434  32.636  30.005  1.00  0.00     0.049 A 
ATOM     62  H   UNL A   1      43.852  30.686  30.609  1.00  0.00     0.167 HD
ATOM     63  C   UNL A   1      44.714  26.645  32.097  1.00  0.00     0.031 A 
ATOM     64  C   UNL A   1      44.279  32.926  29.000  1.00  0.00     0.031 A 
ATOM     65  C   UNL A   1      45.601  26.838  30.984  1.00  0.00     0.049 A 
ATOM     66  C   UNL A   1      45.264  31.880  28.555  1.00  0.00     0.074 A 
ATOM     67  C   UNL A   1      46.500  25.942  30.435  1.00  0.00     0.029 A 
ATOM     68  N   UNL A   1      45.694  28.007  30.247  1.00  0.00    -0.354 N 
ATOM     69  N   UNL A   1      45.438  30.661  29.007  1.00  0.00    -0.248 NA
ATOM     70  C   UNL A   1      46.163  32.246  27.451  1.00  0.00     0.031 C 
ATOM     71  C   UNL A   1      47.175  26.588  29.396  1.00  0.00     0.029 A 
ATOM     72  C   UNL A   1      46.652  27.863  29.259  1.00  0.00     0.049 A 
ATOM     73  H   UNL A   1      45.158  28.819  30.402  1.00  0.00     0.167 HD
ATOM     74  C   UNL A   1      46.442  30.107  28.223  1.00  0.00     0.074 A 
ATOM     75  C   UNL A   1      46.822  31.113  27.255  1.00  0.00     0.031 C 
ATOM     76  C   UNL A   1      47.005  28.877  28.299  1.00  0.00     0.031 A 
BRANCH  63  77
ATOM     77  C   UNL A   1      44.750  25.329  32.823  1.00  0.00    -0.014 A 
ATOM     78  C   UNL A   1      45.496  25.173  34.002  1.00  0.00     0.009 A 
ATOM     79  C   UNL A   1      43.988  24.248  32.353  1.00  0.00     0.009 A 
ATOM     80  C   UNL A   1      45.502  23.953  34.680  1.00  0.00     0.001 A 
ATOM     81  C   UNL A   1      43.971  23.039  33.051  1.00  0.00     0.001 A 
ATOM     82  C   UNL A   1      44.732  22.889  34.210  1.00  0.00     0.000 A 
ENDBRANCH  63  77
BRANCH  64  83
ATOM     83  C   UNL A   1      44.243  34.260  28.341  1.00  0.00    -0.014 A 
ATOM     84  C   UNL A   1      45.025  35.320  28.828  1.00  0.00     0.009 A 
ATOM     85  C   UNL A   1      43.396  34.494  27.246  1.00  0.00     0.009 A 
ATOM     86  C   UNL A   1      44.926  36.593  28.262  1.00  0.00     0.001 A 
ATOM     87  C   UNL A   1      43.326  35.759  26.659  1.00  0.00     0.001 A 
ATOM     88  C   UNL A   1      44.079  36.811  27.177  1.00  0.00     0.000 A 
ENDBRANCH  64  83
BRANCH  76  89
ATOM     89  C   UNL A   1      48.056  28.538  27.282  1.00  0.00    -0.014 A 
ATOM     90  C   UNL A   1      49.402  28.887  27.477  1.00  0.00     0.009 A 
ATOM     91  C   UNL A   1      47.699  27.818  26.131  1.00  0.00     0.009 A 
ATOM     92  C   UNL A   1      50.361  28.554  26.520  1.00  0.00     0.001 A 
ATOM     93  C   UNL A   1      48.666  27.456  25.194  1.00  0.00     0.001 A 
ATOM     94  C   UNL A   1      49.994  27.833  25.383  1.00  0.00     0.000 A 
ENDBRANCH  76  89
ENDBRANCH  50  51
ENDBRANCH  42  45
ENDBRANCH  40  41
ENDBRANCH  39  40
ENDBRANCH  38  39
ENDBRANCH   3  38
TORSDOF 17
ENDMDL
MODEL 3
REMARK VINA RESULT:      -9.4      4.902      6.219
REMARK SMILES C[C@]1(O)CC[C@H]2[C@H]3CCC4=C/C(=N/OCC(=O)N[C@@H](CO)C(=O)NCCCNC(=O)c5ccc(-c6c7nc(c(-c8ccccc8)c8ccc([nH]8)c(-c8ccccc8)c8nc(c(-c9ccccc9)c9ccc6[nH]9)C=C8)C=C7)cc5)CC[C@@]4(C)[C@@H]3CC[C@]21C
REMARK SMILES IDX 22 1 23 2 24 3 19 5 18 6 16 7 17 8 15 10 14 11 13 12 82 13
REMARK SMILES IDX 81 14 80 15 10 16 83 17 79 18 11 19 9 20 7 21 84 22 12 23
REMARK SMILES IDX 8 24 6 25 85 26 86 27 5 28 2 29 87 30 4 31 1 32 3 33 20 35
REMARK SMILES IDX 21 36 25 38 26 39 27 40 28 41 29 42 30 44 31 45 32 46 78 47
REMARK SMILES IDX 33 48 77 49 34 50 35 51 36 52 71 53 37 54 76 55 70 56 72 57
REMARK SMILES IDX 38 58 75 59 69 60 68 61 39 63 61 64 46 65 60 66 47 67 50 68
REMARK SMILES IDX 59 69 73 70 48 71 49 72 58 74 74 75 51 76 40 77 41 78 45 79
REMARK SMILES IDX 42 80 44 81 43 82 62 83 63 84 67 85 64 86 66 87 65 88 52 89
REMARK SMILES IDX 53 90 57 91 54 92 56 93 55 94
REMARK H PARENT 24 4 18 9 3 34 21 37 28 43 72 62 50 73
REMARK Flexibility Score: inf
ROOT
ATOM      1  C   UNL A   1      33.202  35.238  29.565  1.00  0.00     0.244 C 
ATOM      2  O   UNL A   1      32.329  36.115  29.550  1.00  0.00    -0.273 OA
ATOM      3  N   UNL A   1      33.782  34.983  30.757  1.00  0.00    -0.354 N 
ATOM      4  H   UNL A   1      33.379  35.434  31.533  1.00  0.00     0.163 HD
ENDROOT
BRANCH   1   5
ATOM      5  C   UNL A   1      33.421  34.316  28.348  1.00  0.00     0.197 C 
BRANCH   5   6
ATOM      6  N   UNL A   1      32.371  33.702  27.542  1.00  0.00    -0.339 N 
ATOM      7  C   UNL A   1      32.203  32.398  27.139  1.00  0.00     0.261 C 
ATOM      8  O   UNL A   1      31.133  32.182  26.552  1.00  0.00    -0.271 OA
ATOM      9  H   UNL A   1      31.669  34.322  27.238  1.00  0.00     0.164 HD
BRANCH   7  10
ATOM     10  C   UNL A   1      33.147  31.169  27.485  1.00  0.00     0.363 C 
BRANCH  10  11
ATOM     11  O   UNL A   1      33.256  29.852  26.916  1.00  0.00    -0.385 OA
BRANCH  11  12
ATOM     12  N   UNL A   1      33.654  29.821  25.554  1.00  0.00    -0.091 NA
ATOM     13  C   UNL A   1      33.434  26.769  25.245  1.00  0.00     0.016 C 
ATOM     14  C   UNL A   1      32.221  26.858  24.333  1.00  0.00    -0.008 C 
ATOM     15  C   UNL A   1      31.066  27.674  24.999  1.00  0.00     0.018 C 
ATOM     16  C   UNL A   1      32.827  27.622  23.150  1.00  0.00    -0.062 C 
ATOM     17  C   UNL A   1      31.840  25.361  24.100  1.00  0.00     0.002 C 
ATOM     18  C   UNL A   1      31.273  29.197  25.041  1.00  0.00     0.061 C 
ATOM     19  C   UNL A   1      33.084  28.953  23.323  1.00  0.00     0.027 C 
ATOM     20  C   UNL A   1      33.497  26.779  22.065  1.00  0.00     0.032 C 
ATOM     21  C   UNL A   1      33.080  24.630  23.518  1.00  0.00    -0.003 C 
ATOM     22  C   UNL A   1      31.270  24.771  25.411  1.00  0.00     0.005 C 
ATOM     23  C   UNL A   1      32.710  29.480  24.705  1.00  0.00     0.080 C 
ATOM     24  C   UNL A   1      33.334  25.213  22.109  1.00  0.00     0.008 C 
ATOM     25  C   UNL A   1      33.165  23.116  23.757  1.00  0.00     0.001 C 
ATOM     26  C   UNL A   1      31.405  23.280  25.592  1.00  0.00     0.010 C 
ATOM     27  C   UNL A   1      32.778  22.678  25.209  1.00  0.00    -0.001 C 
ATOM     28  C   UNL A   1      32.339  22.187  22.892  1.00  0.00     0.007 C 
ATOM     29  C   UNL A   1      32.640  21.110  25.099  1.00  0.00     0.068 C 
ATOM     30  C   UNL A   1      33.864  23.114  26.220  1.00  0.00     0.015 C 
ATOM     31  C   UNL A   1      32.574  20.833  23.578  1.00  0.00     0.036 C 
ATOM     32  C   UNL A   1      33.743  20.290  25.781  1.00  0.00     0.042 C 
BRANCH  29  33
ATOM     33  O   UNL A   1      31.402  20.645  25.656  1.00  0.00    -0.390 OA
ATOM     34  H   UNL A   1      30.712  21.310  25.511  1.00  0.00     0.211 HD
ENDBRANCH  29  33
ENDBRANCH  11  12
ENDBRANCH  10  11
ENDBRANCH   7  10
ENDBRANCH   5   6
BRANCH   5  35
ATOM     35  C   UNL A   1      34.483  35.036  27.501  1.00  0.00     0.191 C 
BRANCH  35  36
ATOM     36  O   UNL A   1      34.762  36.346  28.000  1.00  0.00    -0.394 OA
ATOM     37  H   UNL A   1      34.401  37.009  27.390  1.00  0.00     0.210 HD
ENDBRANCH  35  36
ENDBRANCH   5  35
ENDBRANCH   1   5
BRANCH   3  38
ATOM     38  C   UNL A   1      34.914  34.139  31.045  1.00  0.00     0.117 C 
BRANCH  38  39
ATOM     39  C   UNL A   1      34.418  32.842  31.650  1.00  0.00     0.042 C 
BRANCH  39  40
ATOM     40  C   UNL A   1      35.311  32.366  32.787  1.00  0.00     0.118 C 
BRANCH  40  41
ATOM     41  N   UNL A   1      36.022  33.470  33.422  1.00  0.00    -0.352 N 
ATOM     42  C   UNL A   1      37.376  33.703  33.503  1.00  0.00     0.251 C 
ATOM     43  H   UNL A   1      35.452  34.146  33.855  1.00  0.00     0.163 HD
ATOM     44  O   UNL A   1      37.828  34.502  34.301  1.00  0.00    -0.269 OA
BRANCH  42  45
ATOM     45  C   UNL A   1      38.268  32.944  32.607  1.00  0.00     0.039 A 
ATOM     46  C   UNL A   1      38.295  33.244  31.246  1.00  0.00     0.014 A 
ATOM     47  C   UNL A   1      39.110  31.966  33.139  1.00  0.00     0.014 A 
ATOM     48  C   UNL A   1      39.234  32.613  30.431  1.00  0.00     0.010 A 
ATOM     49  C   UNL A   1      40.123  31.440  32.357  1.00  0.00     0.010 A 
ATOM     50  C   UNL A   1      40.186  31.744  30.991  1.00  0.00    -0.014 A 
BRANCH  50  51
ATOM     51  C   UNL A   1      41.247  31.116  30.168  1.00  0.00     0.031 A 
ATOM     52  C   UNL A   1      42.498  31.892  29.851  1.00  0.00     0.074 A 
ATOM     53  C   UNL A   1      41.055  29.886  29.653  1.00  0.00     0.049 A 
ATOM     54  N   UNL A   1      43.502  31.558  29.083  1.00  0.00    -0.248 NA
ATOM     55  C   UNL A   1      42.622  33.234  30.447  1.00  0.00     0.031 C 
ATOM     56  C   UNL A   1      39.862  29.056  29.849  1.00  0.00     0.029 A 
ATOM     57  N   UNL A   1      41.862  29.119  28.854  1.00  0.00    -0.354 N 
ATOM     58  C   UNL A   1      44.362  32.648  29.095  1.00  0.00     0.074 A 
ATOM     59  C   UNL A   1      43.734  33.681  29.884  1.00  0.00     0.031 C 
ATOM     60  C   UNL A   1      40.033  27.884  29.217  1.00  0.00     0.029 A 
ATOM     61  C   UNL A   1      41.321  27.896  28.534  1.00  0.00     0.049 A 
ATOM     62  H   UNL A   1      42.746  29.415  28.539  1.00  0.00     0.167 HD
ATOM     63  C   UNL A   1      45.584  32.768  28.527  1.00  0.00     0.031 A 
ATOM     64  C   UNL A   1      41.807  26.903  27.767  1.00  0.00     0.031 A 
ATOM     65  C   UNL A   1      46.215  31.732  27.758  1.00  0.00     0.049 A 
ATOM     66  C   UNL A   1      43.159  27.074  27.130  1.00  0.00     0.074 A 
ATOM     67  C   UNL A   1      47.471  31.735  27.178  1.00  0.00     0.029 A 
ATOM     68  N   UNL A   1      45.639  30.506  27.468  1.00  0.00    -0.354 N 
ATOM     69  N   UNL A   1      43.989  28.085  27.209  1.00  0.00    -0.248 NA
ATOM     70  C   UNL A   1      43.646  25.958  26.305  1.00  0.00     0.031 C 
ATOM     71  C   UNL A   1      47.634  30.528  26.492  1.00  0.00     0.029 A 
ATOM     72  C   UNL A   1      46.506  29.751  26.699  1.00  0.00     0.049 A 
ATOM     73  H   UNL A   1      44.746  30.215  27.766  1.00  0.00     0.167 HD
ATOM     74  C   UNL A   1      45.107  27.716  26.471  1.00  0.00     0.074 A 
ATOM     75  C   UNL A   1      44.857  26.380  25.973  1.00  0.00     0.031 C 
ATOM     76  C   UNL A   1      46.238  28.418  26.223  1.00  0.00     0.031 A 
BRANCH  63  77
ATOM     77  C   UNL A   1      46.322  34.061  28.730  1.00  0.00    -0.014 A 
ATOM     78  C   UNL A   1      47.196  34.233  29.816  1.00  0.00     0.009 A 
ATOM     79  C   UNL A   1      46.184  35.102  27.798  1.00  0.00     0.009 A 
ATOM     80  C   UNL A   1      47.895  35.430  29.979  1.00  0.00     0.001 A 
ATOM     81  C   UNL A   1      46.909  36.286  27.948  1.00  0.00     0.001 A 
ATOM     82  C   UNL A   1      47.758  36.452  29.041  1.00  0.00     0.000 A 
ENDBRANCH  63  77
BRANCH  64  83
ATOM     83  C   UNL A   1      41.021  25.658  27.552  1.00  0.00    -0.014 A 
ATOM     84  C   UNL A   1      39.956  25.634  26.637  1.00  0.00     0.009 A 
ATOM     85  C   UNL A   1      41.304  24.498  28.289  1.00  0.00     0.009 A 
ATOM     86  C   UNL A   1      39.165  24.490  26.499  1.00  0.00     0.001 A 
ATOM     87  C   UNL A   1      40.534  23.344  28.122  1.00  0.00     0.001 A 
ATOM     88  C   UNL A   1      39.456  23.346  27.239  1.00  0.00     0.000 A 
ENDBRANCH  64  83
BRANCH  76  89
ATOM     89  C   UNL A   1      47.306  27.739  25.415  1.00  0.00    -0.014 A 
ATOM     90  C   UNL A   1      47.330  27.826  24.014  1.00  0.00     0.009 A 
ATOM     91  C   UNL A   1      48.329  27.037  26.071  1.00  0.00     0.009 A 
ATOM     92  C   UNL A   1      48.338  27.192  23.286  1.00  0.00     0.001 A 
ATOM     93  C   UNL A   1      49.354  26.434  25.343  1.00  0.00     0.001 A 
ATOM     94  C   UNL A   1      49.352  26.503  23.951  1.00  0.00     0.000 A 
ENDBRANCH  76  89
ENDBRANCH  50  51
ENDBRANCH  42  45
ENDBRANCH  40  41
ENDBRANCH  39  40
ENDBRANCH  38  39
ENDBRANCH   3  38
TORSDOF 17
ENDMDL
