MODEL 1
REMARK VINA RESULT:     -11.5      0.000      0.000
REMARK SMILES O=C(NCCCNC(=O)[C@H]1C[NH2+]CCN1c1ncc(C(F)(F)F)cc1Cl)c1ccc(-c2c3nc(c(-c4ccccc4)c4ccc([nH]4)c(-c4ccccc4)c4nc(c(-c5ccccc5)c5ccc2[nH]5)C=C4)C=C3)cc1
REMARK SMILES IDX 5 1 4 2 3 3 1 4 2 5 27 7 28 8 74 9 29 10 73 11 30 12 31 13
REMARK SMILES IDX 32 14 67 15 33 16 72 17 66 18 68 19 34 20 71 21 65 22 64 23
REMARK SMILES IDX 35 25 57 26 42 27 56 28 43 29 46 30 55 31 69 32 44 33 45 34
REMARK SMILES IDX 54 36 70 37 47 38 36 39 37 40 41 41 38 42 40 43 39 44 58 45
REMARK SMILES IDX 59 46 63 47 60 48 62 49 61 50 48 51 49 52 53 53 50 54 52 55
REMARK SMILES IDX 51 56 6 57 7 58 8 59 9 61 10 62 11 63 15 64 12 65 14 66
REMARK SMILES IDX 13 67 16 70 17 71 25 72 18 73 24 74 26 75 19 76 20 77 21 78
REMARK SMILES IDX 22 79 23 80
REMARK H PARENT 3 6 68 24 46 35 7 60 12 68 12 69
REMARK Flexibility Score: inf
ROOT
ATOM      1  C   UNL A   1      36.829  23.107  23.672  1.00  0.00     0.042 C 
ENDROOT
BRANCH   1   2
ATOM      2  C   UNL A   1      37.186  23.332  25.136  1.00  0.00     0.118 C 
BRANCH   2   3
ATOM      3  N   UNL A   1      38.302  22.501  25.556  1.00  0.00    -0.352 N 
ATOM      4  O   UNL A   1      40.403  22.070  26.232  1.00  0.00    -0.269 OA
ATOM      5  C   UNL A   1      39.463  22.864  26.187  1.00  0.00     0.251 C 
ATOM      6  H   UNL A   1      38.211  21.541  25.358  1.00  0.00     0.163 HD
BRANCH   5   7
ATOM      7  C   UNL A   1      39.599  24.193  26.825  1.00  0.00     0.039 A 
ATOM      8  C   UNL A   1      39.132  24.422  28.123  1.00  0.00     0.014 A 
ATOM      9  C   UNL A   1      40.299  25.200  26.150  1.00  0.00     0.014 A 
ATOM     10  C   UNL A   1      39.303  25.670  28.716  1.00  0.00     0.010 A 
ATOM     11  C   UNL A   1      40.533  26.430  26.773  1.00  0.00     0.010 A 
ATOM     12  C   UNL A   1      40.041  26.671  28.065  1.00  0.00    -0.014 A 
BRANCH  12  13
ATOM     13  C   UNL A   1      40.420  27.899  28.808  1.00  0.00     0.031 A 
ATOM     14  C   UNL A   1      41.753  28.031  29.484  1.00  0.00     0.074 A 
ATOM     15  C   UNL A   1      39.519  28.900  28.878  1.00  0.00     0.049 A 
ATOM     16  N   UNL A   1      42.223  29.038  30.176  1.00  0.00    -0.248 NA
ATOM     17  C   UNL A   1      42.676  26.890  29.379  1.00  0.00     0.031 C 
ATOM     18  C   UNL A   1      38.180  28.872  28.281  1.00  0.00     0.029 A 
ATOM     19  N   UNL A   1      39.589  30.133  29.474  1.00  0.00    -0.354 N 
ATOM     20  C   UNL A   1      43.486  28.651  30.603  1.00  0.00     0.074 A 
ATOM     21  C   UNL A   1      43.706  27.309  30.104  1.00  0.00     0.031 C 
ATOM     22  C   UNL A   1      37.569  30.043  28.515  1.00  0.00     0.029 A 
ATOM     23  C   UNL A   1      38.444  30.878  29.327  1.00  0.00     0.049 A 
ATOM     24  H   UNL A   1      40.383  30.453  29.962  1.00  0.00     0.167 HD
ATOM     25  C   UNL A   1      44.375  29.353  31.344  1.00  0.00     0.031 A 
ATOM     26  C   UNL A   1      38.118  32.089  29.814  1.00  0.00     0.031 A 
ATOM     27  C   UNL A   1      44.152  30.690  31.833  1.00  0.00     0.049 A 
ATOM     28  C   UNL A   1      39.115  32.823  30.661  1.00  0.00     0.074 A 
ATOM     29  C   UNL A   1      45.023  31.507  32.534  1.00  0.00     0.029 A 
ATOM     30  N   UNL A   1      42.970  31.399  31.687  1.00  0.00    -0.354 N 
ATOM     31  N   UNL A   1      40.333  32.472  30.990  1.00  0.00    -0.248 NA
ATOM     32  C   UNL A   1      38.690  34.119  31.206  1.00  0.00     0.031 C 
ATOM     33  C   UNL A   1      44.348  32.686  32.864  1.00  0.00     0.029 A 
ATOM     34  C   UNL A   1      43.074  32.624  32.323  1.00  0.00     0.049 A 
ATOM     35  H   UNL A   1      42.174  31.078  31.204  1.00  0.00     0.167 HD
ATOM     36  C   UNL A   1      40.823  33.503  31.777  1.00  0.00     0.074 A 
ATOM     37  C   UNL A   1      39.782  34.508  31.849  1.00  0.00     0.031 C 
ATOM     38  C   UNL A   1      42.023  33.605  32.396  1.00  0.00     0.031 A 
BRANCH  25  39
ATOM     39  C   UNL A   1      45.677  28.693  31.701  1.00  0.00    -0.014 A 
ATOM     40  C   UNL A   1      45.804  27.910  32.858  1.00  0.00     0.009 A 
ATOM     41  C   UNL A   1      46.763  28.780  30.816  1.00  0.00     0.009 A 
ATOM     42  C   UNL A   1      46.999  27.237  33.126  1.00  0.00     0.001 A 
ATOM     43  C   UNL A   1      47.949  28.089  31.075  1.00  0.00     0.001 A 
ATOM     44  C   UNL A   1      48.066  27.321  32.232  1.00  0.00     0.000 A 
ENDBRANCH  25  39
BRANCH  26  45
ATOM     45  C   UNL A   1      36.771  32.659  29.553  1.00  0.00    -0.014 A 
ATOM     46  C   UNL A   1      36.505  33.362  28.370  1.00  0.00     0.009 A 
ATOM     47  C   UNL A   1      35.745  32.510  30.500  1.00  0.00     0.009 A 
ATOM     48  C   UNL A   1      35.246  33.928  28.153  1.00  0.00     0.001 A 
ATOM     49  C   UNL A   1      34.479  33.049  30.267  1.00  0.00     0.001 A 
ATOM     50  C   UNL A   1      34.234  33.767  29.098  1.00  0.00     0.000 A 
ENDBRANCH  26  45
BRANCH  38  51
ATOM     51  C   UNL A   1      42.269  34.850  33.197  1.00  0.00    -0.014 A 
ATOM     52  C   UNL A   1      41.783  34.969  34.508  1.00  0.00     0.009 A 
ATOM     53  C   UNL A   1      43.014  35.903  32.645  1.00  0.00     0.009 A 
ATOM     54  C   UNL A   1      42.012  36.135  35.241  1.00  0.00     0.001 A 
ATOM     55  C   UNL A   1      43.264  37.055  33.390  1.00  0.00     0.001 A 
ATOM     56  C   UNL A   1      42.756  37.175  34.683  1.00  0.00     0.000 A 
ENDBRANCH  38  51
ENDBRANCH  12  13
ENDBRANCH   5   7
ENDBRANCH   2   3
ENDBRANCH   1   2
BRANCH   1  57
ATOM     57  C   UNL A   1      35.329  23.145  23.381  1.00  0.00     0.117 C 
BRANCH  57  58
ATOM     58  N   UNL A   1      34.695  24.306  23.972  1.00  0.00    -0.354 N 
ATOM     59  C   UNL A   1      33.758  24.404  24.958  1.00  0.00     0.248 C 
ATOM     60  H   UNL A   1      34.990  25.169  23.600  1.00  0.00     0.163 HD
ATOM     61  O   UNL A   1      33.311  25.543  25.146  1.00  0.00    -0.272 OA
BRANCH  59  62
ATOM     62  C   UNL A   1      33.338  23.196  25.846  1.00  0.00     0.228 C 
ATOM     63  C   UNL A   1      32.664  23.749  27.145  1.00  0.00     0.296 C 
ATOM     64  N   UNL A   1      32.385  22.283  25.180  1.00  0.00    -0.333 N 
ATOM     65  N   UNL A   1      31.313  24.338  26.948  1.00  0.00    -0.343 N 
ATOM     66  C   UNL A   1      31.045  22.816  24.927  1.00  0.00     0.180 C 
ATOM     67  C   UNL A   1      30.446  23.372  26.242  1.00  0.00     0.282 C 
ATOM     68  H   UNL A   1      31.393  25.190  26.392  1.00  0.00     0.346 HD
ATOM     69  H   UNL A   1      30.904  24.557  27.856  1.00  0.00     0.346 HD
BRANCH  64  70
ATOM     70  C   UNL A   1      32.639  20.957  24.922  1.00  0.00     0.148 A 
ATOM     71  N   UNL A   1      33.090  20.240  25.985  1.00  0.00    -0.237 NA
ATOM     72  C   UNL A   1      32.412  20.306  23.699  1.00  0.00     0.084 A 
ATOM     73  C   UNL A   1      33.217  18.894  25.880  1.00  0.00     0.126 A 
ATOM     74  C   UNL A   1      32.576  18.918  23.607  1.00  0.00     0.039 A 
ATOM     75  Cl  UNL A   1      31.998  21.116  22.231  1.00  0.00    -0.080 Cl
ATOM     76  C   UNL A   1      32.963  18.183  24.725  1.00  0.00     0.075 A 
BRANCH  76  77
ATOM     77  C   UNL A   1      33.067  16.691  24.714  1.00  0.00     0.417 C 
ATOM     78  F   UNL A   1      32.012  16.083  25.322  1.00  0.00    -0.166 F 
ATOM     79  F   UNL A   1      33.111  16.190  23.450  1.00  0.00    -0.166 F 
ATOM     80  F   UNL A   1      34.182  16.224  25.340  1.00  0.00    -0.166 F 
ENDBRANCH  76  77
ENDBRANCH  64  70
ENDBRANCH  59  62
ENDBRANCH  57  58
ENDBRANCH   1  57
TORSDOF 12
ENDMDL
MODEL 2
REMARK VINA RESULT:     -11.4      3.527      4.587
REMARK SMILES O=C(NCCCNC(=O)[C@H]1C[NH2+]CCN1c1ncc(C(F)(F)F)cc1Cl)c1ccc(-c2c3nc(c(-c4ccccc4)c4ccc([nH]4)c(-c4ccccc4)c4nc(c(-c5ccccc5)c5ccc2[nH]5)C=C4)C=C3)cc1
REMARK SMILES IDX 5 1 4 2 3 3 1 4 2 5 27 7 28 8 74 9 29 10 73 11 30 12 31 13
REMARK SMILES IDX 32 14 67 15 33 16 72 17 66 18 68 19 34 20 71 21 65 22 64 23
REMARK SMILES IDX 35 25 57 26 42 27 56 28 43 29 46 30 55 31 69 32 44 33 45 34
REMARK SMILES IDX 54 36 70 37 47 38 36 39 37 40 41 41 38 42 40 43 39 44 58 45
REMARK SMILES IDX 59 46 63 47 60 48 62 49 61 50 48 51 49 52 53 53 50 54 52 55
REMARK SMILES IDX 51 56 6 57 7 58 8 59 9 61 10 62 11 63 15 64 12 65 14 66
REMARK SMILES IDX 13 67 16 70 17 71 25 72 18 73 24 74 26 75 19 76 20 77 21 78
REMARK SMILES IDX 22 79 23 80
REMARK H PARENT 3 6 68 24 46 35 7 60 12 68 12 69
REMARK Flexibility Score: inf
ROOT
ATOM      1  C   UNL A   1      35.937  22.934  25.697  1.00  0.00     0.042 C 
ENDROOT
BRANCH   1   2
ATOM      2  C   UNL A   1      37.249  23.384  25.066  1.00  0.00     0.118 C 
BRANCH   2   3
ATOM      3  N   UNL A   1      38.366  22.557  25.492  1.00  0.00    -0.352 N 
ATOM      4  O   UNL A   1      40.461  22.134  26.190  1.00  0.00    -0.269 OA
ATOM      5  C   UNL A   1      39.516  22.922  26.141  1.00  0.00     0.251 C 
ATOM      6  H   UNL A   1      38.285  21.598  25.283  1.00  0.00     0.163 HD
BRANCH   5   7
ATOM      7  C   UNL A   1      39.634  24.245  26.794  1.00  0.00     0.039 A 
ATOM      8  C   UNL A   1      39.172  24.451  28.098  1.00  0.00     0.014 A 
ATOM      9  C   UNL A   1      40.313  25.272  26.127  1.00  0.00     0.014 A 
ATOM     10  C   UNL A   1      39.325  25.695  28.705  1.00  0.00     0.010 A 
ATOM     11  C   UNL A   1      40.529  26.498  26.764  1.00  0.00     0.010 A 
ATOM     12  C   UNL A   1      40.041  26.716  28.061  1.00  0.00    -0.014 A 
BRANCH  12  13
ATOM     13  C   UNL A   1      40.405  27.941  28.817  1.00  0.00     0.031 A 
ATOM     14  C   UNL A   1      41.726  28.073  29.515  1.00  0.00     0.074 A 
ATOM     15  C   UNL A   1      39.500  28.939  28.877  1.00  0.00     0.049 A 
ATOM     16  N   UNL A   1      42.181  29.078  30.220  1.00  0.00    -0.248 NA
ATOM     17  C   UNL A   1      42.654  26.936  29.420  1.00  0.00     0.031 C 
ATOM     18  C   UNL A   1      38.171  28.911  28.257  1.00  0.00     0.029 A 
ATOM     19  N   UNL A   1      39.556  30.169  29.480  1.00  0.00    -0.354 N 
ATOM     20  C   UNL A   1      43.438  28.693  30.667  1.00  0.00     0.074 A 
ATOM     21  C   UNL A   1      43.670  27.354  30.165  1.00  0.00     0.031 C 
ATOM     22  C   UNL A   1      37.553  30.079  28.486  1.00  0.00     0.029 A 
ATOM     23  C   UNL A   1      38.412  30.912  29.317  1.00  0.00     0.049 A 
ATOM     24  H   UNL A   1      40.341  30.489  29.982  1.00  0.00     0.167 HD
ATOM     25  C   UNL A   1      44.313  29.394  31.426  1.00  0.00     0.031 A 
ATOM     26  C   UNL A   1      38.074  32.119  29.804  1.00  0.00     0.031 A 
ATOM     27  C   UNL A   1      44.077  30.727  31.917  1.00  0.00     0.049 A 
ATOM     28  C   UNL A   1      39.055  32.852  30.672  1.00  0.00     0.074 A 
ATOM     29  C   UNL A   1      44.934  31.543  32.637  1.00  0.00     0.029 A 
ATOM     30  N   UNL A   1      42.896  31.433  31.755  1.00  0.00    -0.354 N 
ATOM     31  N   UNL A   1      40.269  32.503  31.020  1.00  0.00    -0.248 NA
ATOM     32  C   UNL A   1      38.617  34.144  31.216  1.00  0.00     0.031 C 
ATOM     33  C   UNL A   1      44.250  32.719  32.961  1.00  0.00     0.029 A 
ATOM     34  C   UNL A   1      42.986  32.656  32.399  1.00  0.00     0.049 A 
ATOM     35  H   UNL A   1      42.110  31.113  31.257  1.00  0.00     0.167 HD
ATOM     36  C   UNL A   1      40.742  33.532  31.820  1.00  0.00     0.074 A 
ATOM     37  C   UNL A   1      39.697  34.533  31.879  1.00  0.00     0.031 C 
ATOM     38  C   UNL A   1      41.931  33.634  32.459  1.00  0.00     0.031 A 
BRANCH  25  39
ATOM     39  C   UNL A   1      45.610  28.736  31.801  1.00  0.00    -0.014 A 
ATOM     40  C   UNL A   1      45.732  27.983  32.979  1.00  0.00     0.009 A 
ATOM     41  C   UNL A   1      46.698  28.791  30.914  1.00  0.00     0.009 A 
ATOM     42  C   UNL A   1      46.923  27.310  33.266  1.00  0.00     0.001 A 
ATOM     43  C   UNL A   1      47.879  28.101  31.193  1.00  0.00     0.001 A 
ATOM     44  C   UNL A   1      47.991  27.363  32.371  1.00  0.00     0.000 A 
ENDBRANCH  25  39
BRANCH  26  45
ATOM     45  C   UNL A   1      36.731  32.687  29.524  1.00  0.00    -0.014 A 
ATOM     46  C   UNL A   1      36.503  33.466  28.380  1.00  0.00     0.009 A 
ATOM     47  C   UNL A   1      35.667  32.459  30.413  1.00  0.00     0.009 A 
ATOM     48  C   UNL A   1      35.245  34.027  28.147  1.00  0.00     0.001 A 
ATOM     49  C   UNL A   1      34.403  32.995  30.161  1.00  0.00     0.001 A 
ATOM     50  C   UNL A   1      34.196  33.788  29.034  1.00  0.00     0.000 A 
ENDBRANCH  26  45
BRANCH  38  51
ATOM     51  C   UNL A   1      42.160  34.875  33.270  1.00  0.00    -0.014 A 
ATOM     52  C   UNL A   1      41.603  35.010  34.552  1.00  0.00     0.009 A 
ATOM     53  C   UNL A   1      42.960  35.909  32.760  1.00  0.00     0.009 A 
ATOM     54  C   UNL A   1      41.818  36.173  35.294  1.00  0.00     0.001 A 
ATOM     55  C   UNL A   1      43.194  37.058  33.515  1.00  0.00     0.001 A 
ATOM     56  C   UNL A   1      42.616  37.193  34.777  1.00  0.00     0.000 A 
ENDBRANCH  38  51
ENDBRANCH  12  13
ENDBRANCH   5   7
ENDBRANCH   2   3
ENDBRANCH   1   2
BRANCH   1  57
ATOM     57  C   UNL A   1      34.718  23.739  25.246  1.00  0.00     0.117 C 
BRANCH  57  58
ATOM     58  N   UNL A   1      34.199  23.266  23.979  1.00  0.00    -0.354 N 
ATOM     59  C   UNL A   1      33.630  23.943  22.941  1.00  0.00     0.248 C 
ATOM     60  H   UNL A   1      34.268  22.293  23.845  1.00  0.00     0.163 HD
ATOM     61  O   UNL A   1      33.157  23.230  22.046  1.00  0.00    -0.272 OA
BRANCH  59  62
ATOM     62  C   UNL A   1      33.647  25.497  22.836  1.00  0.00     0.228 C 
ATOM     63  C   UNL A   1      33.277  25.896  21.369  1.00  0.00     0.296 C 
ATOM     64  N   UNL A   1      32.693  26.155  23.753  1.00  0.00    -0.333 N 
ATOM     65  N   UNL A   1      31.853  25.682  21.002  1.00  0.00    -0.343 N 
ATOM     66  C   UNL A   1      31.272  25.955  23.463  1.00  0.00     0.180 C 
ATOM     67  C   UNL A   1      30.977  26.340  21.994  1.00  0.00     0.282 C 
ATOM     68  H   UNL A   1      31.654  24.681  20.987  1.00  0.00     0.346 HD
ATOM     69  H   UNL A   1      31.678  26.080  20.080  1.00  0.00     0.346 HD
BRANCH  64  70
ATOM     70  C   UNL A   1      33.058  27.033  24.745  1.00  0.00     0.148 A 
ATOM     71  N   UNL A   1      33.754  28.122  24.323  1.00  0.00    -0.237 NA
ATOM     72  C   UNL A   1      32.718  26.917  26.103  1.00  0.00     0.084 A 
ATOM     73  C   UNL A   1      34.021  29.126  25.195  1.00  0.00     0.126 A 
ATOM     74  C   UNL A   1      33.029  27.955  26.990  1.00  0.00     0.039 A 
ATOM     75  Cl  UNL A   1      31.984  25.520  26.802  1.00  0.00    -0.080 Cl
ATOM     76  C   UNL A   1      33.673  29.101  26.531  1.00  0.00     0.075 A 
BRANCH  76  77
ATOM     77  C   UNL A   1      33.950  30.280  27.409  1.00  0.00     0.417 C 
ATOM     78  F   UNL A   1      34.413  29.926  28.638  1.00  0.00    -0.166 F 
ATOM     79  F   UNL A   1      34.893  31.104  26.876  1.00  0.00    -0.166 F 
ATOM     80  F   UNL A   1      32.855  31.057  27.628  1.00  0.00    -0.166 F 
ENDBRANCH  76  77
ENDBRANCH  64  70
ENDBRANCH  59  62
ENDBRANCH  57  58
ENDBRANCH   1  57
TORSDOF 12
ENDMDL
MODEL 3
REMARK VINA RESULT:     -11.3      4.653      8.803
REMARK SMILES O=C(NCCCNC(=O)[C@H]1C[NH2+]CCN1c1ncc(C(F)(F)F)cc1Cl)c1ccc(-c2c3nc(c(-c4ccccc4)c4ccc([nH]4)c(-c4ccccc4)c4nc(c(-c5ccccc5)c5ccc2[nH]5)C=C4)C=C3)cc1
REMARK SMILES IDX 5 1 4 2 3 3 1 4 2 5 27 7 28 8 74 9 29 10 73 11 30 12 31 13
REMARK SMILES IDX 32 14 67 15 33 16 72 17 66 18 68 19 34 20 71 21 65 22 64 23
REMARK SMILES IDX 35 25 57 26 42 27 56 28 43 29 46 30 55 31 69 32 44 33 45 34
REMARK SMILES IDX 54 36 70 37 47 38 36 39 37 40 41 41 38 42 40 43 39 44 58 45
REMARK SMILES IDX 59 46 63 47 60 48 62 49 61 50 48 51 49 52 53 53 50 54 52 55
REMARK SMILES IDX 51 56 6 57 7 58 8 59 9 61 10 62 11 63 15 64 12 65 14 66
REMARK SMILES IDX 13 67 16 70 17 71 25 72 18 73 24 74 26 75 19 76 20 77 21 78
REMARK SMILES IDX 22 79 23 80
REMARK H PARENT 3 6 68 24 46 35 7 60 12 68 12 69
REMARK Flexibility Score: inf
ROOT
ATOM      1  C   UNL A   1      32.102  28.830  26.588  1.00  0.00     0.042 C 
ENDROOT
BRANCH   1   2
ATOM      2  C   UNL A   1      33.450  29.068  27.257  1.00  0.00     0.118 C 
BRANCH   2   3
ATOM      3  N   UNL A   1      33.569  30.424  27.767  1.00  0.00    -0.352 N 
ATOM      4  O   UNL A   1      34.393  32.067  29.063  1.00  0.00    -0.269 OA
ATOM      5  C   UNL A   1      34.580  30.987  28.502  1.00  0.00     0.251 C 
ATOM      6  H   UNL A   1      32.817  31.022  27.556  1.00  0.00     0.163 HD
BRANCH   5   7
ATOM      7  C   UNL A   1      35.897  30.321  28.620  1.00  0.00     0.039 A 
ATOM      8  C   UNL A   1      36.827  30.370  27.577  1.00  0.00     0.014 A 
ATOM      9  C   UNL A   1      36.248  29.725  29.837  1.00  0.00     0.014 A 
ATOM     10  C   UNL A   1      38.073  29.767  27.723  1.00  0.00     0.010 A 
ATOM     11  C   UNL A   1      37.525  29.182  30.009  1.00  0.00     0.010 A 
ATOM     12  C   UNL A   1      38.450  29.204  28.953  1.00  0.00    -0.014 A 
BRANCH  12  13
ATOM     13  C   UNL A   1      39.859  28.790  29.165  1.00  0.00     0.031 A 
ATOM     14  C   UNL A   1      40.874  29.722  29.759  1.00  0.00     0.074 A 
ATOM     15  C   UNL A   1      40.216  27.545  28.791  1.00  0.00     0.049 A 
ATOM     16  N   UNL A   1      42.143  29.505  29.998  1.00  0.00    -0.248 NA
ATOM     17  C   UNL A   1      40.415  31.070  30.127  1.00  0.00     0.031 C 
ATOM     18  C   UNL A   1      39.319  26.559  28.178  1.00  0.00     0.029 A 
ATOM     19  N   UNL A   1      41.418  26.891  28.870  1.00  0.00    -0.354 N 
ATOM     20  C   UNL A   1      42.640  30.688  30.526  1.00  0.00     0.074 A 
ATOM     21  C   UNL A   1      41.538  31.628  30.562  1.00  0.00     0.031 C 
ATOM     22  C   UNL A   1      39.994  25.419  27.967  1.00  0.00     0.029 A 
ATOM     23  C   UNL A   1      41.381  25.611  28.370  1.00  0.00     0.049 A 
ATOM     24  H   UNL A   1      42.231  27.299  29.249  1.00  0.00     0.167 HD
ATOM     25  C   UNL A   1      43.900  30.961  30.942  1.00  0.00     0.031 A 
ATOM     26  C   UNL A   1      42.358  24.699  28.224  1.00  0.00     0.031 A 
ATOM     27  C   UNL A   1      44.989  30.020  30.908  1.00  0.00     0.049 A 
ATOM     28  C   UNL A   1      43.750  25.049  28.662  1.00  0.00     0.074 A 
ATOM     29  C   UNL A   1      46.284  30.185  31.370  1.00  0.00     0.029 A 
ATOM     30  N   UNL A   1      44.918  28.745  30.368  1.00  0.00    -0.354 N 
ATOM     31  N   UNL A   1      44.183  26.147  29.230  1.00  0.00    -0.248 NA
ATOM     32  C   UNL A   1      44.787  24.034  28.434  1.00  0.00     0.031 C 
ATOM     33  C   UNL A   1      47.012  29.033  31.057  1.00  0.00     0.029 A 
ATOM     34  C   UNL A   1      46.156  28.131  30.446  1.00  0.00     0.049 A 
ATOM     35  H   UNL A   1      44.108  28.338  29.986  1.00  0.00     0.167 HD
ATOM     36  C   UNL A   1      45.541  25.956  29.432  1.00  0.00     0.074 A 
ATOM     37  C   UNL A   1      45.854  24.624  28.956  1.00  0.00     0.031 C 
ATOM     38  C   UNL A   1      46.452  26.811  29.955  1.00  0.00     0.031 A 
BRANCH  25  39
ATOM     39  C   UNL A   1      44.193  32.343  31.454  1.00  0.00    -0.014 A 
ATOM     40  C   UNL A   1      44.576  33.377  30.586  1.00  0.00     0.009 A 
ATOM     41  C   UNL A   1      43.988  32.636  32.812  1.00  0.00     0.009 A 
ATOM     42  C   UNL A   1      44.761  34.673  31.073  1.00  0.00     0.001 A 
ATOM     43  C   UNL A   1      44.154  33.937  33.292  1.00  0.00     0.001 A 
ATOM     44  C   UNL A   1      44.543  34.954  32.422  1.00  0.00     0.000 A 
ENDBRANCH  25  39
BRANCH  26  45
ATOM     45  C   UNL A   1      42.064  23.388  27.591  1.00  0.00    -0.014 A 
ATOM     46  C   UNL A   1      41.504  22.340  28.335  1.00  0.00     0.009 A 
ATOM     47  C   UNL A   1      42.357  23.176  26.233  1.00  0.00     0.009 A 
ATOM     48  C   UNL A   1      41.268  21.098  27.739  1.00  0.00     0.001 A 
ATOM     49  C   UNL A   1      42.091  21.945  25.633  1.00  0.00     0.001 A 
ATOM     50  C   UNL A   1      41.557  20.903  26.389  1.00  0.00     0.000 A 
ENDBRANCH  26  45
BRANCH  38  51
ATOM     51  C   UNL A   1      47.868  26.323  30.040  1.00  0.00    -0.014 A 
ATOM     52  C   UNL A   1      48.731  26.421  28.938  1.00  0.00     0.009 A 
ATOM     53  C   UNL A   1      48.352  25.782  31.241  1.00  0.00     0.009 A 
ATOM     54  C   UNL A   1      50.045  25.957  29.028  1.00  0.00     0.001 A 
ATOM     55  C   UNL A   1      49.673  25.344  31.335  1.00  0.00     0.001 A 
ATOM     56  C   UNL A   1      50.515  25.423  30.227  1.00  0.00     0.000 A 
ENDBRANCH  38  51
ENDBRANCH  12  13
ENDBRANCH   5   7
ENDBRANCH   2   3
ENDBRANCH   1   2
BRANCH   1  57
ATOM     57  C   UNL A   1      31.432  27.514  26.982  1.00  0.00     0.117 C 
BRANCH  57  58
ATOM     58  N   UNL A   1      32.278  26.373  26.700  1.00  0.00    -0.354 N 
ATOM     59  C   UNL A   1      32.796  25.918  25.523  1.00  0.00     0.248 C 
ATOM     60  H   UNL A   1      32.519  25.835  27.488  1.00  0.00     0.163 HD
ATOM     61  O   UNL A   1      33.374  24.825  25.591  1.00  0.00    -0.272 OA
BRANCH  59  62
ATOM     62  C   UNL A   1      32.748  26.745  24.204  1.00  0.00     0.228 C 
ATOM     63  C   UNL A   1      33.915  26.265  23.278  1.00  0.00     0.296 C 
ATOM     64  N   UNL A   1      31.476  26.595  23.466  1.00  0.00    -0.333 N 
ATOM     65  N   UNL A   1      33.727  24.916  22.682  1.00  0.00    -0.343 N 
ATOM     66  C   UNL A   1      31.217  25.278  22.881  1.00  0.00     0.180 C 
ATOM     67  C   UNL A   1      32.417  24.849  22.002  1.00  0.00     0.282 C 
ATOM     68  H   UNL A   1      33.762  24.212  23.419  1.00  0.00     0.346 HD
ATOM     69  H   UNL A   1      34.468  24.741  22.004  1.00  0.00     0.346 HD
BRANCH  64  70
ATOM     70  C   UNL A   1      30.619  27.633  23.187  1.00  0.00     0.148 A 
ATOM     71  N   UNL A   1      31.202  28.726  22.628  1.00  0.00    -0.237 NA
ATOM     72  C   UNL A   1      29.228  27.614  23.375  1.00  0.00     0.084 A 
ATOM     73  C   UNL A   1      30.425  29.738  22.169  1.00  0.00     0.126 A 
ATOM     74  C   UNL A   1      28.448  28.683  22.917  1.00  0.00     0.039 A 
ATOM     75  Cl  UNL A   1      28.380  26.368  24.217  1.00  0.00    -0.080 Cl
ATOM     76  C   UNL A   1      29.049  29.763  22.275  1.00  0.00     0.075 A 
BRANCH  76  77
ATOM     77  C   UNL A   1      28.263  30.891  21.683  1.00  0.00     0.417 C 
ATOM     78  F   UNL A   1      29.033  31.974  21.390  1.00  0.00    -0.166 F 
ATOM     79  F   UNL A   1      27.657  30.535  20.518  1.00  0.00    -0.166 F 
ATOM     80  F   UNL A   1      27.271  31.342  22.498  1.00  0.00    -0.166 F 
ENDBRANCH  76  77
ENDBRANCH  64  70
ENDBRANCH  59  62
ENDBRANCH  57  58
ENDBRANCH   1  57
TORSDOF 12
ENDMDL
