MODEL 1
REMARK VINA RESULT:     -12.8      0.000      0.000
REMARK SMILES Cc1ccc(C2=NN(C(=O)CCC(=O)NCCCNC(=O)c3ccc(-c4c5nc(c(-c6ccccc6)c6ccc([nH]6)c(-c6ccccc6)c6nc(c(-c7ccccc7)c7ccc4[nH]7)C=C6)C=C5)cc3)[C@H](C[C@@H]3C=c4cccc(C)c4=NC3=O)C2)cc1
REMARK SMILES IDX 13 1 14 2 15 3 12 5 11 6 9 7 10 8 8 9 6 10 7 11 84 12 70 13
REMARK SMILES IDX 5 14 1 15 2 16 3 17 86 18 4 19 85 20 71 21 72 22 73 23 82 24
REMARK SMILES IDX 74 25 81 26 83 27 75 28 80 29 76 30 78 31 77 32 79 33 16 34
REMARK SMILES IDX 17 35 18 36 19 37 20 38 21 40 22 41 23 42 69 43 24 44 68 45
REMARK SMILES IDX 25 46 26 47 27 48 62 49 28 50 67 51 61 52 63 53 29 54 66 55
REMARK SMILES IDX 60 56 59 57 30 59 52 60 37 61 51 62 38 63 41 64 50 65 64 66
REMARK SMILES IDX 39 67 40 68 49 70 65 71 42 72 31 73 32 74 36 75 33 76 35 77
REMARK SMILES IDX 34 78 53 79 54 80 58 81 55 82 57 83 56 84 43 85 44 86 48 87
REMARK SMILES IDX 45 88 47 89 46 90
REMARK H PARENT 15 4 19 39 63 58 41 69
REMARK Flexibility Score: inf
ROOT
ATOM      1  C   UNL A   1      38.950  27.367  30.060  1.00  0.00     0.220 C 
ATOM      2  O   UNL A   1      39.311  27.393  31.242  1.00  0.00    -0.275 OA
ATOM      3  N   UNL A   1      38.389  28.521  29.586  1.00  0.00    -0.356 N 
ATOM      4  H   UNL A   1      38.315  29.211  30.284  1.00  0.00     0.163 HD
ENDROOT
BRANCH   1   5
ATOM      5  C   UNL A   1      39.162  26.092  29.252  1.00  0.00     0.110 C 
BRANCH   5   6
ATOM      6  C   UNL A   1      40.535  25.871  28.655  1.00  0.00     0.112 C 
BRANCH   6   7
ATOM      7  C   UNL A   1      40.394  25.914  27.166  1.00  0.00     0.243 C 
ATOM      8  O   UNL A   1      40.529  26.940  26.511  1.00  0.00    -0.273 OA
BRANCH   7   9
ATOM      9  N   UNL A   1      40.013  24.695  26.655  1.00  0.00    -0.230 N 
ATOM     10  C   UNL A   1      37.814  22.894  26.095  1.00  0.00     0.070 C 
ATOM     11  N   UNL A   1      38.136  24.443  26.424  1.00  0.00    -0.174 NA
ATOM     12  C   UNL A   1      39.388  21.699  26.278  1.00  0.00     0.086 C 
ATOM     13  C   UNL A   1      40.891  22.950  26.503  1.00  0.00     0.118 C 
BRANCH  10  14
ATOM     14  C   UNL A   1      36.791  22.468  25.164  1.00  0.00    -0.002 A 
ATOM     15  C   UNL A   1      32.203  21.277  23.323  1.00  0.00     0.044 C 
ATOM     16  C   UNL A   1      33.543  21.766  23.803  1.00  0.00    -0.051 A 
ATOM     17  C   UNL A   1      34.618  22.838  22.847  1.00  0.00     0.004 A 
ATOM     18  C   UNL A   1      34.078  21.074  25.382  1.00  0.00     0.004 A 
ATOM     19  C   UNL A   1      36.267  23.246  23.500  1.00  0.00     0.010 A 
ATOM     20  C   UNL A   1      35.672  21.409  26.046  1.00  0.00     0.010 A 
ENDBRANCH  10  14
BRANCH  13  21
ATOM     21  C   UNL A   1      41.991  22.588  25.442  1.00  0.00     0.045 C 
BRANCH  21  22
ATOM     22  C   UNL A   1      43.338  22.228  26.063  1.00  0.00     0.106 C 
ATOM     23  C   UNL A   1      43.395  22.871  27.396  1.00  0.00    -0.003 C 
ATOM     24  C   UNL A   1      44.514  22.623  25.155  1.00  0.00     0.253 C 
ATOM     25  C   UNL A   1      44.401  23.607  27.834  1.00  0.00    -0.003 A 
ATOM     26  N   UNL A   1      45.581  23.317  25.685  1.00  0.00    -0.212 NA
ATOM     27  O   UNL A   1      44.499  22.279  23.973  1.00  0.00    -0.272 OA
ATOM     28  C   UNL A   1      44.389  24.176  29.152  1.00  0.00     0.010 A 
ATOM     29  C   UNL A   1      45.537  23.775  26.896  1.00  0.00     0.077 A 
ATOM     30  C   UNL A   1      45.457  24.845  29.589  1.00  0.00     0.001 A 
ATOM     31  C   UNL A   1      46.677  24.563  27.471  1.00  0.00    -0.025 A 
ATOM     32  C   UNL A   1      46.604  25.032  28.732  1.00  0.00     0.005 A 
ATOM     33  C   UNL A   1      47.840  24.808  26.569  1.00  0.00     0.047 C 
ENDBRANCH  21  22
ENDBRANCH  13  21
ENDBRANCH   7   9
ENDBRANCH   6   7
ENDBRANCH   5   6
ENDBRANCH   1   5
BRANCH   3  34
ATOM     34  C   UNL A   1      37.832  29.018  28.202  1.00  0.00     0.117 C 
BRANCH  34  35
ATOM     35  C   UNL A   1      35.837  29.687  27.453  1.00  0.00     0.042 C 
BRANCH  35  36
ATOM     36  C   UNL A   1      35.156  31.438  27.761  1.00  0.00     0.118 C 
BRANCH  36  37
ATOM     37  N   UNL A   1      34.623  32.010  29.260  1.00  0.00    -0.352 N 
ATOM     38  C   UNL A   1      35.281  32.498  30.755  1.00  0.00     0.251 C 
ATOM     39  H   UNL A   1      33.642  32.084  29.274  1.00  0.00     0.163 HD
ATOM     40  O   UNL A   1      34.169  32.763  31.304  1.00  0.00    -0.269 OA
BRANCH  38  41
ATOM     41  C   UNL A   1      37.374  32.612  31.245  1.00  0.00     0.039 A 
ATOM     42  C   UNL A   1      38.545  33.330  30.680  1.00  0.00     0.014 A 
ATOM     43  C   UNL A   1      38.073  31.807  32.336  1.00  0.00     0.014 A 
ATOM     44  C   UNL A   1      39.873  32.871  30.704  1.00  0.00     0.010 A 
ATOM     45  C   UNL A   1      39.208  31.113  32.151  1.00  0.00     0.010 A 
ATOM     46  C   UNL A   1      40.107  31.657  31.293  1.00  0.00    -0.014 A 
BRANCH  46  47
ATOM     47  C   UNL A   1      41.339  30.959  31.462  1.00  0.00     0.031 A 
ATOM     48  C   UNL A   1      41.638  30.080  30.326  1.00  0.00     0.074 A 
ATOM     49  C   UNL A   1      42.110  31.477  32.439  1.00  0.00     0.049 A 
ATOM     50  N   UNL A   1      42.058  28.873  30.430  1.00  0.00    -0.248 NA
ATOM     51  C   UNL A   1      41.288  30.432  28.929  1.00  0.00     0.031 C 
ATOM     52  C   UNL A   1      43.526  31.359  32.718  1.00  0.00     0.029 A 
ATOM     53  N   UNL A   1      41.632  32.192  33.531  1.00  0.00    -0.354 N 
ATOM     54  C   UNL A   1      42.512  28.574  29.164  1.00  0.00     0.074 A 
ATOM     55  C   UNL A   1      41.745  29.379  28.256  1.00  0.00     0.031 C 
ATOM     56  C   UNL A   1      43.729  31.680  34.016  1.00  0.00     0.029 A 
ATOM     57  C   UNL A   1      42.434  31.942  34.642  1.00  0.00     0.049 A 
ATOM     58  H   UNL A   1      40.845  32.783  33.520  1.00  0.00     0.167 HD
ATOM     59  C   UNL A   1      43.761  28.052  29.024  1.00  0.00     0.031 A 
ATOM     60  C   UNL A   1      41.865  31.174  35.623  1.00  0.00     0.031 A 
ATOM     61  C   UNL A   1      44.434  28.001  30.327  1.00  0.00     0.049 A 
ATOM     62  C   UNL A   1      42.216  29.696  35.474  1.00  0.00     0.074 A 
ATOM     63  C   UNL A   1      45.404  28.780  30.937  1.00  0.00     0.029 A 
ATOM     64  N   UNL A   1      43.798  27.334  31.357  1.00  0.00    -0.354 N 
ATOM     65  N   UNL A   1      42.982  29.199  34.541  1.00  0.00    -0.248 NA
ATOM     66  C   UNL A   1      41.646  28.661  36.333  1.00  0.00     0.031 C 
ATOM     67  C   UNL A   1      45.325  28.562  32.352  1.00  0.00     0.029 A 
ATOM     68  C   UNL A   1      44.311  27.655  32.596  1.00  0.00     0.049 A 
ATOM     69  H   UNL A   1      43.059  26.699  31.221  1.00  0.00     0.167 HD
ATOM     70  C   UNL A   1      42.990  27.834  34.622  1.00  0.00     0.074 A 
ATOM     71  C   UNL A   1      42.118  27.545  35.752  1.00  0.00     0.031 C 
ATOM     72  C   UNL A   1      43.679  27.033  33.753  1.00  0.00     0.031 A 
BRANCH  59  73
ATOM     73  C   UNL A   1      44.450  27.904  27.699  1.00  0.00    -0.014 A 
ATOM     74  C   UNL A   1      45.678  28.547  27.494  1.00  0.00     0.009 A 
ATOM     75  C   UNL A   1      43.975  27.105  26.639  1.00  0.00     0.009 A 
ATOM     76  C   UNL A   1      46.375  28.437  26.287  1.00  0.00     0.001 A 
ATOM     77  C   UNL A   1      44.649  27.022  25.414  1.00  0.00     0.001 A 
ATOM     78  C   UNL A   1      45.854  27.687  25.241  1.00  0.00     0.000 A 
ENDBRANCH  59  73
BRANCH  60  79
ATOM     79  C   UNL A   1      40.494  31.670  35.988  1.00  0.00    -0.014 A 
ATOM     80  C   UNL A   1      39.383  30.858  35.677  1.00  0.00     0.009 A 
ATOM     81  C   UNL A   1      40.324  32.692  36.936  1.00  0.00     0.009 A 
ATOM     82  C   UNL A   1      38.177  30.990  36.375  1.00  0.00     0.001 A 
ATOM     83  C   UNL A   1      39.113  32.825  37.628  1.00  0.00     0.001 A 
ATOM     84  C   UNL A   1      38.051  31.959  37.365  1.00  0.00     0.000 A 
ENDBRANCH  60  79
BRANCH  72  85
ATOM     85  C   UNL A   1      43.750  25.530  33.886  1.00  0.00    -0.014 A 
ATOM     86  C   UNL A   1      43.066  24.832  34.885  1.00  0.00     0.009 A 
ATOM     87  C   UNL A   1      44.611  24.764  33.068  1.00  0.00     0.009 A 
ATOM     88  C   UNL A   1      43.131  23.438  34.973  1.00  0.00     0.001 A 
ATOM     89  C   UNL A   1      44.703  23.378  33.164  1.00  0.00     0.001 A 
ATOM     90  C   UNL A   1      43.938  22.710  34.103  1.00  0.00     0.000 A 
ENDBRANCH  72  85
ENDBRANCH  46  47
ENDBRANCH  38  41
ENDBRANCH  36  37
ENDBRANCH  35  36
ENDBRANCH  34  35
ENDBRANCH   3  34
TORSDOF 16
ENDMDL
MODEL 2
REMARK VINA RESULT:     -11.7      4.465      9.215
REMARK SMILES Cc1ccc(C2=NN(C(=O)CCC(=O)NCCCNC(=O)c3ccc(-c4c5nc(c(-c6ccccc6)c6ccc([nH]6)c(-c6ccccc6)c6nc(c(-c7ccccc7)c7ccc4[nH]7)C=C6)C=C5)cc3)[C@H](C[C@@H]3C=c4cccc(C)c4=NC3=O)C2)cc1
REMARK SMILES IDX 13 1 14 2 15 3 12 5 11 6 9 7 10 8 8 9 6 10 7 11 84 12 70 13
REMARK SMILES IDX 5 14 1 15 2 16 3 17 86 18 4 19 85 20 71 21 72 22 73 23 82 24
REMARK SMILES IDX 74 25 81 26 83 27 75 28 80 29 76 30 78 31 77 32 79 33 16 34
REMARK SMILES IDX 17 35 18 36 19 37 20 38 21 40 22 41 23 42 69 43 24 44 68 45
REMARK SMILES IDX 25 46 26 47 27 48 62 49 28 50 67 51 61 52 63 53 29 54 66 55
REMARK SMILES IDX 60 56 59 57 30 59 52 60 37 61 51 62 38 63 41 64 50 65 64 66
REMARK SMILES IDX 39 67 40 68 49 70 65 71 42 72 31 73 32 74 36 75 33 76 35 77
REMARK SMILES IDX 34 78 53 79 54 80 58 81 55 82 57 83 56 84 43 85 44 86 48 87
REMARK SMILES IDX 45 88 47 89 46 90
REMARK H PARENT 15 4 19 39 63 58 41 69
REMARK Flexibility Score: inf
ROOT
ATOM      1  C   UNL A   1      48.780  26.748  32.221  1.00  0.00     0.220 C 
ATOM      2  O   UNL A   1      48.728  27.952  32.498  1.00  0.00    -0.275 OA
ATOM      3  N   UNL A   1      49.605  25.994  33.010  1.00  0.00    -0.356 N 
ATOM      4  H   UNL A   1      50.081  26.540  33.677  1.00  0.00     0.163 HD
ENDROOT
BRANCH   1   5
ATOM      5  C   UNL A   1      47.941  26.220  31.064  1.00  0.00     0.110 C 
BRANCH   5   6
ATOM      6  C   UNL A   1      47.388  27.237  30.088  1.00  0.00     0.112 C 
BRANCH   6   7
ATOM      7  C   UNL A   1      48.074  27.025  28.776  1.00  0.00     0.243 C 
ATOM      8  O   UNL A   1      49.283  27.147  28.626  1.00  0.00    -0.273 OA
BRANCH   7   9
ATOM      9  N   UNL A   1      47.175  26.771  27.767  1.00  0.00    -0.230 N 
ATOM     10  C   UNL A   1      46.086  24.797  25.947  1.00  0.00     0.070 C 
ATOM     11  N   UNL A   1      46.934  24.932  27.315  1.00  0.00    -0.174 NA
ATOM     12  C   UNL A   1      45.776  26.529  25.029  1.00  0.00     0.086 C 
ATOM     13  C   UNL A   1      46.380  27.861  26.346  1.00  0.00     0.118 C 
BRANCH  10  14
ATOM     14  C   UNL A   1      45.100  23.763  25.713  1.00  0.00    -0.002 A 
ATOM     15  C   UNL A   1      43.000  19.141  25.427  1.00  0.00     0.044 C 
ATOM     16  C   UNL A   1      43.553  20.523  25.647  1.00  0.00    -0.051 A 
ATOM     17  C   UNL A   1      42.651  21.845  26.457  1.00  0.00     0.004 A 
ATOM     18  C   UNL A   1      45.171  20.816  24.900  1.00  0.00     0.004 A 
ATOM     19  C   UNL A   1      43.398  23.503  26.540  1.00  0.00     0.010 A 
ATOM     20  C   UNL A   1      45.925  22.405  24.923  1.00  0.00     0.010 A 
ENDBRANCH  10  14
BRANCH  13  21
ATOM     21  C   UNL A   1      45.222  28.902  26.555  1.00  0.00     0.045 C 
BRANCH  21  22
ATOM     22  C   UNL A   1      45.563  29.994  27.565  1.00  0.00     0.106 C 
ATOM     23  C   UNL A   1      44.386  30.162  28.448  1.00  0.00    -0.003 C 
ATOM     24  C   UNL A   1      45.989  31.302  26.876  1.00  0.00     0.253 C 
ATOM     25  C   UNL A   1      43.819  31.321  28.735  1.00  0.00    -0.003 A 
ATOM     26  N   UNL A   1      45.427  32.496  27.276  1.00  0.00    -0.212 NA
ATOM     27  O   UNL A   1      46.855  31.263  26.002  1.00  0.00    -0.272 OA
ATOM     28  C   UNL A   1      42.693  31.400  29.621  1.00  0.00     0.010 A 
ATOM     29  C   UNL A   1      44.437  32.515  28.111  1.00  0.00     0.077 A 
ATOM     30  C   UNL A   1      42.199  32.594  29.951  1.00  0.00     0.001 A 
ATOM     31  C   UNL A   1      43.796  33.807  28.526  1.00  0.00    -0.025 A 
ATOM     32  C   UNL A   1      42.764  33.799  29.392  1.00  0.00     0.005 A 
ATOM     33  C   UNL A   1      44.339  35.051  27.905  1.00  0.00     0.047 C 
ENDBRANCH  21  22
ENDBRANCH  13  21
ENDBRANCH   7   9
ENDBRANCH   6   7
ENDBRANCH   5   6
ENDBRANCH   1   5
BRANCH   3  34
ATOM     34  C   UNL A   1      49.980  24.472  33.116  1.00  0.00     0.117 C 
BRANCH  34  35
ATOM     35  C   UNL A   1      50.681  23.130  34.759  1.00  0.00     0.042 C 
BRANCH  35  36
ATOM     36  C   UNL A   1      51.029  21.278  34.499  1.00  0.00     0.118 C 
BRANCH  36  37
ATOM     37  N   UNL A   1      49.875  20.145  34.004  1.00  0.00    -0.352 N 
ATOM     38  C   UNL A   1      48.179  19.990  33.929  1.00  0.00     0.251 C 
ATOM     39  H   UNL A   1      50.312  19.334  33.656  1.00  0.00     0.163 HD
ATOM     40  O   UNL A   1      48.180  18.822  33.434  1.00  0.00    -0.269 OA
BRANCH  38  41
ATOM     41  C   UNL A   1      46.741  21.491  34.483  1.00  0.00     0.039 A 
ATOM     42  C   UNL A   1      45.304  21.478  34.861  1.00  0.00     0.014 A 
ATOM     43  C   UNL A   1      46.990  22.996  34.493  1.00  0.00     0.014 A 
ATOM     44  C   UNL A   1      44.385  22.512  34.614  1.00  0.00     0.010 A 
ATOM     45  C   UNL A   1      46.179  23.900  33.918  1.00  0.00     0.010 A 
ATOM     46  C   UNL A   1      44.852  23.625  33.965  1.00  0.00    -0.014 A 
BRANCH  46  47
ATOM     47  C   UNL A   1      44.154  24.812  33.594  1.00  0.00     0.031 A 
ATOM     48  C   UNL A   1      44.106  24.994  32.138  1.00  0.00     0.074 A 
ATOM     49  C   UNL A   1      43.423  25.332  34.600  1.00  0.00     0.049 A 
ATOM     50  N   UNL A   1      44.337  26.101  31.535  1.00  0.00    -0.248 NA
ATOM     51  C   UNL A   1      43.984  23.857  31.194  1.00  0.00     0.031 C 
ATOM     52  C   UNL A   1      42.312  26.260  34.609  1.00  0.00     0.029 A 
ATOM     53  N   UNL A   1      43.696  25.153  35.951  1.00  0.00    -0.354 N 
ATOM     54  C   UNL A   1      43.856  25.887  30.262  1.00  0.00     0.074 A 
ATOM     55  C   UNL A   1      43.967  24.477  30.016  1.00  0.00     0.031 C 
ATOM     56  C   UNL A   1      42.223  26.801  35.844  1.00  0.00     0.029 A 
ATOM     57  C   UNL A   1      43.328  26.295  36.658  1.00  0.00     0.049 A 
ATOM     58  H   UNL A   1      44.090  24.343  36.347  1.00  0.00     0.167 HD
ATOM     59  C   UNL A   1      43.004  26.801  29.723  1.00  0.00     0.031 A 
ATOM     60  C   UNL A   1      44.362  27.055  37.138  1.00  0.00     0.031 A 
ATOM     61  C   UNL A   1      42.687  27.838  30.712  1.00  0.00     0.049 A 
ATOM     62  C   UNL A   1      44.734  28.188  36.186  1.00  0.00     0.074 A 
ATOM     63  C   UNL A   1      41.594  28.085  31.526  1.00  0.00     0.029 A 
ATOM     64  N   UNL A   1      43.740  28.518  31.294  1.00  0.00    -0.354 N 
ATOM     65  N   UNL A   1      44.140  28.438  35.051  1.00  0.00    -0.248 NA
ATOM     66  C   UNL A   1      45.875  29.071  36.421  1.00  0.00     0.031 C 
ATOM     67  C   UNL A   1      42.025  28.924  32.606  1.00  0.00     0.029 A 
ATOM     68  C   UNL A   1      43.373  29.183  32.445  1.00  0.00     0.049 A 
ATOM     69  H   UNL A   1      44.653  28.527  30.927  1.00  0.00     0.167 HD
ATOM     70  C   UNL A   1      44.796  29.440  34.392  1.00  0.00     0.074 A 
ATOM     71  C   UNL A   1      45.891  29.790  35.286  1.00  0.00     0.031 C 
ATOM     72  C   UNL A   1      44.425  29.898  33.157  1.00  0.00     0.031 A 
BRANCH  59  73
ATOM     73  C   UNL A   1      42.238  26.567  28.454  1.00  0.00    -0.014 A 
ATOM     74  C   UNL A   1      41.005  25.902  28.514  1.00  0.00     0.009 A 
ATOM     75  C   UNL A   1      42.643  27.023  27.183  1.00  0.00     0.009 A 
ATOM     76  C   UNL A   1      40.238  25.665  27.369  1.00  0.00     0.001 A 
ATOM     77  C   UNL A   1      41.899  26.756  26.027  1.00  0.00     0.001 A 
ATOM     78  C   UNL A   1      40.691  26.079  26.123  1.00  0.00     0.000 A 
ENDBRANCH  59  73
BRANCH  60  79
ATOM     79  C   UNL A   1      45.373  26.214  37.865  1.00  0.00    -0.014 A 
ATOM     80  C   UNL A   1      45.012  25.662  39.113  1.00  0.00     0.009 A 
ATOM     81  C   UNL A   1      46.476  25.663  37.192  1.00  0.00     0.009 A 
ATOM     82  C   UNL A   1      45.659  24.526  39.612  1.00  0.00     0.001 A 
ATOM     83  C   UNL A   1      47.125  24.530  37.698  1.00  0.00     0.001 A 
ATOM     84  C   UNL A   1      46.701  23.949  38.894  1.00  0.00     0.000 A 
ENDBRANCH  60  79
BRANCH  72  85
ATOM     85  C   UNL A   1      45.102  31.055  32.461  1.00  0.00    -0.014 A 
ATOM     86  C   UNL A   1      46.217  30.886  31.634  1.00  0.00     0.009 A 
ATOM     87  C   UNL A   1      44.706  32.389  32.708  1.00  0.00     0.009 A 
ATOM     88  C   UNL A   1      46.812  31.972  30.985  1.00  0.00     0.001 A 
ATOM     89  C   UNL A   1      45.308  33.480  32.086  1.00  0.00     0.001 A 
ATOM     90  C   UNL A   1      46.347  33.267  31.199  1.00  0.00     0.000 A 
ENDBRANCH  72  85
ENDBRANCH  46  47
ENDBRANCH  38  41
ENDBRANCH  36  37
ENDBRANCH  35  36
ENDBRANCH  34  35
ENDBRANCH   3  34
TORSDOF 16
ENDMDL
MODEL 3
REMARK VINA RESULT:     -11.5      3.531     11.203
REMARK SMILES Cc1ccc(C2=NN(C(=O)CCC(=O)NCCCNC(=O)c3ccc(-c4c5nc(c(-c6ccccc6)c6ccc([nH]6)c(-c6ccccc6)c6nc(c(-c7ccccc7)c7ccc4[nH]7)C=C6)C=C5)cc3)[C@H](C[C@@H]3C=c4cccc(C)c4=NC3=O)C2)cc1
REMARK SMILES IDX 13 1 14 2 15 3 12 5 11 6 9 7 10 8 8 9 6 10 7 11 84 12 70 13
REMARK SMILES IDX 5 14 1 15 2 16 3 17 86 18 4 19 85 20 71 21 72 22 73 23 82 24
REMARK SMILES IDX 74 25 81 26 83 27 75 28 80 29 76 30 78 31 77 32 79 33 16 34
REMARK SMILES IDX 17 35 18 36 19 37 20 38 21 40 22 41 23 42 69 43 24 44 68 45
REMARK SMILES IDX 25 46 26 47 27 48 62 49 28 50 67 51 61 52 63 53 29 54 66 55
REMARK SMILES IDX 60 56 59 57 30 59 52 60 37 61 51 62 38 63 41 64 50 65 64 66
REMARK SMILES IDX 39 67 40 68 49 70 65 71 42 72 31 73 32 74 36 75 33 76 35 77
REMARK SMILES IDX 34 78 53 79 54 80 58 81 55 82 57 83 56 84 43 85 44 86 48 87
REMARK SMILES IDX 45 88 47 89 46 90
REMARK H PARENT 15 4 19 39 63 58 41 69
REMARK Flexibility Score: inf
ROOT
ATOM      1  C   UNL A   1      42.862  36.681  38.120  1.00  0.00     0.220 C 
ATOM      2  O   UNL A   1      42.169  37.304  38.933  1.00  0.00    -0.275 OA
ATOM      3  N   UNL A   1      44.084  36.268  38.576  1.00  0.00    -0.356 N 
ATOM      4  H   UNL A   1      44.256  36.568  39.498  1.00  0.00     0.163 HD
ENDROOT
BRANCH   1   5
ATOM      5  C   UNL A   1      42.310  36.427  36.722  1.00  0.00     0.110 C 
BRANCH   5   6
ATOM      6  C   UNL A   1      41.100  35.525  36.609  1.00  0.00     0.112 C 
BRANCH   6   7
ATOM      7  C   UNL A   1      41.570  34.197  36.107  1.00  0.00     0.243 C 
ATOM      8  O   UNL A   1      42.350  33.485  36.727  1.00  0.00    -0.273 OA
BRANCH   7   9
ATOM      9  N   UNL A   1      41.091  33.931  34.845  1.00  0.00    -0.230 N 
ATOM     10  C   UNL A   1      41.483  34.269  31.995  1.00  0.00     0.070 C 
ATOM     11  N   UNL A   1      42.266  34.360  33.404  1.00  0.00    -0.174 NA
ATOM     12  C   UNL A   1      39.526  34.001  32.189  1.00  0.00     0.086 C 
ATOM     13  C   UNL A   1      39.303  33.620  34.107  1.00  0.00     0.118 C 
BRANCH  10  14
ATOM     14  C   UNL A   1      42.080  33.767  30.776  1.00  0.00    -0.002 A 
ATOM     15  C   UNL A   1      44.737  33.679  26.440  1.00  0.00     0.044 C 
ATOM     16  C   UNL A   1      44.074  33.645  27.792  1.00  0.00    -0.051 A 
ATOM     17  C   UNL A   1      44.328  32.344  28.999  1.00  0.00     0.004 A 
ATOM     18  C   UNL A   1      42.866  34.959  28.072  1.00  0.00     0.004 A 
ATOM     19  C   UNL A   1      43.360  32.368  30.541  1.00  0.00     0.010 A 
ATOM     20  C   UNL A   1      41.882  35.014  29.529  1.00  0.00     0.010 A 
ENDBRANCH  10  14
BRANCH  13  21
ATOM     21  C   UNL A   1      38.494  32.281  34.249  1.00  0.00     0.045 C 
BRANCH  21  22
ATOM     22  C   UNL A   1      36.983  32.490  34.326  1.00  0.00     0.106 C 
ATOM     23  C   UNL A   1      36.471  32.523  32.937  1.00  0.00    -0.003 C 
ATOM     24  C   UNL A   1      36.618  33.748  35.132  1.00  0.00     0.253 C 
ATOM     25  C   UNL A   1      35.673  33.459  32.452  1.00  0.00    -0.003 A 
ATOM     26  N   UNL A   1      35.713  34.649  34.615  1.00  0.00    -0.212 NA
ATOM     27  O   UNL A   1      37.116  33.910  36.247  1.00  0.00    -0.272 OA
ATOM     28  C   UNL A   1      35.200  33.405  31.098  1.00  0.00     0.010 A 
ATOM     29  C   UNL A   1      35.284  34.533  33.398  1.00  0.00     0.077 A 
ATOM     30  C   UNL A   1      34.332  34.322  30.668  1.00  0.00     0.001 A 
ATOM     31  C   UNL A   1      34.325  35.528  32.813  1.00  0.00    -0.025 A 
ATOM     32  C   UNL A   1      33.899  35.386  31.542  1.00  0.00     0.005 A 
ATOM     33  C   UNL A   1      33.920  36.662  33.694  1.00  0.00     0.047 C 
ENDBRANCH  21  22
ENDBRANCH  13  21
ENDBRANCH   7   9
ENDBRANCH   6   7
ENDBRANCH   5   6
ENDBRANCH   1   5
BRANCH   3  34
ATOM     34  C   UNL A   1      45.281  35.432  37.993  1.00  0.00     0.117 C 
BRANCH  34  35
ATOM     35  C   UNL A   1      45.708  34.444  36.036  1.00  0.00     0.042 C 
BRANCH  35  36
ATOM     36  C   UNL A   1      45.477  32.576  35.753  1.00  0.00     0.118 C 
BRANCH  36  37
ATOM     37  N   UNL A   1      44.922  31.490  36.925  1.00  0.00    -0.352 N 
ATOM     38  C   UNL A   1      43.736  30.277  37.090  1.00  0.00     0.251 C 
ATOM     39  H   UNL A   1      45.435  31.587  37.759  1.00  0.00     0.163 HD
ATOM     40  O   UNL A   1      44.016  29.988  38.293  1.00  0.00    -0.269 OA
BRANCH  38  41
ATOM     41  C   UNL A   1      42.391  29.597  35.554  1.00  0.00     0.039 A 
ATOM     42  C   UNL A   1      41.792  28.288  35.189  1.00  0.00     0.014 A 
ATOM     43  C   UNL A   1      41.845  30.451  34.414  1.00  0.00     0.014 A 
ATOM     44  C   UNL A   1      41.446  27.882  33.889  1.00  0.00     0.010 A 
ATOM     45  C   UNL A   1      41.866  30.087  33.121  1.00  0.00     0.010 A 
ATOM     46  C   UNL A   1      41.687  28.766  32.870  1.00  0.00    -0.014 A 
BRANCH  46  47
ATOM     47  C   UNL A   1      41.435  28.624  31.474  1.00  0.00     0.031 A 
ATOM     48  C   UNL A   1      40.017  28.807  31.145  1.00  0.00     0.074 A 
ATOM     49  C   UNL A   1      42.556  28.674  30.727  1.00  0.00     0.049 A 
ATOM     50  N   UNL A   1      39.348  28.049  30.357  1.00  0.00    -0.248 NA
ATOM     51  C   UNL A   1      39.151  29.778  31.857  1.00  0.00     0.031 C 
ATOM     52  C   UNL A   1      42.769  28.940  29.320  1.00  0.00     0.029 A 
ATOM     53  N   UNL A   1      43.826  28.336  31.180  1.00  0.00    -0.354 N 
ATOM     54  C   UNL A   1      38.209  28.777  30.091  1.00  0.00     0.074 A 
ATOM     55  C   UNL A   1      37.985  29.616  31.235  1.00  0.00     0.031 C 
ATOM     56  C   UNL A   1      43.980  28.449  28.975  1.00  0.00     0.029 A 
ATOM     57  C   UNL A   1      44.561  27.778  30.137  1.00  0.00     0.049 A 
ATOM     58  H   UNL A   1      44.154  28.470  32.098  1.00  0.00     0.167 HD
ATOM     59  C   UNL A   1      37.833  28.953  28.795  1.00  0.00     0.031 A 
ATOM     60  C   UNL A   1      44.794  26.431  30.231  1.00  0.00     0.031 A 
ATOM     61  C   UNL A   1      38.835  28.370  27.897  1.00  0.00     0.049 A 
ATOM     62  C   UNL A   1      43.755  25.612  29.472  1.00  0.00     0.074 A 
ATOM     63  C   UNL A   1      39.852  28.901  27.120  1.00  0.00     0.029 A 
ATOM     64  N   UNL A   1      39.168  27.040  28.076  1.00  0.00    -0.354 N 
ATOM     65  N   UNL A   1      42.760  26.112  28.789  1.00  0.00    -0.248 NA
ATOM     66  C   UNL A   1      43.723  24.151  29.508  1.00  0.00     0.031 C 
ATOM     67  C   UNL A   1      40.795  27.856  26.845  1.00  0.00     0.029 A 
ATOM     68  C   UNL A   1      40.350  26.698  27.454  1.00  0.00     0.049 A 
ATOM     69  H   UNL A   1      38.619  26.406  28.590  1.00  0.00     0.167 HD
ATOM     70  C   UNL A   1      41.952  25.105  28.338  1.00  0.00     0.074 A 
ATOM     71  C   UNL A   1      42.589  23.894  28.835  1.00  0.00     0.031 C 
ATOM     72  C   UNL A   1      40.808  25.325  27.619  1.00  0.00     0.031 A 
BRANCH  59  73
ATOM     73  C   UNL A   1      36.757  29.909  28.371  1.00  0.00    -0.014 A 
ATOM     74  C   UNL A   1      35.509  29.403  27.983  1.00  0.00     0.009 A 
ATOM     75  C   UNL A   1      36.888  31.313  28.386  1.00  0.00     0.009 A 
ATOM     76  C   UNL A   1      34.462  30.243  27.591  1.00  0.00     0.001 A 
ATOM     77  C   UNL A   1      35.856  32.158  27.957  1.00  0.00     0.001 A 
ATOM     78  C   UNL A   1      34.639  31.620  27.563  1.00  0.00     0.000 A 
ENDBRANCH  59  73
BRANCH  60  79
ATOM     79  C   UNL A   1      45.320  26.055  31.588  1.00  0.00    -0.014 A 
ATOM     80  C   UNL A   1      44.540  25.200  32.396  1.00  0.00     0.009 A 
ATOM     81  C   UNL A   1      46.680  26.207  31.904  1.00  0.00     0.009 A 
ATOM     82  C   UNL A   1      45.126  24.436  33.411  1.00  0.00     0.001 A 
ATOM     83  C   UNL A   1      47.262  25.445  32.926  1.00  0.00     0.001 A 
ATOM     84  C   UNL A   1      46.491  24.544  33.660  1.00  0.00     0.000 A 
ENDBRANCH  60  79
BRANCH  72  85
ATOM     85  C   UNL A   1      39.955  24.213  27.057  1.00  0.00    -0.014 A 
ATOM     86  C   UNL A   1      40.446  22.921  26.847  1.00  0.00     0.009 A 
ATOM     87  C   UNL A   1      38.639  24.460  26.605  1.00  0.00     0.009 A 
ATOM     88  C   UNL A   1      39.628  21.904  26.345  1.00  0.00     0.001 A 
ATOM     89  C   UNL A   1      37.824  23.460  26.079  1.00  0.00     0.001 A 
ATOM     90  C   UNL A   1      38.312  22.171  25.976  1.00  0.00     0.000 A 
ENDBRANCH  72  85
ENDBRANCH  46  47
ENDBRANCH  38  41
ENDBRANCH  36  37
ENDBRANCH  35  36
ENDBRANCH  34  35
ENDBRANCH   3  34
TORSDOF 16
ENDMDL
