MODEL 1
REMARK VINA RESULT:     -12.3      0.000      0.000
REMARK SMILES O=C(Cn1c2ccccc2c(=O)c2ccccc21)N[C@@H](Cc1ccccc1)C(=O)NCCCNC(=O)c1ccc(-c2c3nc(c(-c4ccccc4)c4ccc([nH]4)c(-c4ccccc4)c4nc(c(-c5ccccc5)c5ccc2[nH]5)C=C4)C=C3)cc1
REMARK SMILES IDX 31 1 30 2 28 3 29 4 20 6 19 7 1 8 2 9 3 11 4 12 5 13 18 14
REMARK SMILES IDX 6 15 10 16 13 17 17 18 7 19 9 20 11 21 14 22 16 23 8 24
REMARK SMILES IDX 12 25 15 26 21 27 22 28 23 29 27 30 24 31 26 32 25 33 32 34
REMARK SMILES IDX 33 35 34 36 35 37 36 39 37 40 38 41 84 42 39 43 83 44 40 45
REMARK SMILES IDX 41 46 42 47 77 48 43 49 82 50 76 51 78 52 44 53 81 54 75 55
REMARK SMILES IDX 74 56 45 58 67 59 52 60 66 61 53 62 56 63 65 64 79 65 54 66
REMARK SMILES IDX 55 67 64 69 80 70 57 71 46 72 47 73 51 74 48 75 50 76 49 77
REMARK SMILES IDX 68 78 69 79 73 80 70 81 72 82 71 83 58 84 59 85 63 86 60 87
REMARK SMILES IDX 62 88 61 89
REMARK H PARENT 30 5 19 10 34 38 78 57 56 68
REMARK Flexibility Score: inf
ROOT
ATOM      1  C   UNL A   1      31.504  27.852  26.305  1.00  0.00     0.117 C 
ENDROOT
BRANCH   1   2
ATOM      2  N   UNL A   1      30.638  26.767  26.721  1.00  0.00    -0.354 N 
ATOM      3  C   UNL A   1      30.179  25.716  25.979  1.00  0.00     0.242 C 
ATOM      4  O   UNL A   1      29.989  24.653  26.578  1.00  0.00    -0.273 OA
ATOM      5  H   UNL A   1      30.344  26.790  27.659  1.00  0.00     0.163 HD
BRANCH   3   6
ATOM      6  C   UNL A   1      29.997  25.809  24.449  1.00  0.00     0.175 C 
BRANCH   6   7
ATOM      7  N   UNL A   1      30.391  24.557  23.785  1.00  0.00    -0.342 N 
ATOM      8  O   UNL A   1      31.573  25.568  22.100  1.00  0.00    -0.273 OA
ATOM      9  C   UNL A   1      31.298  24.557  22.745  1.00  0.00     0.240 C 
ATOM     10  H   UNL A   1      30.001  23.706  24.086  1.00  0.00     0.164 HD
BRANCH   9  11
ATOM     11  C   UNL A   1      31.923  23.197  22.398  1.00  0.00     0.222 C 
BRANCH  11  12
ATOM     12  N   UNL A   1      32.729  22.621  23.512  1.00  0.00    -0.331 N 
ATOM     13  C   UNL A   1      32.843  21.215  23.651  1.00  0.00     0.053 A 
ATOM     14  C   UNL A   1      33.542  23.524  24.260  1.00  0.00     0.053 A 
ATOM     15  C   UNL A   1      32.096  20.280  22.914  1.00  0.00     0.027 A 
ATOM     16  C   UNL A   1      33.751  20.673  24.587  1.00  0.00     0.046 A 
ATOM     17  C   UNL A   1      34.433  23.029  25.233  1.00  0.00     0.046 A 
ATOM     18  C   UNL A   1      33.534  24.921  24.091  1.00  0.00     0.027 A 
ATOM     19  C   UNL A   1      32.278  18.895  23.066  1.00  0.00     0.002 A 
ATOM     20  C   UNL A   1      33.935  19.288  24.746  1.00  0.00     0.014 A 
ATOM     21  C   UNL A   1      34.527  21.576  25.456  1.00  0.00     0.197 A 
ATOM     22  C   UNL A   1      35.256  23.871  26.001  1.00  0.00     0.014 A 
ATOM     23  C   UNL A   1      34.353  25.768  24.855  1.00  0.00     0.002 A 
ATOM     24  C   UNL A   1      33.203  18.399  23.975  1.00  0.00     0.001 A 
ATOM     25  O   UNL A   1      35.220  21.125  26.364  1.00  0.00    -0.288 OA
ATOM     26  C   UNL A   1      35.213  25.245  25.811  1.00  0.00     0.001 A 
ENDBRANCH  11  12
ENDBRANCH   9  11
ENDBRANCH   6   7
BRANCH   6  27
ATOM     27  C   UNL A   1      28.668  26.452  24.000  1.00  0.00     0.070 C 
BRANCH  27  28
ATOM     28  C   UNL A   1      28.690  27.820  23.358  1.00  0.00    -0.045 A 
ATOM     29  C   UNL A   1      29.893  28.379  22.910  1.00  0.00     0.004 A 
ATOM     30  C   UNL A   1      27.506  28.559  23.206  1.00  0.00     0.004 A 
ATOM     31  C   UNL A   1      29.906  29.627  22.280  1.00  0.00     0.000 A 
ATOM     32  C   UNL A   1      27.516  29.794  22.551  1.00  0.00     0.000 A 
ATOM     33  C   UNL A   1      28.715  30.325  22.082  1.00  0.00     0.000 A 
ENDBRANCH  27  28
ENDBRANCH   6  27
ENDBRANCH   3   6
ENDBRANCH   1   2
BRANCH   1  34
ATOM     34  C   UNL A   1      32.499  28.273  27.361  1.00  0.00     0.042 C 
BRANCH  34  35
ATOM     35  C   UNL A   1      33.574  29.191  26.803  1.00  0.00     0.118 C 
BRANCH  35  36
ATOM     36  N   UNL A   1      33.706  30.443  27.553  1.00  0.00    -0.352 N 
ATOM     37  C   UNL A   1      34.700  30.922  28.378  1.00  0.00     0.251 C 
ATOM     38  H   UNL A   1      32.942  31.055  27.448  1.00  0.00     0.163 HD
ATOM     39  O   UNL A   1      34.500  31.922  29.053  1.00  0.00    -0.269 OA
BRANCH  37  40
ATOM     40  C   UNL A   1      35.994  30.212  28.476  1.00  0.00     0.039 A 
ATOM     41  C   UNL A   1      36.306  29.476  29.612  1.00  0.00     0.014 A 
ATOM     42  C   UNL A   1      36.917  30.291  27.427  1.00  0.00     0.014 A 
ATOM     43  C   UNL A   1      37.610  29.069  29.825  1.00  0.00     0.010 A 
ATOM     44  C   UNL A   1      38.190  29.729  27.578  1.00  0.00     0.010 A 
ATOM     45  C   UNL A   1      38.572  29.174  28.807  1.00  0.00    -0.014 A 
BRANCH  45  46
ATOM     46  C   UNL A   1      39.945  28.677  29.089  1.00  0.00     0.031 A 
ATOM     47  C   UNL A   1      40.396  27.319  28.622  1.00  0.00     0.074 A 
ATOM     48  C   UNL A   1      40.828  29.521  29.660  1.00  0.00     0.049 A 
ATOM     49  N   UNL A   1      41.594  26.791  28.676  1.00  0.00    -0.248 NA
ATOM     50  C   UNL A   1      39.383  26.430  28.027  1.00  0.00     0.031 C 
ATOM     51  C   UNL A   1      40.510  30.869  30.142  1.00  0.00     0.029 A 
ATOM     52  N   UNL A   1      42.182  29.414  29.856  1.00  0.00    -0.354 N 
ATOM     53  C   UNL A   1      41.471  25.506  28.164  1.00  0.00     0.074 A 
ATOM     54  C   UNL A   1      40.080  25.320  27.817  1.00  0.00     0.031 C 
ATOM     55  C   UNL A   1      41.646  31.508  30.446  1.00  0.00     0.029 A 
ATOM     56  C   UNL A   1      42.764  30.587  30.279  1.00  0.00     0.049 A 
ATOM     57  H   UNL A   1      42.686  28.581  29.710  1.00  0.00     0.167 HD
ATOM     58  C   UNL A   1      42.433  24.568  27.996  1.00  0.00     0.031 A 
ATOM     59  C   UNL A   1      44.054  30.898  30.502  1.00  0.00     0.031 A 
ATOM     60  C   UNL A   1      43.823  24.769  28.312  1.00  0.00     0.049 A 
ATOM     61  C   UNL A   1      45.098  29.841  30.308  1.00  0.00     0.074 A 
ATOM     62  C   UNL A   1      44.874  23.881  28.158  1.00  0.00     0.029 A 
ATOM     63  N   UNL A   1      44.358  25.938  28.831  1.00  0.00    -0.354 N 
ATOM     64  N   UNL A   1      44.957  28.624  29.845  1.00  0.00    -0.248 NA
ATOM     65  C   UNL A   1      46.473  30.191  30.689  1.00  0.00     0.031 C 
ATOM     66  C   UNL A   1      46.036  24.495  28.635  1.00  0.00     0.029 A 
ATOM     67  C   UNL A   1      45.719  25.785  29.029  1.00  0.00     0.049 A 
ATOM     68  H   UNL A   1      43.845  26.754  29.030  1.00  0.00     0.167 HD
ATOM     69  C   UNL A   1      46.222  28.057  29.884  1.00  0.00     0.074 A 
ATOM     70  C   UNL A   1      47.123  29.076  30.383  1.00  0.00     0.031 C 
ATOM     71  C   UNL A   1      46.599  26.800  29.548  1.00  0.00     0.031 A 
BRANCH  58  72
ATOM     72  C   UNL A   1      42.022  23.219  27.472  1.00  0.00    -0.014 A 
ATOM     73  C   UNL A   1      41.494  22.266  28.357  1.00  0.00     0.009 A 
ATOM     74  C   UNL A   1      42.233  22.859  26.132  1.00  0.00     0.009 A 
ATOM     75  C   UNL A   1      41.194  20.976  27.917  1.00  0.00     0.001 A 
ATOM     76  C   UNL A   1      41.908  21.574  25.688  1.00  0.00     0.001 A 
ATOM     77  C   UNL A   1      41.397  20.632  26.581  1.00  0.00     0.000 A 
ENDBRANCH  58  72
BRANCH  59  78
ATOM     78  C   UNL A   1      44.411  32.276  30.929  1.00  0.00    -0.014 A 
ATOM     79  C   UNL A   1      44.728  33.261  29.977  1.00  0.00     0.009 A 
ATOM     80  C   UNL A   1      44.503  32.599  32.290  1.00  0.00     0.009 A 
ATOM     81  C   UNL A   1      45.165  34.524  30.379  1.00  0.00     0.001 A 
ATOM     82  C   UNL A   1      44.909  33.875  32.690  1.00  0.00     0.001 A 
ATOM     83  C   UNL A   1      45.252  34.831  31.735  1.00  0.00     0.000 A 
ENDBRANCH  59  78
BRANCH  71  84
ATOM     84  C   UNL A   1      48.047  26.445  29.722  1.00  0.00    -0.014 A 
ATOM     85  C   UNL A   1      48.496  25.912  30.941  1.00  0.00     0.009 A 
ATOM     86  C   UNL A   1      48.980  26.707  28.707  1.00  0.00     0.009 A 
ATOM     87  C   UNL A   1      49.852  25.655  31.142  1.00  0.00     0.001 A 
ATOM     88  C   UNL A   1      50.332  26.422  28.902  1.00  0.00     0.001 A 
ATOM     89  C   UNL A   1      50.767  25.903  30.121  1.00  0.00     0.000 A 
ENDBRANCH  71  84
ENDBRANCH  45  46
ENDBRANCH  37  40
ENDBRANCH  35  36
ENDBRANCH  34  35
ENDBRANCH   1  34
TORSDOF 15
ENDMDL
MODEL 2
REMARK VINA RESULT:     -12.3      2.126      2.838
REMARK SMILES O=C(Cn1c2ccccc2c(=O)c2ccccc21)N[C@@H](Cc1ccccc1)C(=O)NCCCNC(=O)c1ccc(-c2c3nc(c(-c4ccccc4)c4ccc([nH]4)c(-c4ccccc4)c4nc(c(-c5ccccc5)c5ccc2[nH]5)C=C4)C=C3)cc1
REMARK SMILES IDX 31 1 30 2 28 3 29 4 20 6 19 7 1 8 2 9 3 11 4 12 5 13 18 14
REMARK SMILES IDX 6 15 10 16 13 17 17 18 7 19 9 20 11 21 14 22 16 23 8 24
REMARK SMILES IDX 12 25 15 26 21 27 22 28 23 29 27 30 24 31 26 32 25 33 32 34
REMARK SMILES IDX 33 35 34 36 35 37 36 39 37 40 38 41 84 42 39 43 83 44 40 45
REMARK SMILES IDX 41 46 42 47 77 48 43 49 82 50 76 51 78 52 44 53 81 54 75 55
REMARK SMILES IDX 74 56 45 58 67 59 52 60 66 61 53 62 56 63 65 64 79 65 54 66
REMARK SMILES IDX 55 67 64 69 80 70 57 71 46 72 47 73 51 74 48 75 50 76 49 77
REMARK SMILES IDX 68 78 69 79 73 80 70 81 72 82 71 83 58 84 59 85 63 86 60 87
REMARK SMILES IDX 62 88 61 89
REMARK H PARENT 30 5 19 10 34 38 78 57 56 68
REMARK Flexibility Score: inf
ROOT
ATOM      1  C   UNL A   1      33.078  30.134  26.208  1.00  0.00     0.117 C 
ENDROOT
BRANCH   1   2
ATOM      2  N   UNL A   1      31.911  29.284  26.334  1.00  0.00    -0.354 N 
ATOM      3  C   UNL A   1      31.553  28.214  25.563  1.00  0.00     0.242 C 
ATOM      4  O   UNL A   1      30.932  27.306  26.125  1.00  0.00    -0.273 OA
ATOM      5  H   UNL A   1      31.297  29.506  27.071  1.00  0.00     0.163 HD
BRANCH   3   6
ATOM      6  C   UNL A   1      31.983  28.086  24.087  1.00  0.00     0.175 C 
BRANCH   6   7
ATOM      7  N   UNL A   1      31.838  26.705  23.603  1.00  0.00    -0.342 N 
ATOM      8  O   UNL A   1      33.866  26.633  22.538  1.00  0.00    -0.273 OA
ATOM      9  C   UNL A   1      32.889  26.045  23.002  1.00  0.00     0.240 C 
ATOM     10  H   UNL A   1      30.975  26.244  23.709  1.00  0.00     0.164 HD
BRANCH   9  11
ATOM     11  C   UNL A   1      32.756  24.518  22.898  1.00  0.00     0.222 C 
BRANCH  11  12
ATOM     12  N   UNL A   1      33.165  23.809  24.144  1.00  0.00    -0.331 N 
ATOM     13  C   UNL A   1      32.213  23.565  25.165  1.00  0.00     0.053 A 
ATOM     14  C   UNL A   1      34.455  23.200  24.151  1.00  0.00     0.053 A 
ATOM     15  C   UNL A   1      30.916  24.106  25.189  1.00  0.00     0.027 A 
ATOM     16  C   UNL A   1      32.551  22.735  26.257  1.00  0.00     0.046 A 
ATOM     17  C   UNL A   1      34.850  22.397  25.239  1.00  0.00     0.046 A 
ATOM     18  C   UNL A   1      35.399  23.335  23.115  1.00  0.00     0.027 A 
ATOM     19  C   UNL A   1      30.001  23.798  26.210  1.00  0.00     0.002 A 
ATOM     20  C   UNL A   1      31.640  22.427  27.283  1.00  0.00     0.014 A 
ATOM     21  C   UNL A   1      33.913  22.180  26.355  1.00  0.00     0.197 A 
ATOM     22  C   UNL A   1      36.110  21.776  25.302  1.00  0.00     0.014 A 
ATOM     23  C   UNL A   1      36.659  22.718  23.171  1.00  0.00     0.002 A 
ATOM     24  C   UNL A   1      30.359  22.953  27.252  1.00  0.00     0.001 A 
ATOM     25  O   UNL A   1      34.266  21.567  27.359  1.00  0.00    -0.288 OA
ATOM     26  C   UNL A   1      37.016  21.939  24.263  1.00  0.00     0.001 A 
ENDBRANCH  11  12
ENDBRANCH   9  11
ENDBRANCH   6   7
BRANCH   6  27
ATOM     27  C   UNL A   1      31.459  29.210  23.167  1.00  0.00     0.070 C 
BRANCH  27  28
ATOM     28  C   UNL A   1      29.996  29.579  23.213  1.00  0.00    -0.045 A 
ATOM     29  C   UNL A   1      29.589  30.826  23.706  1.00  0.00     0.004 A 
ATOM     30  C   UNL A   1      29.014  28.678  22.772  1.00  0.00     0.004 A 
ATOM     31  C   UNL A   1      28.237  31.182  23.711  1.00  0.00     0.000 A 
ATOM     32  C   UNL A   1      27.665  29.046  22.751  1.00  0.00     0.000 A 
ATOM     33  C   UNL A   1      27.278  30.301  23.214  1.00  0.00     0.000 A 
ENDBRANCH  27  28
ENDBRANCH   6  27
ENDBRANCH   3   6
ENDBRANCH   1   2
BRANCH   1  34
ATOM     34  C   UNL A   1      33.146  31.227  27.248  1.00  0.00     0.042 C 
BRANCH  34  35
ATOM     35  C   UNL A   1      34.427  31.161  28.065  1.00  0.00     0.118 C 
BRANCH  35  36
ATOM     36  N   UNL A   1      34.306  31.809  29.374  1.00  0.00    -0.352 N 
ATOM     37  C   UNL A   1      35.194  31.947  30.419  1.00  0.00     0.251 C 
ATOM     38  H   UNL A   1      33.428  32.224  29.535  1.00  0.00     0.163 HD
ATOM     39  O   UNL A   1      34.801  32.367  31.498  1.00  0.00    -0.269 OA
BRANCH  37  40
ATOM     40  C   UNL A   1      36.610  31.556  30.250  1.00  0.00     0.039 A 
ATOM     41  C   UNL A   1      37.275  31.826  29.061  1.00  0.00     0.014 A 
ATOM     42  C   UNL A   1      37.283  30.897  31.285  1.00  0.00     0.014 A 
ATOM     43  C   UNL A   1      38.481  31.204  28.796  1.00  0.00     0.010 A 
ATOM     44  C   UNL A   1      38.578  30.411  31.073  1.00  0.00     0.010 A 
ATOM     45  C   UNL A   1      39.163  30.499  29.802  1.00  0.00    -0.014 A 
BRANCH  45  46
ATOM     46  C   UNL A   1      40.477  29.891  29.462  1.00  0.00     0.031 A 
ATOM     47  C   UNL A   1      40.577  28.479  28.951  1.00  0.00     0.074 A 
ATOM     48  C   UNL A   1      41.574  30.676  29.495  1.00  0.00     0.049 A 
ATOM     49  N   UNL A   1      41.629  27.848  28.493  1.00  0.00    -0.248 NA
ATOM     50  C   UNL A   1      39.352  27.662  28.960  1.00  0.00     0.031 C 
ATOM     51  C   UNL A   1      41.597  32.067  29.960  1.00  0.00     0.029 A 
ATOM     52  N   UNL A   1      42.856  30.455  29.058  1.00  0.00    -0.354 N 
ATOM     53  C   UNL A   1      41.205  26.558  28.199  1.00  0.00     0.074 A 
ATOM     54  C   UNL A   1      39.803  26.485  28.544  1.00  0.00     0.031 C 
ATOM     55  C   UNL A   1      42.782  32.612  29.657  1.00  0.00     0.029 A 
ATOM     56  C   UNL A   1      43.637  31.586  29.071  1.00  0.00     0.049 A 
ATOM     57  H   UNL A   1      43.182  29.574  28.764  1.00  0.00     0.167 HD
ATOM     58  C   UNL A   1      41.920  25.530  27.684  1.00  0.00     0.031 A 
ATOM     59  C   UNL A   1      44.900  31.789  28.653  1.00  0.00     0.031 A 
ATOM     60  C   UNL A   1      43.308  25.617  27.310  1.00  0.00     0.049 A 
ATOM     61  C   UNL A   1      45.669  30.634  28.087  1.00  0.00     0.074 A 
ATOM     62  C   UNL A   1      44.112  24.632  26.763  1.00  0.00     0.029 A 
ATOM     63  N   UNL A   1      44.092  26.754  27.432  1.00  0.00    -0.354 N 
ATOM     64  N   UNL A   1      45.255  29.415  27.839  1.00  0.00    -0.248 NA
ATOM     65  C   UNL A   1      47.081  30.873  27.766  1.00  0.00     0.031 C 
ATOM     66  C   UNL A   1      45.397  25.157  26.603  1.00  0.00     0.029 A 
ATOM     67  C   UNL A   1      45.378  26.486  26.994  1.00  0.00     0.049 A 
ATOM     68  H   UNL A   1      43.781  27.621  27.777  1.00  0.00     0.167 HD
ATOM     69  C   UNL A   1      46.357  28.738  27.339  1.00  0.00     0.074 A 
ATOM     70  C   UNL A   1      47.447  29.691  27.286  1.00  0.00     0.031 C 
ATOM     71  C   UNL A   1      46.458  27.439  26.969  1.00  0.00     0.031 A 
BRANCH  58  72
ATOM     72  C   UNL A   1      41.232  24.203  27.516  1.00  0.00    -0.014 A 
ATOM     73  C   UNL A   1      41.714  23.083  28.211  1.00  0.00     0.009 A 
ATOM     74  C   UNL A   1      40.170  24.038  26.614  1.00  0.00     0.009 A 
ATOM     75  C   UNL A   1      41.156  21.821  28.001  1.00  0.00     0.001 A 
ATOM     76  C   UNL A   1      39.596  22.778  26.425  1.00  0.00     0.001 A 
ATOM     77  C   UNL A   1      40.094  21.670  27.111  1.00  0.00     0.000 A 
ENDBRANCH  58  72
BRANCH  59  78
ATOM     78  C   UNL A   1      45.497  33.146  28.756  1.00  0.00    -0.014 A 
ATOM     79  C   UNL A   1      46.144  33.555  29.934  1.00  0.00     0.009 A 
ATOM     80  C   UNL A   1      45.364  34.064  27.704  1.00  0.00     0.009 A 
ATOM     81  C   UNL A   1      46.611  34.863  30.072  1.00  0.00     0.001 A 
ATOM     82  C   UNL A   1      45.863  35.363  27.833  1.00  0.00     0.001 A 
ATOM     83  C   UNL A   1      46.473  35.765  29.019  1.00  0.00     0.000 A 
ENDBRANCH  59  78
BRANCH  71  84
ATOM     84  C   UNL A   1      47.798  26.962  26.488  1.00  0.00    -0.014 A 
ATOM     85  C   UNL A   1      48.119  27.036  25.124  1.00  0.00     0.009 A 
ATOM     86  C   UNL A   1      48.712  26.371  27.374  1.00  0.00     0.009 A 
ATOM     87  C   UNL A   1      49.328  26.522  24.654  1.00  0.00     0.001 A 
ATOM     88  C   UNL A   1      49.932  25.883  26.905  1.00  0.00     0.001 A 
ATOM     89  C   UNL A   1      50.236  25.952  25.546  1.00  0.00     0.000 A 
ENDBRANCH  71  84
ENDBRANCH  45  46
ENDBRANCH  37  40
ENDBRANCH  35  36
ENDBRANCH  34  35
ENDBRANCH   1  34
TORSDOF 15
ENDMDL
MODEL 3
REMARK VINA RESULT:     -12.3      0.319      2.041
REMARK SMILES O=C(Cn1c2ccccc2c(=O)c2ccccc21)N[C@@H](Cc1ccccc1)C(=O)NCCCNC(=O)c1ccc(-c2c3nc(c(-c4ccccc4)c4ccc([nH]4)c(-c4ccccc4)c4nc(c(-c5ccccc5)c5ccc2[nH]5)C=C4)C=C3)cc1
REMARK SMILES IDX 31 1 30 2 28 3 29 4 20 6 19 7 1 8 2 9 3 11 4 12 5 13 18 14
REMARK SMILES IDX 6 15 10 16 13 17 17 18 7 19 9 20 11 21 14 22 16 23 8 24
REMARK SMILES IDX 12 25 15 26 21 27 22 28 23 29 27 30 24 31 26 32 25 33 32 34
REMARK SMILES IDX 33 35 34 36 35 37 36 39 37 40 38 41 84 42 39 43 83 44 40 45
REMARK SMILES IDX 41 46 42 47 77 48 43 49 82 50 76 51 78 52 44 53 81 54 75 55
REMARK SMILES IDX 74 56 45 58 67 59 52 60 66 61 53 62 56 63 65 64 79 65 54 66
REMARK SMILES IDX 55 67 64 69 80 70 57 71 46 72 47 73 51 74 48 75 50 76 49 77
REMARK SMILES IDX 68 78 69 79 73 80 70 81 72 82 71 83 58 84 59 85 63 86 60 87
REMARK SMILES IDX 62 88 61 89
REMARK H PARENT 30 5 19 10 34 38 78 57 56 68
REMARK Flexibility Score: inf
ROOT
ATOM      1  C   UNL A   1      31.541  27.807  26.346  1.00  0.00     0.117 C 
ENDROOT
BRANCH   1   2
ATOM      2  N   UNL A   1      30.660  26.733  26.757  1.00  0.00    -0.354 N 
ATOM      3  C   UNL A   1      30.191  25.688  26.013  1.00  0.00     0.242 C 
ATOM      4  O   UNL A   1      29.985  24.627  26.611  1.00  0.00    -0.273 OA
ATOM      5  H   UNL A   1      30.362  26.759  27.695  1.00  0.00     0.163 HD
BRANCH   3   6
ATOM      6  C   UNL A   1      30.016  25.783  24.483  1.00  0.00     0.175 C 
BRANCH   6   7
ATOM      7  N   UNL A   1      30.367  24.517  23.822  1.00  0.00    -0.342 N 
ATOM      8  O   UNL A   1      31.447  25.489  22.049  1.00  0.00    -0.273 OA
ATOM      9  C   UNL A   1      31.209  24.492  22.730  1.00  0.00     0.240 C 
ATOM     10  H   UNL A   1      29.993  23.674  24.164  1.00  0.00     0.164 HD
BRANCH   9  11
ATOM     11  C   UNL A   1      31.810  23.124  22.374  1.00  0.00     0.222 C 
BRANCH  11  12
ATOM     12  N   UNL A   1      32.844  22.668  23.346  1.00  0.00    -0.331 N 
ATOM     13  C   UNL A   1      33.553  23.617  24.125  1.00  0.00     0.053 A 
ATOM     14  C   UNL A   1      32.913  21.268  23.614  1.00  0.00     0.053 A 
ATOM     15  C   UNL A   1      33.492  25.008  23.931  1.00  0.00     0.027 A 
ATOM     16  C   UNL A   1      34.393  23.181  25.172  1.00  0.00     0.046 A 
ATOM     17  C   UNL A   1      33.769  20.784  24.623  1.00  0.00     0.046 A 
ATOM     18  C   UNL A   1      32.157  20.295  22.933  1.00  0.00     0.027 A 
ATOM     19  C   UNL A   1      34.187  25.906  24.759  1.00  0.00     0.002 A 
ATOM     20  C   UNL A   1      35.094  24.074  26.001  1.00  0.00     0.014 A 
ATOM     21  C   UNL A   1      34.576  21.737  25.405  1.00  0.00     0.197 A 
ATOM     22  C   UNL A   1      33.879  19.416  24.928  1.00  0.00     0.014 A 
ATOM     23  C   UNL A   1      32.263  18.927  23.232  1.00  0.00     0.002 A 
ATOM     24  C   UNL A   1      34.981  25.440  25.799  1.00  0.00     0.001 A 
ATOM     25  O   UNL A   1      35.402  21.336  26.221  1.00  0.00    -0.288 OA
ATOM     26  C   UNL A   1      33.123  18.486  24.228  1.00  0.00     0.001 A 
ENDBRANCH  11  12
ENDBRANCH   9  11
ENDBRANCH   6   7
BRANCH   6  27
ATOM     27  C   UNL A   1      28.711  26.473  24.028  1.00  0.00     0.070 C 
BRANCH  27  28
ATOM     28  C   UNL A   1      28.788  27.812  23.333  1.00  0.00    -0.045 A 
ATOM     29  C   UNL A   1      30.016  28.315  22.886  1.00  0.00     0.004 A 
ATOM     30  C   UNL A   1      27.631  28.581  23.129  1.00  0.00     0.004 A 
ATOM     31  C   UNL A   1      30.079  29.536  22.207  1.00  0.00     0.000 A 
ATOM     32  C   UNL A   1      27.692  29.787  22.424  1.00  0.00     0.000 A 
ATOM     33  C   UNL A   1      28.915  30.260  21.957  1.00  0.00     0.000 A 
ENDBRANCH  27  28
ENDBRANCH   6  27
ENDBRANCH   3   6
ENDBRANCH   1   2
BRANCH   1  34
ATOM     34  C   UNL A   1      32.585  28.165  27.378  1.00  0.00     0.042 C 
BRANCH  34  35
ATOM     35  C   UNL A   1      33.654  29.087  26.815  1.00  0.00     0.118 C 
BRANCH  35  36
ATOM     36  N   UNL A   1      33.793  30.334  27.572  1.00  0.00    -0.352 N 
ATOM     37  C   UNL A   1      34.801  30.817  28.377  1.00  0.00     0.251 C 
ATOM     38  H   UNL A   1      33.021  30.940  27.488  1.00  0.00     0.163 HD
ATOM     39  O   UNL A   1      34.608  31.810  29.063  1.00  0.00    -0.269 OA
BRANCH  37  40
ATOM     40  C   UNL A   1      36.103  30.117  28.441  1.00  0.00     0.039 A 
ATOM     41  C   UNL A   1      36.471  29.424  29.587  1.00  0.00     0.014 A 
ATOM     42  C   UNL A   1      36.976  30.162  27.349  1.00  0.00     0.014 A 
ATOM     43  C   UNL A   1      37.787  29.032  29.755  1.00  0.00     0.010 A 
ATOM     44  C   UNL A   1      38.259  29.613  27.461  1.00  0.00     0.010 A 
ATOM     45  C   UNL A   1      38.700  29.104  28.691  1.00  0.00    -0.014 A 
BRANCH  45  46
ATOM     46  C   UNL A   1      40.088  28.625  28.927  1.00  0.00     0.031 A 
ATOM     47  C   UNL A   1      40.525  27.252  28.491  1.00  0.00     0.074 A 
ATOM     48  C   UNL A   1      40.991  29.495  29.424  1.00  0.00     0.049 A 
ATOM     49  N   UNL A   1      41.728  26.732  28.510  1.00  0.00    -0.248 NA
ATOM     50  C   UNL A   1      39.492  26.337  27.979  1.00  0.00     0.031 C 
ATOM     51  C   UNL A   1      40.687  30.859  29.868  1.00  0.00     0.029 A 
ATOM     52  N   UNL A   1      42.354  29.402  29.561  1.00  0.00    -0.354 N 
ATOM     53  C   UNL A   1      41.589  25.428  28.054  1.00  0.00     0.074 A 
ATOM     54  C   UNL A   1      40.185  25.223  27.780  1.00  0.00     0.031 C 
ATOM     55  C   UNL A   1      41.832  31.514  30.094  1.00  0.00     0.029 A 
ATOM     56  C   UNL A   1      42.947  30.592  29.911  1.00  0.00     0.049 A 
ATOM     57  H   UNL A   1      42.855  28.566  29.423  1.00  0.00     0.167 HD
ATOM     58  C   UNL A   1      42.548  24.489  27.877  1.00  0.00     0.031 A 
ATOM     59  C   UNL A   1      44.244  30.918  30.062  1.00  0.00     0.031 A 
ATOM     60  C   UNL A   1      43.950  24.708  28.120  1.00  0.00     0.049 A 
ATOM     61  C   UNL A   1      45.284  29.859  29.860  1.00  0.00     0.074 A 
ATOM     62  C   UNL A   1      44.999  23.820  27.951  1.00  0.00     0.029 A 
ATOM     63  N   UNL A   1      44.501  25.898  28.569  1.00  0.00    -0.354 N 
ATOM     64  N   UNL A   1      45.130  28.624  29.450  1.00  0.00    -0.248 NA
ATOM     65  C   UNL A   1      46.673  30.230  30.162  1.00  0.00     0.031 C 
ATOM     66  C   UNL A   1      46.178  24.457  28.349  1.00  0.00     0.029 A 
ATOM     67  C   UNL A   1      45.871  25.759  28.708  1.00  0.00     0.049 A 
ATOM     68  H   UNL A   1      43.993  26.719  28.760  1.00  0.00     0.167 HD
ATOM     69  C   UNL A   1      46.399  28.065  29.451  1.00  0.00     0.074 A 
ATOM     70  C   UNL A   1      47.316  29.107  29.870  1.00  0.00     0.031 C 
ATOM     71  C   UNL A   1      46.768  26.798  29.147  1.00  0.00     0.031 A 
BRANCH  58  72
ATOM     72  C   UNL A   1      42.122  23.119  27.424  1.00  0.00    -0.014 A 
ATOM     73  C   UNL A   1      41.724  22.170  28.378  1.00  0.00     0.009 A 
ATOM     74  C   UNL A   1      42.195  22.738  26.075  1.00  0.00     0.009 A 
ATOM     75  C   UNL A   1      41.416  20.863  27.996  1.00  0.00     0.001 A 
ATOM     76  C   UNL A   1      41.861  21.436  25.692  1.00  0.00     0.001 A 
ATOM     77  C   UNL A   1      41.480  20.498  26.652  1.00  0.00     0.000 A 
ENDBRANCH  58  72
BRANCH  59  78
ATOM     78  C   UNL A   1      44.611  32.313  30.418  1.00  0.00    -0.014 A 
ATOM     79  C   UNL A   1      44.907  33.253  29.417  1.00  0.00     0.009 A 
ATOM     80  C   UNL A   1      44.735  32.695  31.762  1.00  0.00     0.009 A 
ATOM     81  C   UNL A   1      45.354  34.532  29.752  1.00  0.00     0.001 A 
ATOM     82  C   UNL A   1      45.151  33.987  32.094  1.00  0.00     0.001 A 
ATOM     83  C   UNL A   1      45.472  34.899  31.091  1.00  0.00     0.000 A 
ENDBRANCH  59  78
BRANCH  71  84
ATOM     84  C   UNL A   1      48.225  26.457  29.267  1.00  0.00    -0.014 A 
ATOM     85  C   UNL A   1      48.723  25.925  30.466  1.00  0.00     0.009 A 
ATOM     86  C   UNL A   1      49.117  26.731  28.219  1.00  0.00     0.009 A 
ATOM     87  C   UNL A   1      50.087  25.679  30.617  1.00  0.00     0.001 A 
ATOM     88  C   UNL A   1      50.478  26.458  28.363  1.00  0.00     0.001 A 
ATOM     89  C   UNL A   1      50.962  25.940  29.564  1.00  0.00     0.000 A 
ENDBRANCH  71  84
ENDBRANCH  45  46
ENDBRANCH  37  40
ENDBRANCH  35  36
ENDBRANCH  34  35
ENDBRANCH   1  34
TORSDOF 15
ENDMDL
