MODEL 1
REMARK VINA RESULT:     -10.8      0.000      0.000
REMARK SMILES CCC[C@H](C)C(=O)N1CC[C@H](C(=O)NCCCNC(=O)c2ccc(-c3c4nc(c(-c5ccccc5)c5ccc([nH]5)c(-c5ccccc5)c5nc(c(-c6ccccc6)c6ccc3[nH]6)C=C5)C=C4)cc2)[C@@H]1C
REMARK SMILES IDX 15 1 14 2 12 3 13 4 11 6 8 7 9 8 69 9 10 10 70 11 6 12 7 13
REMARK SMILES IDX 4 14 5 15 3 16 2 17 1 18 16 19 17 20 18 21 19 22 20 24 21 25
REMARK SMILES IDX 22 26 68 27 23 28 67 29 24 30 25 31 26 32 61 33 27 34 66 35
REMARK SMILES IDX 60 36 62 37 28 38 65 39 59 40 58 41 29 43 51 44 36 45 50 46
REMARK SMILES IDX 37 47 40 48 49 49 63 50 38 51 39 52 48 54 64 55 41 56 30 57
REMARK SMILES IDX 31 58 35 59 32 60 34 61 33 62 52 63 53 64 57 65 54 66 56 67
REMARK SMILES IDX 55 68 42 69 43 70 47 71 44 72 46 73 45 74
REMARK H PARENT 14 5 18 23 62 42 40 53
REMARK Flexibility Score: inf
ROOT
ATOM      1  C   UNL A   1      31.621  30.698  26.319  1.00  0.00     0.117 C 
ENDROOT
BRANCH   1   2
ATOM      2  N   UNL A   1      31.312  30.387  24.933  1.00  0.00    -0.356 N 
ATOM      3  C   UNL A   1      31.007  29.240  24.280  1.00  0.00     0.225 C 
ATOM      4  O   UNL A   1      30.597  29.387  23.120  1.00  0.00    -0.275 OA
ATOM      5  H   UNL A   1      31.326  31.176  24.345  1.00  0.00     0.163 HD
BRANCH   3   6
ATOM      6  C   UNL A   1      31.228  27.816  24.796  1.00  0.00     0.102 C 
ATOM      7  N   UNL A   1      32.438  26.271  23.453  1.00  0.00    -0.339 N 
ATOM      8  C   UNL A   1      31.061  26.298  22.969  1.00  0.00     0.120 C 
ATOM      9  C   UNL A   1      32.583  27.092  24.673  1.00  0.00     0.094 C 
ATOM     10  C   UNL A   1      30.250  26.865  24.115  1.00  0.00     0.037 C 
ATOM     11  C   UNL A   1      33.771  28.054  24.751  1.00  0.00     0.032 C 
BRANCH   7  12
ATOM     12  C   UNL A   1      33.319  25.470  22.762  1.00  0.00     0.225 C 
ATOM     13  O   UNL A   1      33.837  25.895  21.721  1.00  0.00    -0.275 OA
BRANCH  12  14
ATOM     14  C   UNL A   1      33.528  23.999  23.124  1.00  0.00     0.075 C 
ATOM     15  C   UNL A   1      33.156  22.976  22.067  1.00  0.00     0.018 C 
BRANCH  14  16
ATOM     16  C   UNL A   1      34.957  23.769  23.647  1.00  0.00     0.013 C 
BRANCH  16  17
ATOM     17  C   UNL A   1      35.234  24.412  25.014  1.00  0.00    -0.003 C 
ATOM     18  C   UNL A   1      36.392  23.762  25.756  1.00  0.00     0.004 C 
ENDBRANCH  16  17
ENDBRANCH  14  16
ENDBRANCH  12  14
ENDBRANCH   7  12
ENDBRANCH   3   6
ENDBRANCH   1   2
BRANCH   1  19
ATOM     19  C   UNL A   1      31.423  32.164  26.663  1.00  0.00     0.042 C 
BRANCH  19  20
ATOM     20  C   UNL A   1      32.644  32.805  27.304  1.00  0.00     0.118 C 
BRANCH  20  21
ATOM     21  N   UNL A   1      32.439  34.212  27.635  1.00  0.00    -0.352 N 
ATOM     22  C   UNL A   1      33.028  35.005  28.592  1.00  0.00     0.251 C 
ATOM     23  H   UNL A   1      31.765  34.669  27.081  1.00  0.00     0.163 HD
ATOM     24  O   UNL A   1      32.570  36.113  28.837  1.00  0.00    -0.269 OA
BRANCH  22  25
ATOM     25  C   UNL A   1      34.198  34.509  29.348  1.00  0.00     0.039 A 
ATOM     26  C   UNL A   1      34.012  33.984  30.630  1.00  0.00     0.014 A 
ATOM     27  C   UNL A   1      35.475  34.548  28.789  1.00  0.00     0.014 A 
ATOM     28  C   UNL A   1      35.087  33.395  31.300  1.00  0.00     0.010 A 
ATOM     29  C   UNL A   1      36.518  33.870  29.408  1.00  0.00     0.010 A 
ATOM     30  C   UNL A   1      36.334  33.277  30.665  1.00  0.00    -0.014 A 
BRANCH  30  31
ATOM     31  C   UNL A   1      37.453  32.505  31.263  1.00  0.00     0.031 A 
ATOM     32  C   UNL A   1      38.113  32.987  32.524  1.00  0.00     0.074 A 
ATOM     33  C   UNL A   1      37.957  31.446  30.600  1.00  0.00     0.049 A 
ATOM     34  N   UNL A   1      39.200  32.549  33.108  1.00  0.00    -0.248 NA
ATOM     35  C   UNL A   1      37.492  34.140  33.198  1.00  0.00     0.031 C 
ATOM     36  C   UNL A   1      37.448  30.910  29.335  1.00  0.00     0.029 A 
ATOM     37  N   UNL A   1      39.033  30.642  30.889  1.00  0.00    -0.354 N 
ATOM     38  C   UNL A   1      39.412  33.394  34.189  1.00  0.00     0.074 A 
ATOM     39  C   UNL A   1      38.367  34.394  34.160  1.00  0.00     0.031 C 
ATOM     40  C   UNL A   1      38.195  29.858  28.967  1.00  0.00     0.029 A 
ATOM     41  C   UNL A   1      39.266  29.675  29.940  1.00  0.00     0.049 A 
ATOM     42  H   UNL A   1      39.583  30.747  31.698  1.00  0.00     0.167 HD
ATOM     43  C   UNL A   1      40.383  33.335  35.132  1.00  0.00     0.031 A 
ATOM     44  C   UNL A   1      40.247  28.758  29.848  1.00  0.00     0.031 A 
ATOM     45  C   UNL A   1      41.403  32.322  35.179  1.00  0.00     0.049 A 
ATOM     46  C   UNL A   1      41.308  28.707  30.909  1.00  0.00     0.074 A 
ATOM     47  C   UNL A   1      42.369  32.116  36.148  1.00  0.00     0.029 A 
ATOM     48  N   UNL A   1      41.589  31.347  34.212  1.00  0.00    -0.354 N 
ATOM     49  N   UNL A   1      41.449  29.464  31.970  1.00  0.00    -0.248 NA
ATOM     50  C   UNL A   1      42.347  27.680  30.757  1.00  0.00     0.031 C 
ATOM     51  C   UNL A   1      43.172  31.046  35.742  1.00  0.00     0.029 A 
ATOM     52  C   UNL A   1      42.677  30.558  34.543  1.00  0.00     0.049 A 
ATOM     53  H   UNL A   1      41.030  31.232  33.410  1.00  0.00     0.167 HD
ATOM     54  C   UNL A   1      42.585  28.999  32.618  1.00  0.00     0.074 A 
ATOM     55  C   UNL A   1      43.082  27.880  31.843  1.00  0.00     0.031 C 
ATOM     56  C   UNL A   1      43.166  29.460  33.751  1.00  0.00     0.031 A 
BRANCH  43  57
ATOM     57  C   UNL A   1      40.390  34.407  36.185  1.00  0.00    -0.014 A 
ATOM     58  C   UNL A   1      39.679  34.255  37.386  1.00  0.00     0.009 A 
ATOM     59  C   UNL A   1      41.140  35.577  35.983  1.00  0.00     0.009 A 
ATOM     60  C   UNL A   1      39.683  35.271  38.345  1.00  0.00     0.001 A 
ATOM     61  C   UNL A   1      41.166  36.578  36.957  1.00  0.00     0.001 A 
ATOM     62  C   UNL A   1      40.430  36.430  38.130  1.00  0.00     0.000 A 
ENDBRANCH  43  57
BRANCH  44  63
ATOM     63  C   UNL A   1      40.271  27.813  28.701  1.00  0.00    -0.014 A 
ATOM     64  C   UNL A   1      40.937  28.154  27.515  1.00  0.00     0.009 A 
ATOM     65  C   UNL A   1      39.641  26.562  28.791  1.00  0.00     0.009 A 
ATOM     66  C   UNL A   1      40.958  27.268  26.436  1.00  0.00     0.001 A 
ATOM     67  C   UNL A   1      39.686  25.667  27.720  1.00  0.00     0.001 A 
ATOM     68  C   UNL A   1      40.339  26.023  26.541  1.00  0.00     0.000 A 
ENDBRANCH  44  63
BRANCH  56  69
ATOM     69  C   UNL A   1      44.405  28.755  34.219  1.00  0.00    -0.014 A 
ATOM     70  C   UNL A   1      44.323  27.635  35.061  1.00  0.00     0.009 A 
ATOM     71  C   UNL A   1      45.665  29.186  33.778  1.00  0.00     0.009 A 
ATOM     72  C   UNL A   1      45.482  26.973  35.468  1.00  0.00     0.001 A 
ATOM     73  C   UNL A   1      46.820  28.506  34.167  1.00  0.00     0.001 A 
ATOM     74  C   UNL A   1      46.728  27.406  35.017  1.00  0.00     0.000 A 
ENDBRANCH  56  69
ENDBRANCH  30  31
ENDBRANCH  22  25
ENDBRANCH  20  21
ENDBRANCH  19  20
ENDBRANCH   1  19
TORSDOF 14
ENDMDL
MODEL 2
REMARK VINA RESULT:     -10.6      5.421     10.598
REMARK SMILES CCC[C@H](C)C(=O)N1CC[C@H](C(=O)NCCCNC(=O)c2ccc(-c3c4nc(c(-c5ccccc5)c5ccc([nH]5)c(-c5ccccc5)c5nc(c(-c6ccccc6)c6ccc3[nH]6)C=C5)C=C4)cc2)[C@@H]1C
REMARK SMILES IDX 15 1 14 2 12 3 13 4 11 6 8 7 9 8 69 9 10 10 70 11 6 12 7 13
REMARK SMILES IDX 4 14 5 15 3 16 2 17 1 18 16 19 17 20 18 21 19 22 20 24 21 25
REMARK SMILES IDX 22 26 68 27 23 28 67 29 24 30 25 31 26 32 61 33 27 34 66 35
REMARK SMILES IDX 60 36 62 37 28 38 65 39 59 40 58 41 29 43 51 44 36 45 50 46
REMARK SMILES IDX 37 47 40 48 49 49 63 50 38 51 39 52 48 54 64 55 41 56 30 57
REMARK SMILES IDX 31 58 35 59 32 60 34 61 33 62 52 63 53 64 57 65 54 66 56 67
REMARK SMILES IDX 55 68 42 69 43 70 47 71 44 72 46 73 45 74
REMARK H PARENT 14 5 18 23 62 42 40 53
REMARK Flexibility Score: inf
ROOT
ATOM      1  C   UNL A   1      37.074  20.470  24.713  1.00  0.00     0.117 C 
ENDROOT
BRANCH   1   2
ATOM      2  N   UNL A   1      35.745  20.139  25.199  1.00  0.00    -0.356 N 
ATOM      3  C   UNL A   1      34.518  20.677  25.002  1.00  0.00     0.225 C 
ATOM      4  O   UNL A   1      33.571  19.998  25.421  1.00  0.00    -0.275 OA
ATOM      5  H   UNL A   1      35.734  19.358  25.798  1.00  0.00     0.163 HD
BRANCH   3   6
ATOM      6  C   UNL A   1      34.217  22.063  24.425  1.00  0.00     0.102 C 
ATOM      7  N   UNL A   1      32.620  23.450  25.512  1.00  0.00    -0.339 N 
ATOM      8  C   UNL A   1      31.891  22.510  24.664  1.00  0.00     0.120 C 
ATOM      9  C   UNL A   1      34.078  23.316  25.311  1.00  0.00     0.094 C 
ATOM     10  C   UNL A   1      32.905  22.024  23.650  1.00  0.00     0.037 C 
ATOM     11  C   UNL A   1      34.969  23.256  26.555  1.00  0.00     0.032 C 
BRANCH   7  12
ATOM     12  C   UNL A   1      31.862  24.308  26.275  1.00  0.00     0.225 C 
ATOM     13  O   UNL A   1      31.390  23.911  27.348  1.00  0.00    -0.275 OA
BRANCH  12  14
ATOM     14  C   UNL A   1      31.415  25.674  25.750  1.00  0.00     0.075 C 
ATOM     15  C   UNL A   1      29.925  25.870  25.539  1.00  0.00     0.018 C 
BRANCH  14  16
ATOM     16  C   UNL A   1      32.012  26.803  26.607  1.00  0.00     0.013 C 
BRANCH  16  17
ATOM     17  C   UNL A   1      33.314  27.393  26.047  1.00  0.00    -0.003 C 
ATOM     18  C   UNL A   1      33.645  26.892  24.649  1.00  0.00     0.004 C 
ENDBRANCH  16  17
ENDBRANCH  14  16
ENDBRANCH  12  14
ENDBRANCH   7  12
ENDBRANCH   3   6
ENDBRANCH   1   2
BRANCH   1  19
ATOM     19  C   UNL A   1      38.101  19.385  24.988  1.00  0.00     0.042 C 
BRANCH  19  20
ATOM     20  C   UNL A   1      39.348  19.898  25.692  1.00  0.00     0.118 C 
BRANCH  20  21
ATOM     21  N   UNL A   1      40.354  18.860  25.892  1.00  0.00    -0.352 N 
ATOM     22  C   UNL A   1      41.710  18.951  26.107  1.00  0.00     0.251 C 
ATOM     23  H   UNL A   1      40.004  17.940  25.868  1.00  0.00     0.163 HD
ATOM     24  O   UNL A   1      42.408  17.948  26.052  1.00  0.00    -0.269 OA
BRANCH  22  25
ATOM     25  C   UNL A   1      42.330  20.266  26.374  1.00  0.00     0.039 A 
ATOM     26  C   UNL A   1      42.972  20.944  25.333  1.00  0.00     0.014 A 
ATOM     27  C   UNL A   1      42.268  20.838  27.644  1.00  0.00     0.014 A 
ATOM     28  C   UNL A   1      43.447  22.241  25.541  1.00  0.00     0.010 A 
ATOM     29  C   UNL A   1      42.644  22.163  27.822  1.00  0.00     0.010 A 
ATOM     30  C   UNL A   1      43.227  22.884  26.770  1.00  0.00    -0.014 A 
BRANCH  30  31
ATOM     31  C   UNL A   1      43.555  24.317  26.980  1.00  0.00     0.031 A 
ATOM     32  C   UNL A   1      44.974  24.795  26.849  1.00  0.00     0.074 A 
ATOM     33  C   UNL A   1      42.597  25.160  27.415  1.00  0.00     0.049 A 
ATOM     34  N   UNL A   1      45.484  25.962  27.150  1.00  0.00    -0.248 NA
ATOM     35  C   UNL A   1      45.958  23.819  26.352  1.00  0.00     0.031 C 
ATOM     36  C   UNL A   1      41.192  24.810  27.641  1.00  0.00     0.029 A 
ATOM     37  N   UNL A   1      42.667  26.485  27.770  1.00  0.00    -0.354 N 
ATOM     38  C   UNL A   1      46.848  25.847  26.917  1.00  0.00     0.074 A 
ATOM     39  C   UNL A   1      47.093  24.488  26.488  1.00  0.00     0.031 C 
ATOM     40  C   UNL A   1      40.531  25.894  28.076  1.00  0.00     0.029 A 
ATOM     41  C   UNL A   1      41.471  27.000  28.210  1.00  0.00     0.049 A 
ATOM     42  H   UNL A   1      43.495  27.015  27.714  1.00  0.00     0.167 HD
ATOM     43  C   UNL A   1      47.810  26.794  27.035  1.00  0.00     0.031 A 
ATOM     44  C   UNL A   1      41.168  28.220  28.691  1.00  0.00     0.031 A 
ATOM     45  C   UNL A   1      47.561  28.154  27.429  1.00  0.00     0.049 A 
ATOM     46  C   UNL A   1      42.249  29.254  28.806  1.00  0.00     0.074 A 
ATOM     47  C   UNL A   1      48.450  29.213  27.482  1.00  0.00     0.029 A 
ATOM     48  N   UNL A   1      46.330  28.641  27.843  1.00  0.00    -0.354 N 
ATOM     49  N   UNL A   1      43.522  29.154  28.504  1.00  0.00    -0.248 NA
ATOM     50  C   UNL A   1      41.855  30.569  29.331  1.00  0.00     0.031 C 
ATOM     51  C   UNL A   1      47.768  30.330  27.975  1.00  0.00     0.029 A 
ATOM     52  C   UNL A   1      46.445  29.977  28.186  1.00  0.00     0.049 A 
ATOM     53  H   UNL A   1      45.500  28.115  27.885  1.00  0.00     0.167 HD
ATOM     54  C   UNL A   1      44.077  30.392  28.793  1.00  0.00     0.074 A 
ATOM     55  C   UNL A   1      43.000  31.235  29.272  1.00  0.00     0.031 C 
ATOM     56  C   UNL A   1      45.366  30.794  28.676  1.00  0.00     0.031 A 
BRANCH  43  57
ATOM     57  C   UNL A   1      49.225  26.382  26.740  1.00  0.00    -0.014 A 
ATOM     58  C   UNL A   1      49.755  26.466  25.443  1.00  0.00     0.009 A 
ATOM     59  C   UNL A   1      50.048  25.926  27.782  1.00  0.00     0.009 A 
ATOM     60  C   UNL A   1      51.067  26.061  25.187  1.00  0.00     0.001 A 
ATOM     61  C   UNL A   1      51.369  25.549  27.528  1.00  0.00     0.001 A 
ATOM     62  C   UNL A   1      51.873  25.607  26.230  1.00  0.00     0.000 A 
ENDBRANCH  43  57
BRANCH  44  63
ATOM     63  C   UNL A   1      39.774  28.526  29.105  1.00  0.00    -0.014 A 
ATOM     64  C   UNL A   1      38.865  29.075  28.189  1.00  0.00     0.009 A 
ATOM     65  C   UNL A   1      39.341  28.256  30.413  1.00  0.00     0.009 A 
ATOM     66  C   UNL A   1      37.556  29.364  28.579  1.00  0.00     0.001 A 
ATOM     67  C   UNL A   1      38.023  28.523  30.792  1.00  0.00     0.001 A 
ATOM     68  C   UNL A   1      37.134  29.082  29.877  1.00  0.00     0.000 A 
ENDBRANCH  44  63
BRANCH  56  69
ATOM     69  C   UNL A   1      45.680  32.207  29.073  1.00  0.00    -0.014 A 
ATOM     70  C   UNL A   1      46.033  32.522  30.394  1.00  0.00     0.009 A 
ATOM     71  C   UNL A   1      45.669  33.224  28.108  1.00  0.00     0.009 A 
ATOM     72  C   UNL A   1      46.348  33.836  30.745  1.00  0.00     0.001 A 
ATOM     73  C   UNL A   1      46.009  34.532  28.456  1.00  0.00     0.001 A 
ATOM     74  C   UNL A   1      46.340  34.838  29.775  1.00  0.00     0.000 A 
ENDBRANCH  56  69
ENDBRANCH  30  31
ENDBRANCH  22  25
ENDBRANCH  20  21
ENDBRANCH  19  20
ENDBRANCH   1  19
TORSDOF 14
ENDMDL
MODEL 3
REMARK VINA RESULT:     -10.6      0.881      6.205
REMARK SMILES CCC[C@H](C)C(=O)N1CC[C@H](C(=O)NCCCNC(=O)c2ccc(-c3c4nc(c(-c5ccccc5)c5ccc([nH]5)c(-c5ccccc5)c5nc(c(-c6ccccc6)c6ccc3[nH]6)C=C5)C=C4)cc2)[C@@H]1C
REMARK SMILES IDX 15 1 14 2 12 3 13 4 11 6 8 7 9 8 69 9 10 10 70 11 6 12 7 13
REMARK SMILES IDX 4 14 5 15 3 16 2 17 1 18 16 19 17 20 18 21 19 22 20 24 21 25
REMARK SMILES IDX 22 26 68 27 23 28 67 29 24 30 25 31 26 32 61 33 27 34 66 35
REMARK SMILES IDX 60 36 62 37 28 38 65 39 59 40 58 41 29 43 51 44 36 45 50 46
REMARK SMILES IDX 37 47 40 48 49 49 63 50 38 51 39 52 48 54 64 55 41 56 30 57
REMARK SMILES IDX 31 58 35 59 32 60 34 61 33 62 52 63 53 64 57 65 54 66 56 67
REMARK SMILES IDX 55 68 42 69 43 70 47 71 44 72 46 73 45 74
REMARK H PARENT 14 5 18 23 62 42 40 53
REMARK Flexibility Score: inf
ROOT
ATOM      1  C   UNL A   1      32.163  30.329  26.144  1.00  0.00     0.117 C 
ENDROOT
BRANCH   1   2
ATOM      2  N   UNL A   1      31.608  30.078  24.824  1.00  0.00    -0.356 N 
ATOM      3  C   UNL A   1      31.150  28.967  24.200  1.00  0.00     0.225 C 
ATOM      4  O   UNL A   1      30.554  29.168  23.134  1.00  0.00    -0.275 OA
ATOM      5  H   UNL A   1      31.553  30.887  24.265  1.00  0.00     0.163 HD
BRANCH   3   6
ATOM      6  C   UNL A   1      31.399  27.518  24.629  1.00  0.00     0.102 C 
ATOM      7  N   UNL A   1      32.369  25.999  23.078  1.00  0.00    -0.339 N 
ATOM      8  C   UNL A   1      30.940  26.078  22.789  1.00  0.00     0.120 C 
ATOM      9  C   UNL A   1      32.703  26.768  24.295  1.00  0.00     0.094 C 
ATOM     10  C   UNL A   1      30.310  26.618  24.056  1.00  0.00     0.037 C 
ATOM     11  C   UNL A   1      33.918  27.698  24.242  1.00  0.00     0.032 C 
BRANCH   7  12
ATOM     12  C   UNL A   1      33.124  25.207  22.243  1.00  0.00     0.225 C 
ATOM     13  O   UNL A   1      33.275  25.541  21.060  1.00  0.00    -0.275 OA
BRANCH  12  14
ATOM     14  C   UNL A   1      33.618  23.824  22.671  1.00  0.00     0.075 C 
ATOM     15  C   UNL A   1      34.803  23.785  23.618  1.00  0.00     0.018 C 
BRANCH  14  16
ATOM     16  C   UNL A   1      32.451  22.973  23.201  1.00  0.00     0.013 C 
BRANCH  16  17
ATOM     17  C   UNL A   1      32.427  22.825  24.729  1.00  0.00    -0.003 C 
ATOM     18  C   UNL A   1      31.046  23.039  25.330  1.00  0.00     0.004 C 
ENDBRANCH  16  17
ENDBRANCH  14  16
ENDBRANCH  12  14
ENDBRANCH   7  12
ENDBRANCH   3   6
ENDBRANCH   1   2
BRANCH   1  19
ATOM     19  C   UNL A   1      31.727  31.660  26.734  1.00  0.00     0.042 C 
BRANCH  19  20
ATOM     20  C   UNL A   1      32.859  32.423  27.405  1.00  0.00     0.118 C 
BRANCH  20  21
ATOM     21  N   UNL A   1      32.542  33.830  27.625  1.00  0.00    -0.352 N 
ATOM     22  C   UNL A   1      33.051  34.736  28.527  1.00  0.00     0.251 C 
ATOM     23  H   UNL A   1      31.847  34.192  27.028  1.00  0.00     0.163 HD
ATOM     24  O   UNL A   1      32.506  35.821  28.680  1.00  0.00    -0.269 OA
BRANCH  22  25
ATOM     25  C   UNL A   1      34.240  34.389  29.334  1.00  0.00     0.039 A 
ATOM     26  C   UNL A   1      34.065  33.817  30.597  1.00  0.00     0.014 A 
ATOM     27  C   UNL A   1      35.525  34.614  28.842  1.00  0.00     0.014 A 
ATOM     28  C   UNL A   1      35.177  33.367  31.313  1.00  0.00     0.010 A 
ATOM     29  C   UNL A   1      36.620  34.072  29.504  1.00  0.00     0.010 A 
ATOM     30  C   UNL A   1      36.458  33.433  30.742  1.00  0.00    -0.014 A 
BRANCH  30  31
ATOM     31  C   UNL A   1      37.642  32.810  31.386  1.00  0.00     0.031 A 
ATOM     32  C   UNL A   1      38.317  31.630  30.744  1.00  0.00     0.074 A 
ATOM     33  C   UNL A   1      38.027  33.225  32.608  1.00  0.00     0.049 A 
ATOM     34  N   UNL A   1      39.253  30.851  31.225  1.00  0.00    -0.248 NA
ATOM     35  C   UNL A   1      37.850  31.249  29.401  1.00  0.00     0.031 C 
ATOM     36  C   UNL A   1      37.419  34.321  33.368  1.00  0.00     0.029 A 
ATOM     37  N   UNL A   1      39.011  32.754  33.442  1.00  0.00    -0.354 N 
ATOM     38  C   UNL A   1      39.457  29.871  30.263  1.00  0.00     0.074 A 
ATOM     39  C   UNL A   1      38.521  30.127  29.190  1.00  0.00     0.031 C 
ATOM     40  C   UNL A   1      38.054  34.450  34.543  1.00  0.00     0.029 A 
ATOM     41  C   UNL A   1      39.078  33.417  34.644  1.00  0.00     0.049 A 
ATOM     42  H   UNL A   1      39.613  32.012  33.201  1.00  0.00     0.167 HD
ATOM     43  C   UNL A   1      40.353  28.855  30.266  1.00  0.00     0.031 A 
ATOM     44  C   UNL A   1      39.859  33.204  35.719  1.00  0.00     0.031 A 
ATOM     45  C   UNL A   1      41.304  28.621  31.319  1.00  0.00     0.049 A 
ATOM     46  C   UNL A   1      40.850  32.077  35.697  1.00  0.00     0.074 A 
ATOM     47  C   UNL A   1      42.320  27.682  31.369  1.00  0.00     0.029 A 
ATOM     48  N   UNL A   1      41.354  29.331  32.508  1.00  0.00    -0.354 N 
ATOM     49  N   UNL A   1      41.086  31.206  34.744  1.00  0.00    -0.248 NA
ATOM     50  C   UNL A   1      41.678  31.899  36.897  1.00  0.00     0.031 C 
ATOM     51  C   UNL A   1      42.952  27.791  32.612  1.00  0.00     0.029 A 
ATOM     52  C   UNL A   1      42.360  28.828  33.314  1.00  0.00     0.049 A 
ATOM     53  H   UNL A   1      40.762  30.082  32.743  1.00  0.00     0.167 HD
ATOM     54  C   UNL A   1      42.096  30.385  35.226  1.00  0.00     0.074 A 
ATOM     55  C   UNL A   1      42.443  30.874  36.545  1.00  0.00     0.031 C 
ATOM     56  C   UNL A   1      42.680  29.317  34.630  1.00  0.00     0.031 A 
BRANCH  43  57
ATOM     57  C   UNL A   1      40.337  27.915  29.094  1.00  0.00    -0.014 A 
ATOM     58  C   UNL A   1      39.603  26.719  29.128  1.00  0.00     0.009 A 
ATOM     59  C   UNL A   1      41.048  28.243  27.929  1.00  0.00     0.009 A 
ATOM     60  C   UNL A   1      39.615  25.850  28.034  1.00  0.00     0.001 A 
ATOM     61  C   UNL A   1      41.035  27.386  26.826  1.00  0.00     0.001 A 
ATOM     62  C   UNL A   1      40.328  26.186  26.884  1.00  0.00     0.000 A 
ENDBRANCH  43  57
BRANCH  44  63
ATOM     63  C   UNL A   1      39.729  34.080  36.913  1.00  0.00    -0.014 A 
ATOM     64  C   UNL A   1      40.423  35.296  36.980  1.00  0.00     0.009 A 
ATOM     65  C   UNL A   1      38.899  33.711  37.984  1.00  0.00     0.009 A 
ATOM     66  C   UNL A   1      40.302  36.118  38.103  1.00  0.00     0.001 A 
ATOM     67  C   UNL A   1      38.760  34.548  39.093  1.00  0.00     0.001 A 
ATOM     68  C   UNL A   1      39.467  35.747  39.155  1.00  0.00     0.000 A 
ENDBRANCH  44  63
BRANCH  56  69
ATOM     69  C   UNL A   1      43.754  28.608  35.400  1.00  0.00    -0.014 A 
ATOM     70  C   UNL A   1      45.094  29.015  35.311  1.00  0.00     0.009 A 
ATOM     71  C   UNL A   1      43.418  27.551  36.260  1.00  0.00     0.009 A 
ATOM     72  C   UNL A   1      46.080  28.363  36.053  1.00  0.00     0.001 A 
ATOM     73  C   UNL A   1      44.402  26.918  37.019  1.00  0.00     0.001 A 
ATOM     74  C   UNL A   1      45.732  27.319  36.910  1.00  0.00     0.000 A 
ENDBRANCH  56  69
ENDBRANCH  30  31
ENDBRANCH  22  25
ENDBRANCH  20  21
ENDBRANCH  19  20
ENDBRANCH   1  19
TORSDOF 14
ENDMDL
