MODEL 1
REMARK VINA RESULT:     -12.1      0.000      0.000
REMARK SMILES O=C(CCc1nc(-c2ccccc2)c(-c2ccccc2)o1)NCCCNC(=O)c1ccc(-c2c3nc(c(-c4ccccc4)c4ccc([nH]4)c(-c4ccccc4)c4nc(c(-c5ccccc5)c5ccc2[nH]5)C=C4)C=C3)cc1
REMARK SMILES IDX 23 1 22 2 1 3 2 4 3 6 4 7 5 8 6 9 21 10 7 11 14 12 8 13 9 14
REMARK SMILES IDX 13 15 10 16 12 17 11 18 15 19 16 20 20 21 17 22 19 23 18 24
REMARK SMILES IDX 24 25 25 26 26 27 27 28 28 30 29 31 30 32 76 33 31 34 75 35
REMARK SMILES IDX 32 36 33 37 34 38 69 39 35 40 74 41 68 42 70 43 36 44 73 45
REMARK SMILES IDX 67 46 66 47 37 49 59 50 44 51 58 52 45 53 48 54 57 55 71 56
REMARK SMILES IDX 46 57 47 58 56 60 72 61 49 62 38 63 39 64 43 65 40 66 42 67
REMARK SMILES IDX 41 68 60 69 61 70 65 71 62 72 64 73 63 74 50 75 51 76 55 77
REMARK SMILES IDX 52 78 54 79 53 80
REMARK H PARENT 22 5 26 29 70 48 48 59
REMARK Flexibility Score: inf
ROOT
ATOM      1  C   UNL A   1      31.600  28.205  27.756  1.00  0.00     0.117 C 
ENDROOT
BRANCH   1   2
ATOM      2  N   UNL A   1      30.994  27.159  26.959  1.00  0.00    -0.356 N 
ATOM      3  O   UNL A   1      32.941  26.268  26.135  1.00  0.00    -0.275 OA
ATOM      4  C   UNL A   1      31.718  26.246  26.229  1.00  0.00     0.220 C 
ATOM      5  H   UNL A   1      30.011  27.099  26.938  1.00  0.00     0.163 HD
BRANCH   4   6
ATOM      6  C   UNL A   1      30.885  25.208  25.494  1.00  0.00     0.110 C 
BRANCH   6   7
ATOM      7  C   UNL A   1      30.634  23.934  26.299  1.00  0.00     0.107 C 
BRANCH   7   8
ATOM      8  C   UNL A   1      31.516  22.818  25.859  1.00  0.00     0.196 A 
ATOM      9  N   UNL A   1      31.151  21.593  25.519  1.00  0.00    -0.213 NA
ATOM     10  O   UNL A   1      32.848  23.096  25.668  1.00  0.00    -0.440 OA
ATOM     11  C   UNL A   1      32.313  21.022  25.086  1.00  0.00     0.117 A 
ATOM     12  C   UNL A   1      33.349  21.931  25.155  1.00  0.00     0.162 A 
BRANCH  11  13
ATOM     13  C   UNL A   1      32.444  19.701  24.526  1.00  0.00     0.004 A 
ATOM     14  C   UNL A   1      32.937  18.641  25.291  1.00  0.00     0.010 A 
ATOM     15  C   UNL A   1      32.207  19.520  23.159  1.00  0.00     0.010 A 
ATOM     16  C   UNL A   1      33.212  17.416  24.680  1.00  0.00     0.001 A 
ATOM     17  C   UNL A   1      32.524  18.312  22.546  1.00  0.00     0.001 A 
ATOM     18  C   UNL A   1      33.015  17.256  23.307  1.00  0.00     0.000 A 
ENDBRANCH  11  13
BRANCH  12  19
ATOM     19  C   UNL A   1      34.740  21.864  24.755  1.00  0.00     0.020 A 
ATOM     20  C   UNL A   1      35.218  22.642  23.698  1.00  0.00     0.012 A 
ATOM     21  C   UNL A   1      35.656  21.183  25.571  1.00  0.00     0.012 A 
ATOM     22  C   UNL A   1      36.594  22.783  23.503  1.00  0.00     0.001 A 
ATOM     23  C   UNL A   1      37.028  21.340  25.389  1.00  0.00     0.001 A 
ATOM     24  C   UNL A   1      37.497  22.151  24.360  1.00  0.00     0.000 A 
ENDBRANCH  12  19
ENDBRANCH   7   8
ENDBRANCH   6   7
ENDBRANCH   4   6
ENDBRANCH   1   2
BRANCH   1  25
ATOM     25  C   UNL A   1      31.973  29.433  26.930  1.00  0.00     0.042 C 
BRANCH  25  26
ATOM     26  C   UNL A   1      33.447  29.832  26.990  1.00  0.00     0.118 C 
BRANCH  26  27
ATOM     27  N   UNL A   1      33.698  30.991  27.832  1.00  0.00    -0.352 N 
ATOM     28  C   UNL A   1      34.728  31.281  28.696  1.00  0.00     0.251 C 
ATOM     29  H   UNL A   1      33.010  31.691  27.774  1.00  0.00     0.163 HD
ATOM     30  O   UNL A   1      34.631  32.266  29.422  1.00  0.00    -0.269 OA
BRANCH  28  31
ATOM     31  C   UNL A   1      35.941  30.425  28.799  1.00  0.00     0.039 A 
ATOM     32  C   UNL A   1      36.799  30.380  27.692  1.00  0.00     0.014 A 
ATOM     33  C   UNL A   1      36.244  29.654  29.926  1.00  0.00     0.014 A 
ATOM     34  C   UNL A   1      38.010  29.691  27.767  1.00  0.00     0.010 A 
ATOM     35  C   UNL A   1      37.475  29.009  30.027  1.00  0.00     0.010 A 
ATOM     36  C   UNL A   1      38.388  29.073  28.968  1.00  0.00    -0.014 A 
BRANCH  36  37
ATOM     37  C   UNL A   1      39.801  28.700  29.207  1.00  0.00     0.031 A 
ATOM     38  C   UNL A   1      40.795  29.673  29.754  1.00  0.00     0.074 A 
ATOM     39  C   UNL A   1      40.185  27.471  28.807  1.00  0.00     0.049 A 
ATOM     40  N   UNL A   1      42.070  29.494  29.989  1.00  0.00    -0.248 NA
ATOM     41  C   UNL A   1      40.308  31.026  30.060  1.00  0.00     0.031 C 
ATOM     42  C   UNL A   1      39.303  26.471  28.195  1.00  0.00     0.029 A 
ATOM     43  N   UNL A   1      41.409  26.855  28.839  1.00  0.00    -0.354 N 
ATOM     44  C   UNL A   1      42.540  30.706  30.476  1.00  0.00     0.074 A 
ATOM     45  C   UNL A   1      41.421  31.627  30.459  1.00  0.00     0.031 C 
ATOM     46  C   UNL A   1      40.007  25.361  27.935  1.00  0.00     0.029 A 
ATOM     47  C   UNL A   1      41.395  25.583  28.318  1.00  0.00     0.049 A 
ATOM     48  H   UNL A   1      42.220  27.282  29.199  1.00  0.00     0.167 HD
ATOM     49  C   UNL A   1      43.788  31.012  30.905  1.00  0.00     0.031 A 
ATOM     50  C   UNL A   1      42.391  24.695  28.159  1.00  0.00     0.031 A 
ATOM     51  C   UNL A   1      44.896  30.090  30.880  1.00  0.00     0.049 A 
ATOM     52  C   UNL A   1      43.769  25.073  28.615  1.00  0.00     0.074 A 
ATOM     53  C   UNL A   1      46.188  30.281  31.339  1.00  0.00     0.029 A 
ATOM     54  N   UNL A   1      44.846  28.808  30.349  1.00  0.00    -0.354 N 
ATOM     55  N   UNL A   1      44.174  26.189  29.170  1.00  0.00    -0.248 NA
ATOM     56  C   UNL A   1      44.822  24.067  28.434  1.00  0.00     0.031 C 
ATOM     57  C   UNL A   1      46.935  29.139  31.026  1.00  0.00     0.029 A 
ATOM     58  C   UNL A   1      46.093  28.212  30.434  1.00  0.00     0.049 A 
ATOM     59  H   UNL A   1      44.042  28.386  29.968  1.00  0.00     0.167 HD
ATOM     60  C   UNL A   1      45.526  26.013  29.428  1.00  0.00     0.074 A 
ATOM     61  C   UNL A   1      45.863  24.673  28.986  1.00  0.00     0.031 C 
ATOM     62  C   UNL A   1      46.409  26.881  29.978  1.00  0.00     0.031 A 
BRANCH  49  63
ATOM     63  C   UNL A   1      44.025  32.405  31.423  1.00  0.00    -0.014 A 
ATOM     64  C   UNL A   1      43.871  32.711  32.785  1.00  0.00     0.009 A 
ATOM     65  C   UNL A   1      44.453  33.417  30.548  1.00  0.00     0.009 A 
ATOM     66  C   UNL A   1      44.105  34.007  33.253  1.00  0.00     0.001 A 
ATOM     67  C   UNL A   1      44.713  34.705  31.023  1.00  0.00     0.001 A 
ATOM     68  C   UNL A   1      44.529  35.001  32.373  1.00  0.00     0.000 A 
ENDBRANCH  49  63
BRANCH  50  69
ATOM     69  C   UNL A   1      42.112  23.366  27.556  1.00  0.00    -0.014 A 
ATOM     70  C   UNL A   1      41.565  22.333  28.333  1.00  0.00     0.009 A 
ATOM     71  C   UNL A   1      42.372  23.126  26.197  1.00  0.00     0.009 A 
ATOM     72  C   UNL A   1      41.312  21.081  27.767  1.00  0.00     0.001 A 
ATOM     73  C   UNL A   1      42.089  21.884  25.627  1.00  0.00     0.001 A 
ATOM     74  C   UNL A   1      41.568  20.859  26.416  1.00  0.00     0.000 A 
ENDBRANCH  50  69
BRANCH  62  75
ATOM     75  C   UNL A   1      47.821  26.396  30.150  1.00  0.00    -0.014 A 
ATOM     76  C   UNL A   1      48.254  25.829  31.359  1.00  0.00     0.009 A 
ATOM     77  C   UNL A   1      48.719  26.476  29.075  1.00  0.00     0.009 A 
ATOM     78  C   UNL A   1      49.569  25.382  31.496  1.00  0.00     0.001 A 
ATOM     79  C   UNL A   1      50.023  25.999  29.205  1.00  0.00     0.001 A 
ATOM     80  C   UNL A   1      50.450  25.462  30.418  1.00  0.00     0.000 A 
ENDBRANCH  62  75
ENDBRANCH  36  37
ENDBRANCH  28  31
ENDBRANCH  26  27
ENDBRANCH  25  26
ENDBRANCH   1  25
TORSDOF 14
ENDMDL
MODEL 2
REMARK VINA RESULT:     -12.0      1.104      2.567
REMARK SMILES O=C(CCc1nc(-c2ccccc2)c(-c2ccccc2)o1)NCCCNC(=O)c1ccc(-c2c3nc(c(-c4ccccc4)c4ccc([nH]4)c(-c4ccccc4)c4nc(c(-c5ccccc5)c5ccc2[nH]5)C=C4)C=C3)cc1
REMARK SMILES IDX 23 1 22 2 1 3 2 4 3 6 4 7 5 8 6 9 21 10 7 11 14 12 8 13 9 14
REMARK SMILES IDX 13 15 10 16 12 17 11 18 15 19 16 20 20 21 17 22 19 23 18 24
REMARK SMILES IDX 24 25 25 26 26 27 27 28 28 30 29 31 30 32 76 33 31 34 75 35
REMARK SMILES IDX 32 36 33 37 34 38 69 39 35 40 74 41 68 42 70 43 36 44 73 45
REMARK SMILES IDX 67 46 66 47 37 49 59 50 44 51 58 52 45 53 48 54 57 55 71 56
REMARK SMILES IDX 46 57 47 58 56 60 72 61 49 62 38 63 39 64 43 65 40 66 42 67
REMARK SMILES IDX 41 68 60 69 61 70 65 71 62 72 64 73 63 74 50 75 51 76 55 77
REMARK SMILES IDX 52 78 54 79 53 80
REMARK H PARENT 22 5 26 29 70 48 48 59
REMARK Flexibility Score: inf
ROOT
ATOM      1  C   UNL A   1      31.901  28.192  27.404  1.00  0.00     0.117 C 
ENDROOT
BRANCH   1   2
ATOM      2  N   UNL A   1      31.390  27.981  26.066  1.00  0.00    -0.356 N 
ATOM      3  O   UNL A   1      30.397  25.950  26.458  1.00  0.00    -0.275 OA
ATOM      4  C   UNL A   1      30.646  26.884  25.701  1.00  0.00     0.220 C 
ATOM      5  H   UNL A   1      31.585  28.660  25.379  1.00  0.00     0.163 HD
BRANCH   4   6
ATOM      6  C   UNL A   1      30.176  26.878  24.255  1.00  0.00     0.110 C 
BRANCH   6   7
ATOM      7  C   UNL A   1      31.315  26.882  23.236  1.00  0.00     0.107 C 
BRANCH   7   8
ATOM      8  C   UNL A   1      32.216  25.709  23.410  1.00  0.00     0.196 A 
ATOM      9  N   UNL A   1      33.513  25.725  23.668  1.00  0.00    -0.213 NA
ATOM     10  O   UNL A   1      31.643  24.460  23.418  1.00  0.00    -0.440 OA
ATOM     11  C   UNL A   1      33.819  24.407  23.849  1.00  0.00     0.117 A 
ATOM     12  C   UNL A   1      32.688  23.629  23.717  1.00  0.00     0.162 A 
BRANCH  11  13
ATOM     13  C   UNL A   1      35.107  23.887  24.236  1.00  0.00     0.004 A 
ATOM     14  C   UNL A   1      35.791  22.983  23.421  1.00  0.00     0.010 A 
ATOM     15  C   UNL A   1      35.601  24.187  25.509  1.00  0.00     0.010 A 
ATOM     16  C   UNL A   1      36.952  22.366  23.894  1.00  0.00     0.001 A 
ATOM     17  C   UNL A   1      36.733  23.538  25.994  1.00  0.00     0.001 A 
ATOM     18  C   UNL A   1      37.415  22.637  25.183  1.00  0.00     0.000 A 
ENDBRANCH  11  13
BRANCH  12  19
ATOM     19  C   UNL A   1      32.448  22.210  23.885  1.00  0.00     0.020 A 
ATOM     20  C   UNL A   1      32.206  21.390  22.781  1.00  0.00     0.012 A 
ATOM     21  C   UNL A   1      32.679  21.620  25.137  1.00  0.00     0.012 A 
ATOM     22  C   UNL A   1      32.256  20.000  22.920  1.00  0.00     0.001 A 
ATOM     23  C   UNL A   1      32.749  20.235  25.272  1.00  0.00     0.001 A 
ATOM     24  C   UNL A   1      32.550  19.425  24.158  1.00  0.00     0.000 A 
ENDBRANCH  12  19
ENDBRANCH   7   8
ENDBRANCH   6   7
ENDBRANCH   4   6
ENDBRANCH   1   2
BRANCH   1  25
ATOM     25  C   UNL A   1      33.367  28.618  27.414  1.00  0.00     0.042 C 
BRANCH  25  26
ATOM     26  C   UNL A   1      33.650  29.980  26.782  1.00  0.00     0.118 C 
BRANCH  26  27
ATOM     27  N   UNL A   1      33.827  31.044  27.757  1.00  0.00    -0.352 N 
ATOM     28  C   UNL A   1      34.792  31.249  28.714  1.00  0.00     0.251 C 
ATOM     29  H   UNL A   1      33.133  31.741  27.727  1.00  0.00     0.163 HD
ATOM     30  O   UNL A   1      34.632  32.149  29.533  1.00  0.00    -0.269 OA
BRANCH  28  31
ATOM     31  C   UNL A   1      36.008  30.396  28.809  1.00  0.00     0.039 A 
ATOM     32  C   UNL A   1      36.866  30.364  27.701  1.00  0.00     0.014 A 
ATOM     33  C   UNL A   1      36.316  29.617  29.929  1.00  0.00     0.014 A 
ATOM     34  C   UNL A   1      38.079  29.679  27.768  1.00  0.00     0.010 A 
ATOM     35  C   UNL A   1      37.549  28.975  30.023  1.00  0.00     0.010 A 
ATOM     36  C   UNL A   1      38.461  29.053  28.963  1.00  0.00    -0.014 A 
BRANCH  36  37
ATOM     37  C   UNL A   1      39.875  28.682  29.197  1.00  0.00     0.031 A 
ATOM     38  C   UNL A   1      40.870  29.658  29.741  1.00  0.00     0.074 A 
ATOM     39  C   UNL A   1      40.261  27.454  28.796  1.00  0.00     0.049 A 
ATOM     40  N   UNL A   1      42.145  29.481  29.972  1.00  0.00    -0.248 NA
ATOM     41  C   UNL A   1      40.380  31.009  30.049  1.00  0.00     0.031 C 
ATOM     42  C   UNL A   1      39.379  26.453  28.187  1.00  0.00     0.029 A 
ATOM     43  N   UNL A   1      41.486  26.841  28.824  1.00  0.00    -0.354 N 
ATOM     44  C   UNL A   1      42.614  30.694  30.458  1.00  0.00     0.074 A 
ATOM     45  C   UNL A   1      41.493  31.613  30.445  1.00  0.00     0.031 C 
ATOM     46  C   UNL A   1      40.085  25.344  27.924  1.00  0.00     0.029 A 
ATOM     47  C   UNL A   1      41.473  25.569  28.303  1.00  0.00     0.049 A 
ATOM     48  H   UNL A   1      42.297  27.270  29.182  1.00  0.00     0.167 HD
ATOM     49  C   UNL A   1      43.862  31.003  30.883  1.00  0.00     0.031 A 
ATOM     50  C   UNL A   1      42.471  24.683  28.140  1.00  0.00     0.031 A 
ATOM     51  C   UNL A   1      44.972  30.084  30.854  1.00  0.00     0.049 A 
ATOM     52  C   UNL A   1      43.849  25.065  28.592  1.00  0.00     0.074 A 
ATOM     53  C   UNL A   1      46.266  30.278  31.308  1.00  0.00     0.029 A 
ATOM     54  N   UNL A   1      44.924  28.802  30.323  1.00  0.00    -0.354 N 
ATOM     55  N   UNL A   1      44.255  26.182  29.146  1.00  0.00    -0.248 NA
ATOM     56  C   UNL A   1      44.905  24.061  28.408  1.00  0.00     0.031 C 
ATOM     57  C   UNL A   1      47.015  29.138  30.993  1.00  0.00     0.029 A 
ATOM     58  C   UNL A   1      46.172  28.208  30.403  1.00  0.00     0.049 A 
ATOM     59  H   UNL A   1      44.120  28.378  29.945  1.00  0.00     0.167 HD
ATOM     60  C   UNL A   1      45.608  26.008  29.399  1.00  0.00     0.074 A 
ATOM     61  C   UNL A   1      45.946  24.670  28.956  1.00  0.00     0.031 C 
ATOM     62  C   UNL A   1      46.490  26.878  29.946  1.00  0.00     0.031 A 
BRANCH  49  63
ATOM     63  C   UNL A   1      44.098  32.397  31.400  1.00  0.00    -0.014 A 
ATOM     64  C   UNL A   1      44.516  33.429  30.543  1.00  0.00     0.009 A 
ATOM     65  C   UNL A   1      43.857  32.697  32.750  1.00  0.00     0.009 A 
ATOM     66  C   UNL A   1      44.722  34.721  31.036  1.00  0.00     0.001 A 
ATOM     67  C   UNL A   1      44.035  33.995  33.233  1.00  0.00     0.001 A 
ATOM     68  C   UNL A   1      44.478  35.003  32.378  1.00  0.00     0.000 A 
ENDBRANCH  49  63
BRANCH  50  69
ATOM     69  C   UNL A   1      42.193  23.354  27.539  1.00  0.00    -0.014 A 
ATOM     70  C   UNL A   1      42.433  23.125  26.175  1.00  0.00     0.009 A 
ATOM     71  C   UNL A   1      41.707  22.298  28.326  1.00  0.00     0.009 A 
ATOM     72  C   UNL A   1      42.163  21.878  25.608  1.00  0.00     0.001 A 
ATOM     73  C   UNL A   1      41.469  21.043  27.764  1.00  0.00     0.001 A 
ATOM     74  C   UNL A   1      41.687  20.837  26.403  1.00  0.00     0.000 A 
ENDBRANCH  50  69
BRANCH  62  75
ATOM     75  C   UNL A   1      47.904  26.396  30.113  1.00  0.00    -0.014 A 
ATOM     76  C   UNL A   1      48.334  25.799  31.309  1.00  0.00     0.009 A 
ATOM     77  C   UNL A   1      48.808  26.511  29.046  1.00  0.00     0.009 A 
ATOM     78  C   UNL A   1      49.650  25.356  31.442  1.00  0.00     0.001 A 
ATOM     79  C   UNL A   1      50.113  26.038  29.171  1.00  0.00     0.001 A 
ATOM     80  C   UNL A   1      50.537  25.470  30.372  1.00  0.00     0.000 A 
ENDBRANCH  62  75
ENDBRANCH  36  37
ENDBRANCH  28  31
ENDBRANCH  26  27
ENDBRANCH  25  26
ENDBRANCH   1  25
TORSDOF 14
ENDMDL
MODEL 3
REMARK VINA RESULT:     -11.9      2.248      7.814
REMARK SMILES O=C(CCc1nc(-c2ccccc2)c(-c2ccccc2)o1)NCCCNC(=O)c1ccc(-c2c3nc(c(-c4ccccc4)c4ccc([nH]4)c(-c4ccccc4)c4nc(c(-c5ccccc5)c5ccc2[nH]5)C=C4)C=C3)cc1
REMARK SMILES IDX 23 1 22 2 1 3 2 4 3 6 4 7 5 8 6 9 21 10 7 11 14 12 8 13 9 14
REMARK SMILES IDX 13 15 10 16 12 17 11 18 15 19 16 20 20 21 17 22 19 23 18 24
REMARK SMILES IDX 24 25 25 26 26 27 27 28 28 30 29 31 30 32 76 33 31 34 75 35
REMARK SMILES IDX 32 36 33 37 34 38 69 39 35 40 74 41 68 42 70 43 36 44 73 45
REMARK SMILES IDX 67 46 66 47 37 49 59 50 44 51 58 52 45 53 48 54 57 55 71 56
REMARK SMILES IDX 46 57 47 58 56 60 72 61 49 62 38 63 39 64 43 65 40 66 42 67
REMARK SMILES IDX 41 68 60 69 61 70 65 71 62 72 64 73 63 74 50 75 51 76 55 77
REMARK SMILES IDX 52 78 54 79 53 80
REMARK H PARENT 22 5 26 29 70 48 48 59
REMARK Flexibility Score: inf
ROOT
ATOM      1  C   UNL A   1      35.786  22.263  25.322  1.00  0.00     0.117 C 
ENDROOT
BRANCH   1   2
ATOM      2  N   UNL A   1      34.524  22.044  24.645  1.00  0.00    -0.356 N 
ATOM      3  O   UNL A   1      34.973  23.319  22.791  1.00  0.00    -0.275 OA
ATOM      4  C   UNL A   1      34.225  22.568  23.409  1.00  0.00     0.220 C 
ATOM      5  H   UNL A   1      33.844  21.490  25.093  1.00  0.00     0.163 HD
BRANCH   4   6
ATOM      6  C   UNL A   1      32.859  22.183  22.862  1.00  0.00     0.110 C 
BRANCH   6   7
ATOM      7  C   UNL A   1      31.720  22.365  23.864  1.00  0.00     0.107 C 
BRANCH   7   8
ATOM      8  C   UNL A   1      31.558  23.791  24.264  1.00  0.00     0.196 A 
ATOM      9  N   UNL A   1      32.139  24.410  25.277  1.00  0.00    -0.213 NA
ATOM     10  O   UNL A   1      30.815  24.603  23.441  1.00  0.00    -0.440 OA
ATOM     11  C   UNL A   1      31.750  25.710  25.121  1.00  0.00     0.117 A 
ATOM     12  C   UNL A   1      30.960  25.844  23.999  1.00  0.00     0.162 A 
BRANCH  11  13
ATOM     13  C   UNL A   1      32.183  26.820  25.933  1.00  0.00     0.004 A 
ATOM     14  C   UNL A   1      31.310  27.437  26.832  1.00  0.00     0.010 A 
ATOM     15  C   UNL A   1      33.449  27.371  25.705  1.00  0.00     0.010 A 
ATOM     16  C   UNL A   1      31.698  28.612  27.479  1.00  0.00     0.001 A 
ATOM     17  C   UNL A   1      33.815  28.565  26.318  1.00  0.00     0.001 A 
ATOM     18  C   UNL A   1      32.946  29.180  27.214  1.00  0.00     0.000 A 
ENDBRANCH  11  13
BRANCH  12  19
ATOM     19  C   UNL A   1      30.362  26.994  23.352  1.00  0.00     0.020 A 
ATOM     20  C   UNL A   1      29.002  27.272  23.501  1.00  0.00     0.012 A 
ATOM     21  C   UNL A   1      31.195  27.954  22.756  1.00  0.00     0.012 A 
ATOM     22  C   UNL A   1      28.498  28.517  23.115  1.00  0.00     0.001 A 
ATOM     23  C   UNL A   1      30.696  29.202  22.389  1.00  0.00     0.001 A 
ATOM     24  C   UNL A   1      29.348  29.488  22.581  1.00  0.00     0.000 A 
ENDBRANCH  12  19
ENDBRANCH   7   8
ENDBRANCH   6   7
ENDBRANCH   4   6
ENDBRANCH   1   2
BRANCH   1  25
ATOM     25  C   UNL A   1      36.835  21.214  24.963  1.00  0.00     0.042 C 
BRANCH  25  26
ATOM     26  C   UNL A   1      38.232  21.477  25.524  1.00  0.00     0.118 C 
BRANCH  26  27
ATOM     27  N   UNL A   1      39.060  20.283  25.593  1.00  0.00    -0.352 N 
ATOM     28  C   UNL A   1      40.360  20.101  26.003  1.00  0.00     0.251 C 
ATOM     29  H   UNL A   1      38.612  19.460  25.294  1.00  0.00     0.163 HD
ATOM     30  O   UNL A   1      40.892  19.011  25.815  1.00  0.00    -0.269 OA
BRANCH  28  31
ATOM     31  C   UNL A   1      41.150  21.190  26.640  1.00  0.00     0.039 A 
ATOM     32  C   UNL A   1      41.924  22.005  25.803  1.00  0.00     0.014 A 
ATOM     33  C   UNL A   1      41.175  21.416  28.020  1.00  0.00     0.014 A 
ATOM     34  C   UNL A   1      42.595  23.112  26.321  1.00  0.00     0.010 A 
ATOM     35  C   UNL A   1      41.797  22.550  28.536  1.00  0.00     0.010 A 
ATOM     36  C   UNL A   1      42.462  23.436  27.679  1.00  0.00    -0.014 A 
BRANCH  36  37
ATOM     37  C   UNL A   1      42.808  24.790  28.165  1.00  0.00     0.031 A 
ATOM     38  C   UNL A   1      41.771  25.850  28.363  1.00  0.00     0.074 A 
ATOM     39  C   UNL A   1      44.118  25.069  28.320  1.00  0.00     0.049 A 
ATOM     40  N   UNL A   1      41.932  27.087  28.757  1.00  0.00    -0.248 NA
ATOM     41  C   UNL A   1      40.379  25.485  28.065  1.00  0.00     0.031 C 
ATOM     42  C   UNL A   1      45.213  24.123  28.082  1.00  0.00     0.029 A 
ATOM     43  N   UNL A   1      44.755  26.222  28.696  1.00  0.00    -0.354 N 
ATOM     44  C   UNL A   1      40.663  27.651  28.761  1.00  0.00     0.074 A 
ATOM     45  C   UNL A   1      39.749  26.632  28.286  1.00  0.00     0.031 C 
ATOM     46  C   UNL A   1      46.382  24.724  28.344  1.00  0.00     0.029 A 
ATOM     47  C   UNL A   1      46.125  26.107  28.723  1.00  0.00     0.049 A 
ATOM     48  H   UNL A   1      44.278  27.054  28.925  1.00  0.00     0.167 HD
ATOM     49  C   UNL A   1      40.301  28.901  29.138  1.00  0.00     0.031 A 
ATOM     50  C   UNL A   1      47.071  27.016  29.014  1.00  0.00     0.031 A 
ATOM     51  C   UNL A   1      41.232  29.911  29.574  1.00  0.00     0.049 A 
ATOM     52  C   UNL A   1      46.641  28.401  29.398  1.00  0.00     0.074 A 
ATOM     53  C   UNL A   1      40.966  31.192  30.027  1.00  0.00     0.029 A 
ATOM     54  N   UNL A   1      42.612  29.760  29.593  1.00  0.00    -0.354 N 
ATOM     55  N   UNL A   1      45.428  28.889  29.497  1.00  0.00    -0.248 NA
ATOM     56  C   UNL A   1      47.708  29.356  29.721  1.00  0.00     0.031 C 
ATOM     57  C   UNL A   1      42.188  31.836  30.257  1.00  0.00     0.029 A 
ATOM     58  C   UNL A   1      43.212  30.935  30.013  1.00  0.00     0.049 A 
ATOM     59  H   UNL A   1      43.093  28.938  29.344  1.00  0.00     0.167 HD
ATOM     60  C   UNL A   1      45.583  30.202  29.917  1.00  0.00     0.074 A 
ATOM     61  C   UNL A   1      47.007  30.425  30.073  1.00  0.00     0.031 C 
ATOM     62  C   UNL A   1      44.633  31.139  30.150  1.00  0.00     0.031 A 
BRANCH  49  63
ATOM     63  C   UNL A   1      38.838  29.251  29.078  1.00  0.00    -0.014 A 
ATOM     64  C   UNL A   1      38.249  29.713  27.891  1.00  0.00     0.009 A 
ATOM     65  C   UNL A   1      38.026  29.073  30.210  1.00  0.00     0.009 A 
ATOM     66  C   UNL A   1      36.887  30.025  27.848  1.00  0.00     0.001 A 
ATOM     67  C   UNL A   1      36.660  29.358  30.157  1.00  0.00     0.001 A 
ATOM     68  C   UNL A   1      36.094  29.843  28.979  1.00  0.00     0.000 A 
ENDBRANCH  49  63
BRANCH  50  69
ATOM     69  C   UNL A   1      48.506  26.636  28.967  1.00  0.00    -0.014 A 
ATOM     70  C   UNL A   1      49.243  26.783  27.782  1.00  0.00     0.009 A 
ATOM     71  C   UNL A   1      49.155  26.143  30.111  1.00  0.00     0.009 A 
ATOM     72  C   UNL A   1      50.590  26.417  27.736  1.00  0.00     0.001 A 
ATOM     73  C   UNL A   1      50.510  25.808  30.071  1.00  0.00     0.001 A 
ATOM     74  C   UNL A   1      51.223  25.935  28.880  1.00  0.00     0.000 A 
ENDBRANCH  50  69
BRANCH  62  75
ATOM     75  C   UNL A   1      45.108  32.486  30.619  1.00  0.00    -0.014 A 
ATOM     76  C   UNL A   1      45.379  32.731  31.974  1.00  0.00     0.009 A 
ATOM     77  C   UNL A   1      45.319  33.512  29.686  1.00  0.00     0.009 A 
ATOM     78  C   UNL A   1      45.821  33.988  32.388  1.00  0.00     0.001 A 
ATOM     79  C   UNL A   1      45.793  34.756  30.098  1.00  0.00     0.001 A 
ATOM     80  C   UNL A   1      46.035  34.997  31.450  1.00  0.00     0.000 A 
ENDBRANCH  62  75
ENDBRANCH  36  37
ENDBRANCH  28  31
ENDBRANCH  26  27
ENDBRANCH  25  26
ENDBRANCH   1  25
TORSDOF 14
ENDMDL
