MODEL 1
REMARK VINA RESULT:     -10.9      0.000      0.000
REMARK SMILES C[C@H](C(=O)NCCCNC(=O)c1ccc(-c2c3nc(c(-c4ccccc4)c4ccc([nH]4)c(-c4ccccc4)c4nc(c(-c5ccccc5)c5ccc2[nH]5)C=C4)C=C3)cc1)c1ccc2c3cc(Cl)ccc3n(C(=O)c3ccc(Cl)cc3)c2c1
REMARK SMILES IDX 6 1 5 2 3 3 4 4 2 6 1 7 60 8 61 9 82 10 62 11 81 12 63 13
REMARK SMILES IDX 71 14 64 15 70 16 65 17 69 18 66 19 68 20 67 21 72 22 73 23
REMARK SMILES IDX 74 24 75 25 80 26 76 27 79 28 77 29 78 30 7 31 8 32 9 33
REMARK SMILES IDX 10 34 11 36 12 37 13 38 59 39 14 40 58 41 15 42 16 43 17 44
REMARK SMILES IDX 52 45 18 46 57 47 51 48 53 49 19 50 56 51 50 52 49 53 20 55
REMARK SMILES IDX 42 56 27 57 41 58 28 59 31 60 40 61 54 62 29 63 30 64 39 66
REMARK SMILES IDX 55 67 32 68 21 69 22 70 26 71 23 72 25 73 24 74 43 75 44 76
REMARK SMILES IDX 48 77 45 78 47 79 46 80 33 81 34 82 38 83 35 84 37 85 36 86
REMARK H PARENT 5 5 9 35 53 54 31 65
REMARK Flexibility Score: inf
ROOT
ATOM      1  C   UNL A   1      43.367  18.654  26.655  1.00  0.00     0.117 C 
ENDROOT
BRANCH   1   2
ATOM      2  N   UNL A   1      43.539  18.658  25.217  1.00  0.00    -0.356 N 
ATOM      3  C   UNL A   1      44.446  19.341  24.454  1.00  0.00     0.227 C 
ATOM      4  O   UNL A   1      44.404  19.179  23.233  1.00  0.00    -0.274 OA
ATOM      5  H   UNL A   1      42.912  18.088  24.715  1.00  0.00     0.163 HD
BRANCH   3   6
ATOM      6  C   UNL A   1      45.479  20.254  25.132  1.00  0.00     0.105 C 
ATOM      7  C   UNL A   1      46.792  20.263  24.340  1.00  0.00     0.023 C 
BRANCH   6   8
ATOM      8  C   UNL A   1      44.959  21.675  25.316  1.00  0.00    -0.034 A 
ATOM      9  C   UNL A   1      43.693  22.033  24.849  1.00  0.00     0.005 A 
ATOM     10  C   UNL A   1      45.754  22.640  25.954  1.00  0.00     0.032 A 
ATOM     11  C   UNL A   1      43.219  23.343  24.988  1.00  0.00     0.011 A 
ATOM     12  C   UNL A   1      45.282  23.962  26.080  1.00  0.00     0.057 A 
ATOM     13  C   UNL A   1      44.022  24.322  25.613  1.00  0.00     0.008 A 
ATOM     14  N   UNL A   1      45.869  25.088  26.675  1.00  0.00    -0.276 N 
ATOM     15  C   UNL A   1      43.850  25.710  25.873  1.00  0.00     0.009 A 
ATOM     16  C   UNL A   1      45.019  26.184  26.484  1.00  0.00     0.057 A 
ATOM     17  C   UNL A   1      42.800  26.610  25.585  1.00  0.00     0.031 A 
ATOM     18  C   UNL A   1      45.192  27.562  26.728  1.00  0.00     0.029 A 
ATOM     19  C   UNL A   1      42.959  27.964  25.872  1.00  0.00     0.041 A 
ATOM     20  C   UNL A   1      44.141  28.438  26.425  1.00  0.00     0.023 A 
ATOM     21  Cl  UNL A   1      41.686  29.063  25.500  1.00  0.00    -0.084 Cl
BRANCH  14  22
ATOM     22  C   UNL A   1      47.147  25.064  27.289  1.00  0.00     0.262 C 
ATOM     23  O   UNL A   1      47.162  24.743  28.479  1.00  0.00    -0.268 OA
BRANCH  22  24
ATOM     24  C   UNL A   1      48.465  25.428  26.687  1.00  0.00     0.040 A 
ATOM     25  C   UNL A   1      48.448  25.968  25.385  1.00  0.00     0.015 A 
ATOM     26  C   UNL A   1      49.703  25.157  27.280  1.00  0.00     0.015 A 
ATOM     27  C   UNL A   1      49.632  26.260  24.705  1.00  0.00     0.021 A 
ATOM     28  C   UNL A   1      50.893  25.481  26.610  1.00  0.00     0.021 A 
ATOM     29  C   UNL A   1      50.853  26.026  25.326  1.00  0.00     0.041 A 
ATOM     30  Cl  UNL A   1      52.316  26.388  24.497  1.00  0.00    -0.084 Cl
ENDBRANCH  22  24
ENDBRANCH  14  22
ENDBRANCH   6   8
ENDBRANCH   3   6
ENDBRANCH   1   2
BRANCH   1  31
ATOM     31  C   UNL A   1      41.930  18.953  27.077  1.00  0.00     0.042 C 
BRANCH  31  32
ATOM     32  C   UNL A   1      41.559  20.435  27.055  1.00  0.00     0.118 C 
BRANCH  32  33
ATOM     33  N   UNL A   1      40.385  20.706  26.237  1.00  0.00    -0.352 N 
ATOM     34  C   UNL A   1      39.574  21.808  26.151  1.00  0.00     0.251 C 
ATOM     35  H   UNL A   1      40.128  19.966  25.640  1.00  0.00     0.163 HD
ATOM     36  O   UNL A   1      38.530  21.723  25.508  1.00  0.00    -0.269 OA
BRANCH  34  37
ATOM     37  C   UNL A   1      39.916  23.088  26.813  1.00  0.00     0.039 A 
ATOM     38  C   UNL A   1      40.852  23.059  27.854  1.00  0.00     0.014 A 
ATOM     39  C   UNL A   1      39.284  24.292  26.490  1.00  0.00     0.014 A 
ATOM     40  C   UNL A   1      41.181  24.232  28.536  1.00  0.00     0.010 A 
ATOM     41  C   UNL A   1      39.660  25.477  27.127  1.00  0.00     0.010 A 
ATOM     42  C   UNL A   1      40.607  25.458  28.161  1.00  0.00    -0.014 A 
BRANCH  42  43
ATOM     43  C   UNL A   1      41.013  26.714  28.843  1.00  0.00     0.031 A 
ATOM     44  C   UNL A   1      42.397  26.879  29.405  1.00  0.00     0.074 A 
ATOM     45  C   UNL A   1      40.115  27.711  28.970  1.00  0.00     0.049 A 
ATOM     46  N   UNL A   1      42.930  27.925  29.989  1.00  0.00    -0.248 NA
ATOM     47  C   UNL A   1      43.296  25.718  29.319  1.00  0.00     0.031 C 
ATOM     48  C   UNL A   1      38.725  27.660  28.512  1.00  0.00     0.029 A 
ATOM     49  N   UNL A   1      40.241  28.964  29.515  1.00  0.00    -0.354 N 
ATOM     50  C   UNL A   1      44.218  27.546  30.345  1.00  0.00     0.074 A 
ATOM     51  C   UNL A   1      44.373  26.161  29.954  1.00  0.00     0.031 C 
ATOM     52  C   UNL A   1      38.139  28.843  28.757  1.00  0.00     0.029 A 
ATOM     53  C   UNL A   1      39.100  29.722  29.415  1.00  0.00     0.049 A 
ATOM     54  H   UNL A   1      41.069  29.288  29.936  1.00  0.00     0.167 HD
ATOM     55  C   UNL A   1      45.193  28.287  30.926  1.00  0.00     0.031 A 
ATOM     56  C   UNL A   1      38.854  30.988  29.800  1.00  0.00     0.031 A 
ATOM     57  C   UNL A   1      45.046  29.666  31.313  1.00  0.00     0.049 A 
ATOM     58  C   UNL A   1      39.954  31.790  30.436  1.00  0.00     0.074 A 
ATOM     59  C   UNL A   1      45.992  30.516  31.859  1.00  0.00     0.029 A 
ATOM     60  N   UNL A   1      43.873  30.396  31.198  1.00  0.00    -0.354 N 
ATOM     61  N   UNL A   1      41.189  31.439  30.695  1.00  0.00    -0.248 NA
ATOM     62  C   UNL A   1      39.624  33.171  30.818  1.00  0.00     0.031 C 
ATOM     63  C   UNL A   1      45.379  31.747  32.118  1.00  0.00     0.029 A 
ATOM     64  C   UNL A   1      44.065  31.679  31.685  1.00  0.00     0.049 A 
ATOM     65  H   UNL A   1      43.029  30.054  30.826  1.00  0.00     0.167 HD
ATOM     66  C   UNL A   1      41.791  32.559  31.252  1.00  0.00     0.074 A 
ATOM     67  C   UNL A   1      40.791  33.608  31.270  1.00  0.00     0.031 C 
ATOM     68  C   UNL A   1      43.058  32.707  31.712  1.00  0.00     0.031 A 
BRANCH  55  69
ATOM     69  C   UNL A   1      46.513  27.614  31.183  1.00  0.00    -0.014 A 
ATOM     70  C   UNL A   1      46.733  26.867  32.352  1.00  0.00     0.009 A 
ATOM     71  C   UNL A   1      47.540  27.697  30.229  1.00  0.00     0.009 A 
ATOM     72  C   UNL A   1      47.963  26.247  32.576  1.00  0.00     0.001 A 
ATOM     73  C   UNL A   1      48.760  27.053  30.443  1.00  0.00     0.001 A 
ATOM     74  C   UNL A   1      48.975  26.337  31.620  1.00  0.00     0.000 A 
ENDBRANCH  55  69
BRANCH  56  75
ATOM     75  C   UNL A   1      37.516  31.588  29.566  1.00  0.00    -0.014 A 
ATOM     76  C   UNL A   1      36.520  31.511  30.550  1.00  0.00     0.009 A 
ATOM     77  C   UNL A   1      37.229  32.239  28.356  1.00  0.00     0.009 A 
ATOM     78  C   UNL A   1      35.254  32.055  30.319  1.00  0.00     0.001 A 
ATOM     79  C   UNL A   1      35.971  32.805  28.139  1.00  0.00     0.001 A 
ATOM     80  C   UNL A   1      34.983  32.705  29.117  1.00  0.00     0.000 A 
ENDBRANCH  56  75
BRANCH  68  81
ATOM     81  C   UNL A   1      43.431  34.057  32.255  1.00  0.00    -0.014 A 
ATOM     82  C   UNL A   1      43.258  34.365  33.613  1.00  0.00     0.009 A 
ATOM     83  C   UNL A   1      43.970  35.029  31.399  1.00  0.00     0.009 A 
ATOM     84  C   UNL A   1      43.579  35.635  34.095  1.00  0.00     0.001 A 
ATOM     85  C   UNL A   1      44.317  36.288  31.889  1.00  0.00     0.001 A 
ATOM     86  C   UNL A   1      44.110  36.595  33.233  1.00  0.00     0.000 A 
ENDBRANCH  68  81
ENDBRANCH  42  43
ENDBRANCH  34  37
ENDBRANCH  32  33
ENDBRANCH  31  32
ENDBRANCH   1  31
TORSDOF 13
ENDMDL
MODEL 2
REMARK VINA RESULT:     -10.8      3.799     10.599
REMARK SMILES C[C@H](C(=O)NCCCNC(=O)c1ccc(-c2c3nc(c(-c4ccccc4)c4ccc([nH]4)c(-c4ccccc4)c4nc(c(-c5ccccc5)c5ccc2[nH]5)C=C4)C=C3)cc1)c1ccc2c3cc(Cl)ccc3n(C(=O)c3ccc(Cl)cc3)c2c1
REMARK SMILES IDX 6 1 5 2 3 3 4 4 2 6 1 7 60 8 61 9 82 10 62 11 81 12 63 13
REMARK SMILES IDX 71 14 64 15 70 16 65 17 69 18 66 19 68 20 67 21 72 22 73 23
REMARK SMILES IDX 74 24 75 25 80 26 76 27 79 28 77 29 78 30 7 31 8 32 9 33
REMARK SMILES IDX 10 34 11 36 12 37 13 38 59 39 14 40 58 41 15 42 16 43 17 44
REMARK SMILES IDX 52 45 18 46 57 47 51 48 53 49 19 50 56 51 50 52 49 53 20 55
REMARK SMILES IDX 42 56 27 57 41 58 28 59 31 60 40 61 54 62 29 63 30 64 39 66
REMARK SMILES IDX 55 67 32 68 21 69 22 70 26 71 23 72 25 73 24 74 43 75 44 76
REMARK SMILES IDX 48 77 45 78 47 79 46 80 33 81 34 82 38 83 35 84 37 85 36 86
REMARK H PARENT 5 5 9 35 53 54 31 65
REMARK Flexibility Score: inf
ROOT
ATOM      1  C   UNL A   1      35.114  34.277  29.942  1.00  0.00     0.117 C 
ENDROOT
BRANCH   1   2
ATOM      2  N   UNL A   1      34.226  33.643  30.895  1.00  0.00    -0.356 N 
ATOM      3  C   UNL A   1      34.364  33.502  32.249  1.00  0.00     0.227 C 
ATOM      4  O   UNL A   1      33.463  32.923  32.859  1.00  0.00    -0.274 OA
ATOM      5  H   UNL A   1      33.404  33.257  30.514  1.00  0.00     0.163 HD
BRANCH   3   6
ATOM      6  C   UNL A   1      35.605  34.074  32.952  1.00  0.00     0.105 C 
ATOM      7  C   UNL A   1      35.248  34.559  34.362  1.00  0.00     0.023 C 
BRANCH   6   8
ATOM      8  C   UNL A   1      36.750  33.070  33.008  1.00  0.00    -0.034 A 
ATOM      9  C   UNL A   1      36.501  31.724  33.288  1.00  0.00     0.005 A 
ATOM     10  C   UNL A   1      38.070  33.491  32.783  1.00  0.00     0.032 A 
ATOM     11  C   UNL A   1      37.549  30.801  33.370  1.00  0.00     0.011 A 
ATOM     12  C   UNL A   1      39.126  32.563  32.880  1.00  0.00     0.057 A 
ATOM     13  C   UNL A   1      38.881  31.224  33.163  1.00  0.00     0.008 A 
ATOM     14  N   UNL A   1      40.506  32.728  32.693  1.00  0.00    -0.276 N 
ATOM     15  C   UNL A   1      40.138  30.559  33.206  1.00  0.00     0.009 A 
ATOM     16  C   UNL A   1      41.138  31.509  32.965  1.00  0.00     0.057 A 
ATOM     17  C   UNL A   1      40.499  29.222  33.485  1.00  0.00     0.031 A 
ATOM     18  C   UNL A   1      42.500  31.164  33.090  1.00  0.00     0.029 A 
ATOM     19  C   UNL A   1      41.846  28.876  33.561  1.00  0.00     0.041 A 
ATOM     20  C   UNL A   1      42.835  29.834  33.378  1.00  0.00     0.023 A 
ATOM     21  Cl  UNL A   1      42.285  27.251  33.923  1.00  0.00    -0.084 Cl
BRANCH  14  22
ATOM     22  C   UNL A   1      41.100  33.970  32.354  1.00  0.00     0.262 C 
ATOM     23  O   UNL A   1      41.423  34.685  33.305  1.00  0.00    -0.268 OA
BRANCH  22  24
ATOM     24  C   UNL A   1      41.335  34.539  30.992  1.00  0.00     0.040 A 
ATOM     25  C   UNL A   1      42.561  35.199  30.776  1.00  0.00     0.015 A 
ATOM     26  C   UNL A   1      40.377  34.562  29.973  1.00  0.00     0.015 A 
ATOM     27  C   UNL A   1      42.838  35.837  29.565  1.00  0.00     0.021 A 
ATOM     28  C   UNL A   1      40.668  35.174  28.744  1.00  0.00     0.021 A 
ATOM     29  C   UNL A   1      41.893  35.811  28.547  1.00  0.00     0.041 A 
ATOM     30  Cl  UNL A   1      42.229  36.590  27.051  1.00  0.00    -0.084 Cl
ENDBRANCH  22  24
ENDBRANCH  14  22
ENDBRANCH   6   8
ENDBRANCH   3   6
ENDBRANCH   1   2
BRANCH   1  31
ATOM     31  C   UNL A   1      36.121  33.302  29.338  1.00  0.00     0.042 C 
BRANCH  31  32
ATOM     32  C   UNL A   1      35.688  32.685  28.008  1.00  0.00     0.118 C 
BRANCH  32  33
ATOM     33  N   UNL A   1      34.959  31.436  28.182  1.00  0.00    -0.352 N 
ATOM     34  C   UNL A   1      35.385  30.134  28.214  1.00  0.00     0.251 C 
ATOM     35  H   UNL A   1      33.987  31.547  28.297  1.00  0.00     0.163 HD
ATOM     36  O   UNL A   1      34.545  29.238  28.193  1.00  0.00    -0.269 OA
BRANCH  34  37
ATOM     37  C   UNL A   1      36.823  29.779  28.265  1.00  0.00     0.039 A 
ATOM     38  C   UNL A   1      37.356  29.378  29.495  1.00  0.00     0.014 A 
ATOM     39  C   UNL A   1      37.667  29.908  27.158  1.00  0.00     0.014 A 
ATOM     40  C   UNL A   1      38.713  29.070  29.606  1.00  0.00     0.010 A 
ATOM     41  C   UNL A   1      39.010  29.536  27.252  1.00  0.00     0.010 A 
ATOM     42  C   UNL A   1      39.548  29.120  28.478  1.00  0.00    -0.014 A 
BRANCH  42  43
ATOM     43  C   UNL A   1      40.976  28.723  28.586  1.00  0.00     0.031 A 
ATOM     44  C   UNL A   1      41.421  27.328  28.246  1.00  0.00     0.074 A 
ATOM     45  C   UNL A   1      41.878  29.630  29.010  1.00  0.00     0.049 A 
ATOM     46  N   UNL A   1      42.633  26.828  28.241  1.00  0.00    -0.248 NA
ATOM     47  C   UNL A   1      40.373  26.361  27.884  1.00  0.00     0.031 C 
ATOM     48  C   UNL A   1      41.571  31.003  29.416  1.00  0.00     0.029 A 
ATOM     49  N   UNL A   1      43.239  29.534  29.160  1.00  0.00    -0.354 N 
ATOM     50  C   UNL A   1      42.491  25.493  27.883  1.00  0.00     0.074 A 
ATOM     51  C   UNL A   1      41.074  25.248  27.726  1.00  0.00     0.031 C 
ATOM     52  C   UNL A   1      42.713  31.634  29.730  1.00  0.00     0.029 A 
ATOM     53  C   UNL A   1      43.828  30.704  29.577  1.00  0.00     0.049 A 
ATOM     54  H   UNL A   1      43.744  28.708  28.987  1.00  0.00     0.167 HD
ATOM     55  C   UNL A   1      43.454  24.560  27.685  1.00  0.00     0.031 A 
ATOM     56  C   UNL A   1      45.121  31.000  29.802  1.00  0.00     0.031 A 
ATOM     57  C   UNL A   1      44.865  24.800  27.837  1.00  0.00     0.049 A 
ATOM     58  C   UNL A   1      46.168  29.949  29.567  1.00  0.00     0.074 A 
ATOM     59  C   UNL A   1      45.919  23.933  27.606  1.00  0.00     0.029 A 
ATOM     60  N   UNL A   1      45.420  25.997  28.263  1.00  0.00    -0.354 N 
ATOM     61  N   UNL A   1      46.022  28.714  29.156  1.00  0.00    -0.248 NA
ATOM     62  C   UNL A   1      47.563  30.343  29.815  1.00  0.00     0.031 C 
ATOM     63  C   UNL A   1      47.109  24.590  27.937  1.00  0.00     0.029 A 
ATOM     64  C   UNL A   1      46.799  25.883  28.325  1.00  0.00     0.049 A 
ATOM     65  H   UNL A   1      44.909  26.807  28.489  1.00  0.00     0.167 HD
ATOM     66  C   UNL A   1      47.305  28.188  29.077  1.00  0.00     0.074 A 
ATOM     67  C   UNL A   1      48.217  29.247  29.459  1.00  0.00     0.031 C 
ATOM     68  C   UNL A   1      47.693  26.939  28.723  1.00  0.00     0.031 A 
BRANCH  55  69
ATOM     69  C   UNL A   1      43.007  23.181  27.282  1.00  0.00    -0.014 A 
ATOM     70  C   UNL A   1      42.540  22.261  28.235  1.00  0.00     0.009 A 
ATOM     71  C   UNL A   1      43.018  22.808  25.928  1.00  0.00     0.009 A 
ATOM     72  C   UNL A   1      42.128  20.985  27.845  1.00  0.00     0.001 A 
ATOM     73  C   UNL A   1      42.580  21.541  25.538  1.00  0.00     0.001 A 
ATOM     74  C   UNL A   1      42.144  20.627  26.497  1.00  0.00     0.000 A 
ENDBRANCH  55  69
BRANCH  56  75
ATOM     75  C   UNL A   1      45.502  32.365  30.246  1.00  0.00    -0.014 A 
ATOM     76  C   UNL A   1      45.519  32.690  31.610  1.00  0.00     0.009 A 
ATOM     77  C   UNL A   1      45.850  33.349  29.307  1.00  0.00     0.009 A 
ATOM     78  C   UNL A   1      45.855  33.981  32.026  1.00  0.00     0.001 A 
ATOM     79  C   UNL A   1      46.211  34.631  29.728  1.00  0.00     0.001 A 
ATOM     80  C   UNL A   1      46.204  34.948  31.085  1.00  0.00     0.000 A 
ENDBRANCH  56  75
BRANCH  68  81
ATOM     81  C   UNL A   1      49.170  26.662  28.719  1.00  0.00    -0.014 A 
ATOM     82  C   UNL A   1      49.932  26.807  27.549  1.00  0.00     0.009 A 
ATOM     83  C   UNL A   1      49.808  26.261  29.902  1.00  0.00     0.009 A 
ATOM     84  C   UNL A   1      51.297  26.514  27.554  1.00  0.00     0.001 A 
ATOM     85  C   UNL A   1      51.178  25.997  29.912  1.00  0.00     0.001 A 
ATOM     86  C   UNL A   1      51.919  26.112  28.737  1.00  0.00     0.000 A 
ENDBRANCH  68  81
ENDBRANCH  42  43
ENDBRANCH  34  37
ENDBRANCH  32  33
ENDBRANCH  31  32
ENDBRANCH   1  31
TORSDOF 13
ENDMDL
MODEL 3
REMARK VINA RESULT:     -10.6      5.358     10.979
REMARK SMILES C[C@H](C(=O)NCCCNC(=O)c1ccc(-c2c3nc(c(-c4ccccc4)c4ccc([nH]4)c(-c4ccccc4)c4nc(c(-c5ccccc5)c5ccc2[nH]5)C=C4)C=C3)cc1)c1ccc2c3cc(Cl)ccc3n(C(=O)c3ccc(Cl)cc3)c2c1
REMARK SMILES IDX 6 1 5 2 3 3 4 4 2 6 1 7 60 8 61 9 82 10 62 11 81 12 63 13
REMARK SMILES IDX 71 14 64 15 70 16 65 17 69 18 66 19 68 20 67 21 72 22 73 23
REMARK SMILES IDX 74 24 75 25 80 26 76 27 79 28 77 29 78 30 7 31 8 32 9 33
REMARK SMILES IDX 10 34 11 36 12 37 13 38 59 39 14 40 58 41 15 42 16 43 17 44
REMARK SMILES IDX 52 45 18 46 57 47 51 48 53 49 19 50 56 51 50 52 49 53 20 55
REMARK SMILES IDX 42 56 27 57 41 58 28 59 31 60 40 61 54 62 29 63 30 64 39 66
REMARK SMILES IDX 55 67 32 68 21 69 22 70 26 71 23 72 25 73 24 74 43 75 44 76
REMARK SMILES IDX 48 77 45 78 47 79 46 80 33 81 34 82 38 83 35 84 37 85 36 86
REMARK H PARENT 5 5 9 35 53 54 31 65
REMARK Flexibility Score: inf
ROOT
ATOM      1  C   UNL A   1      31.707  27.901  23.681  1.00  0.00     0.117 C 
ENDROOT
BRANCH   1   2
ATOM      2  N   UNL A   1      31.127  27.598  24.974  1.00  0.00    -0.356 N 
ATOM      3  C   UNL A   1      30.752  26.389  25.494  1.00  0.00     0.227 C 
ATOM      4  O   UNL A   1      30.283  26.379  26.633  1.00  0.00    -0.274 OA
ATOM      5  H   UNL A   1      30.982  28.373  25.563  1.00  0.00     0.163 HD
BRANCH   3   6
ATOM      6  C   UNL A   1      30.943  25.111  24.664  1.00  0.00     0.105 C 
ATOM      7  C   UNL A   1      30.759  25.406  23.171  1.00  0.00     0.023 C 
BRANCH   6   8
ATOM      8  C   UNL A   1      32.297  24.458  24.915  1.00  0.00    -0.034 A 
ATOM      9  C   UNL A   1      33.355  25.199  25.446  1.00  0.00     0.005 A 
ATOM     10  C   UNL A   1      32.495  23.102  24.607  1.00  0.00     0.032 A 
ATOM     11  C   UNL A   1      34.610  24.615  25.652  1.00  0.00     0.011 A 
ATOM     12  C   UNL A   1      33.763  22.519  24.802  1.00  0.00     0.057 A 
ATOM     13  C   UNL A   1      34.819  23.256  25.328  1.00  0.00     0.008 A 
ATOM     14  N   UNL A   1      34.206  21.206  24.587  1.00  0.00    -0.276 N 
ATOM     15  C   UNL A   1      35.951  22.398  25.386  1.00  0.00     0.009 A 
ATOM     16  C   UNL A   1      35.575  21.148  24.878  1.00  0.00     0.057 A 
ATOM     17  C   UNL A   1      37.289  22.612  25.789  1.00  0.00     0.031 A 
ATOM     18  C   UNL A   1      36.535  20.135  24.679  1.00  0.00     0.029 A 
ATOM     19  C   UNL A   1      38.224  21.591  25.634  1.00  0.00     0.041 A 
ATOM     20  C   UNL A   1      37.858  20.373  25.076  1.00  0.00     0.023 A 
ATOM     21  Cl  UNL A   1      39.858  21.861  26.105  1.00  0.00    -0.084 Cl
BRANCH  14  22
ATOM     22  C   UNL A   1      33.369  20.176  24.088  1.00  0.00     0.262 C 
ATOM     23  O   UNL A   1      32.573  20.514  23.210  1.00  0.00    -0.268 OA
BRANCH  22  24
ATOM     24  C   UNL A   1      33.298  18.751  24.531  1.00  0.00     0.040 A 
ATOM     25  C   UNL A   1      33.804  17.779  23.644  1.00  0.00     0.015 A 
ATOM     26  C   UNL A   1      32.661  18.319  25.699  1.00  0.00     0.015 A 
ATOM     27  C   UNL A   1      33.706  16.415  23.929  1.00  0.00     0.021 A 
ATOM     28  C   UNL A   1      32.592  16.951  26.002  1.00  0.00     0.021 A 
ATOM     29  C   UNL A   1      33.110  16.006  25.115  1.00  0.00     0.041 A 
ATOM     30  Cl  UNL A   1      32.989  14.329  25.476  1.00  0.00    -0.084 Cl
ENDBRANCH  22  24
ENDBRANCH  14  22
ENDBRANCH   6   8
ENDBRANCH   3   6
ENDBRANCH   1   2
BRANCH   1  31
ATOM     31  C   UNL A   1      32.808  28.956  23.763  1.00  0.00     0.042 C 
BRANCH  31  32
ATOM     32  C   UNL A   1      33.320  29.229  25.176  1.00  0.00     0.118 C 
BRANCH  32  33
ATOM     33  N   UNL A   1      32.795  30.468  25.733  1.00  0.00    -0.352 N 
ATOM     34  C   UNL A   1      33.186  31.215  26.813  1.00  0.00     0.251 C 
ATOM     35  H   UNL A   1      32.020  30.834  25.246  1.00  0.00     0.163 HD
ATOM     36  O   UNL A   1      32.462  32.134  27.188  1.00  0.00    -0.269 OA
BRANCH  34  37
ATOM     37  C   UNL A   1      34.446  30.941  27.542  1.00  0.00     0.039 A 
ATOM     38  C   UNL A   1      34.610  29.675  28.116  1.00  0.00     0.014 A 
ATOM     39  C   UNL A   1      35.426  31.919  27.741  1.00  0.00     0.014 A 
ATOM     40  C   UNL A   1      35.762  29.378  28.846  1.00  0.00     0.010 A 
ATOM     41  C   UNL A   1      36.608  31.602  28.415  1.00  0.00     0.010 A 
ATOM     42  C   UNL A   1      36.785  30.331  28.980  1.00  0.00    -0.014 A 
BRANCH  42  43
ATOM     43  C   UNL A   1      38.039  29.987  29.698  1.00  0.00     0.031 A 
ATOM     44  C   UNL A   1      38.279  30.451  31.108  1.00  0.00     0.074 A 
ATOM     45  C   UNL A   1      38.980  29.259  29.064  1.00  0.00     0.049 A 
ATOM     46  N   UNL A   1      39.296  30.202  31.896  1.00  0.00    -0.248 NA
ATOM     47  C   UNL A   1      37.256  31.324  31.707  1.00  0.00     0.031 C 
ATOM     48  C   UNL A   1      38.892  28.786  27.681  1.00  0.00     0.029 A 
ATOM     49  N   UNL A   1      40.189  28.782  29.504  1.00  0.00    -0.354 N 
ATOM     50  C   UNL A   1      39.039  30.890  33.076  1.00  0.00     0.074 A 
ATOM     51  C   UNL A   1      37.796  31.604  32.885  1.00  0.00     0.031 C 
ATOM     52  C   UNL A   1      39.981  28.053  27.398  1.00  0.00     0.029 A 
ATOM     53  C   UNL A   1      40.855  28.029  28.568  1.00  0.00     0.049 A 
ATOM     54  H   UNL A   1      40.545  28.962  30.404  1.00  0.00     0.167 HD
ATOM     55  C   UNL A   1      39.762  30.910  34.222  1.00  0.00     0.031 A 
ATOM     56  C   UNL A   1      42.032  27.381  28.642  1.00  0.00     0.031 A 
ATOM     57  C   UNL A   1      40.998  30.198  34.418  1.00  0.00     0.049 A 
ATOM     58  C   UNL A   1      42.810  27.414  29.926  1.00  0.00     0.074 A 
ATOM     59  C   UNL A   1      41.775  30.115  35.561  1.00  0.00     0.029 A 
ATOM     60  N   UNL A   1      41.640  29.450  33.444  1.00  0.00    -0.354 N 
ATOM     61  N   UNL A   1      42.515  28.008  31.057  1.00  0.00    -0.248 NA
ATOM     62  C   UNL A   1      44.079  26.673  29.946  1.00  0.00     0.031 C 
ATOM     63  C   UNL A   1      42.911  29.354  35.265  1.00  0.00     0.029 A 
ATOM     64  C   UNL A   1      42.815  28.921  33.952  1.00  0.00     0.049 A 
ATOM     65  H   UNL A   1      41.310  29.315  32.527  1.00  0.00     0.167 HD
ATOM     66  C   UNL A   1      43.549  27.696  31.928  1.00  0.00     0.074 A 
ATOM     67  C   UNL A   1      44.467  26.842  31.202  1.00  0.00     0.031 C 
ATOM     68  C   UNL A   1      43.727  28.086  33.214  1.00  0.00     0.031 A 
BRANCH  55  69
ATOM     69  C   UNL A   1      39.231  31.738  35.360  1.00  0.00    -0.014 A 
ATOM     70  C   UNL A   1      39.574  33.094  35.494  1.00  0.00     0.009 A 
ATOM     71  C   UNL A   1      38.347  31.167  36.289  1.00  0.00     0.009 A 
ATOM     72  C   UNL A   1      39.072  33.850  36.555  1.00  0.00     0.001 A 
ATOM     73  C   UNL A   1      37.825  31.933  37.334  1.00  0.00     0.001 A 
ATOM     74  C   UNL A   1      38.195  33.270  37.472  1.00  0.00     0.000 A 
ENDBRANCH  55  69
BRANCH  56  75
ATOM     75  C   UNL A   1      42.533  26.618  27.471  1.00  0.00    -0.014 A 
ATOM     76  C   UNL A   1      43.353  27.238  26.516  1.00  0.00     0.009 A 
ATOM     77  C   UNL A   1      42.194  25.266  27.303  1.00  0.00     0.009 A 
ATOM     78  C   UNL A   1      43.804  26.525  25.403  1.00  0.00     0.001 A 
ATOM     79  C   UNL A   1      42.669  24.550  26.203  1.00  0.00     0.001 A 
ATOM     80  C   UNL A   1      43.466  25.182  25.249  1.00  0.00     0.000 A 
ENDBRANCH  56  75
BRANCH  68  81
ATOM     81  C   UNL A   1      44.952  27.574  33.916  1.00  0.00    -0.014 A 
ATOM     82  C   UNL A   1      46.155  28.297  33.897  1.00  0.00     0.009 A 
ATOM     83  C   UNL A   1      44.900  26.357  34.613  1.00  0.00     0.009 A 
ATOM     84  C   UNL A   1      47.293  27.790  34.527  1.00  0.00     0.001 A 
ATOM     85  C   UNL A   1      46.031  25.867  35.266  1.00  0.00     0.001 A 
ATOM     86  C   UNL A   1      47.230  26.577  35.213  1.00  0.00     0.000 A 
ENDBRANCH  68  81
ENDBRANCH  42  43
ENDBRANCH  34  37
ENDBRANCH  32  33
ENDBRANCH  31  32
ENDBRANCH   1  31
TORSDOF 13
ENDMDL
