MODEL 1
REMARK VINA RESULT:     -14.0      0.000      0.000
REMARK SMILES Cc1c(CC(=O)NCCCNC(=O)c2ccc(-c3c4nc(c(-c5ccccc5)c5ccc([nH]5)c(-c5ccccc5)c5nc(c(-c6ccccc6)c6ccc3[nH]6)C=C5)C=C4)cc2)cc(-c2ccc(S(C)(=O)=O)cc2)n1-c1cccc(F)c1
REMARK SMILES IDX 8 1 7 2 5 3 6 4 4 6 3 7 1 8 2 9 74 10 62 11 63 12 75 13
REMARK SMILES IDX 76 14 81 15 77 16 79 17 78 18 80 19 64 20 65 21 73 22 66 23
REMARK SMILES IDX 72 24 67 25 68 26 69 27 70 28 71 29 9 30 10 31 11 32 12 33
REMARK SMILES IDX 13 35 14 36 15 37 61 38 16 39 60 40 17 41 18 42 19 43 54 44
REMARK SMILES IDX 20 45 59 46 53 47 55 48 21 49 58 50 52 51 51 52 22 54 44 55
REMARK SMILES IDX 29 56 43 57 30 58 33 59 42 60 56 61 31 62 32 63 41 65 57 66
REMARK SMILES IDX 34 67 23 68 24 69 28 70 25 71 27 72 26 73 45 74 46 75 50 76
REMARK SMILES IDX 47 77 49 78 48 79 35 80 36 81 40 82 37 83 39 84 38 85
REMARK H PARENT 7 5 11 34 55 53 33 64
REMARK Flexibility Score: inf
ROOT
ATOM      1  C   UNL A   1      31.484  28.026  27.150  1.00  0.00     0.117 C 
ENDROOT
BRANCH   1   2
ATOM      2  N   UNL A   1      30.987  27.685  25.814  1.00  0.00    -0.356 N 
ATOM      3  C   UNL A   1      30.363  26.565  25.314  1.00  0.00     0.224 C 
ATOM      4  O   UNL A   1      29.755  26.709  24.244  1.00  0.00    -0.275 OA
ATOM      5  H   UNL A   1      31.129  28.393  25.144  1.00  0.00     0.163 HD
BRANCH   3   6
ATOM      6  C   UNL A   1      30.348  25.191  25.992  1.00  0.00     0.137 C 
BRANCH   6   7
ATOM      7  C   UNL A   1      31.367  24.232  25.466  1.00  0.00    -0.017 A 
ATOM      8  C   UNL A   1      33.366  25.808  24.945  1.00  0.00     0.065 C 
ATOM      9  C   UNL A   1      32.687  24.485  25.114  1.00  0.00     0.024 A 
ATOM     10  N   UNL A   1      33.304  23.263  24.867  1.00  0.00    -0.313 N 
ATOM     11  C   UNL A   1      31.119  22.876  25.133  1.00  0.00     0.033 A 
ATOM     12  C   UNL A   1      32.321  22.275  24.806  1.00  0.00     0.053 A 
BRANCH  10  13
ATOM     13  C   UNL A   1      34.707  23.039  24.816  1.00  0.00     0.049 A 
ATOM     14  C   UNL A   1      35.495  23.171  25.967  1.00  0.00     0.027 A 
ATOM     15  C   UNL A   1      35.301  22.787  23.574  1.00  0.00     0.065 A 
ATOM     16  C   UNL A   1      36.883  23.046  25.870  1.00  0.00     0.005 A 
ATOM     17  C   UNL A   1      36.683  22.684  23.496  1.00  0.00     0.125 A 
ATOM     18  C   UNL A   1      37.478  22.811  24.630  1.00  0.00     0.039 A 
ATOM     19  F   UNL A   1      37.261  22.484  22.305  1.00  0.00    -0.207 F 
ENDBRANCH  10  13
BRANCH  12  20
ATOM     20  C   UNL A   1      32.569  20.837  24.679  1.00  0.00    -0.001 A 
ATOM     21  C   UNL A   1      33.033  20.114  25.789  1.00  0.00     0.011 A 
ATOM     22  C   UNL A   1      32.316  20.165  23.477  1.00  0.00     0.011 A 
ATOM     23  C   UNL A   1      33.293  18.750  25.689  1.00  0.00     0.021 A 
ATOM     24  C   UNL A   1      32.573  18.795  23.369  1.00  0.00     0.021 A 
ATOM     25  C   UNL A   1      33.080  18.102  24.473  1.00  0.00     0.067 A 
BRANCH  25  26
ATOM     26  S   UNL A   1      33.455  16.371  24.346  1.00  0.00     0.175 S 
ATOM     27  C   UNL A   1      34.879  16.179  25.389  1.00  0.00     0.163 C 
ATOM     28  O   UNL A   1      32.343  15.654  24.962  1.00  0.00    -0.224 OA
ATOM     29  O   UNL A   1      33.858  16.098  22.989  1.00  0.00    -0.224 OA
ENDBRANCH  25  26
ENDBRANCH  12  20
ENDBRANCH   6   7
ENDBRANCH   3   6
ENDBRANCH   1   2
BRANCH   1  30
ATOM     30  C   UNL A   1      32.956  28.592  27.292  1.00  0.00     0.042 C 
BRANCH  30  31
ATOM     31  C   UNL A   1      33.339  30.156  27.290  1.00  0.00     0.118 C 
BRANCH  31  32
ATOM     32  N   UNL A   1      34.276  30.590  28.412  1.00  0.00    -0.352 N 
ATOM     33  C   UNL A   1      35.589  30.523  28.934  1.00  0.00     0.251 C 
ATOM     34  H   UNL A   1      33.749  31.147  29.029  1.00  0.00     0.163 HD
ATOM     35  O   UNL A   1      35.672  31.098  30.034  1.00  0.00    -0.269 OA
BRANCH  33  36
ATOM     36  C   UNL A   1      36.944  29.931  28.456  1.00  0.00     0.039 A 
ATOM     37  C   UNL A   1      37.885  29.338  29.359  1.00  0.00     0.014 A 
ATOM     38  C   UNL A   1      37.535  30.160  27.241  1.00  0.00     0.014 A 
ATOM     39  C   UNL A   1      39.233  28.765  28.997  1.00  0.00     0.010 A 
ATOM     40  C   UNL A   1      38.928  29.712  26.960  1.00  0.00     0.010 A 
ATOM     41  C   UNL A   1      39.813  28.838  27.712  1.00  0.00    -0.014 A 
BRANCH  41  42
ATOM     42  C   UNL A   1      40.510  27.395  26.974  1.00  0.00     0.031 A 
ATOM     43  C   UNL A   1      41.498  28.051  26.050  1.00  0.00     0.074 A 
ATOM     44  C   UNL A   1      40.787  25.976  27.075  1.00  0.00     0.049 A 
ATOM     45  N   UNL A   1      42.124  29.053  26.594  1.00  0.00    -0.248 NA
ATOM     46  C   UNL A   1      42.236  27.503  24.925  1.00  0.00     0.031 C 
ATOM     47  C   UNL A   1      40.314  24.909  28.009  1.00  0.00     0.029 A 
ATOM     48  N   UNL A   1      41.751  25.136  26.359  1.00  0.00    -0.354 N 
ATOM     49  C   UNL A   1      43.379  28.585  26.605  1.00  0.00     0.074 A 
ATOM     50  C   UNL A   1      43.469  27.870  25.321  1.00  0.00     0.031 C 
ATOM     51  C   UNL A   1      40.878  23.671  27.751  1.00  0.00     0.029 A 
ATOM     52  C   UNL A   1      41.868  23.727  26.668  1.00  0.00     0.049 A 
ATOM     53  H   UNL A   1      42.322  25.532  25.661  1.00  0.00     0.167 HD
ATOM     54  C   UNL A   1      44.058  28.386  27.773  1.00  0.00     0.031 A 
ATOM     55  C   UNL A   1      42.772  22.791  26.117  1.00  0.00     0.031 A 
ATOM     56  C   UNL A   1      45.384  27.948  27.614  1.00  0.00     0.049 A 
ATOM     57  C   UNL A   1      44.045  23.495  26.446  1.00  0.00     0.074 A 
ATOM     58  C   UNL A   1      46.318  27.993  26.609  1.00  0.00     0.029 A 
ATOM     59  N   UNL A   1      45.932  27.179  28.607  1.00  0.00    -0.354 N 
ATOM     60  N   UNL A   1      44.695  23.226  27.545  1.00  0.00    -0.248 NA
ATOM     61  C   UNL A   1      44.798  24.202  25.400  1.00  0.00     0.031 C 
ATOM     62  C   UNL A   1      47.016  26.763  26.762  1.00  0.00     0.029 A 
ATOM     63  C   UNL A   1      46.530  26.153  27.923  1.00  0.00     0.049 A 
ATOM     64  H   UNL A   1      45.904  27.328  29.580  1.00  0.00     0.167 HD
ATOM     65  C   UNL A   1      45.837  23.964  27.412  1.00  0.00     0.074 A 
ATOM     66  C   UNL A   1      45.994  24.174  25.992  1.00  0.00     0.031 C 
ATOM     67  C   UNL A   1      46.193  24.829  28.391  1.00  0.00     0.031 A 
BRANCH  54  68
ATOM     68  C   UNL A   1      43.462  28.439  29.197  1.00  0.00    -0.014 A 
ATOM     69  C   UNL A   1      42.859  27.354  29.889  1.00  0.00     0.009 A 
ATOM     70  C   UNL A   1      43.662  29.590  29.965  1.00  0.00     0.009 A 
ATOM     71  C   UNL A   1      42.286  27.489  31.178  1.00  0.00     0.001 A 
ATOM     72  C   UNL A   1      43.172  29.704  31.279  1.00  0.00     0.001 A 
ATOM     73  C   UNL A   1      42.434  28.680  31.867  1.00  0.00     0.000 A 
ENDBRANCH  54  68
BRANCH  55  74
ATOM     74  C   UNL A   1      43.366  21.287  25.814  1.00  0.00    -0.014 A 
ATOM     75  C   UNL A   1      44.460  20.846  25.063  1.00  0.00     0.009 A 
ATOM     76  C   UNL A   1      42.631  20.155  26.362  1.00  0.00     0.009 A 
ATOM     77  C   UNL A   1      44.723  19.434  24.844  1.00  0.00     0.001 A 
ATOM     78  C   UNL A   1      42.826  18.782  26.092  1.00  0.00     0.001 A 
ATOM     79  C   UNL A   1      43.895  18.413  25.324  1.00  0.00     0.000 A 
ENDBRANCH  55  74
BRANCH  67  80
ATOM     80  C   UNL A   1      45.548  24.522  29.727  1.00  0.00    -0.014 A 
ATOM     81  C   UNL A   1      44.525  23.581  29.814  1.00  0.00     0.009 A 
ATOM     82  C   UNL A   1      45.848  25.275  30.884  1.00  0.00     0.009 A 
ATOM     83  C   UNL A   1      43.838  23.385  31.021  1.00  0.00     0.001 A 
ATOM     84  C   UNL A   1      45.179  25.069  32.094  1.00  0.00     0.001 A 
ATOM     85  C   UNL A   1      44.170  24.119  32.161  1.00  0.00     0.000 A 
ENDBRANCH  67  80
ENDBRANCH  41  42
ENDBRANCH  33  36
ENDBRANCH  31  32
ENDBRANCH  30  31
ENDBRANCH   1  30
TORSDOF 14
ENDMDL
MODEL 2
REMARK VINA RESULT:     -13.3      3.969      9.919
REMARK SMILES Cc1c(CC(=O)NCCCNC(=O)c2ccc(-c3c4nc(c(-c5ccccc5)c5ccc([nH]5)c(-c5ccccc5)c5nc(c(-c6ccccc6)c6ccc3[nH]6)C=C5)C=C4)cc2)cc(-c2ccc(S(C)(=O)=O)cc2)n1-c1cccc(F)c1
REMARK SMILES IDX 8 1 7 2 5 3 6 4 4 6 3 7 1 8 2 9 74 10 62 11 63 12 75 13
REMARK SMILES IDX 76 14 81 15 77 16 79 17 78 18 80 19 64 20 65 21 73 22 66 23
REMARK SMILES IDX 72 24 67 25 68 26 69 27 70 28 71 29 9 30 10 31 11 32 12 33
REMARK SMILES IDX 13 35 14 36 15 37 61 38 16 39 60 40 17 41 18 42 19 43 54 44
REMARK SMILES IDX 20 45 59 46 53 47 55 48 21 49 58 50 52 51 51 52 22 54 44 55
REMARK SMILES IDX 29 56 43 57 30 58 33 59 42 60 56 61 31 62 32 63 41 65 57 66
REMARK SMILES IDX 34 67 23 68 24 69 28 70 25 71 27 72 26 73 45 74 46 75 50 76
REMARK SMILES IDX 47 77 49 78 48 79 35 80 36 81 40 82 37 83 39 84 38 85
REMARK H PARENT 7 5 11 34 55 53 33 64
REMARK Flexibility Score: inf
ROOT
ATOM      1  C   UNL A   1      42.357  22.545  25.744  1.00  0.00     0.117 C 
ENDROOT
BRANCH   1   2
ATOM      2  N   UNL A   1      41.227  23.231  26.376  1.00  0.00    -0.356 N 
ATOM      3  C   UNL A   1      39.938  22.836  26.651  1.00  0.00     0.224 C 
ATOM      4  O   UNL A   1      39.329  23.505  27.499  1.00  0.00    -0.275 OA
ATOM      5  H   UNL A   1      41.429  24.152  26.658  1.00  0.00     0.163 HD
BRANCH   3   6
ATOM      6  C   UNL A   1      39.232  21.635  26.013  1.00  0.00     0.137 C 
BRANCH   6   7
ATOM      7  C   UNL A   1      37.862  21.929  25.493  1.00  0.00    -0.017 A 
ATOM      8  C   UNL A   1      37.073  19.582  24.708  1.00  0.00     0.065 C 
ATOM      9  C   UNL A   1      36.906  21.034  25.029  1.00  0.00     0.024 A 
ATOM     10  N   UNL A   1      35.721  21.736  24.836  1.00  0.00    -0.313 N 
ATOM     11  C   UNL A   1      37.325  23.226  25.287  1.00  0.00     0.033 A 
ATOM     12  C   UNL A   1      35.996  23.101  24.924  1.00  0.00     0.053 A 
BRANCH  10  13
ATOM     13  C   UNL A   1      34.429  21.160  24.702  1.00  0.00     0.049 A 
ATOM     14  C   UNL A   1      33.961  20.227  25.637  1.00  0.00     0.027 A 
ATOM     15  C   UNL A   1      33.674  21.463  23.563  1.00  0.00     0.065 A 
ATOM     16  C   UNL A   1      32.731  19.599  25.429  1.00  0.00     0.005 A 
ATOM     17  C   UNL A   1      32.462  20.814  23.365  1.00  0.00     0.125 A 
ATOM     18  C   UNL A   1      31.985  19.887  24.285  1.00  0.00     0.039 A 
ATOM     19  F   UNL A   1      31.755  21.068  22.257  1.00  0.00    -0.207 F 
ENDBRANCH  10  13
BRANCH  12  20
ATOM     20  C   UNL A   1      34.998  24.173  24.894  1.00  0.00    -0.001 A 
ATOM     21  C   UNL A   1      34.736  24.839  23.686  1.00  0.00     0.011 A 
ATOM     22  C   UNL A   1      34.276  24.519  26.042  1.00  0.00     0.011 A 
ATOM     23  C   UNL A   1      33.805  25.873  23.634  1.00  0.00     0.021 A 
ATOM     24  C   UNL A   1      33.338  25.555  25.997  1.00  0.00     0.021 A 
ATOM     25  C   UNL A   1      33.126  26.239  24.796  1.00  0.00     0.067 A 
BRANCH  25  26
ATOM     26  S   UNL A   1      31.972  27.586  24.726  1.00  0.00     0.175 S 
ATOM     27  C   UNL A   1      33.014  29.017  24.600  1.00  0.00     0.163 C 
ATOM     28  O   UNL A   1      31.238  27.447  23.472  1.00  0.00    -0.224 OA
ATOM     29  O   UNL A   1      31.281  27.650  25.991  1.00  0.00    -0.224 OA
ENDBRANCH  25  26
ENDBRANCH  12  20
ENDBRANCH   6   7
ENDBRANCH   3   6
ENDBRANCH   1   2
BRANCH   1  30
ATOM     30  C   UNL A   1      43.303  23.370  24.779  1.00  0.00     0.042 C 
BRANCH  30  31
ATOM     31  C   UNL A   1      44.182  24.643  25.227  1.00  0.00     0.118 C 
BRANCH  31  32
ATOM     32  N   UNL A   1      43.563  25.998  24.901  1.00  0.00    -0.352 N 
ATOM     33  C   UNL A   1      42.626  26.982  25.292  1.00  0.00     0.251 C 
ATOM     34  H   UNL A   1      43.994  26.321  24.077  1.00  0.00     0.163 HD
ATOM     35  O   UNL A   1      42.559  27.904  24.458  1.00  0.00    -0.269 OA
BRANCH  33  36
ATOM     36  C   UNL A   1      41.690  27.201  26.512  1.00  0.00     0.039 A 
ATOM     37  C   UNL A   1      42.135  27.829  27.720  1.00  0.00     0.014 A 
ATOM     38  C   UNL A   1      40.483  26.584  26.718  1.00  0.00     0.014 A 
ATOM     39  C   UNL A   1      41.313  28.059  28.964  1.00  0.00     0.010 A 
ATOM     40  C   UNL A   1      39.761  26.707  28.016  1.00  0.00     0.010 A 
ATOM     41  C   UNL A   1      40.001  27.576  29.155  1.00  0.00    -0.014 A 
BRANCH  41  42
ATOM     42  C   UNL A   1      38.741  28.654  29.758  1.00  0.00     0.031 A 
ATOM     43  C   UNL A   1      38.636  28.138  31.166  1.00  0.00     0.074 A 
ATOM     44  C   UNL A   1      38.050  29.923  29.639  1.00  0.00     0.049 A 
ATOM     45  N   UNL A   1      39.792  27.876  31.705  1.00  0.00    -0.248 NA
ATOM     46  C   UNL A   1      37.611  28.358  32.172  1.00  0.00     0.031 C 
ATOM     47  C   UNL A   1      38.040  30.983  28.586  1.00  0.00     0.029 A 
ATOM     48  N   UNL A   1      37.223  30.656  30.601  1.00  0.00    -0.354 N 
ATOM     49  C   UNL A   1      39.814  28.780  32.693  1.00  0.00     0.074 A 
ATOM     50  C   UNL A   1      38.418  28.781  33.164  1.00  0.00     0.031 C 
ATOM     51  C   UNL A   1      37.242  32.067  28.913  1.00  0.00     0.029 A 
ATOM     52  C   UNL A   1      36.662  31.944  30.255  1.00  0.00     0.049 A 
ATOM     53  H   UNL A   1      37.046  30.268  31.489  1.00  0.00     0.167 HD
ATOM     54  C   UNL A   1      40.759  29.763  32.743  1.00  0.00     0.031 A 
ATOM     55  C   UNL A   1      35.893  32.802  31.073  1.00  0.00     0.031 A 
ATOM     56  C   UNL A   1      40.684  30.596  33.873  1.00  0.00     0.049 A 
ATOM     57  C   UNL A   1      36.855  32.949  32.204  1.00  0.00     0.074 A 
ATOM     58  C   UNL A   1      40.145  30.494  35.132  1.00  0.00     0.029 A 
ATOM     59  N   UNL A   1      41.129  31.886  33.754  1.00  0.00    -0.354 N 
ATOM     60  N   UNL A   1      37.700  33.943  32.241  1.00  0.00    -0.248 NA
ATOM     61  C   UNL A   1      36.632  32.236  33.470  1.00  0.00     0.031 C 
ATOM     62  C   UNL A   1      39.702  31.818  35.401  1.00  0.00     0.029 A 
ATOM     63  C   UNL A   1      40.134  32.622  34.340  1.00  0.00     0.049 A 
ATOM     64  H   UNL A   1      41.966  32.207  33.346  1.00  0.00     0.167 HD
ATOM     65  C   UNL A   1      38.293  33.793  33.463  1.00  0.00     0.074 A 
ATOM     66  C   UNL A   1      37.350  33.041  34.256  1.00  0.00     0.031 C 
ATOM     67  C   UNL A   1      39.642  33.724  33.549  1.00  0.00     0.031 A 
BRANCH  54  68
ATOM     68  C   UNL A   1      41.759  30.126  31.623  1.00  0.00    -0.014 A 
ATOM     69  C   UNL A   1      43.013  29.500  31.389  1.00  0.00     0.009 A 
ATOM     70  C   UNL A   1      41.359  31.031  30.635  1.00  0.00     0.009 A 
ATOM     71  C   UNL A   1      43.905  29.921  30.371  1.00  0.00     0.001 A 
ATOM     72  C   UNL A   1      42.203  31.393  29.569  1.00  0.00     0.001 A 
ATOM     73  C   UNL A   1      43.496  30.886  29.466  1.00  0.00     0.000 A 
ENDBRANCH  54  68
BRANCH  55  74
ATOM     74  C   UNL A   1      34.912  34.086  31.387  1.00  0.00    -0.014 A 
ATOM     75  C   UNL A   1      34.553  34.721  32.579  1.00  0.00     0.009 A 
ATOM     76  C   UNL A   1      34.217  34.687  30.256  1.00  0.00     0.009 A 
ATOM     77  C   UNL A   1      33.561  35.782  32.616  1.00  0.00     0.001 A 
ATOM     78  C   UNL A   1      33.194  35.660  30.286  1.00  0.00     0.001 A 
ATOM     79  C   UNL A   1      32.863  36.224  31.487  1.00  0.00     0.000 A 
ENDBRANCH  55  74
BRANCH  67  80
ATOM     80  C   UNL A   1      40.350  34.306  32.343  1.00  0.00    -0.014 A 
ATOM     81  C   UNL A   1      39.758  34.246  31.083  1.00  0.00     0.009 A 
ATOM     82  C   UNL A   1      41.678  34.783  32.423  1.00  0.00     0.009 A 
ATOM     83  C   UNL A   1      40.462  34.667  29.945  1.00  0.00     0.001 A 
ATOM     84  C   UNL A   1      42.375  35.221  31.293  1.00  0.00     0.001 A 
ATOM     85  C   UNL A   1      41.762  35.163  30.049  1.00  0.00     0.000 A 
ENDBRANCH  67  80
ENDBRANCH  41  42
ENDBRANCH  33  36
ENDBRANCH  31  32
ENDBRANCH  30  31
ENDBRANCH   1  30
TORSDOF 14
ENDMDL
MODEL 3
REMARK VINA RESULT:     -12.7      4.010      6.601
REMARK SMILES Cc1c(CC(=O)NCCCNC(=O)c2ccc(-c3c4nc(c(-c5ccccc5)c5ccc([nH]5)c(-c5ccccc5)c5nc(c(-c6ccccc6)c6ccc3[nH]6)C=C5)C=C4)cc2)cc(-c2ccc(S(C)(=O)=O)cc2)n1-c1cccc(F)c1
REMARK SMILES IDX 8 1 7 2 5 3 6 4 4 6 3 7 1 8 2 9 74 10 62 11 63 12 75 13
REMARK SMILES IDX 76 14 81 15 77 16 79 17 78 18 80 19 64 20 65 21 73 22 66 23
REMARK SMILES IDX 72 24 67 25 68 26 69 27 70 28 71 29 9 30 10 31 11 32 12 33
REMARK SMILES IDX 13 35 14 36 15 37 61 38 16 39 60 40 17 41 18 42 19 43 54 44
REMARK SMILES IDX 20 45 59 46 53 47 55 48 21 49 58 50 52 51 51 52 22 54 44 55
REMARK SMILES IDX 29 56 43 57 30 58 33 59 42 60 56 61 31 62 32 63 41 65 57 66
REMARK SMILES IDX 34 67 23 68 24 69 28 70 25 71 27 72 26 73 45 74 46 75 50 76
REMARK SMILES IDX 47 77 49 78 48 79 35 80 36 81 40 82 37 83 39 84 38 85
REMARK H PARENT 7 5 11 34 55 53 33 64
REMARK Flexibility Score: inf
ROOT
ATOM      1  C   UNL A   1      31.199  28.686  23.623  1.00  0.00     0.117 C 
ENDROOT
BRANCH   1   2
ATOM      2  N   UNL A   1      30.105  27.730  23.433  1.00  0.00    -0.356 N 
ATOM      3  C   UNL A   1      29.641  26.685  24.200  1.00  0.00     0.224 C 
ATOM      4  O   UNL A   1      28.495  26.288  23.948  1.00  0.00    -0.275 OA
ATOM      5  H   UNL A   1      29.605  27.859  22.595  1.00  0.00     0.163 HD
BRANCH   3   6
ATOM      6  C   UNL A   1      30.422  26.015  25.335  1.00  0.00     0.137 C 
BRANCH   6   7
ATOM      7  C   UNL A   1      31.426  25.004  24.882  1.00  0.00    -0.017 A 
ATOM      8  C   UNL A   1      33.487  26.497  24.358  1.00  0.00     0.065 C 
ATOM      9  C   UNL A   1      32.763  25.203  24.561  1.00  0.00     0.024 A 
ATOM     10  N   UNL A   1      33.349  23.954  24.385  1.00  0.00    -0.313 N 
ATOM     11  C   UNL A   1      31.146  23.643  24.599  1.00  0.00     0.033 A 
ATOM     12  C   UNL A   1      32.338  22.993  24.335  1.00  0.00     0.053 A 
BRANCH  10  13
ATOM     13  C   UNL A   1      34.745  23.685  24.387  1.00  0.00     0.049 A 
ATOM     14  C   UNL A   1      35.349  23.034  23.304  1.00  0.00     0.027 A 
ATOM     15  C   UNL A   1      35.485  23.990  25.535  1.00  0.00     0.065 A 
ATOM     16  C   UNL A   1      36.701  22.689  23.374  1.00  0.00     0.005 A 
ATOM     17  C   UNL A   1      36.823  23.623  25.592  1.00  0.00     0.125 A 
ATOM     18  C   UNL A   1      37.437  22.978  24.524  1.00  0.00     0.039 A 
ATOM     19  F   UNL A   1      37.526  23.874  26.703  1.00  0.00    -0.207 F 
ENDBRANCH  10  13
BRANCH  12  20
ATOM     20  C   UNL A   1      32.545  21.544  24.276  1.00  0.00    -0.001 A 
ATOM     21  C   UNL A   1      33.064  20.874  25.395  1.00  0.00     0.011 A 
ATOM     22  C   UNL A   1      32.198  20.812  23.134  1.00  0.00     0.011 A 
ATOM     23  C   UNL A   1      33.287  19.500  25.358  1.00  0.00     0.021 A 
ATOM     24  C   UNL A   1      32.418  19.432  23.090  1.00  0.00     0.021 A 
ATOM     25  C   UNL A   1      32.981  18.790  24.198  1.00  0.00     0.067 A 
BRANCH  25  26
ATOM     26  S   UNL A   1      33.308  17.045  24.149  1.00  0.00     0.175 S 
ATOM     27  C   UNL A   1      34.914  16.905  24.891  1.00  0.00     0.163 C 
ATOM     28  O   UNL A   1      32.340  16.411  25.038  1.00  0.00    -0.224 OA
ATOM     29  O   UNL A   1      33.421  16.649  22.766  1.00  0.00    -0.224 OA
ENDBRANCH  25  26
ENDBRANCH  12  20
ENDBRANCH   6   7
ENDBRANCH   3   6
ENDBRANCH   1   2
BRANCH   1  30
ATOM     30  C   UNL A   1      31.295  29.467  24.997  1.00  0.00     0.042 C 
BRANCH  30  31
ATOM     31  C   UNL A   1      32.464  29.264  26.086  1.00  0.00     0.118 C 
BRANCH  31  32
ATOM     32  N   UNL A   1      32.856  30.523  26.851  1.00  0.00    -0.352 N 
ATOM     33  C   UNL A   1      33.868  31.175  27.595  1.00  0.00     0.251 C 
ATOM     34  H   UNL A   1      32.087  31.136  26.811  1.00  0.00     0.163 HD
ATOM     35  O   UNL A   1      33.471  32.266  28.044  1.00  0.00    -0.269 OA
BRANCH  33  36
ATOM     36  C   UNL A   1      35.346  30.871  27.960  1.00  0.00     0.039 A 
ATOM     37  C   UNL A   1      36.132  31.747  28.777  1.00  0.00     0.014 A 
ATOM     38  C   UNL A   1      36.154  29.953  27.340  1.00  0.00     0.014 A 
ATOM     39  C   UNL A   1      37.578  31.554  29.162  1.00  0.00     0.010 A 
ATOM     40  C   UNL A   1      37.614  29.883  27.631  1.00  0.00     0.010 A 
ATOM     41  C   UNL A   1      38.406  30.523  28.668  1.00  0.00    -0.014 A 
BRANCH  41  42
ATOM     42  C   UNL A   1      39.389  29.570  29.780  1.00  0.00     0.031 A 
ATOM     43  C   UNL A   1      40.751  30.069  29.386  1.00  0.00     0.074 A 
ATOM     44  C   UNL A   1      39.468  28.833  31.026  1.00  0.00     0.049 A 
ATOM     45  N   UNL A   1      40.788  31.355  29.185  1.00  0.00    -0.248 NA
ATOM     46  C   UNL A   1      42.068  29.533  29.682  1.00  0.00     0.031 C 
ATOM     47  C   UNL A   1      38.436  28.347  31.991  1.00  0.00     0.029 A 
ATOM     48  N   UNL A   1      40.627  28.436  31.830  1.00  0.00    -0.354 N 
ATOM     49  C   UNL A   1      41.611  31.736  30.171  1.00  0.00     0.074 A 
ATOM     50  C   UNL A   1      42.609  30.653  30.198  1.00  0.00     0.031 C 
ATOM     51  C   UNL A   1      38.978  27.702  33.090  1.00  0.00     0.029 A 
ATOM     52  C   UNL A   1      40.446  27.724  33.077  1.00  0.00     0.049 A 
ATOM     53  H   UNL A   1      41.536  28.652  31.519  1.00  0.00     0.167 HD
ATOM     54  C   UNL A   1      41.196  32.574  31.166  1.00  0.00     0.031 A 
ATOM     55  C   UNL A   1      41.440  27.316  33.994  1.00  0.00     0.031 A 
ATOM     56  C   UNL A   1      42.192  32.926  32.092  1.00  0.00     0.049 A 
ATOM     57  C   UNL A   1      42.065  28.647  34.249  1.00  0.00     0.074 A 
ATOM     58  C   UNL A   1      43.565  32.951  32.094  1.00  0.00     0.029 A 
ATOM     59  N   UNL A   1      41.806  33.226  33.373  1.00  0.00    -0.354 N 
ATOM     60  N   UNL A   1      41.679  29.387  35.252  1.00  0.00    -0.248 NA
ATOM     61  C   UNL A   1      43.361  28.990  33.646  1.00  0.00     0.031 C 
ATOM     62  C   UNL A   1      43.893  32.596  33.431  1.00  0.00     0.029 A 
ATOM     63  C   UNL A   1      42.692  32.522  34.145  1.00  0.00     0.049 A 
ATOM     64  H   UNL A   1      41.069  33.808  33.667  1.00  0.00     0.167 HD
ATOM     65  C   UNL A   1      42.559  30.432  35.216  1.00  0.00     0.074 A 
ATOM     66  C   UNL A   1      43.722  29.928  34.524  1.00  0.00     0.031 C 
ATOM     67  C   UNL A   1      42.090  31.701  35.169  1.00  0.00     0.031 A 
BRANCH  54  68
ATOM     68  C   UNL A   1      39.741  33.014  31.442  1.00  0.00    -0.014 A 
ATOM     69  C   UNL A   1      38.817  32.350  32.294  1.00  0.00     0.009 A 
ATOM     70  C   UNL A   1      39.313  34.255  30.962  1.00  0.00     0.009 A 
ATOM     71  C   UNL A   1      37.478  32.782  32.460  1.00  0.00     0.001 A 
ATOM     72  C   UNL A   1      38.012  34.736  31.194  1.00  0.00     0.001 A 
ATOM     73  C   UNL A   1      37.074  33.979  31.892  1.00  0.00     0.000 A 
ENDBRANCH  54  68
BRANCH  55  74
ATOM     74  C   UNL A   1      42.031  26.489  35.289  1.00  0.00    -0.014 A 
ATOM     75  C   UNL A   1      41.864  26.662  36.666  1.00  0.00     0.009 A 
ATOM     76  C   UNL A   1      42.948  25.390  35.018  1.00  0.00     0.009 A 
ATOM     77  C   UNL A   1      42.593  25.863  37.635  1.00  0.00     0.001 A 
ATOM     78  C   UNL A   1      43.724  24.660  35.945  1.00  0.00     0.001 A 
ATOM     79  C   UNL A   1      43.539  24.895  37.280  1.00  0.00     0.000 A 
ENDBRANCH  55  74
BRANCH  67  80
ATOM     80  C   UNL A   1      40.661  31.830  35.652  1.00  0.00    -0.014 A 
ATOM     81  C   UNL A   1      40.348  32.694  36.700  1.00  0.00     0.009 A 
ATOM     82  C   UNL A   1      39.637  30.983  35.172  1.00  0.00     0.009 A 
ATOM     83  C   UNL A   1      39.052  32.724  37.235  1.00  0.00     0.001 A 
ATOM     84  C   UNL A   1      38.339  31.023  35.690  1.00  0.00     0.001 A 
ATOM     85  C   UNL A   1      38.048  31.899  36.726  1.00  0.00     0.000 A 
ENDBRANCH  67  80
ENDBRANCH  41  42
ENDBRANCH  33  36
ENDBRANCH  31  32
ENDBRANCH  30  31
ENDBRANCH   1  30
TORSDOF 14
ENDMDL
