MODEL 1
REMARK VINA RESULT:     -10.9      0.000      0.000
REMARK SMILES COc1c(C(=O)NCCCNC(=O)c2ccc(-c3c4nc(c(-c5ccccc5)c5ccc([nH]5)c(-c5ccccc5)c5nc(c(-c6ccccc6)c6ccc3[nH]6)C=C5)C=C4)cc2)cccc1-c1cccc(C)c1
REMARK SMILES IDX 9 1 8 2 7 3 5 4 6 5 4 7 3 8 65 9 62 10 64 11 63 12 2 13 1 14
REMARK SMILES IDX 66 15 67 16 72 17 68 18 70 19 69 20 71 21 10 22 11 23 12 24
REMARK SMILES IDX 13 26 14 27 15 28 61 29 16 30 60 31 17 32 18 33 19 34 54 35
REMARK SMILES IDX 20 36 59 37 53 38 55 39 21 40 58 41 52 42 51 43 22 45 44 46
REMARK SMILES IDX 29 47 43 48 30 49 33 50 42 51 56 52 31 53 32 54 41 56 57 57
REMARK SMILES IDX 34 58 23 59 24 60 28 61 25 62 27 63 26 64 45 65 46 66 50 67
REMARK SMILES IDX 47 68 49 69 48 70 35 71 36 72 40 73 37 74 39 75 38 76
REMARK H PARENT 7 6 11 25 55 44 33 55
REMARK Flexibility Score: inf
ROOT
ATOM      1  C   UNL A   1      35.728  23.119  24.034  1.00  0.00     0.042 C 
ENDROOT
BRANCH   1   2
ATOM      2  C   UNL A   1      34.530  22.926  24.926  1.00  0.00     0.118 C 
BRANCH   2   3
ATOM      3  N   UNL A   1      33.223  22.837  24.352  1.00  0.00    -0.352 N 
ATOM      4  C   UNL A   1      32.574  23.829  23.645  1.00  0.00     0.255 C 
ATOM      5  O   UNL A   1      31.540  23.511  23.053  1.00  0.00    -0.269 OA
ATOM      6  H   UNL A   1      32.740  21.987  24.473  1.00  0.00     0.163 HD
BRANCH   4   7
ATOM      7  C   UNL A   1      32.973  25.281  23.688  1.00  0.00     0.082 A 
ATOM      8  C   UNL A   1      32.979  26.167  24.799  1.00  0.00     0.139 A 
ATOM      9  C   UNL A   1      33.314  27.542  24.607  1.00  0.00     0.025 A 
ATOM     10  C   UNL A   1      33.368  25.772  22.426  1.00  0.00     0.018 A 
ATOM     11  C   UNL A   1      33.691  27.977  23.321  1.00  0.00     0.012 A 
ATOM     12  C   UNL A   1      33.735  27.101  22.244  1.00  0.00     0.002 A 
BRANCH   8  13
ATOM     13  O   UNL A   1      32.781  25.643  26.065  1.00  0.00    -0.495 OA
ATOM     14  C   UNL A   1      31.415  25.468  26.486  1.00  0.00     0.278 C 
ENDBRANCH   8  13
BRANCH   9  15
ATOM     15  C   UNL A   1      33.223  28.554  25.680  1.00  0.00    -0.014 A 
ATOM     16  C   UNL A   1      34.310  28.742  26.552  1.00  0.00     0.009 A 
ATOM     17  C   UNL A   1      32.149  29.454  25.747  1.00  0.00     0.012 A 
ATOM     18  C   UNL A   1      34.362  29.845  27.405  1.00  0.00     0.001 A 
ATOM     19  C   UNL A   1      32.239  30.616  26.530  1.00  0.00    -0.051 A 
ATOM     20  C   UNL A   1      33.341  30.792  27.374  1.00  0.00     0.003 A 
ATOM     21  C   UNL A   1      31.226  31.713  26.376  1.00  0.00     0.044 C 
ENDBRANCH   9  15
ENDBRANCH   4   7
ENDBRANCH   2   3
ENDBRANCH   1   2
BRANCH   1  22
ATOM     22  C   UNL A   1      36.960  23.668  24.711  1.00  0.00     0.118 C 
BRANCH  22  23
ATOM     23  N   UNL A   1      37.847  22.650  25.258  1.00  0.00    -0.352 N 
ATOM     24  C   UNL A   1      38.923  22.703  26.117  1.00  0.00     0.251 C 
ATOM     25  H   UNL A   1      37.635  21.738  24.952  1.00  0.00     0.163 HD
ATOM     26  O   UNL A   1      39.551  21.672  26.339  1.00  0.00    -0.269 OA
BRANCH  24  27
ATOM     27  C   UNL A   1      39.371  23.970  26.746  1.00  0.00     0.039 A 
ATOM     28  C   UNL A   1      40.073  24.901  25.971  1.00  0.00     0.014 A 
ATOM     29  C   UNL A   1      39.148  24.252  28.090  1.00  0.00     0.014 A 
ATOM     30  C   UNL A   1      40.481  26.118  26.532  1.00  0.00     0.010 A 
ATOM     31  C   UNL A   1      39.395  25.521  28.596  1.00  0.00     0.010 A 
ATOM     32  C   UNL A   1      40.110  26.456  27.842  1.00  0.00    -0.014 A 
BRANCH  32  33
ATOM     33  C   UNL A   1      40.517  27.740  28.470  1.00  0.00     0.031 A 
ATOM     34  C   UNL A   1      41.947  27.945  28.914  1.00  0.00     0.074 A 
ATOM     35  C   UNL A   1      39.601  28.703  28.686  1.00  0.00     0.049 A 
ATOM     36  N   UNL A   1      42.491  28.981  29.501  1.00  0.00    -0.248 NA
ATOM     37  C   UNL A   1      42.882  26.825  28.707  1.00  0.00     0.031 C 
ATOM     38  C   UNL A   1      38.175  28.612  28.364  1.00  0.00     0.029 A 
ATOM     39  N   UNL A   1      39.737  29.958  29.226  1.00  0.00    -0.354 N 
ATOM     40  C   UNL A   1      43.811  28.624  29.751  1.00  0.00     0.074 A 
ATOM     41  C   UNL A   1      43.968  27.253  29.329  1.00  0.00     0.031 C 
ATOM     42  C   UNL A   1      37.581  29.778  28.659  1.00  0.00     0.029 A 
ATOM     43  C   UNL A   1      38.571  30.685  29.231  1.00  0.00     0.049 A 
ATOM     44  H   UNL A   1      40.589  30.305  29.576  1.00  0.00     0.167 HD
ATOM     45  C   UNL A   1      44.820  29.377  30.252  1.00  0.00     0.031 A 
ATOM     46  C   UNL A   1      38.329  31.943  29.640  1.00  0.00     0.031 A 
ATOM     47  C   UNL A   1      44.673  30.750  30.649  1.00  0.00     0.049 A 
ATOM     48  C   UNL A   1      39.467  32.766  30.179  1.00  0.00     0.074 A 
ATOM     49  C   UNL A   1      45.641  31.623  31.115  1.00  0.00     0.029 A 
ATOM     50  N   UNL A   1      43.478  31.453  30.620  1.00  0.00    -0.354 N 
ATOM     51  N   UNL A   1      40.726  32.436  30.339  1.00  0.00    -0.248 NA
ATOM     52  C   UNL A   1      39.151  34.146  30.571  1.00  0.00     0.031 C 
ATOM     53  C   UNL A   1      45.020  32.838  31.417  1.00  0.00     0.029 A 
ATOM     54  C   UNL A   1      43.680  32.743  31.076  1.00  0.00     0.049 A 
ATOM     55  H   UNL A   1      42.614  31.087  30.321  1.00  0.00     0.167 HD
ATOM     56  C   UNL A   1      41.358  33.577  30.815  1.00  0.00     0.074 A 
ATOM     57  C   UNL A   1      40.347  34.611  30.897  1.00  0.00     0.031 C 
ATOM     58  C   UNL A   1      42.660  33.757  31.153  1.00  0.00     0.031 A 
BRANCH  45  59
ATOM     59  C   UNL A   1      46.168  28.722  30.393  1.00  0.00    -0.014 A 
ATOM     60  C   UNL A   1      47.108  28.753  29.348  1.00  0.00     0.009 A 
ATOM     61  C   UNL A   1      46.513  28.080  31.592  1.00  0.00     0.009 A 
ATOM     62  C   UNL A   1      48.343  28.114  29.485  1.00  0.00     0.001 A 
ATOM     63  C   UNL A   1      47.762  27.474  31.739  1.00  0.00     0.001 A 
ATOM     64  C   UNL A   1      48.671  27.480  30.681  1.00  0.00     0.000 A 
ENDBRANCH  45  59
BRANCH  46  65
ATOM     65  C   UNL A   1      36.964  32.522  29.519  1.00  0.00    -0.014 A 
ATOM     66  C   UNL A   1      36.022  32.349  30.545  1.00  0.00     0.009 A 
ATOM     67  C   UNL A   1      36.591  33.241  28.373  1.00  0.00     0.009 A 
ATOM     68  C   UNL A   1      34.725  32.851  30.410  1.00  0.00     0.001 A 
ATOM     69  C   UNL A   1      35.305  33.771  28.255  1.00  0.00     0.001 A 
ATOM     70  C   UNL A   1      34.369  33.565  29.267  1.00  0.00     0.000 A 
ENDBRANCH  46  65
BRANCH  58  71
ATOM     71  C   UNL A   1      43.067  35.137  31.592  1.00  0.00    -0.014 A 
ATOM     72  C   UNL A   1      43.564  36.083  30.683  1.00  0.00     0.009 A 
ATOM     73  C   UNL A   1      42.938  35.495  32.944  1.00  0.00     0.009 A 
ATOM     74  C   UNL A   1      43.977  37.340  31.128  1.00  0.00     0.001 A 
ATOM     75  C   UNL A   1      43.315  36.765  33.380  1.00  0.00     0.001 A 
ATOM     76  C   UNL A   1      43.849  37.681  32.475  1.00  0.00     0.000 A 
ENDBRANCH  58  71
ENDBRANCH  32  33
ENDBRANCH  24  27
ENDBRANCH  22  23
ENDBRANCH   1  22
TORSDOF 12
ENDMDL
MODEL 2
REMARK VINA RESULT:     -10.8      2.484      7.889
REMARK SMILES COc1c(C(=O)NCCCNC(=O)c2ccc(-c3c4nc(c(-c5ccccc5)c5ccc([nH]5)c(-c5ccccc5)c5nc(c(-c6ccccc6)c6ccc3[nH]6)C=C5)C=C4)cc2)cccc1-c1cccc(C)c1
REMARK SMILES IDX 9 1 8 2 7 3 5 4 6 5 4 7 3 8 65 9 62 10 64 11 63 12 2 13 1 14
REMARK SMILES IDX 66 15 67 16 72 17 68 18 70 19 69 20 71 21 10 22 11 23 12 24
REMARK SMILES IDX 13 26 14 27 15 28 61 29 16 30 60 31 17 32 18 33 19 34 54 35
REMARK SMILES IDX 20 36 59 37 53 38 55 39 21 40 58 41 52 42 51 43 22 45 44 46
REMARK SMILES IDX 29 47 43 48 30 49 33 50 42 51 56 52 31 53 32 54 41 56 57 57
REMARK SMILES IDX 34 58 23 59 24 60 28 61 25 62 27 63 26 64 45 65 46 66 50 67
REMARK SMILES IDX 47 68 49 69 48 70 35 71 36 72 40 73 37 74 39 75 38 76
REMARK H PARENT 7 6 11 25 55 44 33 55
REMARK Flexibility Score: inf
ROOT
ATOM      1  C   UNL A   1      33.258  27.649  26.428  1.00  0.00     0.042 C 
ENDROOT
BRANCH   1   2
ATOM      2  C   UNL A   1      31.765  27.485  26.317  1.00  0.00     0.118 C 
BRANCH   2   3
ATOM      3  N   UNL A   1      31.208  26.776  25.206  1.00  0.00    -0.352 N 
ATOM      4  C   UNL A   1      31.279  25.414  24.990  1.00  0.00     0.255 C 
ATOM      5  O   UNL A   1      30.575  24.952  24.090  1.00  0.00    -0.269 OA
ATOM      6  H   UNL A   1      30.730  27.309  24.530  1.00  0.00     0.163 HD
BRANCH   4   7
ATOM      7  C   UNL A   1      32.268  24.511  25.681  1.00  0.00     0.082 A 
ATOM      8  C   UNL A   1      33.629  24.269  25.352  1.00  0.00     0.139 A 
ATOM      9  C   UNL A   1      34.375  23.301  26.090  1.00  0.00     0.025 A 
ATOM     10  C   UNL A   1      31.704  23.832  26.781  1.00  0.00     0.018 A 
ATOM     11  C   UNL A   1      33.756  22.647  27.174  1.00  0.00     0.012 A 
ATOM     12  C   UNL A   1      32.440  22.920  27.529  1.00  0.00     0.002 A 
BRANCH   8  13
ATOM     13  O   UNL A   1      34.234  25.073  24.401  1.00  0.00    -0.495 OA
ATOM     14  C   UNL A   1      34.088  24.671  23.026  1.00  0.00     0.278 C 
ENDBRANCH   8  13
BRANCH   9  15
ATOM     15  C   UNL A   1      35.752  22.898  25.735  1.00  0.00    -0.014 A 
ATOM     16  C   UNL A   1      36.837  23.691  26.150  1.00  0.00     0.009 A 
ATOM     17  C   UNL A   1      36.020  21.654  25.145  1.00  0.00     0.012 A 
ATOM     18  C   UNL A   1      38.146  23.219  26.056  1.00  0.00     0.001 A 
ATOM     19  C   UNL A   1      37.324  21.134  25.136  1.00  0.00    -0.051 A 
ATOM     20  C   UNL A   1      38.386  21.935  25.574  1.00  0.00     0.003 A 
ATOM     21  C   UNL A   1      37.565  19.698  24.775  1.00  0.00     0.044 C 
ENDBRANCH   9  15
ENDBRANCH   4   7
ENDBRANCH   2   3
ENDBRANCH   1   2
BRANCH   1  22
ATOM     22  C   UNL A   1      33.818  28.907  25.811  1.00  0.00     0.118 C 
BRANCH  22  23
ATOM     23  N   UNL A   1      33.631  30.105  26.619  1.00  0.00    -0.352 N 
ATOM     24  C   UNL A   1      34.381  30.696  27.614  1.00  0.00     0.251 C 
ATOM     25  H   UNL A   1      32.800  30.592  26.414  1.00  0.00     0.163 HD
ATOM     26  O   UNL A   1      33.924  31.677  28.193  1.00  0.00    -0.269 OA
BRANCH  24  27
ATOM     27  C   UNL A   1      35.701  30.161  28.032  1.00  0.00     0.039 A 
ATOM     28  C   UNL A   1      36.800  30.327  27.181  1.00  0.00     0.014 A 
ATOM     29  C   UNL A   1      35.879  29.471  29.226  1.00  0.00     0.014 A 
ATOM     30  C   UNL A   1      38.063  29.858  27.564  1.00  0.00     0.010 A 
ATOM     31  C   UNL A   1      37.153  29.164  29.683  1.00  0.00     0.010 A 
ATOM     32  C   UNL A   1      38.259  29.307  28.840  1.00  0.00    -0.014 A 
BRANCH  32  33
ATOM     33  C   UNL A   1      39.585  28.806  29.286  1.00  0.00     0.031 A 
ATOM     34  C   UNL A   1      40.434  29.638  30.219  1.00  0.00     0.074 A 
ATOM     35  C   UNL A   1      40.050  27.630  28.822  1.00  0.00     0.049 A 
ATOM     36  N   UNL A   1      41.625  29.385  30.702  1.00  0.00    -0.248 NA
ATOM     37  C   UNL A   1      39.892  30.944  30.637  1.00  0.00     0.031 C 
ATOM     38  C   UNL A   1      39.362  26.757  27.869  1.00  0.00     0.029 A 
ATOM     39  N   UNL A   1      41.218  26.962  29.098  1.00  0.00    -0.354 N 
ATOM     40  C   UNL A   1      41.975  30.504  31.449  1.00  0.00     0.074 A 
ATOM     41  C   UNL A   1      40.913  31.469  31.293  1.00  0.00     0.031 C 
ATOM     42  C   UNL A   1      40.090  25.646  27.683  1.00  0.00     0.029 A 
ATOM     43  C   UNL A   1      41.316  25.745  28.467  1.00  0.00     0.049 A 
ATOM     44  H   UNL A   1      41.917  27.320  29.690  1.00  0.00     0.167 HD
ATOM     45  C   UNL A   1      43.064  30.704  32.229  1.00  0.00     0.031 A 
ATOM     46  C   UNL A   1      42.282  24.810  28.524  1.00  0.00     0.031 A 
ATOM     47  C   UNL A   1      44.111  29.735  32.407  1.00  0.00     0.049 A 
ATOM     48  C   UNL A   1      43.475  25.045  29.409  1.00  0.00     0.074 A 
ATOM     49  C   UNL A   1      45.229  29.811  33.219  1.00  0.00     0.029 A 
ATOM     50  N   UNL A   1      44.162  28.508  31.764  1.00  0.00    -0.354 N 
ATOM     51  N   UNL A   1      43.753  26.079  30.167  1.00  0.00    -0.248 NA
ATOM     52  C   UNL A   1      44.475  23.971  29.462  1.00  0.00     0.031 C 
ATOM     53  C   UNL A   1      45.984  28.650  33.026  1.00  0.00     0.029 A 
ATOM     54  C   UNL A   1      45.302  27.824  32.147  1.00  0.00     0.049 A 
ATOM     55  H   UNL A   1      43.488  28.174  31.129  1.00  0.00     0.167 HD
ATOM     56  C   UNL A   1      44.942  25.763  30.814  1.00  0.00     0.074 A 
ATOM     57  C   UNL A   1      45.316  24.435  30.374  1.00  0.00     0.031 C 
ATOM     58  C   UNL A   1      45.659  26.504  31.696  1.00  0.00     0.031 A 
BRANCH  45  59
ATOM     59  C   UNL A   1      43.169  32.023  32.947  1.00  0.00    -0.014 A 
ATOM     60  C   UNL A   1      42.629  32.200  34.234  1.00  0.00     0.009 A 
ATOM     61  C   UNL A   1      43.829  33.101  32.339  1.00  0.00     0.009 A 
ATOM     62  C   UNL A   1      42.709  33.440  34.873  1.00  0.00     0.001 A 
ATOM     63  C   UNL A   1      43.940  34.329  32.996  1.00  0.00     0.001 A 
ATOM     64  C   UNL A   1      43.368  34.501  34.256  1.00  0.00     0.000 A 
ENDBRANCH  45  59
BRANCH  46  65
ATOM     65  C   UNL A   1      42.145  23.544  27.755  1.00  0.00    -0.014 A 
ATOM     66  C   UNL A   1      42.608  23.458  26.433  1.00  0.00     0.009 A 
ATOM     67  C   UNL A   1      41.542  22.416  28.335  1.00  0.00     0.009 A 
ATOM     68  C   UNL A   1      42.436  22.284  25.695  1.00  0.00     0.001 A 
ATOM     69  C   UNL A   1      41.402  21.233  27.606  1.00  0.00     0.001 A 
ATOM     70  C   UNL A   1      41.837  21.172  26.283  1.00  0.00     0.000 A 
ENDBRANCH  46  65
BRANCH  58  71
ATOM     71  C   UNL A   1      46.891  25.868  32.277  1.00  0.00    -0.014 A 
ATOM     72  C   UNL A   1      48.145  25.990  31.658  1.00  0.00     0.009 A 
ATOM     73  C   UNL A   1      46.792  25.140  33.473  1.00  0.00     0.009 A 
ATOM     74  C   UNL A   1      49.263  25.350  32.197  1.00  0.00     0.001 A 
ATOM     75  C   UNL A   1      47.918  24.533  34.030  1.00  0.00     0.001 A 
ATOM     76  C   UNL A   1      49.149  24.625  33.383  1.00  0.00     0.000 A 
ENDBRANCH  58  71
ENDBRANCH  32  33
ENDBRANCH  24  27
ENDBRANCH  22  23
ENDBRANCH   1  22
TORSDOF 12
ENDMDL
MODEL 3
REMARK VINA RESULT:     -10.6      0.562      6.079
REMARK SMILES COc1c(C(=O)NCCCNC(=O)c2ccc(-c3c4nc(c(-c5ccccc5)c5ccc([nH]5)c(-c5ccccc5)c5nc(c(-c6ccccc6)c6ccc3[nH]6)C=C5)C=C4)cc2)cccc1-c1cccc(C)c1
REMARK SMILES IDX 9 1 8 2 7 3 5 4 6 5 4 7 3 8 65 9 62 10 64 11 63 12 2 13 1 14
REMARK SMILES IDX 66 15 67 16 72 17 68 18 70 19 69 20 71 21 10 22 11 23 12 24
REMARK SMILES IDX 13 26 14 27 15 28 61 29 16 30 60 31 17 32 18 33 19 34 54 35
REMARK SMILES IDX 20 36 59 37 53 38 55 39 21 40 58 41 52 42 51 43 22 45 44 46
REMARK SMILES IDX 29 47 43 48 30 49 33 50 42 51 56 52 31 53 32 54 41 56 57 57
REMARK SMILES IDX 34 58 23 59 24 60 28 61 25 62 27 63 26 64 45 65 46 66 50 67
REMARK SMILES IDX 47 68 49 69 48 70 35 71 36 72 40 73 37 74 39 75 38 76
REMARK H PARENT 7 6 11 25 55 44 33 55
REMARK Flexibility Score: inf
ROOT
ATOM      1  C   UNL A   1      35.148  22.475  25.852  1.00  0.00     0.042 C 
ENDROOT
BRANCH   1   2
ATOM      2  C   UNL A   1      34.732  22.468  24.404  1.00  0.00     0.118 C 
BRANCH   2   3
ATOM      3  N   UNL A   1      33.349  22.344  24.063  1.00  0.00    -0.352 N 
ATOM      4  C   UNL A   1      32.550  23.334  23.525  1.00  0.00     0.255 C 
ATOM      5  O   UNL A   1      31.440  22.994  23.110  1.00  0.00    -0.269 OA
ATOM      6  H   UNL A   1      32.924  21.470  24.228  1.00  0.00     0.163 HD
BRANCH   4   7
ATOM      7  C   UNL A   1      32.898  24.799  23.564  1.00  0.00     0.082 A 
ATOM      8  C   UNL A   1      32.974  25.664  24.689  1.00  0.00     0.139 A 
ATOM      9  C   UNL A   1      33.239  27.054  24.498  1.00  0.00     0.025 A 
ATOM     10  C   UNL A   1      33.157  25.328  22.283  1.00  0.00     0.018 A 
ATOM     11  C   UNL A   1      33.481  27.527  23.192  1.00  0.00     0.012 A 
ATOM     12  C   UNL A   1      33.458  26.673  22.097  1.00  0.00     0.002 A 
BRANCH   8  13
ATOM     13  O   UNL A   1      32.911  25.110  25.956  1.00  0.00    -0.495 OA
ATOM     14  C   UNL A   1      31.598  24.914  26.513  1.00  0.00     0.278 C 
ENDBRANCH   8  13
BRANCH   9  15
ATOM     15  C   UNL A   1      33.210  28.042  25.596  1.00  0.00    -0.014 A 
ATOM     16  C   UNL A   1      34.289  28.113  26.495  1.00  0.00     0.009 A 
ATOM     17  C   UNL A   1      32.215  29.028  25.666  1.00  0.00     0.012 A 
ATOM     18  C   UNL A   1      34.415  29.185  27.379  1.00  0.00     0.001 A 
ATOM     19  C   UNL A   1      32.385  30.157  26.483  1.00  0.00    -0.051 A 
ATOM     20  C   UNL A   1      33.479  30.216  27.354  1.00  0.00     0.003 A 
ATOM     21  C   UNL A   1      31.473  31.340  26.340  1.00  0.00     0.044 C 
ENDBRANCH   9  15
ENDBRANCH   4   7
ENDBRANCH   2   3
ENDBRANCH   1   2
BRANCH   1  22
ATOM     22  C   UNL A   1      36.392  23.270  26.165  1.00  0.00     0.118 C 
BRANCH  22  23
ATOM     23  N   UNL A   1      37.629  22.505  26.075  1.00  0.00    -0.352 N 
ATOM     24  C   UNL A   1      38.946  22.812  26.341  1.00  0.00     0.251 C 
ATOM     25  H   UNL A   1      37.499  21.581  25.760  1.00  0.00     0.163 HD
ATOM     26  O   UNL A   1      39.810  21.979  26.084  1.00  0.00    -0.269 OA
BRANCH  24  27
ATOM     27  C   UNL A   1      39.356  24.130  26.888  1.00  0.00     0.039 A 
ATOM     28  C   UNL A   1      39.124  24.405  28.241  1.00  0.00     0.014 A 
ATOM     29  C   UNL A   1      39.933  25.117  26.096  1.00  0.00     0.014 A 
ATOM     30  C   UNL A   1      39.527  25.628  28.790  1.00  0.00     0.010 A 
ATOM     31  C   UNL A   1      40.488  26.252  26.672  1.00  0.00     0.010 A 
ATOM     32  C   UNL A   1      40.251  26.549  28.017  1.00  0.00    -0.014 A 
BRANCH  32  33
ATOM     33  C   UNL A   1      40.703  27.855  28.564  1.00  0.00     0.031 A 
ATOM     34  C   UNL A   1      39.708  28.972  28.774  1.00  0.00     0.074 A 
ATOM     35  C   UNL A   1      42.008  28.057  28.830  1.00  0.00     0.049 A 
ATOM     36  N   UNL A   1      39.909  30.188  29.217  1.00  0.00    -0.248 NA
ATOM     37  C   UNL A   1      38.307  28.704  28.400  1.00  0.00     0.031 C 
ATOM     38  C   UNL A   1      43.083  27.086  28.615  1.00  0.00     0.029 A 
ATOM     39  N   UNL A   1      42.652  29.153  29.348  1.00  0.00    -0.354 N 
ATOM     40  C   UNL A   1      38.675  30.824  29.149  1.00  0.00     0.074 A 
ATOM     41  C   UNL A   1      37.749  29.894  28.549  1.00  0.00     0.031 C 
ATOM     42  C   UNL A   1      44.241  27.606  29.049  1.00  0.00     0.029 A 
ATOM     43  C   UNL A   1      44.001  28.962  29.532  1.00  0.00     0.049 A 
ATOM     44  H   UNL A   1      42.193  29.996  29.566  1.00  0.00     0.167 HD
ATOM     45  C   UNL A   1      38.326  32.060  29.581  1.00  0.00     0.031 A 
ATOM     46  C   UNL A   1      44.936  29.783  30.042  1.00  0.00     0.031 A 
ATOM     47  C   UNL A   1      39.239  32.979  30.203  1.00  0.00     0.049 A 
ATOM     48  C   UNL A   1      44.523  31.145  30.530  1.00  0.00     0.074 A 
ATOM     49  C   UNL A   1      38.980  34.232  30.730  1.00  0.00     0.029 A 
ATOM     50  N   UNL A   1      40.592  32.738  30.386  1.00  0.00    -0.354 N 
ATOM     51  N   UNL A   1      43.336  31.702  30.526  1.00  0.00    -0.248 NA
ATOM     52  C   UNL A   1      45.580  31.981  31.116  1.00  0.00     0.031 C 
ATOM     53  C   UNL A   1      40.187  34.770  31.184  1.00  0.00     0.029 A 
ATOM     54  C   UNL A   1      41.184  33.825  31.003  1.00  0.00     0.049 A 
ATOM     55  H   UNL A   1      41.062  31.915  30.117  1.00  0.00     0.167 HD
ATOM     56  C   UNL A   1      43.497  32.938  31.140  1.00  0.00     0.074 A 
ATOM     57  C   UNL A   1      44.891  33.036  31.521  1.00  0.00     0.031 C 
ATOM     58  C   UNL A   1      42.575  33.906  31.371  1.00  0.00     0.031 A 
BRANCH  45  59
ATOM     59  C   UNL A   1      36.892  32.480  29.393  1.00  0.00    -0.014 A 
ATOM     60  C   UNL A   1      35.931  32.268  30.397  1.00  0.00     0.009 A 
ATOM     61  C   UNL A   1      36.497  33.110  28.204  1.00  0.00     0.009 A 
ATOM     62  C   UNL A   1      34.599  32.637  30.194  1.00  0.00     0.001 A 
ATOM     63  C   UNL A   1      35.173  33.511  28.018  1.00  0.00     0.001 A 
ATOM     64  C   UNL A   1      34.222  33.262  29.008  1.00  0.00     0.000 A 
ENDBRANCH  45  59
BRANCH  46  65
ATOM     65  C   UNL A   1      46.347  29.330  30.161  1.00  0.00    -0.014 A 
ATOM     66  C   UNL A   1      46.797  28.691  31.327  1.00  0.00     0.009 A 
ATOM     67  C   UNL A   1      47.258  29.544  29.113  1.00  0.00     0.009 A 
ATOM     68  C   UNL A   1      48.135  28.310  31.457  1.00  0.00     0.001 A 
ATOM     69  C   UNL A   1      48.586  29.132  29.233  1.00  0.00     0.001 A 
ATOM     70  C   UNL A   1      49.027  28.527  30.408  1.00  0.00     0.000 A 
ENDBRANCH  46  65
BRANCH  58  71
ATOM     71  C   UNL A   1      43.039  35.128  32.113  1.00  0.00    -0.014 A 
ATOM     72  C   UNL A   1      43.632  36.213  31.448  1.00  0.00     0.009 A 
ATOM     73  C   UNL A   1      42.869  35.195  33.505  1.00  0.00     0.009 A 
ATOM     74  C   UNL A   1      44.096  37.314  32.170  1.00  0.00     0.001 A 
ATOM     75  C   UNL A   1      43.299  36.314  34.219  1.00  0.00     0.001 A 
ATOM     76  C   UNL A   1      43.926  37.365  33.554  1.00  0.00     0.000 A 
ENDBRANCH  58  71
ENDBRANCH  32  33
ENDBRANCH  24  27
ENDBRANCH  22  23
ENDBRANCH   1  22
TORSDOF 12
ENDMDL
