MODEL 1
REMARK VINA RESULT:     -10.5      0.000      0.000
REMARK SMILES O=C(NCCCNC(=O)c1cccc(OCC(F)F)c1)c1ccc(-c2c3nc(c(-c4ccccc4)c4ccc([nH]4)c(-c4ccccc4)c4nc(c(-c5ccccc5)c5ccc2[nH]5)C=C4)C=C3)cc1
REMARK SMILES IDX 5 1 4 2 3 3 1 4 2 5 21 7 22 8 68 9 23 10 67 11 24 12 25 13
REMARK SMILES IDX 26 14 61 15 27 16 66 17 60 18 62 19 28 20 65 21 59 22 58 23
REMARK SMILES IDX 29 25 51 26 36 27 50 28 37 29 40 30 49 31 63 32 38 33 39 34
REMARK SMILES IDX 48 36 64 37 41 38 30 39 31 40 35 41 32 42 34 43 33 44 52 45
REMARK SMILES IDX 53 46 57 47 54 48 56 49 55 50 42 51 43 52 47 53 44 54 46 55
REMARK SMILES IDX 45 56 6 57 7 58 8 59 9 61 10 62 11 63 20 64 12 65 14 66
REMARK SMILES IDX 13 67 15 68 16 69 17 70 18 71 19 72
REMARK H PARENT 3 6 62 24 40 35 7 60
REMARK Flexibility Score: inf
ROOT
ATOM      1  C   UNL A   1      37.832  19.908  24.702  1.00  0.00     0.042 C 
ENDROOT
BRANCH   1   2
ATOM      2  C   UNL A   1      38.836  20.168  25.809  1.00  0.00     0.118 C 
BRANCH   2   3
ATOM      3  N   UNL A   1      39.919  19.193  25.830  1.00  0.00    -0.352 N 
ATOM      4  O   UNL A   1      42.039  18.433  25.814  1.00  0.00    -0.269 OA
ATOM      5  C   UNL A   1      41.270  19.375  25.988  1.00  0.00     0.251 C 
ATOM      6  H   UNL A   1      39.636  18.257  25.713  1.00  0.00     0.163 HD
BRANCH   5   7
ATOM      7  C   UNL A   1      41.810  20.703  26.353  1.00  0.00     0.039 A 
ATOM      8  C   UNL A   1      42.080  21.660  25.374  1.00  0.00     0.014 A 
ATOM      9  C   UNL A   1      42.010  21.010  27.702  1.00  0.00     0.014 A 
ATOM     10  C   UNL A   1      42.689  22.859  25.723  1.00  0.00     0.010 A 
ATOM     11  C   UNL A   1      42.520  22.261  28.064  1.00  0.00     0.010 A 
ATOM     12  C   UNL A   1      42.878  23.188  27.074  1.00  0.00    -0.014 A 
BRANCH  12  13
ATOM     13  C   UNL A   1      43.322  24.558  27.422  1.00  0.00     0.031 A 
ATOM     14  C   UNL A   1      42.352  25.610  27.874  1.00  0.00     0.074 A 
ATOM     15  C   UNL A   1      44.638  24.839  27.323  1.00  0.00     0.049 A 
ATOM     16  N   UNL A   1      42.591  26.856  28.200  1.00  0.00    -0.248 NA
ATOM     17  C   UNL A   1      40.934  25.227  27.968  1.00  0.00     0.031 C 
ATOM     18  C   UNL A   1      45.670  23.896  26.877  1.00  0.00     0.029 A 
ATOM     19  N   UNL A   1      45.335  25.986  27.595  1.00  0.00    -0.354 N 
ATOM     20  C   UNL A   1      41.358  27.411  28.511  1.00  0.00     0.074 A 
ATOM     21  C   UNL A   1      40.368  26.372  28.328  1.00  0.00     0.031 C 
ATOM     22  C   UNL A   1      46.869  24.491  26.944  1.00  0.00     0.029 A 
ATOM     23  C   UNL A   1      46.683  25.874  27.362  1.00  0.00     0.049 A 
ATOM     24  H   UNL A   1      44.910  26.812  27.925  1.00  0.00     0.167 HD
ATOM     25  C   UNL A   1      41.083  28.676  28.910  1.00  0.00     0.031 A 
ATOM     26  C   UNL A   1      47.666  26.790  27.439  1.00  0.00     0.031 A 
ATOM     27  C   UNL A   1      42.077  29.699  29.105  1.00  0.00     0.049 A 
ATOM     28  C   UNL A   1      47.320  28.188  27.846  1.00  0.00     0.074 A 
ATOM     29  C   UNL A   1      41.903  30.987  29.582  1.00  0.00     0.029 A 
ATOM     30  N   UNL A   1      43.426  29.556  28.821  1.00  0.00    -0.354 N 
ATOM     31  N   UNL A   1      46.156  28.677  28.202  1.00  0.00    -0.248 NA
ATOM     32  C   UNL A   1      48.416  29.165  27.852  1.00  0.00     0.031 C 
ATOM     33  C   UNL A   1      43.137  31.643  29.530  1.00  0.00     0.029 A 
ATOM     34  C   UNL A   1      44.087  30.748  29.066  1.00  0.00     0.049 A 
ATOM     35  H   UNL A   1      43.850  28.730  28.494  1.00  0.00     0.167 HD
ATOM     36  C   UNL A   1      46.381  30.018  28.472  1.00  0.00     0.074 A 
ATOM     37  C   UNL A   1      47.795  30.258  28.271  1.00  0.00     0.031 C 
ATOM     38  C   UNL A   1      45.491  30.969  28.844  1.00  0.00     0.031 A 
BRANCH  25  39
ATOM     39  C   UNL A   1      39.647  29.050  29.139  1.00  0.00    -0.014 A 
ATOM     40  C   UNL A   1      38.845  29.550  28.101  1.00  0.00     0.009 A 
ATOM     41  C   UNL A   1      39.062  28.806  30.392  1.00  0.00     0.009 A 
ATOM     42  C   UNL A   1      37.490  29.809  28.320  1.00  0.00     0.001 A 
ATOM     43  C   UNL A   1      37.703  29.049  30.602  1.00  0.00     0.001 A 
ATOM     44  C   UNL A   1      36.919  29.552  29.566  1.00  0.00     0.000 A 
ENDBRANCH  25  39
BRANCH  26  45
ATOM     45  C   UNL A   1      49.053  26.419  27.060  1.00  0.00    -0.014 A 
ATOM     46  C   UNL A   1      49.949  25.920  28.015  1.00  0.00     0.009 A 
ATOM     47  C   UNL A   1      49.484  26.564  25.731  1.00  0.00     0.009 A 
ATOM     48  C   UNL A   1      51.257  25.591  27.648  1.00  0.00     0.001 A 
ATOM     49  C   UNL A   1      50.780  26.206  25.362  1.00  0.00     0.001 A 
ATOM     50  C   UNL A   1      51.669  25.729  26.322  1.00  0.00     0.000 A 
ENDBRANCH  26  45
BRANCH  38  51
ATOM     51  C   UNL A   1      46.030  32.353  29.054  1.00  0.00    -0.014 A 
ATOM     52  C   UNL A   1      46.030  33.288  28.007  1.00  0.00     0.009 A 
ATOM     53  C   UNL A   1      46.513  32.735  30.314  1.00  0.00     0.009 A 
ATOM     54  C   UNL A   1      46.532  34.574  28.213  1.00  0.00     0.001 A 
ATOM     55  C   UNL A   1      46.989  34.028  30.524  1.00  0.00     0.001 A 
ATOM     56  C   UNL A   1      47.006  34.944  29.471  1.00  0.00     0.000 A 
ENDBRANCH  38  51
ENDBRANCH  12  13
ENDBRANCH   5   7
ENDBRANCH   2   3
ENDBRANCH   1   2
BRANCH   1  57
ATOM     57  C   UNL A   1      36.973  21.111  24.362  1.00  0.00     0.118 C 
BRANCH  57  58
ATOM     58  N   UNL A   1      36.501  21.831  25.536  1.00  0.00    -0.352 N 
ATOM     59  C   UNL A   1      35.207  22.077  25.926  1.00  0.00     0.251 C 
ATOM     60  H   UNL A   1      37.201  22.188  26.130  1.00  0.00     0.163 HD
ATOM     61  O   UNL A   1      34.971  22.809  26.881  1.00  0.00    -0.269 OA
BRANCH  59  62
ATOM     62  C   UNL A   1      34.098  21.472  25.159  1.00  0.00     0.043 A 
ATOM     63  C   UNL A   1      33.616  22.143  24.035  1.00  0.00     0.014 A 
ATOM     64  C   UNL A   1      33.581  20.223  25.531  1.00  0.00     0.060 A 
ATOM     65  C   UNL A   1      32.654  21.526  23.241  1.00  0.00     0.005 A 
ATOM     66  C   UNL A   1      32.659  19.582  24.711  1.00  0.00     0.120 A 
ATOM     67  C   UNL A   1      32.192  20.247  23.571  1.00  0.00     0.046 A 
BRANCH  66  68
ATOM     68  O   UNL A   1      32.156  18.324  24.891  1.00  0.00    -0.488 OA
BRANCH  68  69
ATOM     69  C   UNL A   1      33.063  17.242  25.140  1.00  0.00     0.302 C 
BRANCH  69  70
ATOM     70  C   UNL A   1      33.891  16.872  23.918  1.00  0.00     0.379 C 
ATOM     71  F   UNL A   1      33.209  17.151  22.778  1.00  0.00    -0.207 F 
ATOM     72  F   UNL A   1      35.009  17.643  23.878  1.00  0.00    -0.207 F 
ENDBRANCH  69  70
ENDBRANCH  68  69
ENDBRANCH  66  68
ENDBRANCH  59  62
ENDBRANCH  57  58
ENDBRANCH   1  57
TORSDOF 13
ENDMDL
MODEL 2
REMARK VINA RESULT:     -10.4      1.313      6.287
REMARK SMILES O=C(NCCCNC(=O)c1cccc(OCC(F)F)c1)c1ccc(-c2c3nc(c(-c4ccccc4)c4ccc([nH]4)c(-c4ccccc4)c4nc(c(-c5ccccc5)c5ccc2[nH]5)C=C4)C=C3)cc1
REMARK SMILES IDX 5 1 4 2 3 3 1 4 2 5 21 7 22 8 68 9 23 10 67 11 24 12 25 13
REMARK SMILES IDX 26 14 61 15 27 16 66 17 60 18 62 19 28 20 65 21 59 22 58 23
REMARK SMILES IDX 29 25 51 26 36 27 50 28 37 29 40 30 49 31 63 32 38 33 39 34
REMARK SMILES IDX 48 36 64 37 41 38 30 39 31 40 35 41 32 42 34 43 33 44 52 45
REMARK SMILES IDX 53 46 57 47 54 48 56 49 55 50 42 51 43 52 47 53 44 54 46 55
REMARK SMILES IDX 45 56 6 57 7 58 8 59 9 61 10 62 11 63 20 64 12 65 14 66
REMARK SMILES IDX 13 67 15 68 16 69 17 70 18 71 19 72
REMARK H PARENT 3 6 62 24 40 35 7 60
REMARK Flexibility Score: inf
ROOT
ATOM      1  C   UNL A   1      37.867  19.913  24.986  1.00  0.00     0.042 C 
ENDROOT
BRANCH   1   2
ATOM      2  C   UNL A   1      38.968  20.276  25.963  1.00  0.00     0.118 C 
BRANCH   2   3
ATOM      3  N   UNL A   1      40.135  19.412  25.848  1.00  0.00    -0.352 N 
ATOM      4  O   UNL A   1      42.315  18.860  25.706  1.00  0.00    -0.269 OA
ATOM      5  C   UNL A   1      41.468  19.699  26.007  1.00  0.00     0.251 C 
ATOM      6  H   UNL A   1      39.936  18.474  25.621  1.00  0.00     0.163 HD
BRANCH   5   7
ATOM      7  C   UNL A   1      41.895  21.017  26.526  1.00  0.00     0.039 A 
ATOM      8  C   UNL A   1      42.228  22.055  25.656  1.00  0.00     0.014 A 
ATOM      9  C   UNL A   1      41.921  21.229  27.907  1.00  0.00     0.014 A 
ATOM     10  C   UNL A   1      42.731  23.248  26.157  1.00  0.00     0.010 A 
ATOM     11  C   UNL A   1      42.322  22.470  28.413  1.00  0.00     0.010 A 
ATOM     12  C   UNL A   1      42.745  23.483  27.540  1.00  0.00    -0.014 A 
BRANCH  12  13
ATOM     13  C   UNL A   1      43.076  24.840  28.034  1.00  0.00     0.031 A 
ATOM     14  C   UNL A   1      44.488  25.240  28.352  1.00  0.00     0.074 A 
ATOM     15  C   UNL A   1      42.066  25.720  28.189  1.00  0.00     0.049 A 
ATOM     16  N   UNL A   1      44.929  26.387  28.804  1.00  0.00    -0.248 NA
ATOM     17  C   UNL A   1      45.538  24.231  28.148  1.00  0.00     0.031 C 
ATOM     18  C   UNL A   1      40.651  25.433  27.924  1.00  0.00     0.029 A 
ATOM     19  N   UNL A   1      42.066  27.028  28.595  1.00  0.00    -0.354 N 
ATOM     20  C   UNL A   1      46.299  26.232  28.963  1.00  0.00     0.074 A 
ATOM     21  C   UNL A   1      46.619  24.877  28.568  1.00  0.00     0.031 C 
ATOM     22  C   UNL A   1      39.929  26.541  28.138  1.00  0.00     0.029 A 
ATOM     23  C   UNL A   1      40.814  27.590  28.625  1.00  0.00     0.049 A 
ATOM     24  H   UNL A   1      42.884  27.517  28.842  1.00  0.00     0.167 HD
ATOM     25  C   UNL A   1      47.202  27.140  29.403  1.00  0.00     0.031 A 
ATOM     26  C   UNL A   1      40.408  28.806  29.034  1.00  0.00     0.031 A 
ATOM     27  C   UNL A   1      46.876  28.492  29.779  1.00  0.00     0.049 A 
ATOM     28  C   UNL A   1      41.429  29.772  29.550  1.00  0.00     0.074 A 
ATOM     29  C   UNL A   1      47.734  29.509  30.162  1.00  0.00     0.029 A 
ATOM     30  N   UNL A   1      45.592  29.010  29.832  1.00  0.00    -0.354 N 
ATOM     31  N   UNL A   1      42.730  29.630  29.630  1.00  0.00    -0.248 NA
ATOM     32  C   UNL A   1      40.928  31.061  30.044  1.00  0.00     0.031 C 
ATOM     33  C   UNL A   1      46.963  30.624  30.505  1.00  0.00     0.029 A 
ATOM     34  C   UNL A   1      45.630  30.317  30.288  1.00  0.00     0.049 A 
ATOM     35  H   UNL A   1      44.774  28.522  29.582  1.00  0.00     0.167 HD
ATOM     36  C   UNL A   1      43.203  30.809  30.183  1.00  0.00     0.074 A 
ATOM     37  C   UNL A   1      42.055  31.668  30.390  1.00  0.00     0.031 C 
ATOM     38  C   UNL A   1      44.475  31.147  30.502  1.00  0.00     0.031 A 
BRANCH  25  39
ATOM     39  C   UNL A   1      48.634  26.709  29.535  1.00  0.00    -0.014 A 
ATOM     40  C   UNL A   1      49.570  26.956  28.519  1.00  0.00     0.009 A 
ATOM     41  C   UNL A   1      49.073  26.132  30.737  1.00  0.00     0.009 A 
ATOM     42  C   UNL A   1      50.914  26.622  28.702  1.00  0.00     0.001 A 
ATOM     43  C   UNL A   1      50.420  25.817  30.924  1.00  0.00     0.001 A 
ATOM     44  C   UNL A   1      51.338  26.060  29.906  1.00  0.00     0.000 A 
ENDBRANCH  25  39
BRANCH  26  45
ATOM     45  C   UNL A   1      38.963  29.145  29.028  1.00  0.00    -0.014 A 
ATOM     46  C   UNL A   1      38.180  28.972  30.177  1.00  0.00     0.009 A 
ATOM     47  C   UNL A   1      38.361  29.648  27.863  1.00  0.00     0.009 A 
ATOM     48  C   UNL A   1      36.816  29.278  30.153  1.00  0.00     0.001 A 
ATOM     49  C   UNL A   1      37.007  29.983  27.851  1.00  0.00     0.001 A 
ATOM     50  C   UNL A   1      36.233  29.788  28.992  1.00  0.00     0.000 A 
ENDBRANCH  26  45
BRANCH  38  51
ATOM     51  C   UNL A   1      44.682  32.503  31.109  1.00  0.00    -0.014 A 
ATOM     52  C   UNL A   1      44.674  32.674  32.502  1.00  0.00     0.009 A 
ATOM     53  C   UNL A   1      44.917  33.613  30.284  1.00  0.00     0.009 A 
ATOM     54  C   UNL A   1      44.870  33.939  33.057  1.00  0.00     0.001 A 
ATOM     55  C   UNL A   1      45.138  34.871  30.842  1.00  0.00     0.001 A 
ATOM     56  C   UNL A   1      45.106  35.035  32.227  1.00  0.00     0.000 A 
ENDBRANCH  38  51
ENDBRANCH  12  13
ENDBRANCH   5   7
ENDBRANCH   2   3
ENDBRANCH   1   2
BRANCH   1  57
ATOM     57  C   UNL A   1      36.915  21.055  24.685  1.00  0.00     0.118 C 
BRANCH  57  58
ATOM     58  N   UNL A   1      36.336  21.650  25.881  1.00  0.00    -0.352 N 
ATOM     59  C   UNL A   1      35.010  21.859  26.176  1.00  0.00     0.251 C 
ATOM     60  H   UNL A   1      36.977  21.940  26.570  1.00  0.00     0.163 HD
ATOM     61  O   UNL A   1      34.684  22.487  27.177  1.00  0.00    -0.269 OA
BRANCH  59  62
ATOM     62  C   UNL A   1      33.978  21.342  25.253  1.00  0.00     0.043 A 
ATOM     63  C   UNL A   1      33.574  22.142  24.184  1.00  0.00     0.014 A 
ATOM     64  C   UNL A   1      33.458  20.051  25.425  1.00  0.00     0.060 A 
ATOM     65  C   UNL A   1      32.691  21.619  23.244  1.00  0.00     0.005 A 
ATOM     66  C   UNL A   1      32.618  19.508  24.460  1.00  0.00     0.120 A 
ATOM     67  C   UNL A   1      32.230  20.304  23.376  1.00  0.00     0.046 A 
BRANCH  66  68
ATOM     68  O   UNL A   1      32.128  18.232  24.443  1.00  0.00    -0.488 OA
BRANCH  68  69
ATOM     69  C   UNL A   1      32.901  17.182  25.038  1.00  0.00     0.302 C 
BRANCH  69  70
ATOM     70  C   UNL A   1      33.982  16.645  24.110  1.00  0.00     0.379 C 
ATOM     71  F   UNL A   1      33.613  16.795  22.813  1.00  0.00    -0.207 F 
ATOM     72  F   UNL A   1      35.113  17.382  24.260  1.00  0.00    -0.207 F 
ENDBRANCH  69  70
ENDBRANCH  68  69
ENDBRANCH  66  68
ENDBRANCH  59  62
ENDBRANCH  57  58
ENDBRANCH   1  57
TORSDOF 13
ENDMDL
MODEL 3
REMARK VINA RESULT:     -10.2      4.749      8.461
REMARK SMILES O=C(NCCCNC(=O)c1cccc(OCC(F)F)c1)c1ccc(-c2c3nc(c(-c4ccccc4)c4ccc([nH]4)c(-c4ccccc4)c4nc(c(-c5ccccc5)c5ccc2[nH]5)C=C4)C=C3)cc1
REMARK SMILES IDX 5 1 4 2 3 3 1 4 2 5 21 7 22 8 68 9 23 10 67 11 24 12 25 13
REMARK SMILES IDX 26 14 61 15 27 16 66 17 60 18 62 19 28 20 65 21 59 22 58 23
REMARK SMILES IDX 29 25 51 26 36 27 50 28 37 29 40 30 49 31 63 32 38 33 39 34
REMARK SMILES IDX 48 36 64 37 41 38 30 39 31 40 35 41 32 42 34 43 33 44 52 45
REMARK SMILES IDX 53 46 57 47 54 48 56 49 55 50 42 51 43 52 47 53 44 54 46 55
REMARK SMILES IDX 45 56 6 57 7 58 8 59 9 61 10 62 11 63 20 64 12 65 14 66
REMARK SMILES IDX 13 67 15 68 16 69 17 70 18 71 19 72
REMARK H PARENT 3 6 62 24 40 35 7 60
REMARK Flexibility Score: inf
ROOT
ATOM      1  C   UNL A   1      32.771  28.258  26.126  1.00  0.00     0.042 C 
ENDROOT
BRANCH   1   2
ATOM      2  C   UNL A   1      33.720  28.572  27.266  1.00  0.00     0.118 C 
BRANCH   2   3
ATOM      3  N   UNL A   1      33.673  29.971  27.673  1.00  0.00    -0.352 N 
ATOM      4  O   UNL A   1      34.324  31.864  28.706  1.00  0.00    -0.269 OA
ATOM      5  C   UNL A   1      34.619  30.741  28.302  1.00  0.00     0.251 C 
ATOM      6  H   UNL A   1      32.831  30.436  27.463  1.00  0.00     0.163 HD
BRANCH   5   7
ATOM      7  C   UNL A   1      35.989  30.224  28.511  1.00  0.00     0.039 A 
ATOM      8  C   UNL A   1      36.955  30.329  27.509  1.00  0.00     0.014 A 
ATOM      9  C   UNL A   1      36.324  29.662  29.746  1.00  0.00     0.014 A 
ATOM     10  C   UNL A   1      38.201  29.741  27.681  1.00  0.00     0.010 A 
ATOM     11  C   UNL A   1      37.616  29.169  29.959  1.00  0.00     0.010 A 
ATOM     12  C   UNL A   1      38.558  29.191  28.921  1.00  0.00    -0.014 A 
BRANCH  12  13
ATOM     13  C   UNL A   1      39.963  28.773  29.142  1.00  0.00     0.031 A 
ATOM     14  C   UNL A   1      40.973  29.699  29.756  1.00  0.00     0.074 A 
ATOM     15  C   UNL A   1      40.315  27.524  28.775  1.00  0.00     0.049 A 
ATOM     16  N   UNL A   1      42.240  29.478  29.999  1.00  0.00    -0.248 NA
ATOM     17  C   UNL A   1      40.512  31.042  30.140  1.00  0.00     0.031 C 
ATOM     18  C   UNL A   1      39.417  26.543  28.154  1.00  0.00     0.029 A 
ATOM     19  N   UNL A   1      41.508  26.860  28.877  1.00  0.00    -0.354 N 
ATOM     20  C   UNL A   1      42.735  30.657  30.538  1.00  0.00     0.074 A 
ATOM     21  C   UNL A   1      41.635  31.597  30.580  1.00  0.00     0.031 C 
ATOM     22  C   UNL A   1      40.081  25.395  27.965  1.00  0.00     0.029 A 
ATOM     23  C   UNL A   1      41.465  25.580  28.381  1.00  0.00     0.049 A 
ATOM     24  H   UNL A   1      42.319  27.261  29.267  1.00  0.00     0.167 HD
ATOM     25  C   UNL A   1      43.995  30.926  30.956  1.00  0.00     0.031 A 
ATOM     26  C   UNL A   1      42.437  24.661  28.239  1.00  0.00     0.031 A 
ATOM     27  C   UNL A   1      45.079  29.979  30.925  1.00  0.00     0.049 A 
ATOM     28  C   UNL A   1      43.827  25.007  28.676  1.00  0.00     0.074 A 
ATOM     29  C   UNL A   1      46.371  30.135  31.398  1.00  0.00     0.029 A 
ATOM     30  N   UNL A   1      45.003  28.707  30.380  1.00  0.00    -0.354 N 
ATOM     31  N   UNL A   1      44.261  26.105  29.246  1.00  0.00    -0.248 NA
ATOM     32  C   UNL A   1      44.864  23.994  28.441  1.00  0.00     0.031 C 
ATOM     33  C   UNL A   1      47.094  28.980  31.085  1.00  0.00     0.029 A 
ATOM     34  C   UNL A   1      46.239  28.086  30.461  1.00  0.00     0.049 A 
ATOM     35  H   UNL A   1      44.193  28.305  29.993  1.00  0.00     0.167 HD
ATOM     36  C   UNL A   1      45.620  25.916  29.436  1.00  0.00     0.074 A 
ATOM     37  C   UNL A   1      45.934  24.587  28.951  1.00  0.00     0.031 C 
ATOM     38  C   UNL A   1      46.532  26.771  29.958  1.00  0.00     0.031 A 
BRANCH  25  39
ATOM     39  C   UNL A   1      44.294  32.309  31.460  1.00  0.00    -0.014 A 
ATOM     40  C   UNL A   1      44.686  33.336  30.589  1.00  0.00     0.009 A 
ATOM     41  C   UNL A   1      44.086  32.609  32.815  1.00  0.00     0.009 A 
ATOM     42  C   UNL A   1      44.875  34.635  31.070  1.00  0.00     0.001 A 
ATOM     43  C   UNL A   1      44.257  33.911  33.290  1.00  0.00     0.001 A 
ATOM     44  C   UNL A   1      44.655  34.922  32.417  1.00  0.00     0.000 A 
ENDBRANCH  25  39
BRANCH  26  45
ATOM     45  C   UNL A   1      42.134  23.356  27.599  1.00  0.00    -0.014 A 
ATOM     46  C   UNL A   1      42.395  23.146  26.238  1.00  0.00     0.009 A 
ATOM     47  C   UNL A   1      41.581  22.311  28.356  1.00  0.00     0.009 A 
ATOM     48  C   UNL A   1      42.089  21.919  25.643  1.00  0.00     0.001 A 
ATOM     49  C   UNL A   1      41.305  21.076  27.767  1.00  0.00     0.001 A 
ATOM     50  C   UNL A   1      41.550  20.885  26.410  1.00  0.00     0.000 A 
ENDBRANCH  26  45
BRANCH  38  51
ATOM     51  C   UNL A   1      47.950  26.289  30.024  1.00  0.00    -0.014 A 
ATOM     52  C   UNL A   1      48.804  26.418  28.917  1.00  0.00     0.009 A 
ATOM     53  C   UNL A   1      48.448  25.730  31.211  1.00  0.00     0.009 A 
ATOM     54  C   UNL A   1      50.123  25.969  28.990  1.00  0.00     0.001 A 
ATOM     55  C   UNL A   1      49.773  25.306  31.288  1.00  0.00     0.001 A 
ATOM     56  C   UNL A   1      50.607  25.418  30.175  1.00  0.00     0.000 A 
ENDBRANCH  38  51
ENDBRANCH  12  13
ENDBRANCH   5   7
ENDBRANCH   2   3
ENDBRANCH   1   2
BRANCH   1  57
ATOM     57  C   UNL A   1      33.361  28.511  24.752  1.00  0.00     0.118 C 
BRANCH  57  58
ATOM     58  N   UNL A   1      33.658  27.288  24.020  1.00  0.00    -0.352 N 
ATOM     59  C   UNL A   1      32.785  26.443  23.377  1.00  0.00     0.251 C 
ATOM     60  H   UNL A   1      34.607  27.032  23.981  1.00  0.00     0.163 HD
ATOM     61  O   UNL A   1      33.176  25.380  22.909  1.00  0.00    -0.269 OA
BRANCH  59  62
ATOM     62  C   UNL A   1      31.359  26.819  23.283  1.00  0.00     0.043 A 
ATOM     63  C   UNL A   1      30.424  26.089  24.017  1.00  0.00     0.014 A 
ATOM     64  C   UNL A   1      30.967  27.921  22.510  1.00  0.00     0.060 A 
ATOM     65  C   UNL A   1      29.097  26.506  24.027  1.00  0.00     0.005 A 
ATOM     66  C   UNL A   1      29.653  28.372  22.560  1.00  0.00     0.120 A 
ATOM     67  C   UNL A   1      28.720  27.650  23.315  1.00  0.00     0.046 A 
BRANCH  66  68
ATOM     68  O   UNL A   1      29.160  29.490  21.950  1.00  0.00    -0.488 OA
BRANCH  68  69
ATOM     69  C   UNL A   1      27.857  29.963  22.314  1.00  0.00     0.302 C 
BRANCH  69  70
ATOM     70  C   UNL A   1      27.897  31.287  23.064  1.00  0.00     0.379 C 
ATOM     71  F   UNL A   1      27.130  31.224  24.182  1.00  0.00    -0.207 F 
ATOM     72  F   UNL A   1      29.163  31.524  23.496  1.00  0.00    -0.207 F 
ENDBRANCH  69  70
ENDBRANCH  68  69
ENDBRANCH  66  68
ENDBRANCH  59  62
ENDBRANCH  57  58
ENDBRANCH   1  57
TORSDOF 13
ENDMDL
