MODEL 1
REMARK VINA RESULT:     -12.6      0.000      0.000
REMARK SMILES Cc1ccc(-c2cc(Cl)cc3c2O[C@@H](C(F)(F)F)C(C(=O)NCCCNC(=O)c2ccc(-c4c5nc(c(-c6ccccc6)c6ccc([nH]6)c(-c6ccccc6)c6nc(c(-c7ccccc7)c7ccc4[nH]7)C=C6)C=C5)cc2)=C3)cc1
REMARK SMILES IDX 24 1 23 2 22 3 20 4 21 5 19 7 6 8 7 9 12 10 8 11 11 12 13 13
REMARK SMILES IDX 9 14 10 15 77 16 14 17 5 18 1 19 2 20 3 21 79 22 4 23 78 24
REMARK SMILES IDX 15 25 16 26 17 27 18 28 25 29 26 30 27 31 28 33 29 34 30 35
REMARK SMILES IDX 76 36 31 37 75 38 32 39 33 40 34 41 69 42 35 43 74 44 68 45
REMARK SMILES IDX 70 46 36 47 73 48 67 49 66 50 37 52 59 53 44 54 58 55 45 56
REMARK SMILES IDX 48 57 57 58 71 59 46 60 47 61 56 63 72 64 49 65 38 66 39 67
REMARK SMILES IDX 43 68 40 69 42 70 41 71 60 72 61 73 65 74 62 75 64 76 63 77
REMARK SMILES IDX 50 78 51 79 55 80 52 81 54 82 53 83
REMARK H PARENT 22 6 26 32 70 51 48 62
REMARK Flexibility Score: inf
ROOT
ATOM      1  C   UNL A   1      36.652  23.468  26.512  1.00  0.00     0.042 C 
ENDROOT
BRANCH   1   2
ATOM      2  C   UNL A   1      35.365  23.337  25.698  1.00  0.00     0.118 C 
BRANCH   2   3
ATOM      3  N   UNL A   1      34.301  24.228  26.147  1.00  0.00    -0.352 N 
ATOM      4  C   UNL A   1      32.941  24.129  26.075  1.00  0.00     0.251 C 
ATOM      5  O   UNL A   1      32.316  24.515  27.068  1.00  0.00    -0.270 OA
ATOM      6  H   UNL A   1      34.622  25.052  26.581  1.00  0.00     0.163 HD
BRANCH   4   7
ATOM      7  C   UNL A   1      32.184  23.708  24.808  1.00  0.00     0.067 C 
ATOM      8  C   UNL A   1      31.882  27.687  24.117  1.00  0.00     0.026 A 
ATOM      9  C   UNL A   1      30.672  28.249  23.668  1.00  0.00     0.033 A 
ATOM     10  C   UNL A   1      31.934  26.294  24.110  1.00  0.00     0.135 A 
ATOM     11  C   UNL A   1      29.514  27.467  23.599  1.00  0.00     0.042 A 
ATOM     12  C   UNL A   1      30.748  25.546  24.333  1.00  0.00     0.019 A 
ATOM     13  O   UNL A   1      33.127  25.631  23.755  1.00  0.00    -0.475 OA
ATOM     14  Cl  UNL A   1      28.030  28.199  23.126  1.00  0.00    -0.084 Cl
ATOM     15  C   UNL A   1      29.527  26.139  24.032  1.00  0.00     0.032 A 
ATOM     16  C   UNL A   1      30.894  24.143  24.857  1.00  0.00     0.025 C 
ATOM     17  C   UNL A   1      32.791  24.230  23.512  1.00  0.00     0.314 C 
BRANCH   8  18
ATOM     18  C   UNL A   1      32.508  28.426  25.248  1.00  0.00    -0.015 A 
ATOM     19  C   UNL A   1      34.387  31.196  28.008  1.00  0.00     0.044 C 
ATOM     20  C   UNL A   1      33.712  30.211  27.099  1.00  0.00    -0.051 A 
ATOM     21  C   UNL A   1      34.325  28.993  26.757  1.00  0.00     0.004 A 
ATOM     22  C   UNL A   1      32.461  30.504  26.565  1.00  0.00     0.004 A 
ATOM     23  C   UNL A   1      33.733  28.108  25.834  1.00  0.00     0.009 A 
ATOM     24  C   UNL A   1      31.870  29.620  25.666  1.00  0.00     0.009 A 
ENDBRANCH   8  18
BRANCH  17  25
ATOM     25  C   UNL A   1      33.723  23.293  22.738  1.00  0.00     0.429 C 
ATOM     26  F   UNL A   1      33.329  23.221  21.435  1.00  0.00    -0.167 F 
ATOM     27  F   UNL A   1      35.004  23.710  22.721  1.00  0.00    -0.167 F 
ATOM     28  F   UNL A   1      33.692  22.018  23.181  1.00  0.00    -0.167 F 
ENDBRANCH  17  25
ENDBRANCH   4   7
ENDBRANCH   2   3
ENDBRANCH   1   2
BRANCH   1  29
ATOM     29  C   UNL A   1      37.913  23.728  25.699  1.00  0.00     0.118 C 
BRANCH  29  30
ATOM     30  N   UNL A   1      39.154  23.378  26.392  1.00  0.00    -0.352 N 
ATOM     31  C   UNL A   1      39.874  24.126  27.315  1.00  0.00     0.251 C 
ATOM     32  H   UNL A   1      39.528  22.494  26.174  1.00  0.00     0.163 HD
ATOM     33  O   UNL A   1      40.863  23.678  27.854  1.00  0.00    -0.269 OA
BRANCH  31  34
ATOM     34  C   UNL A   1      39.336  25.450  27.708  1.00  0.00     0.039 A 
ATOM     35  C   UNL A   1      39.604  26.540  26.876  1.00  0.00     0.014 A 
ATOM     36  C   UNL A   1      38.816  25.636  28.986  1.00  0.00     0.014 A 
ATOM     37  C   UNL A   1      39.608  27.819  27.424  1.00  0.00     0.010 A 
ATOM     38  C   UNL A   1      38.904  26.892  29.554  1.00  0.00     0.010 A 
ATOM     39  C   UNL A   1      39.389  27.963  28.796  1.00  0.00    -0.014 A 
BRANCH  39  40
ATOM     40  C   UNL A   1      39.889  29.111  29.548  1.00  0.00     0.031 A 
ATOM     41  C   UNL A   1      38.992  30.193  30.009  1.00  0.00     0.074 A 
ATOM     42  C   UNL A   1      41.194  29.136  29.908  1.00  0.00     0.049 A 
ATOM     43  N   UNL A   1      39.380  31.408  30.230  1.00  0.00    -0.248 NA
ATOM     44  C   UNL A   1      37.567  29.990  30.244  1.00  0.00     0.031 C 
ATOM     45  C   UNL A   1      41.827  30.031  30.877  1.00  0.00     0.029 A 
ATOM     46  N   UNL A   1      42.278  28.432  29.405  1.00  0.00    -0.354 N 
ATOM     47  C   UNL A   1      38.372  32.033  30.925  1.00  0.00     0.074 A 
ATOM     48  C   UNL A   1      37.234  31.145  30.830  1.00  0.00     0.031 C 
ATOM     49  C   UNL A   1      43.154  30.030  30.663  1.00  0.00     0.029 A 
ATOM     50  C   UNL A   1      43.393  29.270  29.449  1.00  0.00     0.049 A 
ATOM     51  H   UNL A   1      42.265  27.504  29.077  1.00  0.00     0.167 HD
ATOM     52  C   UNL A   1      38.630  33.156  31.655  1.00  0.00     0.031 A 
ATOM     53  C   UNL A   1      44.031  29.758  28.343  1.00  0.00     0.031 A 
ATOM     54  C   UNL A   1      40.023  33.582  31.555  1.00  0.00     0.049 A 
ATOM     55  C   UNL A   1      44.022  31.278  28.257  1.00  0.00     0.074 A 
ATOM     56  C   UNL A   1      41.116  33.429  32.394  1.00  0.00     0.029 A 
ATOM     57  N   UNL A   1      40.526  34.006  30.330  1.00  0.00    -0.354 N 
ATOM     58  N   UNL A   1      43.260  32.044  28.988  1.00  0.00    -0.248 NA
ATOM     59  C   UNL A   1      44.809  32.050  27.292  1.00  0.00     0.031 C 
ATOM     60  C   UNL A   1      42.290  33.680  31.638  1.00  0.00     0.029 A 
ATOM     61  C   UNL A   1      41.909  34.011  30.350  1.00  0.00     0.049 A 
ATOM     62  H   UNL A   1      39.976  34.267  29.557  1.00  0.00     0.167 HD
ATOM     63  C   UNL A   1      43.402  33.348  28.600  1.00  0.00     0.074 A 
ATOM     64  C   UNL A   1      44.403  33.307  27.551  1.00  0.00     0.031 C 
ATOM     65  C   UNL A   1      42.662  34.352  29.152  1.00  0.00     0.031 A 
BRANCH  52  66
ATOM     66  C   UNL A   1      37.671  33.636  32.715  1.00  0.00    -0.014 A 
ATOM     67  C   UNL A   1      37.787  33.166  34.036  1.00  0.00     0.009 A 
ATOM     68  C   UNL A   1      36.594  34.499  32.454  1.00  0.00     0.009 A 
ATOM     69  C   UNL A   1      36.817  33.442  35.008  1.00  0.00     0.001 A 
ATOM     70  C   UNL A   1      35.596  34.744  33.407  1.00  0.00     0.001 A 
ATOM     71  C   UNL A   1      35.701  34.202  34.682  1.00  0.00     0.000 A 
ENDBRANCH  52  66
BRANCH  53  72
ATOM     72  C   UNL A   1      43.993  28.865  27.155  1.00  0.00    -0.014 A 
ATOM     73  C   UNL A   1      44.824  27.728  27.143  1.00  0.00     0.009 A 
ATOM     74  C   UNL A   1      42.946  28.939  26.226  1.00  0.00     0.009 A 
ATOM     75  C   UNL A   1      44.546  26.647  26.303  1.00  0.00     0.001 A 
ATOM     76  C   UNL A   1      42.676  27.857  25.379  1.00  0.00     0.001 A 
ATOM     77  C   UNL A   1      43.454  26.700  25.441  1.00  0.00     0.000 A 
ENDBRANCH  53  72
BRANCH  65  78
ATOM     78  C   UNL A   1      42.621  35.770  28.653  1.00  0.00    -0.014 A 
ATOM     79  C   UNL A   1      43.366  36.815  29.215  1.00  0.00     0.009 A 
ATOM     80  C   UNL A   1      41.902  36.054  27.472  1.00  0.00     0.009 A 
ATOM     81  C   UNL A   1      43.353  38.097  28.652  1.00  0.00     0.001 A 
ATOM     82  C   UNL A   1      41.918  37.322  26.887  1.00  0.00     0.001 A 
ATOM     83  C   UNL A   1      42.636  38.349  27.485  1.00  0.00     0.000 A 
ENDBRANCH  65  78
ENDBRANCH  39  40
ENDBRANCH  31  34
ENDBRANCH  29  30
ENDBRANCH   1  29
TORSDOF 12
ENDMDL
MODEL 2
REMARK VINA RESULT:     -12.6      3.575      8.534
REMARK SMILES Cc1ccc(-c2cc(Cl)cc3c2O[C@@H](C(F)(F)F)C(C(=O)NCCCNC(=O)c2ccc(-c4c5nc(c(-c6ccccc6)c6ccc([nH]6)c(-c6ccccc6)c6nc(c(-c7ccccc7)c7ccc4[nH]7)C=C6)C=C5)cc2)=C3)cc1
REMARK SMILES IDX 24 1 23 2 22 3 20 4 21 5 19 7 6 8 7 9 12 10 8 11 11 12 13 13
REMARK SMILES IDX 9 14 10 15 77 16 14 17 5 18 1 19 2 20 3 21 79 22 4 23 78 24
REMARK SMILES IDX 15 25 16 26 17 27 18 28 25 29 26 30 27 31 28 33 29 34 30 35
REMARK SMILES IDX 76 36 31 37 75 38 32 39 33 40 34 41 69 42 35 43 74 44 68 45
REMARK SMILES IDX 70 46 36 47 73 48 67 49 66 50 37 52 59 53 44 54 58 55 45 56
REMARK SMILES IDX 48 57 57 58 71 59 46 60 47 61 56 63 72 64 49 65 38 66 39 67
REMARK SMILES IDX 43 68 40 69 42 70 41 71 60 72 61 73 65 74 62 75 64 76 63 77
REMARK SMILES IDX 50 78 51 79 55 80 52 81 54 82 53 83
REMARK H PARENT 22 6 26 32 70 51 48 62
REMARK Flexibility Score: inf
ROOT
ATOM      1  C   UNL A   1      33.883  29.401  25.728  1.00  0.00     0.042 C 
ENDROOT
BRANCH   1   2
ATOM      2  C   UNL A   1      32.916  28.381  25.129  1.00  0.00     0.118 C 
BRANCH   2   3
ATOM      3  N   UNL A   1      33.569  27.162  24.667  1.00  0.00    -0.352 N 
ATOM      4  C   UNL A   1      33.197  26.223  23.749  1.00  0.00     0.251 C 
ATOM      5  O   UNL A   1      34.096  25.788  23.023  1.00  0.00    -0.270 OA
ATOM      6  H   UNL A   1      34.438  26.984  25.096  1.00  0.00     0.163 HD
BRANCH   4   7
ATOM      7  C   UNL A   1      31.792  25.609  23.681  1.00  0.00     0.067 C 
ATOM      8  C   UNL A   1      33.594  22.263  25.080  1.00  0.00     0.026 A 
ATOM      9  C   UNL A   1      33.283  21.000  24.540  1.00  0.00     0.033 A 
ATOM     10  C   UNL A   1      32.761  23.306  24.678  1.00  0.00     0.135 A 
ATOM     11  C   UNL A   1      32.462  20.897  23.412  1.00  0.00     0.042 A 
ATOM     12  C   UNL A   1      32.174  23.278  23.385  1.00  0.00     0.019 A 
ATOM     13  O   UNL A   1      32.399  24.317  25.592  1.00  0.00    -0.475 OA
ATOM     14  Cl  UNL A   1      32.165  19.348  22.724  1.00  0.00    -0.084 Cl
ATOM     15  C   UNL A   1      31.991  22.045  22.770  1.00  0.00     0.032 A 
ATOM     16  C   UNL A   1      31.760  24.590  22.776  1.00  0.00     0.025 C 
ATOM     17  C   UNL A   1      31.284  25.057  25.006  1.00  0.00     0.314 C 
BRANCH   8  18
ATOM     18  C   UNL A   1      35.054  22.518  25.217  1.00  0.00    -0.015 A 
ATOM     19  C   UNL A   1      39.290  22.635  26.145  1.00  0.00     0.044 C 
ATOM     20  C   UNL A   1      37.837  22.618  25.772  1.00  0.00    -0.051 A 
ATOM     21  C   UNL A   1      37.001  23.717  26.033  1.00  0.00     0.004 A 
ATOM     22  C   UNL A   1      37.289  21.490  25.167  1.00  0.00     0.004 A 
ATOM     23  C   UNL A   1      35.619  23.669  25.765  1.00  0.00     0.009 A 
ATOM     24  C   UNL A   1      35.926  21.450  24.888  1.00  0.00     0.009 A 
ENDBRANCH   8  18
BRANCH  17  25
ATOM     25  C   UNL A   1      30.374  25.956  25.848  1.00  0.00     0.429 C 
ATOM     26  F   UNL A   1      29.874  26.962  25.074  1.00  0.00    -0.167 F 
ATOM     27  F   UNL A   1      29.308  25.309  26.356  1.00  0.00    -0.167 F 
ATOM     28  F   UNL A   1      31.019  26.581  26.855  1.00  0.00    -0.167 F 
ENDBRANCH  17  25
ENDBRANCH   4   7
ENDBRANCH   2   3
ENDBRANCH   1   2
BRANCH   1  29
ATOM     29  C   UNL A   1      33.588  29.816  27.164  1.00  0.00     0.118 C 
BRANCH  29  30
ATOM     30  N   UNL A   1      34.246  31.056  27.575  1.00  0.00    -0.352 N 
ATOM     31  C   UNL A   1      35.556  31.245  27.999  1.00  0.00     0.251 C 
ATOM     32  H   UNL A   1      33.686  31.865  27.549  1.00  0.00     0.163 HD
ATOM     33  O   UNL A   1      35.982  32.350  28.256  1.00  0.00    -0.269 OA
BRANCH  31  34
ATOM     34  C   UNL A   1      36.455  30.066  28.022  1.00  0.00     0.039 A 
ATOM     35  C   UNL A   1      36.559  29.344  29.214  1.00  0.00     0.014 A 
ATOM     36  C   UNL A   1      37.352  29.858  26.979  1.00  0.00     0.014 A 
ATOM     37  C   UNL A   1      37.719  28.617  29.461  1.00  0.00     0.010 A 
ATOM     38  C   UNL A   1      38.541  29.209  27.254  1.00  0.00     0.010 A 
ATOM     39  C   UNL A   1      38.757  28.670  28.527  1.00  0.00    -0.014 A 
BRANCH  39  40
ATOM     40  C   UNL A   1      40.149  28.428  28.896  1.00  0.00     0.031 A 
ATOM     41  C   UNL A   1      40.880  27.225  28.443  1.00  0.00     0.074 A 
ATOM     42  C   UNL A   1      40.812  29.377  29.600  1.00  0.00     0.049 A 
ATOM     43  N   UNL A   1      41.881  26.705  29.076  1.00  0.00    -0.248 NA
ATOM     44  C   UNL A   1      40.522  26.495  27.230  1.00  0.00     0.031 C 
ATOM     45  C   UNL A   1      42.255  29.461  29.828  1.00  0.00     0.029 A 
ATOM     46  N   UNL A   1      40.331  30.430  30.363  1.00  0.00    -0.354 N 
ATOM     47  C   UNL A   1      42.482  25.813  28.219  1.00  0.00     0.074 A 
ATOM     48  C   UNL A   1      41.552  25.651  27.123  1.00  0.00     0.031 C 
ATOM     49  C   UNL A   1      42.478  30.273  30.876  1.00  0.00     0.029 A 
ATOM     50  C   UNL A   1      41.185  30.598  31.452  1.00  0.00     0.049 A 
ATOM     51  H   UNL A   1      39.528  30.966  30.170  1.00  0.00     0.167 HD
ATOM     52  C   UNL A   1      43.772  25.423  28.423  1.00  0.00     0.031 A 
ATOM     53  C   UNL A   1      40.833  30.354  32.751  1.00  0.00     0.031 A 
ATOM     54  C   UNL A   1      44.355  26.016  29.623  1.00  0.00     0.049 A 
ATOM     55  C   UNL A   1      41.671  29.271  33.415  1.00  0.00     0.074 A 
ATOM     56  C   UNL A   1      45.209  27.090  29.821  1.00  0.00     0.029 A 
ATOM     57  N   UNL A   1      43.836  25.693  30.872  1.00  0.00    -0.354 N 
ATOM     58  N   UNL A   1      42.455  28.455  32.765  1.00  0.00    -0.248 NA
ATOM     59  C   UNL A   1      41.637  28.971  34.849  1.00  0.00     0.031 C 
ATOM     60  C   UNL A   1      45.133  27.467  31.188  1.00  0.00     0.029 A 
ATOM     61  C   UNL A   1      44.255  26.606  31.822  1.00  0.00     0.049 A 
ATOM     62  H   UNL A   1      43.253  24.921  31.055  1.00  0.00     0.167 HD
ATOM     63  C   UNL A   1      42.982  27.532  33.626  1.00  0.00     0.074 A 
ATOM     64  C   UNL A   1      42.462  27.910  34.926  1.00  0.00     0.031 C 
ATOM     65  C   UNL A   1      43.780  26.513  33.194  1.00  0.00     0.031 A 
BRANCH  52  66
ATOM     66  C   UNL A   1      44.574  24.771  27.324  1.00  0.00    -0.014 A 
ATOM     67  C   UNL A   1      45.138  25.557  26.302  1.00  0.00     0.009 A 
ATOM     68  C   UNL A   1      44.750  23.383  27.211  1.00  0.00     0.009 A 
ATOM     69  C   UNL A   1      45.734  24.984  25.172  1.00  0.00     0.001 A 
ATOM     70  C   UNL A   1      45.305  22.800  26.063  1.00  0.00     0.001 A 
ATOM     71  C   UNL A   1      45.784  23.603  25.035  1.00  0.00     0.000 A 
ENDBRANCH  52  66
BRANCH  53  72
ATOM     72  C   UNL A   1      39.400  30.596  33.064  1.00  0.00    -0.014 A 
ATOM     73  C   UNL A   1      38.947  31.927  33.151  1.00  0.00     0.009 A 
ATOM     74  C   UNL A   1      38.451  29.571  32.951  1.00  0.00     0.009 A 
ATOM     75  C   UNL A   1      37.591  32.231  33.013  1.00  0.00     0.001 A 
ATOM     76  C   UNL A   1      37.090  29.881  32.822  1.00  0.00     0.001 A 
ATOM     77  C   UNL A   1      36.666  31.210  32.819  1.00  0.00     0.000 A 
ENDBRANCH  53  72
BRANCH  65  78
ATOM     78  C   UNL A   1      44.239  25.358  34.040  1.00  0.00    -0.014 A 
ATOM     79  C   UNL A   1      45.517  25.267  34.605  1.00  0.00     0.009 A 
ATOM     80  C   UNL A   1      43.301  24.368  34.406  1.00  0.00     0.009 A 
ATOM     81  C   UNL A   1      45.859  24.208  35.457  1.00  0.00     0.001 A 
ATOM     82  C   UNL A   1      43.627  23.333  35.285  1.00  0.00     0.001 A 
ATOM     83  C   UNL A   1      44.912  23.246  35.802  1.00  0.00     0.000 A 
ENDBRANCH  65  78
ENDBRANCH  39  40
ENDBRANCH  31  34
ENDBRANCH  29  30
ENDBRANCH   1  29
TORSDOF 12
ENDMDL
MODEL 3
REMARK VINA RESULT:     -12.4      2.059      2.895
REMARK SMILES Cc1ccc(-c2cc(Cl)cc3c2O[C@@H](C(F)(F)F)C(C(=O)NCCCNC(=O)c2ccc(-c4c5nc(c(-c6ccccc6)c6ccc([nH]6)c(-c6ccccc6)c6nc(c(-c7ccccc7)c7ccc4[nH]7)C=C6)C=C5)cc2)=C3)cc1
REMARK SMILES IDX 24 1 23 2 22 3 20 4 21 5 19 7 6 8 7 9 12 10 8 11 11 12 13 13
REMARK SMILES IDX 9 14 10 15 77 16 14 17 5 18 1 19 2 20 3 21 79 22 4 23 78 24
REMARK SMILES IDX 15 25 16 26 17 27 18 28 25 29 26 30 27 31 28 33 29 34 30 35
REMARK SMILES IDX 76 36 31 37 75 38 32 39 33 40 34 41 69 42 35 43 74 44 68 45
REMARK SMILES IDX 70 46 36 47 73 48 67 49 66 50 37 52 59 53 44 54 58 55 45 56
REMARK SMILES IDX 48 57 57 58 71 59 46 60 47 61 56 63 72 64 49 65 38 66 39 67
REMARK SMILES IDX 43 68 40 69 42 70 41 71 60 72 61 73 65 74 62 75 64 76 63 77
REMARK SMILES IDX 50 78 51 79 55 80 52 81 54 82 53 83
REMARK H PARENT 22 6 26 32 70 51 48 62
REMARK Flexibility Score: inf
ROOT
ATOM      1  C   UNL A   1      38.794  20.938  25.813  1.00  0.00     0.042 C 
ENDROOT
BRANCH   1   2
ATOM      2  C   UNL A   1      37.592  20.684  24.904  1.00  0.00     0.118 C 
BRANCH   2   3
ATOM      3  N   UNL A   1      36.648  21.795  24.866  1.00  0.00    -0.352 N 
ATOM      4  C   UNL A   1      35.633  22.155  25.705  1.00  0.00     0.251 C 
ATOM      5  O   UNL A   1      35.509  23.365  25.917  1.00  0.00    -0.270 OA
ATOM      6  H   UNL A   1      36.763  22.394  24.092  1.00  0.00     0.163 HD
BRANCH   4   7
ATOM      7  C   UNL A   1      34.597  21.169  26.261  1.00  0.00     0.067 C 
ATOM      8  C   UNL A   1      31.889  23.577  24.453  1.00  0.00     0.026 A 
ATOM      9  C   UNL A   1      30.695  23.935  25.107  1.00  0.00     0.033 A 
ATOM     10  C   UNL A   1      32.636  22.577  25.075  1.00  0.00     0.135 A 
ATOM     11  C   UNL A   1      30.495  23.589  26.448  1.00  0.00     0.042 A 
ATOM     12  C   UNL A   1      32.610  22.459  26.490  1.00  0.00     0.019 A 
ATOM     13  O   UNL A   1      33.310  21.610  24.301  1.00  0.00    -0.475 OA
ATOM     14  Cl  UNL A   1      29.063  24.110  27.248  1.00  0.00    -0.084 Cl
ATOM     15  C   UNL A   1      31.499  22.941  27.172  1.00  0.00     0.032 A 
ATOM     16  C   UNL A   1      33.781  21.791  27.157  1.00  0.00     0.025 C 
ATOM     17  C   UNL A   1      33.708  20.531  25.201  1.00  0.00     0.314 C 
BRANCH   8  18
ATOM     18  C   UNL A   1      32.600  24.724  23.825  1.00  0.00    -0.015 A 
ATOM     19  C   UNL A   1      34.115  28.525  22.382  1.00  0.00     0.044 C 
ATOM     20  C   UNL A   1      33.645  27.188  22.876  1.00  0.00    -0.051 A 
ATOM     21  C   UNL A   1      33.182  26.202  21.988  1.00  0.00     0.004 A 
ATOM     22  C   UNL A   1      33.648  26.912  24.240  1.00  0.00     0.004 A 
ATOM     23  C   UNL A   1      32.658  24.981  22.456  1.00  0.00     0.009 A 
ATOM     24  C   UNL A   1      33.144  25.698  24.700  1.00  0.00     0.009 A 
ENDBRANCH   8  18
BRANCH  17  25
ATOM     25  C   UNL A   1      34.104  19.145  24.684  1.00  0.00     0.429 C 
ATOM     26  F   UNL A   1      33.638  18.975  23.413  1.00  0.00    -0.167 F 
ATOM     27  F   UNL A   1      35.436  18.959  24.625  1.00  0.00    -0.167 F 
ATOM     28  F   UNL A   1      33.559  18.133  25.392  1.00  0.00    -0.167 F 
ENDBRANCH  17  25
ENDBRANCH   4   7
ENDBRANCH   2   3
ENDBRANCH   1   2
BRANCH   1  29
ATOM     29  C   UNL A   1      39.199  22.398  25.967  1.00  0.00     0.118 C 
BRANCH  29  30
ATOM     30  N   UNL A   1      40.637  22.604  26.139  1.00  0.00    -0.352 N 
ATOM     31  C   UNL A   1      41.309  23.757  26.526  1.00  0.00     0.251 C 
ATOM     32  H   UNL A   1      41.205  21.821  25.956  1.00  0.00     0.163 HD
ATOM     33  O   UNL A   1      42.511  23.764  26.684  1.00  0.00    -0.269 OA
BRANCH  31  34
ATOM     34  C   UNL A   1      40.500  24.957  26.852  1.00  0.00     0.039 A 
ATOM     35  C   UNL A   1      40.754  26.132  26.139  1.00  0.00     0.014 A 
ATOM     36  C   UNL A   1      39.711  24.972  27.998  1.00  0.00     0.014 A 
ATOM     37  C   UNL A   1      40.446  27.354  26.727  1.00  0.00     0.010 A 
ATOM     38  C   UNL A   1      39.484  26.182  28.624  1.00  0.00     0.010 A 
ATOM     39  C   UNL A   1      39.936  27.365  28.028  1.00  0.00    -0.014 A 
BRANCH  39  40
ATOM     40  C   UNL A   1      40.087  28.516  28.915  1.00  0.00     0.031 A 
ATOM     41  C   UNL A   1      39.016  29.523  29.077  1.00  0.00     0.074 A 
ATOM     42  C   UNL A   1      41.204  28.612  29.673  1.00  0.00     0.049 A 
ATOM     43  N   UNL A   1      39.225  30.751  29.425  1.00  0.00    -0.248 NA
ATOM     44  C   UNL A   1      37.607  29.221  28.841  1.00  0.00     0.031 C 
ATOM     45  C   UNL A   1      41.429  29.512  30.805  1.00  0.00     0.029 A 
ATOM     46  N   UNL A   1      42.440  27.996  29.536  1.00  0.00    -0.354 N 
ATOM     47  C   UNL A   1      38.006  31.287  29.768  1.00  0.00     0.074 A 
ATOM     48  C   UNL A   1      37.024  30.331  29.303  1.00  0.00     0.031 C 
ATOM     49  C   UNL A   1      42.752  29.602  31.027  1.00  0.00     0.029 A 
ATOM     50  C   UNL A   1      43.419  28.901  29.944  1.00  0.00     0.049 A 
ATOM     51  H   UNL A   1      42.598  27.081  29.209  1.00  0.00     0.167 HD
ATOM     52  C   UNL A   1      37.937  32.398  30.555  1.00  0.00     0.031 A 
ATOM     53  C   UNL A   1      44.340  29.467  29.107  1.00  0.00     0.031 A 
ATOM     54  C   UNL A   1      39.255  32.915  30.912  1.00  0.00     0.049 A 
ATOM     55  C   UNL A   1      44.250  30.985  29.040  1.00  0.00     0.074 A 
ATOM     56  C   UNL A   1      40.032  32.804  32.055  1.00  0.00     0.029 A 
ATOM     57  N   UNL A   1      40.091  33.412  29.918  1.00  0.00    -0.354 N 
ATOM     58  N   UNL A   1      43.243  31.675  29.499  1.00  0.00    -0.248 NA
ATOM     59  C   UNL A   1      45.247  31.838  28.388  1.00  0.00     0.031 C 
ATOM     60  C   UNL A   1      41.365  33.155  31.718  1.00  0.00     0.029 A 
ATOM     61  C   UNL A   1      41.391  33.504  30.380  1.00  0.00     0.049 A 
ATOM     62  H   UNL A   1      39.799  33.664  29.013  1.00  0.00     0.167 HD
ATOM     63  C   UNL A   1      43.408  32.999  29.192  1.00  0.00     0.074 A 
ATOM     64  C   UNL A   1      44.691  33.057  28.518  1.00  0.00     0.031 C 
ATOM     65  C   UNL A   1      42.460  33.934  29.490  1.00  0.00     0.031 A 
BRANCH  52  66
ATOM     66  C   UNL A   1      36.659  32.779  31.258  1.00  0.00    -0.014 A 
ATOM     67  C   UNL A   1      35.701  33.571  30.599  1.00  0.00     0.009 A 
ATOM     68  C   UNL A   1      36.376  32.442  32.592  1.00  0.00     0.009 A 
ATOM     69  C   UNL A   1      34.587  34.096  31.267  1.00  0.00     0.001 A 
ATOM     70  C   UNL A   1      35.289  33.000  33.280  1.00  0.00     0.001 A 
ATOM     71  C   UNL A   1      34.403  33.840  32.619  1.00  0.00     0.000 A 
ENDBRANCH  52  66
BRANCH  53  72
ATOM     72  C   UNL A   1      44.746  28.614  27.959  1.00  0.00    -0.014 A 
ATOM     73  C   UNL A   1      45.606  27.526  28.202  1.00  0.00     0.009 A 
ATOM     74  C   UNL A   1      44.055  28.663  26.740  1.00  0.00     0.009 A 
ATOM     75  C   UNL A   1      45.683  26.460  27.301  1.00  0.00     0.001 A 
ATOM     76  C   UNL A   1      44.144  27.597  25.835  1.00  0.00     0.001 A 
ATOM     77  C   UNL A   1      44.930  26.483  26.131  1.00  0.00     0.000 A 
ENDBRANCH  53  72
BRANCH  65  78
ATOM     78  C   UNL A   1      42.479  35.362  29.021  1.00  0.00    -0.014 A 
ATOM     79  C   UNL A   1      43.215  36.377  29.647  1.00  0.00     0.009 A 
ATOM     80  C   UNL A   1      41.835  35.689  27.809  1.00  0.00     0.009 A 
ATOM     81  C   UNL A   1      43.263  37.671  29.113  1.00  0.00     0.001 A 
ATOM     82  C   UNL A   1      41.912  36.968  27.254  1.00  0.00     0.001 A 
ATOM     83  C   UNL A   1      42.618  37.965  27.913  1.00  0.00     0.000 A 
ENDBRANCH  65  78
ENDBRANCH  39  40
ENDBRANCH  31  34
ENDBRANCH  29  30
ENDBRANCH   1  29
TORSDOF 12
ENDMDL
