MODEL 1
REMARK VINA RESULT:     -11.4      0.000      0.000
REMARK SMILES COc1ccc([C@H](C)NC(=O)c2cnn(C)c2C(=O)NCCCNC(=O)c2ccc(-c3c4nc(c(-c5ccccc5)c5ccc([nH]5)c(-c5ccccc5)c5nc(c(-c6ccccc6)c6ccc3[nH]6)C=C5)C=C4)cc2)cc1
REMARK SMILES IDX 21 1 20 2 18 3 19 4 17 6 12 7 13 8 14 9 15 10 16 11 10 12
REMARK SMILES IDX 9 13 11 15 7 16 8 17 6 18 3 19 4 20 76 21 5 22 75 23 2 24
REMARK SMILES IDX 1 25 22 26 23 27 24 28 25 29 26 31 27 32 28 33 74 34 29 35
REMARK SMILES IDX 73 36 30 37 31 38 32 39 67 40 33 41 72 42 66 43 68 44 34 45
REMARK SMILES IDX 71 46 65 47 64 48 35 50 57 51 42 52 56 53 43 54 46 55 55 56
REMARK SMILES IDX 69 57 44 58 45 59 54 61 70 62 47 63 36 64 37 65 41 66 38 67
REMARK SMILES IDX 40 68 39 69 58 70 59 71 63 72 60 73 62 74 61 75 48 76 49 77
REMARK SMILES IDX 53 78 50 79 52 80 51 81
REMARK H PARENT 20 5 9 14 24 30 68 49 46 60
REMARK Flexibility Score: inf
ROOT
ATOM      1  C   UNL A   1      31.631  27.063  26.451  1.00  0.00     0.118 C 
ENDROOT
BRANCH   1   2
ATOM      2  N   UNL A   1      31.121  25.756  26.837  1.00  0.00    -0.351 N 
ATOM      3  C   UNL A   1      31.492  24.457  26.606  1.00  0.00     0.270 C 
ATOM      4  O   UNL A   1      30.754  23.611  27.115  1.00  0.00    -0.268 OA
ATOM      5  H   UNL A   1      30.314  25.820  27.400  1.00  0.00     0.163 HD
BRANCH   3   6
ATOM      6  C   UNL A   1      32.597  24.092  25.753  1.00  0.00     0.138 A 
ATOM      7  C   UNL A   1      32.545  23.895  24.366  1.00  0.00     0.090 A 
ATOM      8  C   UNL A   1      33.867  23.617  23.973  1.00  0.00     0.149 A 
ATOM      9  N   UNL A   1      34.694  23.577  25.018  1.00  0.00    -0.180 NA
ATOM     10  N   UNL A   1      33.859  23.650  26.082  1.00  0.00    -0.262 N 
ATOM     11  C   UNL A   1      34.295  23.014  27.312  1.00  0.00     0.174 C 
BRANCH   7  12
ATOM     12  C   UNL A   1      31.363  23.885  23.530  1.00  0.00     0.255 C 
ATOM     13  N   UNL A   1      30.943  25.058  22.970  1.00  0.00    -0.345 N 
ATOM     14  H   UNL A   1      30.087  25.012  22.486  1.00  0.00     0.164 HD
ATOM     15  O   UNL A   1      30.765  22.843  23.279  1.00  0.00    -0.269 OA
BRANCH  13  16
ATOM     16  C   UNL A   1      31.581  26.361  22.988  1.00  0.00     0.109 C 
ATOM     17  C   UNL A   1      32.609  26.453  21.858  1.00  0.00     0.036 C 
BRANCH  16  18
ATOM     18  C   UNL A   1      30.512  27.437  22.947  1.00  0.00    -0.026 A 
ATOM     19  C   UNL A   1      28.422  29.340  22.880  1.00  0.00     0.118 A 
ATOM     20  C   UNL A   1      28.213  28.081  23.442  1.00  0.00     0.047 A 
ATOM     21  C   UNL A   1      29.674  29.645  22.341  1.00  0.00     0.047 A 
ATOM     22  C   UNL A   1      29.240  27.136  23.456  1.00  0.00     0.009 A 
ATOM     23  C   UNL A   1      30.709  28.700  22.371  1.00  0.00     0.009 A 
BRANCH  19  24
ATOM     24  O   UNL A   1      27.337  30.171  22.921  1.00  0.00    -0.497 OA
ATOM     25  C   UNL A   1      27.558  31.486  23.425  1.00  0.00     0.278 C 
ENDBRANCH  19  24
ENDBRANCH  16  18
ENDBRANCH  13  16
ENDBRANCH   7  12
ENDBRANCH   3   6
ENDBRANCH   1   2
BRANCH   1  26
ATOM     26  C   UNL A   1      32.258  27.892  27.571  1.00  0.00     0.042 C 
BRANCH  26  27
ATOM     27  C   UNL A   1      33.576  28.570  27.201  1.00  0.00     0.118 C 
BRANCH  27  28
ATOM     28  N   UNL A   1      33.609  29.991  27.499  1.00  0.00    -0.352 N 
ATOM     29  C   UNL A   1      34.534  30.789  28.120  1.00  0.00     0.251 C 
ATOM     30  H   UNL A   1      32.808  30.478  27.196  1.00  0.00     0.163 HD
ATOM     31  O   UNL A   1      34.214  31.939  28.411  1.00  0.00    -0.269 OA
BRANCH  29  32
ATOM     32  C   UNL A   1      35.890  30.314  28.476  1.00  0.00     0.039 A 
ATOM     33  C   UNL A   1      36.871  30.332  27.474  1.00  0.00     0.014 A 
ATOM     34  C   UNL A   1      36.186  29.738  29.714  1.00  0.00     0.014 A 
ATOM     35  C   UNL A   1      38.149  29.824  27.723  1.00  0.00     0.010 A 
ATOM     36  C   UNL A   1      37.475  29.258  29.975  1.00  0.00     0.010 A 
ATOM     37  C   UNL A   1      38.466  29.299  28.983  1.00  0.00    -0.014 A 
BRANCH  37  38
ATOM     38  C   UNL A   1      39.832  28.798  29.276  1.00  0.00     0.031 A 
ATOM     39  C   UNL A   1      40.828  29.655  30.002  1.00  0.00     0.074 A 
ATOM     40  C   UNL A   1      40.190  27.568  28.864  1.00  0.00     0.049 A 
ATOM     41  N   UNL A   1      42.099  29.430  30.225  1.00  0.00    -0.248 NA
ATOM     42  C   UNL A   1      40.335  30.929  30.546  1.00  0.00     0.031 C 
ATOM     43  C   UNL A   1      39.322  26.619  28.164  1.00  0.00     0.029 A 
ATOM     44  N   UNL A   1      41.389  26.909  28.974  1.00  0.00    -0.354 N 
ATOM     45  C   UNL A   1      42.566  30.544  30.908  1.00  0.00     0.074 A 
ATOM     46  C   UNL A   1      41.440  31.441  31.075  1.00  0.00     0.031 C 
ATOM     47  C   UNL A   1      40.012  25.494  27.920  1.00  0.00     0.029 A 
ATOM     48  C   UNL A   1      41.377  25.657  28.414  1.00  0.00     0.049 A 
ATOM     49  H   UNL A   1      42.180  27.296  29.412  1.00  0.00     0.167 HD
ATOM     50  C   UNL A   1      43.819  30.804  31.352  1.00  0.00     0.031 A 
ATOM     51  C   UNL A   1      42.359  24.746  28.289  1.00  0.00     0.031 A 
ATOM     52  C   UNL A   1      44.941  29.914  31.223  1.00  0.00     0.049 A 
ATOM     53  C   UNL A   1      43.742  25.061  28.775  1.00  0.00     0.074 A 
ATOM     54  C   UNL A   1      46.246  30.100  31.651  1.00  0.00     0.029 A 
ATOM     55  N   UNL A   1      44.889  28.664  30.630  1.00  0.00    -0.354 N 
ATOM     56  N   UNL A   1      44.177  26.144  29.369  1.00  0.00    -0.248 NA
ATOM     57  C   UNL A   1      44.772  24.037  28.547  1.00  0.00     0.031 C 
ATOM     58  C   UNL A   1      46.986  28.960  31.311  1.00  0.00     0.029 A 
ATOM     59  C   UNL A   1      46.138  28.069  30.677  1.00  0.00     0.049 A 
ATOM     60  H   UNL A   1      44.083  28.259  30.234  1.00  0.00     0.167 HD
ATOM     61  C   UNL A   1      45.533  25.936  29.577  1.00  0.00     0.074 A 
ATOM     62  C   UNL A   1      45.847  24.622  29.055  1.00  0.00     0.031 C 
ATOM     63  C   UNL A   1      46.438  26.768  30.145  1.00  0.00     0.031 A 
BRANCH  50  64
ATOM     64  C   UNL A   1      44.045  32.128  32.012  1.00  0.00    -0.014 A 
ATOM     65  C   UNL A   1      43.912  32.268  33.401  1.00  0.00     0.009 A 
ATOM     66  C   UNL A   1      44.426  33.237  31.240  1.00  0.00     0.009 A 
ATOM     67  C   UNL A   1      44.143  33.505  34.006  1.00  0.00     0.001 A 
ATOM     68  C   UNL A   1      44.659  34.472  31.848  1.00  0.00     0.001 A 
ATOM     69  C   UNL A   1      44.516  34.604  33.230  1.00  0.00     0.000 A 
ENDBRANCH  50  64
BRANCH  51  70
ATOM     70  C   UNL A   1      42.074  23.450  27.635  1.00  0.00    -0.014 A 
ATOM     71  C   UNL A   1      41.522  22.395  28.375  1.00  0.00     0.009 A 
ATOM     72  C   UNL A   1      42.344  23.271  26.270  1.00  0.00     0.009 A 
ATOM     73  C   UNL A   1      41.250  21.173  27.756  1.00  0.00     0.001 A 
ATOM     74  C   UNL A   1      42.067  22.050  25.654  1.00  0.00     0.001 A 
ATOM     75  C   UNL A   1      41.522  21.002  26.398  1.00  0.00     0.000 A 
ENDBRANCH  51  70
BRANCH  63  76
ATOM     76  C   UNL A   1      47.851  26.279  30.215  1.00  0.00    -0.014 A 
ATOM     77  C   UNL A   1      48.344  25.717  31.402  1.00  0.00     0.009 A 
ATOM     78  C   UNL A   1      48.688  26.368  29.094  1.00  0.00     0.009 A 
ATOM     79  C   UNL A   1      49.662  25.264  31.470  1.00  0.00     0.001 A 
ATOM     80  C   UNL A   1      50.005  25.912  29.165  1.00  0.00     0.001 A 
ATOM     81  C   UNL A   1      50.491  25.364  30.352  1.00  0.00     0.000 A 
ENDBRANCH  63  76
ENDBRANCH  37  38
ENDBRANCH  29  32
ENDBRANCH  27  28
ENDBRANCH  26  27
ENDBRANCH   1  26
TORSDOF 14
ENDMDL
MODEL 2
REMARK VINA RESULT:     -11.4      2.648      7.412
REMARK SMILES COc1ccc([C@H](C)NC(=O)c2cnn(C)c2C(=O)NCCCNC(=O)c2ccc(-c3c4nc(c(-c5ccccc5)c5ccc([nH]5)c(-c5ccccc5)c5nc(c(-c6ccccc6)c6ccc3[nH]6)C=C5)C=C4)cc2)cc1
REMARK SMILES IDX 21 1 20 2 18 3 19 4 17 6 12 7 13 8 14 9 15 10 16 11 10 12
REMARK SMILES IDX 9 13 11 15 7 16 8 17 6 18 3 19 4 20 76 21 5 22 75 23 2 24
REMARK SMILES IDX 1 25 22 26 23 27 24 28 25 29 26 31 27 32 28 33 74 34 29 35
REMARK SMILES IDX 73 36 30 37 31 38 32 39 67 40 33 41 72 42 66 43 68 44 34 45
REMARK SMILES IDX 71 46 65 47 64 48 35 50 57 51 42 52 56 53 43 54 46 55 55 56
REMARK SMILES IDX 69 57 44 58 45 59 54 61 70 62 47 63 36 64 37 65 41 66 38 67
REMARK SMILES IDX 40 68 39 69 58 70 59 71 63 72 60 73 62 74 61 75 48 76 49 77
REMARK SMILES IDX 53 78 50 79 52 80 51 81
REMARK H PARENT 20 5 9 14 24 30 68 49 46 60
REMARK Flexibility Score: inf
ROOT
ATOM      1  C   UNL A   1      35.638  22.451  26.632  1.00  0.00     0.118 C 
ENDROOT
BRANCH   1   2
ATOM      2  N   UNL A   1      34.523  22.442  27.567  1.00  0.00    -0.351 N 
ATOM      3  C   UNL A   1      33.165  22.287  27.464  1.00  0.00     0.270 C 
ATOM      4  O   UNL A   1      32.555  22.367  28.533  1.00  0.00    -0.268 OA
ATOM      5  H   UNL A   1      34.815  22.579  28.498  1.00  0.00     0.163 HD
BRANCH   3   6
ATOM      6  C   UNL A   1      32.480  22.144  26.202  1.00  0.00     0.138 A 
ATOM      7  C   UNL A   1      31.253  22.725  25.854  1.00  0.00     0.090 A 
ATOM      8  C   UNL A   1      31.025  22.352  24.515  1.00  0.00     0.149 A 
ATOM      9  N   UNL A   1      31.988  21.552  24.055  1.00  0.00    -0.180 NA
ATOM     10  N   UNL A   1      32.722  21.277  25.160  1.00  0.00    -0.262 N 
ATOM     11  C   UNL A   1      33.416  20.002  25.194  1.00  0.00     0.174 C 
BRANCH   7  12
ATOM     12  C   UNL A   1      30.362  23.469  26.718  1.00  0.00     0.255 C 
ATOM     13  N   UNL A   1      30.199  24.808  26.499  1.00  0.00    -0.345 N 
ATOM     14  H   UNL A   1      29.655  25.282  27.169  1.00  0.00     0.164 HD
ATOM     15  O   UNL A   1      29.721  22.916  27.606  1.00  0.00    -0.269 OA
BRANCH  13  16
ATOM     16  C   UNL A   1      30.715  25.628  25.420  1.00  0.00     0.109 C 
ATOM     17  C   UNL A   1      29.555  26.223  24.618  1.00  0.00     0.036 C 
BRANCH  16  18
ATOM     18  C   UNL A   1      31.671  26.658  25.993  1.00  0.00    -0.026 A 
ATOM     19  C   UNL A   1      33.560  28.489  27.028  1.00  0.00     0.118 A 
ATOM     20  C   UNL A   1      33.944  27.533  26.089  1.00  0.00     0.047 A 
ATOM     21  C   UNL A   1      32.232  28.522  27.460  1.00  0.00     0.047 A 
ATOM     22  C   UNL A   1      33.015  26.617  25.593  1.00  0.00     0.009 A 
ATOM     23  C   UNL A   1      31.296  27.612  26.949  1.00  0.00     0.009 A 
BRANCH  19  24
ATOM     24  O   UNL A   1      34.564  29.321  27.440  1.00  0.00    -0.497 OA
ATOM     25  C   UNL A   1      34.325  30.720  27.313  1.00  0.00     0.278 C 
ENDBRANCH  19  24
ENDBRANCH  16  18
ENDBRANCH  13  16
ENDBRANCH   7  12
ENDBRANCH   3   6
ENDBRANCH   1   2
BRANCH   1  26
ATOM     26  C   UNL A   1      35.807  23.726  25.807  1.00  0.00     0.042 C 
BRANCH  26  27
ATOM     27  C   UNL A   1      37.119  23.812  25.028  1.00  0.00     0.118 C 
BRANCH  27  28
ATOM     28  N   UNL A   1      38.122  22.856  25.461  1.00  0.00    -0.352 N 
ATOM     29  C   UNL A   1      39.300  22.992  26.148  1.00  0.00     0.251 C 
ATOM     30  H   UNL A   1      37.916  21.925  25.213  1.00  0.00     0.163 HD
ATOM     31  O   UNL A   1      40.056  22.025  26.211  1.00  0.00    -0.269 OA
BRANCH  29  32
ATOM     32  C   UNL A   1      39.710  24.261  26.790  1.00  0.00     0.039 A 
ATOM     33  C   UNL A   1      39.275  24.497  28.103  1.00  0.00     0.014 A 
ATOM     34  C   UNL A   1      40.391  25.269  26.103  1.00  0.00     0.014 A 
ATOM     35  C   UNL A   1      39.560  25.709  28.738  1.00  0.00     0.010 A 
ATOM     36  C   UNL A   1      40.705  26.470  26.749  1.00  0.00     0.010 A 
ATOM     37  C   UNL A   1      40.295  26.699  28.071  1.00  0.00    -0.014 A 
BRANCH  37  38
ATOM     38  C   UNL A   1      40.644  27.971  28.748  1.00  0.00     0.031 A 
ATOM     39  C   UNL A   1      42.017  28.191  29.315  1.00  0.00     0.074 A 
ATOM     40  C   UNL A   1      39.711  28.933  28.878  1.00  0.00     0.049 A 
ATOM     41  N   UNL A   1      42.454  29.183  30.050  1.00  0.00    -0.248 NA
ATOM     42  C   UNL A   1      43.028  27.165  29.020  1.00  0.00     0.031 C 
ATOM     43  C   UNL A   1      38.343  28.864  28.361  1.00  0.00     0.029 A 
ATOM     44  N   UNL A   1      39.777  30.158  29.493  1.00  0.00    -0.354 N 
ATOM     45  C   UNL A   1      43.781  28.889  30.332  1.00  0.00     0.074 A 
ATOM     46  C   UNL A   1      44.082  27.631  29.678  1.00  0.00     0.031 C 
ATOM     47  C   UNL A   1      37.703  30.005  28.668  1.00  0.00     0.029 A 
ATOM     48  C   UNL A   1      38.604  30.865  29.430  1.00  0.00     0.049 A 
ATOM     49  H   UNL A   1      40.589  30.497  29.935  1.00  0.00     0.167 HD
ATOM     50  C   UNL A   1      44.669  29.595  31.071  1.00  0.00     0.031 A 
ATOM     51  C   UNL A   1      38.276  32.062  29.948  1.00  0.00     0.031 A 
ATOM     52  C   UNL A   1      44.397  30.859  31.701  1.00  0.00     0.049 A 
ATOM     53  C   UNL A   1      39.270  32.820  30.776  1.00  0.00     0.074 A 
ATOM     54  C   UNL A   1      45.245  31.644  32.465  1.00  0.00     0.029 A 
ATOM     55  N   UNL A   1      43.188  31.529  31.630  1.00  0.00    -0.354 N 
ATOM     56  N   UNL A   1      40.504  32.499  31.077  1.00  0.00    -0.248 NA
ATOM     57  C   UNL A   1      38.815  34.092  31.355  1.00  0.00     0.031 C 
ATOM     58  C   UNL A   1      44.544  32.790  32.862  1.00  0.00     0.029 A 
ATOM     59  C   UNL A   1      43.264  32.715  32.339  1.00  0.00     0.049 A 
ATOM     60  H   UNL A   1      42.392  31.209  31.146  1.00  0.00     0.167 HD
ATOM     61  C   UNL A   1      40.969  33.523  31.889  1.00  0.00     0.074 A 
ATOM     62  C   UNL A   1      39.891  34.480  32.026  1.00  0.00     0.031 C 
ATOM     63  C   UNL A   1      42.182  33.651  32.475  1.00  0.00     0.031 A 
BRANCH  50  64
ATOM     64  C   UNL A   1      46.029  28.997  31.254  1.00  0.00    -0.014 A 
ATOM     65  C   UNL A   1      46.316  28.202  32.372  1.00  0.00     0.009 A 
ATOM     66  C   UNL A   1      47.020  29.205  30.282  1.00  0.00     0.009 A 
ATOM     67  C   UNL A   1      47.583  27.635  32.522  1.00  0.00     0.001 A 
ATOM     68  C   UNL A   1      48.285  28.635  30.434  1.00  0.00     0.001 A 
ATOM     69  C   UNL A   1      48.565  27.852  31.554  1.00  0.00     0.000 A 
ENDBRANCH  50  64
BRANCH  51  70
ATOM     70  C   UNL A   1      36.919  32.607  29.728  1.00  0.00    -0.014 A 
ATOM     71  C   UNL A   1      35.879  32.284  30.611  1.00  0.00     0.009 A 
ATOM     72  C   UNL A   1      36.664  33.457  28.641  1.00  0.00     0.009 A 
ATOM     73  C   UNL A   1      34.598  32.802  30.405  1.00  0.00     0.001 A 
ATOM     74  C   UNL A   1      35.384  33.976  28.441  1.00  0.00     0.001 A 
ATOM     75  C   UNL A   1      34.353  33.646  29.322  1.00  0.00     0.000 A 
ENDBRANCH  51  70
BRANCH  63  76
ATOM     76  C   UNL A   1      42.395  34.865  33.325  1.00  0.00    -0.014 A 
ATOM     77  C   UNL A   1      43.004  36.007  32.783  1.00  0.00     0.009 A 
ATOM     78  C   UNL A   1      41.977  34.876  34.663  1.00  0.00     0.009 A 
ATOM     79  C   UNL A   1      43.205  37.138  33.575  1.00  0.00     0.001 A 
ATOM     80  C   UNL A   1      42.178  36.009  35.451  1.00  0.00     0.001 A 
ATOM     81  C   UNL A   1      42.794  37.137  34.909  1.00  0.00     0.000 A 
ENDBRANCH  63  76
ENDBRANCH  37  38
ENDBRANCH  29  32
ENDBRANCH  27  28
ENDBRANCH  26  27
ENDBRANCH   1  26
TORSDOF 14
ENDMDL
MODEL 3
REMARK VINA RESULT:     -11.3      2.391      4.742
REMARK SMILES COc1ccc([C@H](C)NC(=O)c2cnn(C)c2C(=O)NCCCNC(=O)c2ccc(-c3c4nc(c(-c5ccccc5)c5ccc([nH]5)c(-c5ccccc5)c5nc(c(-c6ccccc6)c6ccc3[nH]6)C=C5)C=C4)cc2)cc1
REMARK SMILES IDX 21 1 20 2 18 3 19 4 17 6 12 7 13 8 14 9 15 10 16 11 10 12
REMARK SMILES IDX 9 13 11 15 7 16 8 17 6 18 3 19 4 20 76 21 5 22 75 23 2 24
REMARK SMILES IDX 1 25 22 26 23 27 24 28 25 29 26 31 27 32 28 33 74 34 29 35
REMARK SMILES IDX 73 36 30 37 31 38 32 39 67 40 33 41 72 42 66 43 68 44 34 45
REMARK SMILES IDX 71 46 65 47 64 48 35 50 57 51 42 52 56 53 43 54 46 55 55 56
REMARK SMILES IDX 69 57 44 58 45 59 54 61 70 62 47 63 36 64 37 65 41 66 38 67
REMARK SMILES IDX 40 68 39 69 58 70 59 71 63 72 60 73 62 74 61 75 48 76 49 77
REMARK SMILES IDX 53 78 50 79 52 80 51 81
REMARK H PARENT 20 5 9 14 24 30 68 49 46 60
REMARK Flexibility Score: inf
ROOT
ATOM      1  C   UNL A   1      32.001  26.917  26.513  1.00  0.00     0.118 C 
ENDROOT
BRANCH   1   2
ATOM      2  N   UNL A   1      33.244  26.282  26.101  1.00  0.00    -0.351 N 
ATOM      3  C   UNL A   1      33.578  25.203  25.324  1.00  0.00     0.270 C 
ATOM      4  O   UNL A   1      34.788  24.982  25.241  1.00  0.00    -0.268 OA
ATOM      5  H   UNL A   1      34.037  26.737  26.470  1.00  0.00     0.163 HD
BRANCH   3   6
ATOM      6  C   UNL A   1      32.599  24.327  24.727  1.00  0.00     0.138 A 
ATOM      7  C   UNL A   1      32.120  23.127  25.270  1.00  0.00     0.090 A 
ATOM      8  C   UNL A   1      31.145  22.665  24.366  1.00  0.00     0.149 A 
ATOM      9  N   UNL A   1      31.041  23.463  23.302  1.00  0.00    -0.180 NA
ATOM     10  N   UNL A   1      32.077  24.322  23.452  1.00  0.00    -0.262 N 
ATOM     11  C   UNL A   1      32.655  24.882  22.244  1.00  0.00     0.174 C 
BRANCH   7  12
ATOM     12  C   UNL A   1      32.598  22.454  26.459  1.00  0.00     0.255 C 
ATOM     13  N   UNL A   1      33.517  21.452  26.323  1.00  0.00    -0.345 N 
ATOM     14  H   UNL A   1      33.740  20.968  27.151  1.00  0.00     0.164 HD
ATOM     15  O   UNL A   1      32.231  22.794  27.579  1.00  0.00    -0.269 OA
BRANCH  13  16
ATOM     16  C   UNL A   1      34.210  21.001  25.131  1.00  0.00     0.109 C 
ATOM     17  C   UNL A   1      35.664  21.478  25.162  1.00  0.00     0.036 C 
BRANCH  16  18
ATOM     18  C   UNL A   1      34.050  19.497  25.002  1.00  0.00    -0.026 A 
ATOM     19  C   UNL A   1      33.649  16.703  24.861  1.00  0.00     0.118 A 
ATOM     20  C   UNL A   1      32.633  17.540  25.320  1.00  0.00     0.047 A 
ATOM     21  C   UNL A   1      34.871  17.262  24.482  1.00  0.00     0.047 A 
ATOM     22  C   UNL A   1      32.839  18.917  25.408  1.00  0.00     0.009 A 
ATOM     23  C   UNL A   1      35.071  18.648  24.555  1.00  0.00     0.009 A 
BRANCH  19  24
ATOM     24  O   UNL A   1      33.325  15.375  24.829  1.00  0.00    -0.497 OA
ATOM     25  C   UNL A   1      32.313  14.943  25.736  1.00  0.00     0.278 C 
ENDBRANCH  19  24
ENDBRANCH  16  18
ENDBRANCH  13  16
ENDBRANCH   7  12
ENDBRANCH   3   6
ENDBRANCH   1   2
BRANCH   1  26
ATOM     26  C   UNL A   1      32.142  28.264  27.220  1.00  0.00     0.042 C 
BRANCH  26  27
ATOM     27  C   UNL A   1      33.567  28.817  27.259  1.00  0.00     0.118 C 
BRANCH  27  28
ATOM     28  N   UNL A   1      33.667  30.137  27.856  1.00  0.00    -0.352 N 
ATOM     29  C   UNL A   1      34.681  30.787  28.510  1.00  0.00     0.251 C 
ATOM     30  H   UNL A   1      32.844  30.672  27.775  1.00  0.00     0.163 HD
ATOM     31  O   UNL A   1      34.425  31.842  29.086  1.00  0.00    -0.269 OA
BRANCH  29  32
ATOM     32  C   UNL A   1      36.062  30.256  28.572  1.00  0.00     0.039 A 
ATOM     33  C   UNL A   1      36.516  29.766  29.805  1.00  0.00     0.014 A 
ATOM     34  C   UNL A   1      36.953  30.346  27.499  1.00  0.00     0.014 A 
ATOM     35  C   UNL A   1      37.835  29.325  29.950  1.00  0.00     0.010 A 
ATOM     36  C   UNL A   1      38.264  29.875  27.634  1.00  0.00     0.010 A 
ATOM     37  C   UNL A   1      38.714  29.359  28.859  1.00  0.00    -0.014 A 
BRANCH  37  38
ATOM     38  C   UNL A   1      40.102  28.851  28.987  1.00  0.00     0.031 A 
ATOM     39  C   UNL A   1      41.208  29.744  29.471  1.00  0.00     0.074 A 
ATOM     40  C   UNL A   1      40.379  27.580  28.642  1.00  0.00     0.049 A 
ATOM     41  N   UNL A   1      42.495  29.506  29.519  1.00  0.00    -0.248 NA
ATOM     42  C   UNL A   1      40.820  31.074  29.962  1.00  0.00     0.031 C 
ATOM     43  C   UNL A   1      39.402  26.595  28.174  1.00  0.00     0.029 A 
ATOM     44  N   UNL A   1      41.572  26.902  28.631  1.00  0.00    -0.354 N 
ATOM     45  C   UNL A   1      43.075  30.665  30.016  1.00  0.00     0.074 A 
ATOM     46  C   UNL A   1      41.999  31.602  30.267  1.00  0.00     0.031 C 
ATOM     47  C   UNL A   1      40.033  25.434  27.934  1.00  0.00     0.029 A 
ATOM     48  C   UNL A   1      41.459  25.605  28.199  1.00  0.00     0.049 A 
ATOM     49  H   UNL A   1      42.425  27.307  28.906  1.00  0.00     0.167 HD
ATOM     50  C   UNL A   1      44.384  30.931  30.240  1.00  0.00     0.031 A 
ATOM     51  C   UNL A   1      42.399  24.662  28.012  1.00  0.00     0.031 A 
ATOM     52  C   UNL A   1      45.462  30.004  30.026  1.00  0.00     0.049 A 
ATOM     53  C   UNL A   1      43.844  24.983  28.251  1.00  0.00     0.074 A 
ATOM     54  C   UNL A   1      46.819  30.193  30.233  1.00  0.00     0.029 A 
ATOM     55  N   UNL A   1      45.305  28.707  29.568  1.00  0.00    -0.354 N 
ATOM     56  N   UNL A   1      44.378  26.103  28.670  1.00  0.00    -0.248 NA
ATOM     57  C   UNL A   1      44.814  23.915  27.967  1.00  0.00     0.031 C 
ATOM     58  C   UNL A   1      47.485  29.009  29.893  1.00  0.00     0.029 A 
ATOM     59  C   UNL A   1      46.539  28.086  29.480  1.00  0.00     0.049 A 
ATOM     60  H   UNL A   1      44.444  28.290  29.338  1.00  0.00     0.167 HD
ATOM     61  C   UNL A   1      45.747  25.879  28.689  1.00  0.00     0.074 A 
ATOM     62  C   UNL A   1      45.962  24.516  28.250  1.00  0.00     0.031 C 
ATOM     63  C   UNL A   1      46.738  26.735  29.033  1.00  0.00     0.031 A 
BRANCH  50  64
ATOM     64  C   UNL A   1      44.725  32.303  30.731  1.00  0.00    -0.014 A 
ATOM     65  C   UNL A   1      44.762  32.583  32.105  1.00  0.00     0.009 A 
ATOM     66  C   UNL A   1      45.041  33.316  29.812  1.00  0.00     0.009 A 
ATOM     67  C   UNL A   1      45.099  33.863  32.550  1.00  0.00     0.001 A 
ATOM     68  C   UNL A   1      45.380  34.593  30.261  1.00  0.00     0.001 A 
ATOM     69  C   UNL A   1      45.407  34.865  31.629  1.00  0.00     0.000 A 
ENDBRANCH  50  64
BRANCH  51  70
ATOM     70  C   UNL A   1      42.002  23.320  27.532  1.00  0.00    -0.014 A 
ATOM     71  C   UNL A   1      42.104  23.000  26.171  1.00  0.00     0.009 A 
ATOM     72  C   UNL A   1      41.532  22.354  28.436  1.00  0.00     0.009 A 
ATOM     73  C   UNL A   1      41.733  21.732  25.719  1.00  0.00     0.001 A 
ATOM     74  C   UNL A   1      41.166  21.087  27.981  1.00  0.00     0.001 A 
ATOM     75  C   UNL A   1      41.265  20.778  26.624  1.00  0.00     0.000 A 
ENDBRANCH  51  70
BRANCH  63  76
ATOM     76  C   UNL A   1      48.139  26.217  28.934  1.00  0.00    -0.014 A 
ATOM     77  C   UNL A   1      48.777  25.690  30.066  1.00  0.00     0.009 A 
ATOM     78  C   UNL A   1      48.820  26.245  27.709  1.00  0.00     0.009 A 
ATOM     79  C   UNL A   1      50.085  25.209  29.976  1.00  0.00     0.001 A 
ATOM     80  C   UNL A   1      50.126  25.763  27.622  1.00  0.00     0.001 A 
ATOM     81  C   UNL A   1      50.758  25.249  28.754  1.00  0.00     0.000 A 
ENDBRANCH  63  76
ENDBRANCH  37  38
ENDBRANCH  29  32
ENDBRANCH  27  28
ENDBRANCH  26  27
ENDBRANCH   1  26
TORSDOF 14
ENDMDL
