MODEL 1
REMARK VINA RESULT:     -10.4      0.000      0.000
REMARK SMILES CC(C)(C)NS(=O)(=O)c1ccc(C(=O)NCC(=O)NCCCNC(=O)c2ccc(-c3c4nc(c(-c5ccccc5)c5ccc([nH]5)c(-c5ccccc5)c5nc(c(-c6ccccc6)c6ccc3[nH]6)C=C5)C=C4)cc2)cc1
REMARK SMILES IDX 17 1 18 2 19 3 16 5 15 6 13 7 14 8 12 10 9 11 10 12 75 13
REMARK SMILES IDX 11 14 74 15 6 16 7 17 8 18 5 19 2 21 1 22 3 23 4 24 20 25
REMARK SMILES IDX 21 26 22 27 23 28 24 29 25 31 26 32 27 33 73 34 28 35 72 36
REMARK SMILES IDX 29 37 30 38 31 39 66 40 32 41 71 42 65 43 67 44 33 45 70 46
REMARK SMILES IDX 64 47 63 48 34 50 56 51 41 52 55 53 42 54 45 55 54 56 68 57
REMARK SMILES IDX 43 58 44 59 53 61 69 62 46 63 35 64 36 65 40 66 37 67 39 68
REMARK SMILES IDX 38 69 57 70 58 71 62 72 59 73 61 74 60 75 47 76 48 77 52 78
REMARK SMILES IDX 49 79 51 80 50 81
REMARK H PARENT 19 4 15 9 5 20 23 30 67 49 45 60
REMARK Flexibility Score: inf
ROOT
ATOM      1  C   UNL A   1      33.419  36.770  29.001  1.00  0.00     0.239 C 
ATOM      2  O   UNL A   1      33.118  37.938  28.732  1.00  0.00    -0.273 OA
ATOM      3  N   UNL A   1      34.338  36.180  28.188  1.00  0.00    -0.355 N 
ATOM      4  H   UNL A   1      34.547  36.689  27.372  1.00  0.00     0.163 HD
ENDROOT
BRANCH   1   5
ATOM      5  C   UNL A   1      32.892  36.127  30.297  1.00  0.00     0.216 C 
BRANCH   5   6
ATOM      6  N   UNL A   1      33.066  36.864  31.538  1.00  0.00    -0.343 N 
ATOM      7  C   UNL A   1      33.902  36.719  32.614  1.00  0.00     0.251 C 
ATOM      8  O   UNL A   1      33.913  37.639  33.434  1.00  0.00    -0.269 OA
ATOM      9  H   UNL A   1      32.453  37.630  31.623  1.00  0.00     0.164 HD
BRANCH   7  10
ATOM     10  C   UNL A   1      34.753  35.516  32.872  1.00  0.00     0.039 A 
ATOM     11  C   UNL A   1      36.237  33.221  33.498  1.00  0.00     0.082 A 
ATOM     12  C   UNL A   1      35.536  33.880  34.508  1.00  0.00     0.022 A 
ATOM     13  C   UNL A   1      36.100  33.618  32.173  1.00  0.00     0.022 A 
ATOM     14  C   UNL A   1      34.779  35.013  34.185  1.00  0.00     0.015 A 
ATOM     15  C   UNL A   1      35.424  34.795  31.879  1.00  0.00     0.015 A 
BRANCH  11  16
ATOM     16  S   UNL A   1      37.408  31.947  33.877  1.00  0.00     0.241 S 
ATOM     17  O   UNL A   1      37.000  30.741  33.192  1.00  0.00    -0.207 OA
ATOM     18  O   UNL A   1      37.624  31.967  35.306  1.00  0.00    -0.207 OA
BRANCH  16  19
ATOM     19  N   UNL A   1      38.827  32.534  33.200  1.00  0.00    -0.206 NA
ATOM     20  H   UNL A   1      39.351  31.698  32.939  1.00  0.00     0.141 HD
BRANCH  19  21
ATOM     21  C   UNL A   1      39.837  33.430  33.810  1.00  0.00     0.025 C 
ATOM     22  C   UNL A   1      40.687  34.123  32.729  1.00  0.00     0.028 C 
ATOM     23  C   UNL A   1      40.704  32.722  34.857  1.00  0.00     0.028 C 
ATOM     24  C   UNL A   1      39.052  34.533  34.550  1.00  0.00     0.028 C 
ENDBRANCH  19  21
ENDBRANCH  16  19
ENDBRANCH  11  16
ENDBRANCH   7  10
ENDBRANCH   5   6
ENDBRANCH   1   5
BRANCH   3  25
ATOM     25  C   UNL A   1      35.063  34.934  28.316  1.00  0.00     0.117 C 
BRANCH  25  26
ATOM     26  C   UNL A   1      34.238  33.702  28.031  1.00  0.00     0.042 C 
BRANCH  26  27
ATOM     27  C   UNL A   1      34.713  32.490  28.804  1.00  0.00     0.118 C 
BRANCH  27  28
ATOM     28  N   UNL A   1      34.088  31.252  28.349  1.00  0.00    -0.352 N 
ATOM     29  C   UNL A   1      34.648  30.038  28.038  1.00  0.00     0.251 C 
ATOM     30  H   UNL A   1      33.109  31.294  28.250  1.00  0.00     0.163 HD
ATOM     31  O   UNL A   1      33.966  29.171  27.499  1.00  0.00    -0.269 OA
BRANCH  29  32
ATOM     32  C   UNL A   1      36.072  29.784  28.332  1.00  0.00     0.039 A 
ATOM     33  C   UNL A   1      36.430  29.286  29.586  1.00  0.00     0.014 A 
ATOM     34  C   UNL A   1      37.052  30.030  27.368  1.00  0.00     0.014 A 
ATOM     35  C   UNL A   1      37.763  28.966  29.846  1.00  0.00     0.010 A 
ATOM     36  C   UNL A   1      38.354  29.605  27.585  1.00  0.00     0.010 A 
ATOM     37  C   UNL A   1      38.728  29.083  28.831  1.00  0.00    -0.014 A 
BRANCH  37  38
ATOM     38  C   UNL A   1      40.138  28.680  29.048  1.00  0.00     0.031 A 
ATOM     39  C   UNL A   1      41.116  29.660  29.636  1.00  0.00     0.074 A 
ATOM     40  C   UNL A   1      40.556  27.469  28.635  1.00  0.00     0.049 A 
ATOM     41  N   UNL A   1      42.404  29.527  29.828  1.00  0.00    -0.248 NA
ATOM     42  C   UNL A   1      40.585  30.977  30.025  1.00  0.00     0.031 C 
ATOM     43  C   UNL A   1      39.717  26.454  27.992  1.00  0.00     0.029 A 
ATOM     44  N   UNL A   1      41.799  26.893  28.680  1.00  0.00    -0.354 N 
ATOM     45  C   UNL A   1      42.836  30.747  30.331  1.00  0.00     0.074 A 
ATOM     46  C   UNL A   1      41.689  31.626  30.361  1.00  0.00     0.031 C 
ATOM     47  C   UNL A   1      40.465  25.372  27.727  1.00  0.00     0.029 A 
ATOM     48  C   UNL A   1      41.840  25.632  28.139  1.00  0.00     0.049 A 
ATOM     49  H   UNL A   1      42.587  27.340  29.065  1.00  0.00     0.167 HD
ATOM     50  C   UNL A   1      44.074  31.100  30.751  1.00  0.00     0.031 A 
ATOM     51  C   UNL A   1      42.872  24.782  27.984  1.00  0.00     0.031 A 
ATOM     52  C   UNL A   1      45.209  30.217  30.735  1.00  0.00     0.049 A 
ATOM     53  C   UNL A   1      44.234  25.188  28.469  1.00  0.00     0.074 A 
ATOM     54  C   UNL A   1      46.487  30.449  31.211  1.00  0.00     0.029 A 
ATOM     55  N   UNL A   1      45.202  28.935  30.210  1.00  0.00    -0.354 N 
ATOM     56  N   UNL A   1      44.610  26.313  29.026  1.00  0.00    -0.248 NA
ATOM     57  C   UNL A   1      45.310  24.200  28.316  1.00  0.00     0.031 C 
ATOM     58  C   UNL A   1      47.269  29.326  30.922  1.00  0.00     0.029 A 
ATOM     59  C   UNL A   1      46.462  28.373  30.321  1.00  0.00     0.049 A 
ATOM     60  H   UNL A   1      44.417  28.489  29.816  1.00  0.00     0.167 HD
ATOM     61  C   UNL A   1      45.960  26.162  29.312  1.00  0.00     0.074 A 
ATOM     62  C   UNL A   1      46.331  24.828  28.882  1.00  0.00     0.031 C 
ATOM     63  C   UNL A   1      46.816  27.047  29.880  1.00  0.00     0.031 A 
BRANCH  50  64
ATOM     64  C   UNL A   1      44.258  32.507  31.249  1.00  0.00    -0.014 A 
ATOM     65  C   UNL A   1      44.517  33.570  30.368  1.00  0.00     0.009 A 
ATOM     66  C   UNL A   1      44.160  32.776  32.622  1.00  0.00     0.009 A 
ATOM     67  C   UNL A   1      44.723  34.862  30.856  1.00  0.00     0.001 A 
ATOM     68  C   UNL A   1      44.332  34.076  33.105  1.00  0.00     0.001 A 
ATOM     69  C   UNL A   1      44.626  35.114  32.223  1.00  0.00     0.000 A 
ENDBRANCH  50  64
BRANCH  51  70
ATOM     70  C   UNL A   1      42.646  23.456  27.349  1.00  0.00    -0.014 A 
ATOM     71  C   UNL A   1      42.830  23.285  25.969  1.00  0.00     0.009 A 
ATOM     72  C   UNL A   1      42.266  22.350  28.125  1.00  0.00     0.009 A 
ATOM     73  C   UNL A   1      42.616  22.039  25.376  1.00  0.00     0.001 A 
ATOM     74  C   UNL A   1      42.081  21.099  27.535  1.00  0.00     0.001 A 
ATOM     75  C   UNL A   1      42.247  20.946  26.159  1.00  0.00     0.000 A 
ENDBRANCH  51  70
BRANCH  63  76
ATOM     76  C   UNL A   1      48.232  26.593  30.092  1.00  0.00    -0.014 A 
ATOM     77  C   UNL A   1      49.228  26.834  29.134  1.00  0.00     0.009 A 
ATOM     78  C   UNL A   1      48.582  25.949  31.290  1.00  0.00     0.009 A 
ATOM     79  C   UNL A   1      50.540  26.412  29.358  1.00  0.00     0.001 A 
ATOM     80  C   UNL A   1      49.899  25.556  31.525  1.00  0.00     0.001 A 
ATOM     81  C   UNL A   1      50.875  25.779  30.554  1.00  0.00     0.000 A 
ENDBRANCH  63  76
ENDBRANCH  37  38
ENDBRANCH  29  32
ENDBRANCH  27  28
ENDBRANCH  26  27
ENDBRANCH  25  26
ENDBRANCH   3  25
TORSDOF 15
ENDMDL
MODEL 2
REMARK VINA RESULT:     -10.4      4.241      9.981
REMARK SMILES CC(C)(C)NS(=O)(=O)c1ccc(C(=O)NCC(=O)NCCCNC(=O)c2ccc(-c3c4nc(c(-c5ccccc5)c5ccc([nH]5)c(-c5ccccc5)c5nc(c(-c6ccccc6)c6ccc3[nH]6)C=C5)C=C4)cc2)cc1
REMARK SMILES IDX 17 1 18 2 19 3 16 5 15 6 13 7 14 8 12 10 9 11 10 12 75 13
REMARK SMILES IDX 11 14 74 15 6 16 7 17 8 18 5 19 2 21 1 22 3 23 4 24 20 25
REMARK SMILES IDX 21 26 22 27 23 28 24 29 25 31 26 32 27 33 73 34 28 35 72 36
REMARK SMILES IDX 29 37 30 38 31 39 66 40 32 41 71 42 65 43 67 44 33 45 70 46
REMARK SMILES IDX 64 47 63 48 34 50 56 51 41 52 55 53 42 54 45 55 54 56 68 57
REMARK SMILES IDX 43 58 44 59 53 61 69 62 46 63 35 64 36 65 40 66 37 67 39 68
REMARK SMILES IDX 38 69 57 70 58 71 62 72 59 73 61 74 60 75 47 76 48 77 52 78
REMARK SMILES IDX 49 79 51 80 50 81
REMARK H PARENT 19 4 15 9 5 20 23 30 67 49 45 60
REMARK Flexibility Score: inf
ROOT
ATOM      1  C   UNL A   1      30.811  29.085  23.442  1.00  0.00     0.239 C 
ATOM      2  O   UNL A   1      30.097  29.628  22.591  1.00  0.00    -0.273 OA
ATOM      3  N   UNL A   1      31.101  29.822  24.549  1.00  0.00    -0.355 N 
ATOM      4  H   UNL A   1      30.848  30.771  24.484  1.00  0.00     0.163 HD
ENDROOT
BRANCH   1   5
ATOM      5  C   UNL A   1      31.175  27.596  23.293  1.00  0.00     0.216 C 
BRANCH   5   6
ATOM      6  N   UNL A   1      32.017  27.214  22.170  1.00  0.00    -0.343 N 
ATOM      7  C   UNL A   1      32.864  26.161  21.940  1.00  0.00     0.251 C 
ATOM      8  O   UNL A   1      33.296  26.039  20.792  1.00  0.00    -0.269 OA
ATOM      9  H   UNL A   1      31.969  27.845  21.417  1.00  0.00     0.164 HD
BRANCH   7  10
ATOM     10  C   UNL A   1      33.322  25.194  22.986  1.00  0.00     0.039 A 
ATOM     11  C   UNL A   1      34.197  23.257  24.814  1.00  0.00     0.082 A 
ATOM     12  C   UNL A   1      33.526  22.855  23.659  1.00  0.00     0.022 A 
ATOM     13  C   UNL A   1      34.544  24.590  24.998  1.00  0.00     0.022 A 
ATOM     14  C   UNL A   1      33.112  23.826  22.739  1.00  0.00     0.015 A 
ATOM     15  C   UNL A   1      34.047  25.552  24.128  1.00  0.00     0.015 A 
BRANCH  11  16
ATOM     16  S   UNL A   1      34.519  22.115  26.130  1.00  0.00     0.241 S 
ATOM     17  O   UNL A   1      33.985  20.827  25.750  1.00  0.00    -0.207 OA
ATOM     18  O   UNL A   1      34.132  22.758  27.366  1.00  0.00    -0.207 OA
BRANCH  16  19
ATOM     19  N   UNL A   1      36.195  22.050  26.163  1.00  0.00    -0.206 NA
ATOM     20  H   UNL A   1      36.488  23.023  26.240  1.00  0.00     0.141 HD
BRANCH  19  21
ATOM     21  C   UNL A   1      37.114  21.464  25.159  1.00  0.00     0.025 C 
ATOM     22  C   UNL A   1      37.056  22.245  23.833  1.00  0.00     0.028 C 
ATOM     23  C   UNL A   1      36.888  19.963  24.952  1.00  0.00     0.028 C 
ATOM     24  C   UNL A   1      38.540  21.629  25.723  1.00  0.00     0.028 C 
ENDBRANCH  19  21
ENDBRANCH  16  19
ENDBRANCH  11  16
ENDBRANCH   7  10
ENDBRANCH   5   6
ENDBRANCH   1   5
BRANCH   3  25
ATOM     25  C   UNL A   1      31.715  29.454  25.805  1.00  0.00     0.117 C 
BRANCH  25  26
ATOM     26  C   UNL A   1      31.643  30.521  26.871  1.00  0.00     0.042 C 
BRANCH  26  27
ATOM     27  C   UNL A   1      32.811  31.482  26.814  1.00  0.00     0.118 C 
BRANCH  27  28
ATOM     28  N   UNL A   1      32.447  32.836  27.222  1.00  0.00    -0.352 N 
ATOM     29  C   UNL A   1      33.052  33.686  28.115  1.00  0.00     0.251 C 
ATOM     30  H   UNL A   1      31.639  33.196  26.789  1.00  0.00     0.163 HD
ATOM     31  O   UNL A   1      32.483  34.720  28.454  1.00  0.00    -0.269 OA
BRANCH  29  32
ATOM     32  C   UNL A   1      34.371  33.347  28.680  1.00  0.00     0.039 A 
ATOM     33  C   UNL A   1      34.437  32.643  29.884  1.00  0.00     0.014 A 
ATOM     34  C   UNL A   1      35.545  33.719  28.021  1.00  0.00     0.014 A 
ATOM     35  C   UNL A   1      35.677  32.248  30.386  1.00  0.00     0.010 A 
ATOM     36  C   UNL A   1      36.767  33.228  28.457  1.00  0.00     0.010 A 
ATOM     37  C   UNL A   1      36.848  32.501  29.652  1.00  0.00    -0.014 A 
BRANCH  37  38
ATOM     38  C   UNL A   1      38.174  32.029  30.117  1.00  0.00     0.031 A 
ATOM     39  C   UNL A   1      38.750  30.752  29.568  1.00  0.00     0.074 A 
ATOM     40  C   UNL A   1      38.815  32.698  31.093  1.00  0.00     0.049 A 
ATOM     41  N   UNL A   1      39.852  30.132  29.906  1.00  0.00    -0.248 NA
ATOM     42  C   UNL A   1      37.966  30.061  28.532  1.00  0.00     0.031 C 
ATOM     43  C   UNL A   1      38.330  33.914  31.750  1.00  0.00     0.029 A 
ATOM     44  N   UNL A   1      40.010  32.438  31.715  1.00  0.00    -0.354 N 
ATOM     45  C   UNL A   1      39.877  28.970  29.145  1.00  0.00     0.074 A 
ATOM     46  C   UNL A   1      38.655  28.941  28.372  1.00  0.00     0.031 C 
ATOM     47  C   UNL A   1      39.230  34.307  32.665  1.00  0.00     0.029 A 
ATOM     48  C   UNL A   1      40.331  33.351  32.689  1.00  0.00     0.049 A 
ATOM     49  H   UNL A   1      40.582  31.671  31.484  1.00  0.00     0.167 HD
ATOM     50  C   UNL A   1      40.840  28.021  29.078  1.00  0.00     0.031 A 
ATOM     51  C   UNL A   1      41.391  33.407  33.516  1.00  0.00     0.031 A 
ATOM     52  C   UNL A   1      42.061  28.061  29.835  1.00  0.00     0.049 A 
ATOM     53  C   UNL A   1      42.455  32.352  33.416  1.00  0.00     0.074 A 
ATOM     54  C   UNL A   1      43.137  27.193  29.783  1.00  0.00     0.029 A 
ATOM     55  N   UNL A   1      42.366  29.021  30.787  1.00  0.00    -0.354 N 
ATOM     56  N   UNL A   1      42.508  31.306  32.627  1.00  0.00    -0.248 NA
ATOM     57  C   UNL A   1      43.611  32.492  34.311  1.00  0.00     0.031 C 
ATOM     58  C   UNL A   1      44.068  27.595  30.745  1.00  0.00     0.029 A 
ATOM     59  C   UNL A   1      43.599  28.749  31.354  1.00  0.00     0.049 A 
ATOM     60  H   UNL A   1      41.789  29.783  31.026  1.00  0.00     0.167 HD
ATOM     61  C   UNL A   1      43.711  30.676  32.913  1.00  0.00     0.074 A 
ATOM     62  C   UNL A   1      44.365  31.469  33.935  1.00  0.00     0.031 C 
ATOM     63  C   UNL A   1      44.231  29.544  32.377  1.00  0.00     0.031 A 
BRANCH  50  64
ATOM     64  C   UNL A   1      40.595  26.854  28.161  1.00  0.00    -0.014 A 
ATOM     65  C   UNL A   1      39.894  25.716  28.591  1.00  0.00     0.009 A 
ATOM     66  C   UNL A   1      41.065  26.899  26.839  1.00  0.00     0.009 A 
ATOM     67  C   UNL A   1      39.712  24.628  27.735  1.00  0.00     0.001 A 
ATOM     68  C   UNL A   1      40.851  25.824  25.973  1.00  0.00     0.001 A 
ATOM     69  C   UNL A   1      40.187  24.685  26.426  1.00  0.00     0.000 A 
ENDBRANCH  50  64
BRANCH  51  70
ATOM     70  C   UNL A   1      41.499  34.514  34.503  1.00  0.00    -0.014 A 
ATOM     71  C   UNL A   1      40.983  34.368  35.799  1.00  0.00     0.009 A 
ATOM     72  C   UNL A   1      42.138  35.716  34.158  1.00  0.00     0.009 A 
ATOM     73  C   UNL A   1      41.085  35.411  36.723  1.00  0.00     0.001 A 
ATOM     74  C   UNL A   1      42.264  36.746  35.092  1.00  0.00     0.001 A 
ATOM     75  C   UNL A   1      41.730  36.596  36.371  1.00  0.00     0.000 A 
ENDBRANCH  51  70
BRANCH  63  76
ATOM     76  C   UNL A   1      45.582  29.108  32.869  1.00  0.00    -0.014 A 
ATOM     77  C   UNL A   1      46.762  29.574  32.271  1.00  0.00     0.009 A 
ATOM     78  C   UNL A   1      45.671  28.248  33.975  1.00  0.00     0.009 A 
ATOM     79  C   UNL A   1      48.007  29.163  32.754  1.00  0.00     0.001 A 
ATOM     80  C   UNL A   1      46.916  27.863  34.474  1.00  0.00     0.001 A 
ATOM     81  C   UNL A   1      48.082  28.313  33.856  1.00  0.00     0.000 A 
ENDBRANCH  63  76
ENDBRANCH  37  38
ENDBRANCH  29  32
ENDBRANCH  27  28
ENDBRANCH  26  27
ENDBRANCH  25  26
ENDBRANCH   3  25
TORSDOF 15
ENDMDL
MODEL 3
REMARK VINA RESULT:     -10.2      4.665      8.239
REMARK SMILES CC(C)(C)NS(=O)(=O)c1ccc(C(=O)NCC(=O)NCCCNC(=O)c2ccc(-c3c4nc(c(-c5ccccc5)c5ccc([nH]5)c(-c5ccccc5)c5nc(c(-c6ccccc6)c6ccc3[nH]6)C=C5)C=C4)cc2)cc1
REMARK SMILES IDX 17 1 18 2 19 3 16 5 15 6 13 7 14 8 12 10 9 11 10 12 75 13
REMARK SMILES IDX 11 14 74 15 6 16 7 17 8 18 5 19 2 21 1 22 3 23 4 24 20 25
REMARK SMILES IDX 21 26 22 27 23 28 24 29 25 31 26 32 27 33 73 34 28 35 72 36
REMARK SMILES IDX 29 37 30 38 31 39 66 40 32 41 71 42 65 43 67 44 33 45 70 46
REMARK SMILES IDX 64 47 63 48 34 50 56 51 41 52 55 53 42 54 45 55 54 56 68 57
REMARK SMILES IDX 43 58 44 59 53 61 69 62 46 63 35 64 36 65 40 66 37 67 39 68
REMARK SMILES IDX 38 69 57 70 58 71 62 72 59 73 61 74 60 75 47 76 48 77 52 78
REMARK SMILES IDX 49 79 51 80 50 81
REMARK H PARENT 19 4 15 9 5 20 23 30 67 49 45 60
REMARK Flexibility Score: inf
ROOT
ATOM      1  C   UNL A   1      30.487  27.967  23.628  1.00  0.00     0.239 C 
ATOM      2  O   UNL A   1      29.613  28.773  23.290  1.00  0.00    -0.273 OA
ATOM      3  N   UNL A   1      31.161  28.251  24.777  1.00  0.00    -0.355 N 
ATOM      4  H   UNL A   1      30.996  29.153  25.133  1.00  0.00     0.163 HD
ENDROOT
BRANCH   1   5
ATOM      5  C   UNL A   1      30.641  26.643  22.857  1.00  0.00     0.216 C 
BRANCH   5   6
ATOM      6  N   UNL A   1      31.691  26.561  21.854  1.00  0.00    -0.343 N 
ATOM      7  C   UNL A   1      32.698  25.663  21.612  1.00  0.00     0.251 C 
ATOM      8  O   UNL A   1      33.315  25.796  20.554  1.00  0.00    -0.269 OA
ATOM      9  H   UNL A   1      31.675  27.309  21.215  1.00  0.00     0.164 HD
BRANCH   7  10
ATOM     10  C   UNL A   1      33.114  24.579  22.555  1.00  0.00     0.039 A 
ATOM     11  C   UNL A   1      33.859  22.426  24.189  1.00  0.00     0.082 A 
ATOM     12  C   UNL A   1      32.923  22.224  23.176  1.00  0.00     0.022 A 
ATOM     13  C   UNL A   1      34.514  23.646  24.309  1.00  0.00     0.022 A 
ATOM     14  C   UNL A   1      32.572  23.298  22.349  1.00  0.00     0.015 A 
ATOM     15  C   UNL A   1      34.091  24.726  23.546  1.00  0.00     0.015 A 
BRANCH  11  16
ATOM     16  S   UNL A   1      34.155  21.189  25.423  1.00  0.00     0.241 S 
ATOM     17  O   UNL A   1      32.968  21.073  26.239  1.00  0.00    -0.207 OA
ATOM     18  O   UNL A   1      35.449  21.460  26.008  1.00  0.00    -0.207 OA
BRANCH  16  19
ATOM     19  N   UNL A   1      34.357  19.796  24.511  1.00  0.00    -0.206 NA
ATOM     20  H   UNL A   1      34.407  20.125  23.546  1.00  0.00     0.141 HD
BRANCH  19  21
ATOM     21  C   UNL A   1      33.483  18.600  24.449  1.00  0.00     0.025 C 
ATOM     22  C   UNL A   1      32.398  18.762  23.369  1.00  0.00     0.028 C 
ATOM     23  C   UNL A   1      32.888  18.230  25.811  1.00  0.00     0.028 C 
ATOM     24  C   UNL A   1      34.383  17.423  24.019  1.00  0.00     0.028 C 
ENDBRANCH  19  21
ENDBRANCH  16  19
ENDBRANCH  11  16
ENDBRANCH   7  10
ENDBRANCH   5   6
ENDBRANCH   1   5
BRANCH   3  25
ATOM     25  C   UNL A   1      32.076  27.456  25.565  1.00  0.00     0.117 C 
BRANCH  25  26
ATOM     26  C   UNL A   1      32.585  28.143  26.810  1.00  0.00     0.042 C 
BRANCH  26  27
ATOM     27  C   UNL A   1      33.795  29.012  26.543  1.00  0.00     0.118 C 
BRANCH  27  28
ATOM     28  N   UNL A   1      33.742  30.285  27.255  1.00  0.00    -0.352 N 
ATOM     29  C   UNL A   1      34.623  30.838  28.151  1.00  0.00     0.251 C 
ATOM     30  H   UNL A   1      32.947  30.835  27.062  1.00  0.00     0.163 HD
ATOM     31  O   UNL A   1      34.305  31.845  28.778  1.00  0.00    -0.269 OA
BRANCH  29  32
ATOM     32  C   UNL A   1      35.940  30.212  28.375  1.00  0.00     0.039 A 
ATOM     33  C   UNL A   1      36.894  30.248  27.356  1.00  0.00     0.014 A 
ATOM     34  C   UNL A   1      36.237  29.595  29.592  1.00  0.00     0.014 A 
ATOM     35  C   UNL A   1      38.169  29.731  27.586  1.00  0.00     0.010 A 
ATOM     36  C   UNL A   1      37.535  29.187  29.860  1.00  0.00     0.010 A 
ATOM     37  C   UNL A   1      38.511  29.235  28.855  1.00  0.00    -0.014 A 
BRANCH  37  38
ATOM     38  C   UNL A   1      39.878  28.749  29.157  1.00  0.00     0.031 A 
ATOM     39  C   UNL A   1      40.876  29.671  29.803  1.00  0.00     0.074 A 
ATOM     40  C   UNL A   1      40.246  27.514  28.770  1.00  0.00     0.049 A 
ATOM     41  N   UNL A   1      42.140  29.461  30.072  1.00  0.00    -0.248 NA
ATOM     42  C   UNL A   1      40.403  31.019  30.158  1.00  0.00     0.031 C 
ATOM     43  C   UNL A   1      39.389  26.548  28.079  1.00  0.00     0.029 A 
ATOM     44  N   UNL A   1      41.448  26.864  28.891  1.00  0.00    -0.354 N 
ATOM     45  C   UNL A   1      42.614  30.654  30.600  1.00  0.00     0.074 A 
ATOM     46  C   UNL A   1      41.522  31.601  30.561  1.00  0.00     0.031 C 
ATOM     47  C   UNL A   1      40.084  25.422  27.859  1.00  0.00     0.029 A 
ATOM     48  C   UNL A   1      41.445  25.600  28.353  1.00  0.00     0.049 A 
ATOM     49  H   UNL A   1      42.237  27.264  29.323  1.00  0.00     0.167 HD
ATOM     50  C   UNL A   1      43.843  30.934  31.094  1.00  0.00     0.031 A 
ATOM     51  C   UNL A   1      42.431  24.689  28.261  1.00  0.00     0.031 A 
ATOM     52  C   UNL A   1      44.922  29.985  31.147  1.00  0.00     0.049 A 
ATOM     53  C   UNL A   1      43.784  25.014  28.827  1.00  0.00     0.074 A 
ATOM     54  C   UNL A   1      46.181  30.141  31.699  1.00  0.00     0.029 A 
ATOM     55  N   UNL A   1      44.869  28.703  30.622  1.00  0.00    -0.354 N 
ATOM     56  N   UNL A   1      44.193  26.117  29.406  1.00  0.00    -0.248 NA
ATOM     57  C   UNL A   1      44.806  23.963  28.740  1.00  0.00     0.031 C 
ATOM     58  C   UNL A   1      46.910  28.972  31.457  1.00  0.00     0.029 A 
ATOM     59  C   UNL A   1      46.085  28.067  30.809  1.00  0.00     0.049 A 
ATOM     60  H   UNL A   1      44.084  28.304  30.182  1.00  0.00     0.167 HD
ATOM     61  C   UNL A   1      45.511  25.886  29.773  1.00  0.00     0.074 A 
ATOM     62  C   UNL A   1      45.827  24.531  29.367  1.00  0.00     0.031 C 
ATOM     63  C   UNL A   1      46.383  26.720  30.391  1.00  0.00     0.031 A 
BRANCH  50  64
ATOM     64  C   UNL A   1      44.082  32.330  31.602  1.00  0.00    -0.014 A 
ATOM     65  C   UNL A   1      44.574  33.342  30.762  1.00  0.00     0.009 A 
ATOM     66  C   UNL A   1      43.798  32.640  32.940  1.00  0.00     0.009 A 
ATOM     67  C   UNL A   1      44.824  34.621  31.265  1.00  0.00     0.001 A 
ATOM     68  C   UNL A   1      44.016  33.928  33.432  1.00  0.00     0.001 A 
ATOM     69  C   UNL A   1      44.541  34.914  32.597  1.00  0.00     0.000 A 
ENDBRANCH  50  64
BRANCH  51  70
ATOM     70  C   UNL A   1      42.165  23.377  27.614  1.00  0.00    -0.014 A 
ATOM     71  C   UNL A   1      41.547  22.341  28.328  1.00  0.00     0.009 A 
ATOM     72  C   UNL A   1      42.509  23.164  26.269  1.00  0.00     0.009 A 
ATOM     73  C   UNL A   1      41.299  21.109  27.717  1.00  0.00     0.001 A 
ATOM     74  C   UNL A   1      42.235  21.942  25.652  1.00  0.00     0.001 A 
ATOM     75  C   UNL A   1      41.638  20.913  26.379  1.00  0.00     0.000 A 
ENDBRANCH  51  70
BRANCH  63  76
ATOM     76  C   UNL A   1      47.755  26.183  30.688  1.00  0.00    -0.014 A 
ATOM     77  C   UNL A   1      48.761  26.167  29.711  1.00  0.00     0.009 A 
ATOM     78  C   UNL A   1      48.053  25.722  31.981  1.00  0.00     0.009 A 
ATOM     79  C   UNL A   1      50.031  25.673  30.014  1.00  0.00     0.001 A 
ATOM     80  C   UNL A   1      49.332  25.257  32.289  1.00  0.00     0.001 A 
ATOM     81  C   UNL A   1      50.317  25.224  31.303  1.00  0.00     0.000 A 
ENDBRANCH  63  76
ENDBRANCH  37  38
ENDBRANCH  29  32
ENDBRANCH  27  28
ENDBRANCH  26  27
ENDBRANCH  25  26
ENDBRANCH   3  25
TORSDOF 15
ENDMDL
