MODEL 1
REMARK VINA RESULT:     -11.6      0.000      0.000
REMARK SMILES CC1=C(C)C[C@@H](C(=O)NCCCNC(=O)c2ccc(-c3c4nc(c(-c5ccccc5)c5ccc([nH]5)c(-c5ccccc5)c5nc(c(-c6ccccc6)c6ccc3[nH]6)C=C5)C=C4)cc2)[C@@H](C(=O)NCC[NH+]2CCOCC2)C1
REMARK SMILES IDX 10 1 9 2 7 3 8 4 6 6 1 7 2 8 3 9 76 10 4 11 5 12 64 13 65 14
REMARK SMILES IDX 66 15 67 16 68 18 69 19 70 20 71 21 75 22 72 24 74 25 73 26
REMARK SMILES IDX 11 27 12 28 13 29 14 30 15 32 16 33 17 34 63 35 18 36 62 37
REMARK SMILES IDX 19 38 20 39 21 40 56 41 22 42 61 43 55 44 57 45 23 46 60 47
REMARK SMILES IDX 54 48 53 49 24 51 46 52 31 53 45 54 32 55 35 56 44 57 58 58
REMARK SMILES IDX 33 59 34 60 43 62 59 63 36 64 25 65 26 66 30 67 27 68 29 69
REMARK SMILES IDX 28 70 47 71 48 72 52 73 49 74 51 75 50 76 37 77 38 78 42 79
REMARK SMILES IDX 39 80 41 81 40 82
REMARK H PARENT 9 5 67 17 70 23 13 31 57 50 35 61
REMARK Flexibility Score: inf
ROOT
ATOM      1  C   UNL A   1      31.422  30.272  25.846  1.00  0.00     0.117 C 
ENDROOT
BRANCH   1   2
ATOM      2  N   UNL A   1      32.691  29.634  26.122  1.00  0.00    -0.356 N 
ATOM      3  C   UNL A   1      33.223  28.445  25.780  1.00  0.00     0.224 C 
ATOM      4  O   UNL A   1      34.426  28.316  26.034  1.00  0.00    -0.275 OA
ATOM      5  H   UNL A   1      33.291  30.184  26.675  1.00  0.00     0.163 HD
BRANCH   3   6
ATOM      6  C   UNL A   1      32.491  27.294  25.096  1.00  0.00     0.095 C 
ATOM      7  C   UNL A   1      34.981  23.951  23.610  1.00  0.00     0.039 C 
ATOM      8  C   UNL A   1      33.983  24.945  24.156  1.00  0.00    -0.074 C 
ATOM      9  C   UNL A   1      33.479  24.926  25.407  1.00  0.00    -0.074 C 
ATOM     10  C   UNL A   1      33.654  26.038  23.159  1.00  0.00     0.045 C 
ATOM     11  C   UNL A   1      33.812  23.912  26.474  1.00  0.00     0.039 C 
ATOM     12  C   UNL A   1      32.538  25.996  25.901  1.00  0.00     0.045 C 
ATOM     13  C   UNL A   1      32.663  27.142  23.582  1.00  0.00     0.095 C 
BRANCH  13  14
ATOM     14  C   UNL A   1      33.001  28.469  22.889  1.00  0.00     0.224 C 
ATOM     15  O   UNL A   1      34.160  28.832  22.683  1.00  0.00    -0.275 OA
ATOM     16  N   UNL A   1      32.018  29.310  22.474  1.00  0.00    -0.350 N 
ATOM     17  H   UNL A   1      32.351  30.143  22.068  1.00  0.00     0.163 HD
BRANCH  16  18
ATOM     18  C   UNL A   1      30.571  29.213  22.515  1.00  0.00     0.177 C 
BRANCH  18  19
ATOM     19  C   UNL A   1      29.837  30.135  21.512  1.00  0.00     0.283 C 
BRANCH  19  20
ATOM     20  N   UNL A   1      28.440  30.452  21.881  1.00  0.00    -0.330 N 
ATOM     21  C   UNL A   1      27.707  31.176  20.808  1.00  0.00     0.291 C 
ATOM     22  C   UNL A   1      28.392  31.306  23.096  1.00  0.00     0.291 C 
ATOM     23  H   UNL A   1      27.994  29.549  22.044  1.00  0.00     0.348 HD
ATOM     24  C   UNL A   1      28.060  32.668  20.642  1.00  0.00     0.221 C 
ATOM     25  C   UNL A   1      28.815  32.766  22.857  1.00  0.00     0.221 C 
ATOM     26  O   UNL A   1      27.963  33.378  21.883  1.00  0.00    -0.370 OA
ENDBRANCH  19  20
ENDBRANCH  18  19
ENDBRANCH  16  18
ENDBRANCH  13  14
ENDBRANCH   3   6
ENDBRANCH   1   2
BRANCH   1  27
ATOM     27  C   UNL A   1      31.297  31.663  26.446  1.00  0.00     0.042 C 
BRANCH  27  28
ATOM     28  C   UNL A   1      32.578  32.181  27.085  1.00  0.00     0.118 C 
BRANCH  28  29
ATOM     29  N   UNL A   1      32.452  33.571  27.500  1.00  0.00    -0.352 N 
ATOM     30  C   UNL A   1      33.187  34.278  28.417  1.00  0.00     0.251 C 
ATOM     31  H   UNL A   1      31.733  34.078  27.057  1.00  0.00     0.163 HD
ATOM     32  O   UNL A   1      32.774  35.358  28.827  1.00  0.00    -0.269 OA
BRANCH  30  33
ATOM     33  C   UNL A   1      34.474  33.748  28.916  1.00  0.00     0.039 A 
ATOM     34  C   UNL A   1      35.646  34.056  28.219  1.00  0.00     0.014 A 
ATOM     35  C   UNL A   1      34.523  32.902  30.027  1.00  0.00     0.014 A 
ATOM     36  C   UNL A   1      36.870  33.544  28.659  1.00  0.00     0.010 A 
ATOM     37  C   UNL A   1      35.749  32.447  30.504  1.00  0.00     0.010 A 
ATOM     38  C   UNL A   1      36.931  32.748  29.812  1.00  0.00    -0.014 A 
BRANCH  38  39
ATOM     39  C   UNL A   1      38.218  32.182  30.286  1.00  0.00     0.031 A 
ATOM     40  C   UNL A   1      38.715  30.877  29.729  1.00  0.00     0.074 A 
ATOM     41  C   UNL A   1      38.917  32.815  31.247  1.00  0.00     0.049 A 
ATOM     42  N   UNL A   1      39.790  30.198  30.047  1.00  0.00    -0.248 NA
ATOM     43  C   UNL A   1      37.886  30.238  28.695  1.00  0.00     0.031 C 
ATOM     44  C   UNL A   1      38.526  34.068  31.897  1.00  0.00     0.029 A 
ATOM     45  N   UNL A   1      40.104  32.484  31.850  1.00  0.00    -0.354 N 
ATOM     46  C   UNL A   1      39.750  29.046  29.271  1.00  0.00     0.074 A 
ATOM     47  C   UNL A   1      38.530  29.096  28.498  1.00  0.00     0.031 C 
ATOM     48  C   UNL A   1      39.469  34.412  32.788  1.00  0.00     0.029 A 
ATOM     49  C   UNL A   1      40.512  33.391  32.795  1.00  0.00     0.049 A 
ATOM     50  H   UNL A   1      40.613  31.671  31.626  1.00  0.00     0.167 HD
ATOM     51  C   UNL A   1      40.657  28.044  29.195  1.00  0.00     0.031 A 
ATOM     52  C   UNL A   1      41.607  33.400  33.579  1.00  0.00     0.031 A 
ATOM     53  C   UNL A   1      41.883  28.001  29.944  1.00  0.00     0.049 A 
ATOM     54  C   UNL A   1      42.603  32.282  33.469  1.00  0.00     0.074 A 
ATOM     55  C   UNL A   1      42.894  27.057  29.891  1.00  0.00     0.029 A 
ATOM     56  N   UNL A   1      42.267  28.948  30.878  1.00  0.00    -0.354 N 
ATOM     57  N   UNL A   1      42.579  31.229  32.688  1.00  0.00    -0.248 NA
ATOM     58  C   UNL A   1      43.784  32.361  34.340  1.00  0.00     0.031 C 
ATOM     59  C   UNL A   1      43.876  27.417  30.821  1.00  0.00     0.029 A 
ATOM     60  C   UNL A   1      43.493  28.605  31.422  1.00  0.00     0.049 A 
ATOM     61  H   UNL A   1      41.745  29.747  31.121  1.00  0.00     0.167 HD
ATOM     62  C   UNL A   1      43.750  30.532  32.958  1.00  0.00     0.074 A 
ATOM     63  C   UNL A   1      44.467  31.289  33.964  1.00  0.00     0.031 C 
ATOM     64  C   UNL A   1      44.191  29.370  32.420  1.00  0.00     0.031 A 
BRANCH  51  65
ATOM     65  C   UNL A   1      40.347  26.906  28.264  1.00  0.00    -0.014 A 
ATOM     66  C   UNL A   1      40.832  26.897  26.947  1.00  0.00     0.009 A 
ATOM     67  C   UNL A   1      39.582  25.821  28.716  1.00  0.00     0.009 A 
ATOM     68  C   UNL A   1      40.525  25.839  26.089  1.00  0.00     0.001 A 
ATOM     69  C   UNL A   1      39.299  24.752  27.863  1.00  0.00     0.001 A 
ATOM     70  C   UNL A   1      39.763  24.766  26.549  1.00  0.00     0.000 A 
ENDBRANCH  51  65
BRANCH  52  71
ATOM     71  C   UNL A   1      41.832  34.523  34.523  1.00  0.00    -0.014 A 
ATOM     72  C   UNL A   1      42.545  35.659  34.112  1.00  0.00     0.009 A 
ATOM     73  C   UNL A   1      41.341  34.465  35.836  1.00  0.00     0.009 A 
ATOM     74  C   UNL A   1      42.780  36.708  35.004  1.00  0.00     0.001 A 
ATOM     75  C   UNL A   1      41.558  35.525  36.719  1.00  0.00     0.001 A 
ATOM     76  C   UNL A   1      42.283  36.641  36.306  1.00  0.00     0.000 A 
ENDBRANCH  52  71
BRANCH  64  77
ATOM     77  C   UNL A   1      45.523  28.863  32.890  1.00  0.00    -0.014 A 
ATOM     78  C   UNL A   1      46.703  29.181  32.200  1.00  0.00     0.009 A 
ATOM     79  C   UNL A   1      45.600  28.089  34.057  1.00  0.00     0.009 A 
ATOM     80  C   UNL A   1      47.933  28.708  32.656  1.00  0.00     0.001 A 
ATOM     81  C   UNL A   1      46.835  27.636  34.524  1.00  0.00     0.001 A 
ATOM     82  C   UNL A   1      47.999  27.940  33.819  1.00  0.00     0.000 A 
ENDBRANCH  64  77
ENDBRANCH  38  39
ENDBRANCH  30  33
ENDBRANCH  28  29
ENDBRANCH  27  28
ENDBRANCH   1  27
TORSDOF 14
ENDMDL
MODEL 2
REMARK VINA RESULT:     -11.5      0.506      5.926
REMARK SMILES CC1=C(C)C[C@@H](C(=O)NCCCNC(=O)c2ccc(-c3c4nc(c(-c5ccccc5)c5ccc([nH]5)c(-c5ccccc5)c5nc(c(-c6ccccc6)c6ccc3[nH]6)C=C5)C=C4)cc2)[C@@H](C(=O)NCC[NH+]2CCOCC2)C1
REMARK SMILES IDX 10 1 9 2 7 3 8 4 6 6 1 7 2 8 3 9 76 10 4 11 5 12 64 13 65 14
REMARK SMILES IDX 66 15 67 16 68 18 69 19 70 20 71 21 75 22 72 24 74 25 73 26
REMARK SMILES IDX 11 27 12 28 13 29 14 30 15 32 16 33 17 34 63 35 18 36 62 37
REMARK SMILES IDX 19 38 20 39 21 40 56 41 22 42 61 43 55 44 57 45 23 46 60 47
REMARK SMILES IDX 54 48 53 49 24 51 46 52 31 53 45 54 32 55 35 56 44 57 58 58
REMARK SMILES IDX 33 59 34 60 43 62 59 63 36 64 25 65 26 66 30 67 27 68 29 69
REMARK SMILES IDX 28 70 47 71 48 72 52 73 49 74 51 75 50 76 37 77 38 78 42 79
REMARK SMILES IDX 39 80 41 81 40 82
REMARK H PARENT 9 5 67 17 70 23 13 31 57 50 35 61
REMARK Flexibility Score: inf
ROOT
ATOM      1  C   UNL A   1      31.357  30.580  25.815  1.00  0.00     0.117 C 
ENDROOT
BRANCH   1   2
ATOM      2  N   UNL A   1      32.627  29.919  26.023  1.00  0.00    -0.356 N 
ATOM      3  C   UNL A   1      33.112  28.714  25.668  1.00  0.00     0.224 C 
ATOM      4  O   UNL A   1      34.325  28.563  25.849  1.00  0.00    -0.275 OA
ATOM      5  H   UNL A   1      33.271  30.464  26.530  1.00  0.00     0.163 HD
BRANCH   3   6
ATOM      6  C   UNL A   1      32.315  27.570  25.049  1.00  0.00     0.095 C 
ATOM      7  C   UNL A   1      34.637  24.140  23.489  1.00  0.00     0.039 C 
ATOM      8  C   UNL A   1      33.695  25.168  24.070  1.00  0.00    -0.074 C 
ATOM      9  C   UNL A   1      33.263  25.184  25.348  1.00  0.00    -0.074 C 
ATOM     10  C   UNL A   1      33.336  26.251  23.073  1.00  0.00     0.045 C 
ATOM     11  C   UNL A   1      33.632  24.181  26.414  1.00  0.00     0.039 C 
ATOM     12  C   UNL A   1      32.377  26.286  25.874  1.00  0.00     0.045 C 
ATOM     13  C   UNL A   1      32.398  27.386  23.530  1.00  0.00     0.095 C 
BRANCH  13  14
ATOM     14  C   UNL A   1      32.726  28.692  22.794  1.00  0.00     0.224 C 
ATOM     15  O   UNL A   1      33.879  29.110  22.670  1.00  0.00    -0.275 OA
ATOM     16  N   UNL A   1      31.742  29.452  22.246  1.00  0.00    -0.350 N 
ATOM     17  H   UNL A   1      32.067  30.280  21.824  1.00  0.00     0.163 HD
BRANCH  16  18
ATOM     18  C   UNL A   1      30.305  29.275  22.166  1.00  0.00     0.177 C 
BRANCH  18  19
ATOM     19  C   UNL A   1      29.500  30.073  23.219  1.00  0.00     0.283 C 
BRANCH  19  20
ATOM     20  N   UNL A   1      28.112  30.389  22.818  1.00  0.00    -0.330 N 
ATOM     21  C   UNL A   1      27.963  30.593  21.352  1.00  0.00     0.291 C 
ATOM     22  C   UNL A   1      27.637  31.631  23.482  1.00  0.00     0.291 C 
ATOM     23  H   UNL A   1      27.559  29.581  23.104  1.00  0.00     0.348 HD
ATOM     24  C   UNL A   1      28.487  31.936  20.804  1.00  0.00     0.221 C 
ATOM     25  C   UNL A   1      28.250  32.923  22.916  1.00  0.00     0.221 C 
ATOM     26  O   UNL A   1      27.944  33.050  21.523  1.00  0.00    -0.370 OA
ENDBRANCH  19  20
ENDBRANCH  18  19
ENDBRANCH  16  18
ENDBRANCH  13  14
ENDBRANCH   3   6
ENDBRANCH   1   2
BRANCH   1  27
ATOM     27  C   UNL A   1      31.264  31.943  26.483  1.00  0.00     0.042 C 
BRANCH  27  28
ATOM     28  C   UNL A   1      32.599  32.486  26.974  1.00  0.00     0.118 C 
BRANCH  28  29
ATOM     29  N   UNL A   1      32.452  33.787  27.610  1.00  0.00    -0.352 N 
ATOM     30  C   UNL A   1      33.174  34.344  28.635  1.00  0.00     0.251 C 
ATOM     31  H   UNL A   1      31.729  34.351  27.252  1.00  0.00     0.163 HD
ATOM     32  O   UNL A   1      32.745  35.337  29.214  1.00  0.00    -0.269 OA
BRANCH  30  33
ATOM     33  C   UNL A   1      34.467  33.756  29.048  1.00  0.00     0.039 A 
ATOM     34  C   UNL A   1      35.610  34.046  28.299  1.00  0.00     0.014 A 
ATOM     35  C   UNL A   1      34.544  32.874  30.130  1.00  0.00     0.014 A 
ATOM     36  C   UNL A   1      36.837  33.480  28.657  1.00  0.00     0.010 A 
ATOM     37  C   UNL A   1      35.778  32.364  30.527  1.00  0.00     0.010 A 
ATOM     38  C   UNL A   1      36.931  32.647  29.781  1.00  0.00    -0.014 A 
BRANCH  38  39
ATOM     39  C   UNL A   1      38.221  32.024  30.168  1.00  0.00     0.031 A 
ATOM     40  C   UNL A   1      39.140  32.733  31.124  1.00  0.00     0.074 A 
ATOM     41  C   UNL A   1      38.588  30.847  29.627  1.00  0.00     0.049 A 
ATOM     42  N   UNL A   1      40.327  32.376  31.548  1.00  0.00    -0.248 NA
ATOM     43  C   UNL A   1      38.676  34.024  31.657  1.00  0.00     0.031 C 
ATOM     44  C   UNL A   1      37.805  30.076  28.660  1.00  0.00     0.029 A 
ATOM     45  N   UNL A   1      39.722  30.097  29.813  1.00  0.00    -0.354 N 
ATOM     46  C   UNL A   1      40.756  33.407  32.375  1.00  0.00     0.074 A 
ATOM     47  C   UNL A   1      39.725  34.420  32.363  1.00  0.00     0.031 C 
ATOM     48  C   UNL A   1      38.471  28.949  28.358  1.00  0.00     0.029 A 
ATOM     49  C   UNL A   1      39.737  28.935  29.084  1.00  0.00     0.049 A 
ATOM     50  H   UNL A   1      40.455  30.368  30.413  1.00  0.00     0.167 HD
ATOM     51  C   UNL A   1      41.899  33.496  33.095  1.00  0.00     0.031 A 
ATOM     52  C   UNL A   1      40.667  27.964  29.010  1.00  0.00     0.031 A 
ATOM     53  C   UNL A   1      42.917  32.482  33.129  1.00  0.00     0.049 A 
ATOM     54  C   UNL A   1      41.922  28.081  29.826  1.00  0.00     0.074 A 
ATOM     55  C   UNL A   1      44.084  32.454  33.874  1.00  0.00     0.029 A 
ATOM     56  N   UNL A   1      42.886  31.312  32.389  1.00  0.00    -0.354 N 
ATOM     57  N   UNL A   1      42.287  29.035  30.648  1.00  0.00    -0.248 NA
ATOM     58  C   UNL A   1      42.889  26.979  29.713  1.00  0.00     0.031 C 
ATOM     59  C   UNL A   1      44.776  31.280  33.558  1.00  0.00     0.029 A 
ATOM     60  C   UNL A   1      44.020  30.561  32.646  1.00  0.00     0.049 A 
ATOM     61  H   UNL A   1      42.165  31.053  31.770  1.00  0.00     0.167 HD
ATOM     62  C   UNL A   1      43.512  28.639  31.166  1.00  0.00     0.074 A 
ATOM     63  C   UNL A   1      43.823  27.352  30.576  1.00  0.00     0.031 C 
ATOM     64  C   UNL A   1      44.310  29.283  32.051  1.00  0.00     0.031 A 
BRANCH  51  65
ATOM     65  C   UNL A   1      42.106  34.744  33.905  1.00  0.00    -0.014 A 
ATOM     66  C   UNL A   1      41.694  34.813  35.246  1.00  0.00     0.009 A 
ATOM     67  C   UNL A   1      42.740  35.855  33.329  1.00  0.00     0.009 A 
ATOM     68  C   UNL A   1      41.882  35.984  35.983  1.00  0.00     0.001 A 
ATOM     69  C   UNL A   1      42.948  37.016  34.078  1.00  0.00     0.001 A 
ATOM     70  C   UNL A   1      42.512  37.083  35.400  1.00  0.00     0.000 A 
ENDBRANCH  51  65
BRANCH  52  71
ATOM     71  C   UNL A   1      40.433  26.779  28.147  1.00  0.00    -0.014 A 
ATOM     72  C   UNL A   1      39.687  25.692  28.626  1.00  0.00     0.009 A 
ATOM     73  C   UNL A   1      40.956  26.726  26.846  1.00  0.00     0.009 A 
ATOM     74  C   UNL A   1      39.485  24.566  27.825  1.00  0.00     0.001 A 
ATOM     75  C   UNL A   1      40.734  25.608  26.040  1.00  0.00     0.001 A 
ATOM     76  C   UNL A   1      40.006  24.526  26.532  1.00  0.00     0.000 A 
ENDBRANCH  52  71
BRANCH  64  77
ATOM     77  C   UNL A   1      45.580  28.592  32.455  1.00  0.00    -0.014 A 
ATOM     78  C   UNL A   1      45.597  27.670  33.512  1.00  0.00     0.009 A 
ATOM     79  C   UNL A   1      46.763  28.841  31.744  1.00  0.00     0.009 A 
ATOM     80  C   UNL A   1      46.785  27.030  33.868  1.00  0.00     0.001 A 
ATOM     81  C   UNL A   1      47.944  28.183  32.088  1.00  0.00     0.001 A 
ATOM     82  C   UNL A   1      47.956  27.284  33.154  1.00  0.00     0.000 A 
ENDBRANCH  64  77
ENDBRANCH  38  39
ENDBRANCH  30  33
ENDBRANCH  28  29
ENDBRANCH  27  28
ENDBRANCH   1  27
TORSDOF 14
ENDMDL
MODEL 3
REMARK VINA RESULT:     -11.5      4.762      9.912
REMARK SMILES CC1=C(C)C[C@@H](C(=O)NCCCNC(=O)c2ccc(-c3c4nc(c(-c5ccccc5)c5ccc([nH]5)c(-c5ccccc5)c5nc(c(-c6ccccc6)c6ccc3[nH]6)C=C5)C=C4)cc2)[C@@H](C(=O)NCC[NH+]2CCOCC2)C1
REMARK SMILES IDX 10 1 9 2 7 3 8 4 6 6 1 7 2 8 3 9 76 10 4 11 5 12 64 13 65 14
REMARK SMILES IDX 66 15 67 16 68 18 69 19 70 20 71 21 75 22 72 24 74 25 73 26
REMARK SMILES IDX 11 27 12 28 13 29 14 30 15 32 16 33 17 34 63 35 18 36 62 37
REMARK SMILES IDX 19 38 20 39 21 40 56 41 22 42 61 43 55 44 57 45 23 46 60 47
REMARK SMILES IDX 54 48 53 49 24 51 46 52 31 53 45 54 32 55 35 56 44 57 58 58
REMARK SMILES IDX 33 59 34 60 43 62 59 63 36 64 25 65 26 66 30 67 27 68 29 69
REMARK SMILES IDX 28 70 47 71 48 72 52 73 49 74 51 75 50 76 37 77 38 78 42 79
REMARK SMILES IDX 39 80 41 81 40 82
REMARK H PARENT 9 5 67 17 70 23 13 31 57 50 35 61
REMARK Flexibility Score: inf
ROOT
ATOM      1  C   UNL A   1      36.509  20.377  24.768  1.00  0.00     0.117 C 
ENDROOT
BRANCH   1   2
ATOM      2  N   UNL A   1      36.647  21.690  25.358  1.00  0.00    -0.356 N 
ATOM      3  C   UNL A   1      35.810  22.737  25.493  1.00  0.00     0.224 C 
ATOM      4  O   UNL A   1      36.213  23.638  26.237  1.00  0.00    -0.275 OA
ATOM      5  H   UNL A   1      37.539  21.853  25.741  1.00  0.00     0.163 HD
BRANCH   3   6
ATOM      6  C   UNL A   1      34.435  22.878  24.849  1.00  0.00     0.095 C 
ATOM      7  C   UNL A   1      31.905  26.222  26.266  1.00  0.00     0.039 C 
ATOM      8  C   UNL A   1      32.677  25.112  25.594  1.00  0.00    -0.074 C 
ATOM      9  C   UNL A   1      33.520  25.278  24.553  1.00  0.00    -0.074 C 
ATOM     10  C   UNL A   1      32.467  23.772  26.269  1.00  0.00     0.045 C 
ATOM     11  C   UNL A   1      33.831  26.589  23.874  1.00  0.00     0.039 C 
ATOM     12  C   UNL A   1      34.309  24.128  23.980  1.00  0.00     0.045 C 
ATOM     13  C   UNL A   1      33.210  22.543  25.707  1.00  0.00     0.095 C 
BRANCH  13  14
ATOM     14  C   UNL A   1      33.528  21.541  26.825  1.00  0.00     0.224 C 
ATOM     15  O   UNL A   1      33.876  21.897  27.953  1.00  0.00    -0.275 OA
ATOM     16  N   UNL A   1      33.443  20.203  26.610  1.00  0.00    -0.350 N 
ATOM     17  H   UNL A   1      33.697  19.657  27.389  1.00  0.00     0.163 HD
BRANCH  16  18
ATOM     18  C   UNL A   1      33.050  19.426  25.450  1.00  0.00     0.177 C 
BRANCH  18  19
ATOM     19  C   UNL A   1      32.559  17.995  25.773  1.00  0.00     0.283 C 
BRANCH  19  20
ATOM     20  N   UNL A   1      32.657  17.044  24.644  1.00  0.00    -0.330 N 
ATOM     21  C   UNL A   1      32.191  15.676  24.994  1.00  0.00     0.291 C 
ATOM     22  C   UNL A   1      34.062  16.920  24.174  1.00  0.00     0.291 C 
ATOM     23  H   UNL A   1      32.055  17.429  23.916  1.00  0.00     0.348 HD
ATOM     24  C   UNL A   1      33.157  14.838  25.857  1.00  0.00     0.221 C 
ATOM     25  C   UNL A   1      34.974  16.119  25.119  1.00  0.00     0.221 C 
ATOM     26  O   UNL A   1      34.470  14.789  25.288  1.00  0.00    -0.370 OA
ENDBRANCH  19  20
ENDBRANCH  18  19
ENDBRANCH  16  18
ENDBRANCH  13  14
ENDBRANCH   3   6
ENDBRANCH   1   2
BRANCH   1  27
ATOM     27  C   UNL A   1      37.747  19.507  24.923  1.00  0.00     0.042 C 
BRANCH  27  28
ATOM     28  C   UNL A   1      38.882  20.174  25.687  1.00  0.00     0.118 C 
BRANCH  28  29
ATOM     29  N   UNL A   1      40.055  19.315  25.770  1.00  0.00    -0.352 N 
ATOM     30  C   UNL A   1      41.364  19.647  26.017  1.00  0.00     0.251 C 
ATOM     31  H   UNL A   1      39.885  18.356  25.628  1.00  0.00     0.163 HD
ATOM     32  O   UNL A   1      42.252  18.831  25.791  1.00  0.00    -0.269 OA
BRANCH  30  33
ATOM     33  C   UNL A   1      41.711  20.980  26.554  1.00  0.00     0.039 A 
ATOM     34  C   UNL A   1      41.582  21.210  27.926  1.00  0.00     0.014 A 
ATOM     35  C   UNL A   1      42.103  22.019  25.704  1.00  0.00     0.014 A 
ATOM     36  C   UNL A   1      41.881  22.470  28.451  1.00  0.00     0.010 A 
ATOM     37  C   UNL A   1      42.465  23.255  26.235  1.00  0.00     0.010 A 
ATOM     38  C   UNL A   1      42.337  23.497  27.610  1.00  0.00    -0.014 A 
BRANCH  38  39
ATOM     39  C   UNL A   1      42.645  24.846  28.145  1.00  0.00     0.031 A 
ATOM     40  C   UNL A   1      44.054  25.194  28.538  1.00  0.00     0.074 A 
ATOM     41  C   UNL A   1      41.654  25.740  28.322  1.00  0.00     0.049 A 
ATOM     42  N   UNL A   1      44.515  26.301  29.067  1.00  0.00    -0.248 NA
ATOM     43  C   UNL A   1      45.077  24.156  28.333  1.00  0.00     0.031 C 
ATOM     44  C   UNL A   1      40.241  25.514  28.015  1.00  0.00     0.029 A 
ATOM     45  N   UNL A   1      41.689  27.022  28.809  1.00  0.00    -0.354 N 
ATOM     46  C   UNL A   1      45.871  26.081  29.277  1.00  0.00     0.074 A 
ATOM     47  C   UNL A   1      46.152  24.726  28.858  1.00  0.00     0.031 C 
ATOM     48  C   UNL A   1      39.548  26.629  28.298  1.00  0.00     0.029 A 
ATOM     49  C   UNL A   1      40.461  27.635  28.833  1.00  0.00     0.049 A 
ATOM     50  H   UNL A   1      42.517  27.460  29.114  1.00  0.00     0.167 HD
ATOM     51  C   UNL A   1      46.803  26.936  29.759  1.00  0.00     0.031 A 
ATOM     52  C   UNL A   1      40.110  28.869  29.239  1.00  0.00     0.031 A 
ATOM     53  C   UNL A   1      46.534  28.291  30.154  1.00  0.00     0.049 A 
ATOM     54  C   UNL A   1      41.165  29.803  29.759  1.00  0.00     0.074 A 
ATOM     55  C   UNL A   1      47.424  29.254  30.599  1.00  0.00     0.029 A 
ATOM     56  N   UNL A   1      45.280  28.878  30.147  1.00  0.00    -0.354 N 
ATOM     57  N   UNL A   1      42.453  29.599  29.897  1.00  0.00    -0.248 NA
ATOM     58  C   UNL A   1      40.719  31.142  30.170  1.00  0.00     0.031 C 
ATOM     59  C   UNL A   1      46.701  30.415  30.893  1.00  0.00     0.029 A 
ATOM     60  C   UNL A   1      45.367  30.185  30.594  1.00  0.00     0.049 A 
ATOM     61  H   UNL A   1      44.448  28.431  29.866  1.00  0.00     0.167 HD
ATOM     62  C   UNL A   1      42.973  30.789  30.388  1.00  0.00     0.074 A 
ATOM     63  C   UNL A   1      41.864  31.714  30.511  1.00  0.00     0.031 C 
ATOM     64  C   UNL A   1      44.254  31.089  30.708  1.00  0.00     0.031 A 
BRANCH  51  65
ATOM     65  C   UNL A   1      48.209  26.419  29.885  1.00  0.00    -0.014 A 
ATOM     66  C   UNL A   1      49.127  26.555  28.832  1.00  0.00     0.009 A 
ATOM     67  C   UNL A   1      48.626  25.812  31.079  1.00  0.00     0.009 A 
ATOM     68  C   UNL A   1      50.426  26.059  28.958  1.00  0.00     0.001 A 
ATOM     69  C   UNL A   1      49.934  25.340  31.212  1.00  0.00     0.001 A 
ATOM     70  C   UNL A   1      50.829  25.456  30.150  1.00  0.00     0.000 A 
ENDBRANCH  51  65
BRANCH  52  71
ATOM     71  C   UNL A   1      38.695  29.306  29.143  1.00  0.00    -0.014 A 
ATOM     72  C   UNL A   1      37.833  29.154  30.240  1.00  0.00     0.009 A 
ATOM     73  C   UNL A   1      38.197  29.871  27.959  1.00  0.00     0.009 A 
ATOM     74  C   UNL A   1      36.495  29.542  30.147  1.00  0.00     0.001 A 
ATOM     75  C   UNL A   1      36.864  30.279  27.876  1.00  0.00     0.001 A 
ATOM     76  C   UNL A   1      36.013  30.106  28.966  1.00  0.00     0.000 A 
ENDBRANCH  52  71
BRANCH  64  77
ATOM     77  C   UNL A   1      44.529  32.482  31.195  1.00  0.00    -0.014 A 
ATOM     78  C   UNL A   1      44.813  33.520  30.295  1.00  0.00     0.009 A 
ATOM     79  C   UNL A   1      44.463  32.764  32.567  1.00  0.00     0.009 A 
ATOM     80  C   UNL A   1      45.057  34.811  30.765  1.00  0.00     0.001 A 
ATOM     81  C   UNL A   1      44.685  34.061  33.032  1.00  0.00     0.001 A 
ATOM     82  C   UNL A   1      44.989  35.082  32.132  1.00  0.00     0.000 A 
ENDBRANCH  64  77
ENDBRANCH  38  39
ENDBRANCH  30  33
ENDBRANCH  28  29
ENDBRANCH  27  28
ENDBRANCH   1  27
TORSDOF 14
ENDMDL
