MODEL 1
REMARK VINA RESULT:     -11.5      0.000      0.000
REMARK SMILES C[C@@H](C(=O)NCCCNC(=O)c1ccc(-c2c3nc(c(-c4ccccc4)c4ccc([nH]4)c(-c4ccccc4)c4nc(c(-c5ccccc5)c5ccc2[nH]5)C=C4)C=C3)cc1)c1ccc(C[C@H]2CCC[C@H]2O)cc1
REMARK SMILES IDX 6 1 5 2 3 3 4 4 2 6 1 7 60 8 61 9 72 10 62 11 71 12 63 13
REMARK SMILES IDX 64 14 65 15 66 16 69 17 67 18 68 19 70 20 7 22 8 23 9 24
REMARK SMILES IDX 10 25 11 27 12 28 13 29 59 30 14 31 58 32 15 33 16 34 17 35
REMARK SMILES IDX 52 36 18 37 57 38 51 39 53 40 19 41 56 42 50 43 49 44 20 46
REMARK SMILES IDX 42 47 27 48 41 49 28 50 31 51 40 52 54 53 29 54 30 55 39 57
REMARK SMILES IDX 55 58 32 59 21 60 22 61 26 62 23 63 25 64 24 65 43 66 44 67
REMARK SMILES IDX 48 68 45 69 47 70 46 71 33 72 34 73 38 74 35 75 37 76 36 77
REMARK H PARENT 5 5 70 21 9 26 53 45 31 56
REMARK Flexibility Score: inf
ROOT
ATOM      1  C   UNL A   1      36.637  20.795  25.015  1.00  0.00     0.117 C 
ENDROOT
BRANCH   1   2
ATOM      2  N   UNL A   1      36.948  21.909  24.144  1.00  0.00    -0.356 N 
ATOM      3  C   UNL A   1      36.109  22.799  23.540  1.00  0.00     0.227 C 
ATOM      4  O   UNL A   1      36.534  23.282  22.490  1.00  0.00    -0.274 OA
ATOM      5  H   UNL A   1      37.906  22.044  23.961  1.00  0.00     0.163 HD
BRANCH   3   6
ATOM      6  C   UNL A   1      34.738  23.117  24.170  1.00  0.00     0.105 C 
ATOM      7  C   UNL A   1      33.642  22.289  23.494  1.00  0.00     0.023 C 
BRANCH   6   8
ATOM      8  C   UNL A   1      34.312  24.589  24.210  1.00  0.00    -0.036 A 
ATOM      9  C   UNL A   1      34.276  25.362  25.375  1.00  0.00     0.005 A 
ATOM     10  C   UNL A   1      33.948  25.225  23.007  1.00  0.00     0.005 A 
ATOM     11  C   UNL A   1      33.871  26.696  25.350  1.00  0.00     0.004 A 
ATOM     12  C   UNL A   1      33.525  26.558  22.983  1.00  0.00     0.004 A 
ATOM     13  C   UNL A   1      33.438  27.293  24.168  1.00  0.00    -0.048 A 
BRANCH  13  14
ATOM     14  C   UNL A   1      32.837  28.674  24.198  1.00  0.00     0.041 C 
BRANCH  14  15
ATOM     15  C   UNL A   1      31.334  28.780  23.886  1.00  0.00     0.022 C 
ATOM     16  C   UNL A   1      30.588  29.932  24.582  1.00  0.00     0.007 C 
ATOM     17  C   UNL A   1      30.881  28.859  22.417  1.00  0.00     0.117 C 
ATOM     18  C   UNL A   1      29.431  30.313  23.655  1.00  0.00     0.003 C 
ATOM     19  C   UNL A   1      29.418  29.266  22.545  1.00  0.00     0.032 C 
BRANCH  17  20
ATOM     20  O   UNL A   1      31.537  29.833  21.626  1.00  0.00    -0.393 OA
ATOM     21  H   UNL A   1      32.496  29.757  21.749  1.00  0.00     0.210 HD
ENDBRANCH  17  20
ENDBRANCH  14  15
ENDBRANCH  13  14
ENDBRANCH   6   8
ENDBRANCH   3   6
ENDBRANCH   1   2
BRANCH   1  22
ATOM     22  C   UNL A   1      37.785  19.783  25.034  1.00  0.00     0.042 C 
BRANCH  22  23
ATOM     23  C   UNL A   1      39.024  20.245  25.797  1.00  0.00     0.118 C 
BRANCH  23  24
ATOM     24  N   UNL A   1      40.069  19.236  25.832  1.00  0.00    -0.352 N 
ATOM     25  C   UNL A   1      41.416  19.374  26.056  1.00  0.00     0.251 C 
ATOM     26  H   UNL A   1      39.765  18.314  25.670  1.00  0.00     0.163 HD
ATOM     27  O   UNL A   1      42.169  18.430  25.849  1.00  0.00    -0.269 OA
BRANCH  25  28
ATOM     28  C   UNL A   1      41.966  20.666  26.525  1.00  0.00     0.039 A 
ATOM     29  C   UNL A   1      42.446  21.575  25.576  1.00  0.00     0.014 A 
ATOM     30  C   UNL A   1      42.027  20.979  27.886  1.00  0.00     0.014 A 
ATOM     31  C   UNL A   1      42.921  22.821  25.988  1.00  0.00     0.010 A 
ATOM     32  C   UNL A   1      42.429  22.250  28.288  1.00  0.00     0.010 A 
ATOM     33  C   UNL A   1      42.880  23.185  27.344  1.00  0.00    -0.014 A 
BRANCH  33  34
ATOM     34  C   UNL A   1      43.283  24.544  27.790  1.00  0.00     0.031 A 
ATOM     35  C   UNL A   1      42.243  25.585  28.097  1.00  0.00     0.074 A 
ATOM     36  C   UNL A   1      44.592  24.862  27.851  1.00  0.00     0.049 A 
ATOM     37  N   UNL A   1      42.404  26.840  28.431  1.00  0.00    -0.248 NA
ATOM     38  C   UNL A   1      40.834  25.167  27.995  1.00  0.00     0.031 C 
ATOM     39  C   UNL A   1      45.701  23.955  27.546  1.00  0.00     0.029 A 
ATOM     40  N   UNL A   1      45.211  26.042  28.179  1.00  0.00    -0.354 N 
ATOM     41  C   UNL A   1      41.125  27.366  28.558  1.00  0.00     0.074 A 
ATOM     42  C   UNL A   1      40.197  26.307  28.226  1.00  0.00     0.031 C 
ATOM     43  C   UNL A   1      46.862  24.604  27.724  1.00  0.00     0.029 A 
ATOM     44  C   UNL A   1      46.583  25.984  28.106  1.00  0.00     0.049 A 
ATOM     45  H   UNL A   1      44.720  26.854  28.443  1.00  0.00     0.167 HD
ATOM     46  C   UNL A   1      40.755  28.614  28.932  1.00  0.00     0.031 A 
ATOM     47  C   UNL A   1      47.512  26.938  28.306  1.00  0.00     0.031 A 
ATOM     48  C   UNL A   1      41.678  29.666  29.269  1.00  0.00     0.049 A 
ATOM     49  C   UNL A   1      47.072  28.324  28.687  1.00  0.00     0.074 A 
ATOM     50  C   UNL A   1      41.398  30.943  29.723  1.00  0.00     0.029 A 
ATOM     51  N   UNL A   1      43.057  29.566  29.181  1.00  0.00    -0.354 N 
ATOM     52  N   UNL A   1      45.859  28.782  28.884  1.00  0.00    -0.248 NA
ATOM     53  C   UNL A   1      48.131  29.325  28.880  1.00  0.00     0.031 C 
ATOM     54  C   UNL A   1      42.605  31.637  29.844  1.00  0.00     0.029 A 
ATOM     55  C   UNL A   1      43.640  30.771  29.533  1.00  0.00     0.049 A 
ATOM     56  H   UNL A   1      43.549  28.758  28.907  1.00  0.00     0.167 HD
ATOM     57  C   UNL A   1      46.011  30.112  29.251  1.00  0.00     0.074 A 
ATOM     58  C   UNL A   1      47.433  30.383  29.269  1.00  0.00     0.031 C 
ATOM     59  C   UNL A   1      45.057  31.027  29.548  1.00  0.00     0.031 A 
BRANCH  46  60
ATOM     60  C   UNL A   1      39.283  28.922  28.978  1.00  0.00    -0.014 A 
ATOM     61  C   UNL A   1      38.533  28.740  30.152  1.00  0.00     0.009 A 
ATOM     62  C   UNL A   1      38.646  29.452  27.845  1.00  0.00     0.009 A 
ATOM     63  C   UNL A   1      37.172  29.049  30.177  1.00  0.00     0.001 A 
ATOM     64  C   UNL A   1      37.293  29.789  27.882  1.00  0.00     0.001 A 
ATOM     65  C   UNL A   1      36.554  29.579  29.045  1.00  0.00     0.000 A 
ENDBRANCH  46  60
BRANCH  47  66
ATOM     66  C   UNL A   1      48.957  26.622  28.145  1.00  0.00    -0.014 A 
ATOM     67  C   UNL A   1      49.555  26.632  26.875  1.00  0.00     0.009 A 
ATOM     68  C   UNL A   1      49.743  26.288  29.260  1.00  0.00     0.009 A 
ATOM     69  C   UNL A   1      50.898  26.280  26.721  1.00  0.00     0.001 A 
ATOM     70  C   UNL A   1      51.094  25.970  29.107  1.00  0.00     0.001 A 
ATOM     71  C   UNL A   1      51.667  25.954  27.836  1.00  0.00     0.000 A 
ENDBRANCH  47  66
BRANCH  59  72
ATOM     72  C   UNL A   1      45.517  32.400  29.954  1.00  0.00    -0.014 A 
ATOM     73  C   UNL A   1      45.822  32.704  31.289  1.00  0.00     0.009 A 
ATOM     74  C   UNL A   1      45.696  33.389  28.974  1.00  0.00     0.009 A 
ATOM     75  C   UNL A   1      46.268  33.981  31.638  1.00  0.00     0.001 A 
ATOM     76  C   UNL A   1      46.173  34.653  29.320  1.00  0.00     0.001 A 
ATOM     77  C   UNL A   1      46.450  34.951  30.653  1.00  0.00     0.000 A 
ENDBRANCH  59  72
ENDBRANCH  33  34
ENDBRANCH  25  28
ENDBRANCH  23  24
ENDBRANCH  22  23
ENDBRANCH   1  22
TORSDOF 14
ENDMDL
MODEL 2
REMARK VINA RESULT:     -11.4      2.963      7.236
REMARK SMILES C[C@@H](C(=O)NCCCNC(=O)c1ccc(-c2c3nc(c(-c4ccccc4)c4ccc([nH]4)c(-c4ccccc4)c4nc(c(-c5ccccc5)c5ccc2[nH]5)C=C4)C=C3)cc1)c1ccc(C[C@H]2CCC[C@H]2O)cc1
REMARK SMILES IDX 6 1 5 2 3 3 4 4 2 6 1 7 60 8 61 9 72 10 62 11 71 12 63 13
REMARK SMILES IDX 64 14 65 15 66 16 69 17 67 18 68 19 70 20 7 22 8 23 9 24
REMARK SMILES IDX 10 25 11 27 12 28 13 29 59 30 14 31 58 32 15 33 16 34 17 35
REMARK SMILES IDX 52 36 18 37 57 38 51 39 53 40 19 41 56 42 50 43 49 44 20 46
REMARK SMILES IDX 42 47 27 48 41 49 28 50 31 51 40 52 54 53 29 54 30 55 39 57
REMARK SMILES IDX 55 58 32 59 21 60 22 61 26 62 23 63 25 64 24 65 43 66 44 67
REMARK SMILES IDX 48 68 45 69 47 70 46 71 33 72 34 73 38 74 35 75 37 76 36 77
REMARK H PARENT 5 5 70 21 9 26 53 45 31 56
REMARK Flexibility Score: inf
ROOT
ATOM      1  C   UNL A   1      33.781  26.053  25.979  1.00  0.00     0.117 C 
ENDROOT
BRANCH   1   2
ATOM      2  N   UNL A   1      34.052  25.916  24.564  1.00  0.00    -0.356 N 
ATOM      3  C   UNL A   1      33.414  25.158  23.626  1.00  0.00     0.227 C 
ATOM      4  O   UNL A   1      34.115  24.811  22.675  1.00  0.00    -0.274 OA
ATOM      5  H   UNL A   1      34.810  26.449  24.228  1.00  0.00     0.163 HD
BRANCH   3   6
ATOM      6  C   UNL A   1      31.930  24.785  23.816  1.00  0.00     0.105 C 
ATOM      7  C   UNL A   1      31.572  23.580  22.942  1.00  0.00     0.023 C 
BRANCH   6   8
ATOM      8  C   UNL A   1      30.897  25.897  23.596  1.00  0.00    -0.036 A 
ATOM      9  C   UNL A   1      29.589  25.860  24.089  1.00  0.00     0.005 A 
ATOM     10  C   UNL A   1      31.277  27.044  22.871  1.00  0.00     0.005 A 
ATOM     11  C   UNL A   1      28.692  26.900  23.850  1.00  0.00     0.004 A 
ATOM     12  C   UNL A   1      30.373  28.079  22.615  1.00  0.00     0.004 A 
ATOM     13  C   UNL A   1      29.053  27.992  23.064  1.00  0.00    -0.048 A 
BRANCH  13  14
ATOM     14  C   UNL A   1      28.016  29.011  22.671  1.00  0.00     0.041 C 
BRANCH  14  15
ATOM     15  C   UNL A   1      28.526  30.427  22.345  1.00  0.00     0.022 C 
ATOM     16  C   UNL A   1      28.061  31.011  21.000  1.00  0.00     0.007 C 
ATOM     17  C   UNL A   1      28.286  31.558  23.361  1.00  0.00     0.117 C 
ATOM     18  C   UNL A   1      28.022  32.529  21.184  1.00  0.00     0.003 C 
ATOM     19  C   UNL A   1      28.635  32.803  22.555  1.00  0.00     0.032 C 
BRANCH  17  20
ATOM     20  O   UNL A   1      26.954  31.696  23.819  1.00  0.00    -0.393 OA
ATOM     21  H   UNL A   1      26.921  32.365  24.521  1.00  0.00     0.210 HD
ENDBRANCH  17  20
ENDBRANCH  14  15
ENDBRANCH  13  14
ENDBRANCH   6   8
ENDBRANCH   3   6
ENDBRANCH   1   2
BRANCH   1  22
ATOM     22  C   UNL A   1      33.264  27.457  26.300  1.00  0.00     0.042 C 
BRANCH  22  23
ATOM     23  C   UNL A   1      34.254  28.579  26.002  1.00  0.00     0.118 C 
BRANCH  23  24
ATOM     24  N   UNL A   1      33.852  29.850  26.581  1.00  0.00    -0.352 N 
ATOM     25  C   UNL A   1      34.443  30.589  27.576  1.00  0.00     0.251 C 
ATOM     26  H   UNL A   1      33.030  30.240  26.202  1.00  0.00     0.163 HD
ATOM     27  O   UNL A   1      33.845  31.539  28.067  1.00  0.00    -0.269 OA
BRANCH  25  28
ATOM     28  C   UNL A   1      35.788  30.227  28.074  1.00  0.00     0.039 A 
ATOM     29  C   UNL A   1      35.900  29.633  29.335  1.00  0.00     0.014 A 
ATOM     30  C   UNL A   1      36.936  30.484  27.318  1.00  0.00     0.014 A 
ATOM     31  C   UNL A   1      37.152  29.236  29.806  1.00  0.00     0.010 A 
ATOM     32  C   UNL A   1      38.173  30.018  27.756  1.00  0.00     0.010 A 
ATOM     33  C   UNL A   1      38.295  29.387  29.003  1.00  0.00    -0.014 A 
BRANCH  33  34
ATOM     34  C   UNL A   1      39.619  28.876  29.443  1.00  0.00     0.031 A 
ATOM     35  C   UNL A   1      40.511  29.720  30.311  1.00  0.00     0.074 A 
ATOM     36  C   UNL A   1      40.049  27.677  29.001  1.00  0.00     0.049 A 
ATOM     37  N   UNL A   1      41.724  29.472  30.735  1.00  0.00    -0.248 NA
ATOM     38  C   UNL A   1      39.979  31.023  30.742  1.00  0.00     0.031 C 
ATOM     39  C   UNL A   1      39.295  26.775  28.127  1.00  0.00     0.029 A 
ATOM     40  N   UNL A   1      41.231  27.015  29.218  1.00  0.00    -0.354 N 
ATOM     41  C   UNL A   1      42.108  30.592  31.462  1.00  0.00     0.074 A 
ATOM     42  C   UNL A   1      41.016  31.538  31.388  1.00  0.00     0.031 C 
ATOM     43  C   UNL A   1      40.023  25.670  27.903  1.00  0.00     0.029 A 
ATOM     44  C   UNL A   1      41.313  25.805  28.572  1.00  0.00     0.049 A 
ATOM     45  H   UNL A   1      41.954  27.373  29.783  1.00  0.00     0.167 HD
ATOM     46  C   UNL A   1      43.259  30.808  32.142  1.00  0.00     0.031 A 
ATOM     47  C   UNL A   1      42.317  24.910  28.511  1.00  0.00     0.031 A 
ATOM     48  C   UNL A   1      44.343  29.864  32.221  1.00  0.00     0.049 A 
ATOM     49  C   UNL A   1      43.597  25.190  29.248  1.00  0.00     0.074 A 
ATOM     50  C   UNL A   1      45.521  29.965  32.940  1.00  0.00     0.029 A 
ATOM     51  N   UNL A   1      44.384  28.651  31.552  1.00  0.00    -0.354 N 
ATOM     52  N   UNL A   1      43.910  26.218  29.999  1.00  0.00    -0.248 NA
ATOM     53  C   UNL A   1      44.661  24.182  29.133  1.00  0.00     0.031 C 
ATOM     54  C   UNL A   1      46.305  28.844  32.652  1.00  0.00     0.029 A 
ATOM     55  C   UNL A   1      45.586  28.012  31.810  1.00  0.00     0.049 A 
ATOM     56  H   UNL A   1      43.667  28.296  30.978  1.00  0.00     0.167 HD
ATOM     57  C   UNL A   1      45.192  25.967  30.468  1.00  0.00     0.074 A 
ATOM     58  C   UNL A   1      45.592  24.682  29.934  1.00  0.00     0.031 C 
ATOM     59  C   UNL A   1      45.970  26.733  31.272  1.00  0.00     0.031 A 
BRANCH  46  60
ATOM     60  C   UNL A   1      43.419  32.129  32.844  1.00  0.00    -0.014 A 
ATOM     61  C   UNL A   1      44.076  33.209  32.232  1.00  0.00     0.009 A 
ATOM     62  C   UNL A   1      42.856  32.314  34.117  1.00  0.00     0.009 A 
ATOM     63  C   UNL A   1      44.197  34.431  32.895  1.00  0.00     0.001 A 
ATOM     64  C   UNL A   1      42.951  33.546  34.764  1.00  0.00     0.001 A 
ATOM     65  C   UNL A   1      43.629  34.601  34.157  1.00  0.00     0.000 A 
ENDBRANCH  46  60
BRANCH  47  66
ATOM     66  C   UNL A   1      42.161  23.661  27.716  1.00  0.00    -0.014 A 
ATOM     67  C   UNL A   1      41.656  22.494  28.310  1.00  0.00     0.009 A 
ATOM     68  C   UNL A   1      42.537  23.624  26.364  1.00  0.00     0.009 A 
ATOM     69  C   UNL A   1      41.564  21.309  27.576  1.00  0.00     0.001 A 
ATOM     70  C   UNL A   1      42.412  22.447  25.624  1.00  0.00     0.001 A 
ATOM     71  C   UNL A   1      41.938  21.287  26.234  1.00  0.00     0.000 A 
ENDBRANCH  47  66
BRANCH  59  72
ATOM     72  C   UNL A   1      47.318  26.188  31.654  1.00  0.00    -0.014 A 
ATOM     73  C   UNL A   1      47.502  25.451  32.833  1.00  0.00     0.009 A 
ATOM     74  C   UNL A   1      48.410  26.374  30.792  1.00  0.00     0.009 A 
ATOM     75  C   UNL A   1      48.760  24.937  33.157  1.00  0.00     0.001 A 
ATOM     76  C   UNL A   1      49.659  25.832  31.100  1.00  0.00     0.001 A 
ATOM     77  C   UNL A   1      49.834  25.122  32.287  1.00  0.00     0.000 A 
ENDBRANCH  59  72
ENDBRANCH  33  34
ENDBRANCH  25  28
ENDBRANCH  23  24
ENDBRANCH  22  23
ENDBRANCH   1  22
TORSDOF 14
ENDMDL
MODEL 3
REMARK VINA RESULT:     -11.4      1.239      6.213
REMARK SMILES C[C@@H](C(=O)NCCCNC(=O)c1ccc(-c2c3nc(c(-c4ccccc4)c4ccc([nH]4)c(-c4ccccc4)c4nc(c(-c5ccccc5)c5ccc2[nH]5)C=C4)C=C3)cc1)c1ccc(C[C@H]2CCC[C@H]2O)cc1
REMARK SMILES IDX 6 1 5 2 3 3 4 4 2 6 1 7 60 8 61 9 72 10 62 11 71 12 63 13
REMARK SMILES IDX 64 14 65 15 66 16 69 17 67 18 68 19 70 20 7 22 8 23 9 24
REMARK SMILES IDX 10 25 11 27 12 28 13 29 59 30 14 31 58 32 15 33 16 34 17 35
REMARK SMILES IDX 52 36 18 37 57 38 51 39 53 40 19 41 56 42 50 43 49 44 20 46
REMARK SMILES IDX 42 47 27 48 41 49 28 50 31 51 40 52 54 53 29 54 30 55 39 57
REMARK SMILES IDX 55 58 32 59 21 60 22 61 26 62 23 63 25 64 24 65 43 66 44 67
REMARK SMILES IDX 48 68 45 69 47 70 46 71 33 72 34 73 38 74 35 75 37 76 36 77
REMARK H PARENT 5 5 70 21 9 26 53 45 31 56
REMARK Flexibility Score: inf
ROOT
ATOM      1  C   UNL A   1      36.496  20.260  25.001  1.00  0.00     0.117 C 
ENDROOT
BRANCH   1   2
ATOM      2  N   UNL A   1      36.693  21.468  25.774  1.00  0.00    -0.356 N 
ATOM      3  C   UNL A   1      36.291  22.745  25.507  1.00  0.00     0.227 C 
ATOM      4  O   UNL A   1      36.995  23.624  26.003  1.00  0.00    -0.274 OA
ATOM      5  H   UNL A   1      37.190  21.351  26.616  1.00  0.00     0.163 HD
BRANCH   3   6
ATOM      6  C   UNL A   1      35.047  22.994  24.630  1.00  0.00     0.105 C 
ATOM      7  C   UNL A   1      35.464  23.219  23.175  1.00  0.00     0.023 C 
BRANCH   6   8
ATOM      8  C   UNL A   1      34.098  24.116  25.068  1.00  0.00    -0.036 A 
ATOM      9  C   UNL A   1      33.152  23.988  26.089  1.00  0.00     0.005 A 
ATOM     10  C   UNL A   1      34.182  25.367  24.424  1.00  0.00     0.005 A 
ATOM     11  C   UNL A   1      32.309  25.043  26.437  1.00  0.00     0.004 A 
ATOM     12  C   UNL A   1      33.325  26.420  24.760  1.00  0.00     0.004 A 
ATOM     13  C   UNL A   1      32.346  26.249  25.741  1.00  0.00    -0.048 A 
BRANCH  13  14
ATOM     14  C   UNL A   1      31.309  27.307  26.014  1.00  0.00     0.041 C 
BRANCH  14  15
ATOM     15  C   UNL A   1      31.794  28.584  26.725  1.00  0.00     0.022 C 
ATOM     16  C   UNL A   1      33.225  28.531  27.288  1.00  0.00     0.007 C 
ATOM     17  C   UNL A   1      31.722  29.926  25.975  1.00  0.00     0.117 C 
ATOM     18  C   UNL A   1      33.747  29.969  27.259  1.00  0.00     0.003 C 
ATOM     19  C   UNL A   1      32.560  30.841  26.860  1.00  0.00     0.032 C 
BRANCH  17  20
ATOM     20  O   UNL A   1      32.291  29.934  24.679  1.00  0.00    -0.393 OA
ATOM     21  H   UNL A   1      33.191  30.293  24.723  1.00  0.00     0.210 HD
ENDBRANCH  17  20
ENDBRANCH  14  15
ENDBRANCH  13  14
ENDBRANCH   6   8
ENDBRANCH   3   6
ENDBRANCH   1   2
BRANCH   1  22
ATOM     22  C   UNL A   1      37.824  19.530  24.786  1.00  0.00     0.042 C 
BRANCH  22  23
ATOM     23  C   UNL A   1      38.970  20.030  25.661  1.00  0.00     0.118 C 
BRANCH  23  24
ATOM     24  N   UNL A   1      40.032  19.049  25.809  1.00  0.00    -0.352 N 
ATOM     25  C   UNL A   1      41.372  19.234  26.042  1.00  0.00     0.251 C 
ATOM     26  H   UNL A   1      39.747  18.110  25.729  1.00  0.00     0.163 HD
ATOM     27  O   UNL A   1      42.145  18.289  25.937  1.00  0.00    -0.269 OA
BRANCH  25  28
ATOM     28  C   UNL A   1      41.890  20.574  26.395  1.00  0.00     0.039 A 
ATOM     29  C   UNL A   1      42.399  21.387  25.377  1.00  0.00     0.014 A 
ATOM     30  C   UNL A   1      41.895  21.025  27.718  1.00  0.00     0.014 A 
ATOM     31  C   UNL A   1      42.846  22.675  25.677  1.00  0.00     0.010 A 
ATOM     32  C   UNL A   1      42.268  22.336  28.003  1.00  0.00     0.010 A 
ATOM     33  C   UNL A   1      42.747  23.176  26.985  1.00  0.00    -0.014 A 
BRANCH  33  34
ATOM     34  C   UNL A   1      43.119  24.579  27.304  1.00  0.00     0.031 A 
ATOM     35  C   UNL A   1      44.563  25.002  27.305  1.00  0.00     0.074 A 
ATOM     36  C   UNL A   1      42.160  25.457  27.662  1.00  0.00     0.049 A 
ATOM     37  N   UNL A   1      45.083  26.160  27.624  1.00  0.00    -0.248 NA
ATOM     38  C   UNL A   1      45.554  23.985  26.917  1.00  0.00     0.031 C 
ATOM     39  C   UNL A   1      40.727  25.164  27.734  1.00  0.00     0.029 A 
ATOM     40  N   UNL A   1      42.249  26.772  28.044  1.00  0.00    -0.354 N 
ATOM     41  C   UNL A   1      46.458  26.005  27.497  1.00  0.00     0.074 A 
ATOM     42  C   UNL A   1      46.695  24.632  27.112  1.00  0.00     0.031 C 
ATOM     43  C   UNL A   1      40.071  26.272  28.112  1.00  0.00     0.029 A 
ATOM     44  C   UNL A   1      41.037  27.338  28.358  1.00  0.00     0.049 A 
ATOM     45  H   UNL A   1      43.101  27.264  28.089  1.00  0.00     0.167 HD
ATOM     46  C   UNL A   1      47.434  26.928  27.671  1.00  0.00     0.031 A 
ATOM     47  C   UNL A   1      40.735  28.570  28.810  1.00  0.00     0.031 A 
ATOM     48  C   UNL A   1      47.197  28.296  28.048  1.00  0.00     0.049 A 
ATOM     49  C   UNL A   1      41.843  29.564  29.027  1.00  0.00     0.074 A 
ATOM     50  C   UNL A   1      48.116  29.322  28.184  1.00  0.00     0.029 A 
ATOM     51  N   UNL A   1      45.955  28.828  28.358  1.00  0.00    -0.354 N 
ATOM     52  N   UNL A   1      43.130  29.425  28.822  1.00  0.00    -0.248 NA
ATOM     53  C   UNL A   1      41.453  30.888  29.533  1.00  0.00     0.031 C 
ATOM     54  C   UNL A   1      47.439  30.457  28.642  1.00  0.00     0.029 A 
ATOM     55  C   UNL A   1      46.090  30.157  28.723  1.00  0.00     0.049 A 
ATOM     56  H   UNL A   1      45.104  28.333  28.323  1.00  0.00     0.167 HD
ATOM     57  C   UNL A   1      43.699  30.650  29.144  1.00  0.00     0.074 A 
ATOM     58  C   UNL A   1      42.616  31.525  29.541  1.00  0.00     0.031 C 
ATOM     59  C   UNL A   1      45.003  31.017  29.114  1.00  0.00     0.031 A 
BRANCH  46  60
ATOM     60  C   UNL A   1      48.858  26.483  27.474  1.00  0.00    -0.014 A 
ATOM     61  C   UNL A   1      49.630  26.003  28.545  1.00  0.00     0.009 A 
ATOM     62  C   UNL A   1      49.419  26.496  26.188  1.00  0.00     0.009 A 
ATOM     63  C   UNL A   1      50.944  25.579  28.335  1.00  0.00     0.001 A 
ATOM     64  C   UNL A   1      50.722  26.043  25.976  1.00  0.00     0.001 A 
ATOM     65  C   UNL A   1      51.486  25.593  27.051  1.00  0.00     0.000 A 
ENDBRANCH  46  60
BRANCH  47  66
ATOM     66  C   UNL A   1      39.323  28.939  29.097  1.00  0.00    -0.014 A 
ATOM     67  C   UNL A   1      38.758  28.683  30.356  1.00  0.00     0.009 A 
ATOM     68  C   UNL A   1      38.524  29.530  28.105  1.00  0.00     0.009 A 
ATOM     69  C   UNL A   1      37.415  28.979  30.603  1.00  0.00     0.001 A 
ATOM     70  C   UNL A   1      37.192  29.857  28.366  1.00  0.00     0.001 A 
ATOM     71  C   UNL A   1      36.635  29.569  29.611  1.00  0.00     0.000 A 
ENDBRANCH  47  66
BRANCH  59  72
ATOM     72  C   UNL A   1      45.331  32.436  29.485  1.00  0.00    -0.014 A 
ATOM     73  C   UNL A   1      45.672  32.789  30.799  1.00  0.00     0.009 A 
ATOM     74  C   UNL A   1      45.346  33.427  28.490  1.00  0.00     0.009 A 
ATOM     75  C   UNL A   1      45.993  34.111  31.116  1.00  0.00     0.001 A 
ATOM     76  C   UNL A   1      45.698  34.741  28.802  1.00  0.00     0.001 A 
ATOM     77  C   UNL A   1      46.013  35.083  30.116  1.00  0.00     0.000 A 
ENDBRANCH  59  72
ENDBRANCH  33  34
ENDBRANCH  25  28
ENDBRANCH  23  24
ENDBRANCH  22  23
ENDBRANCH   1  22
TORSDOF 14
ENDMDL
