MODEL 1
REMARK VINA RESULT:     -10.7      0.000      0.000
REMARK SMILES CC1([C@](C)(Nc2cccc(Cl)c2)C(=O)NCCCNC(=O)c2ccc(-c3c4nc(c(-c5ccccc5)c5ccc([nH]5)c(-c5ccccc5)c5nc(c(-c6ccccc6)c6ccc3[nH]6)C=C5)C=C4)cc2)CC1
REMARK SMILES IDX 17 1 16 2 15 3 13 4 14 5 3 7 4 8 2 9 1 10 70 11 71 12 5 13
REMARK SMILES IDX 6 15 7 16 12 17 8 18 10 19 9 20 11 21 18 22 19 23 20 24
REMARK SMILES IDX 21 26 22 27 23 28 69 29 24 30 68 31 25 32 26 33 27 34 62 35
REMARK SMILES IDX 28 36 67 37 61 38 63 39 29 40 66 41 60 42 59 43 30 45 52 46
REMARK SMILES IDX 37 47 51 48 38 49 41 50 50 51 64 52 39 53 40 54 49 56 65 57
REMARK SMILES IDX 42 58 31 59 32 60 36 61 33 62 35 63 34 64 53 65 54 66 58 67
REMARK SMILES IDX 55 68 57 69 56 70 43 71 44 72 48 73 45 74 47 75 46 76
REMARK H PARENT 15 6 5 14 19 25 63 44 41 55
REMARK Flexibility Score: inf
ROOT
ATOM      1  C   UNL A   1      33.908  28.062  25.862  1.00  0.00     0.042 C 
ENDROOT
BRANCH   1   2
ATOM      2  C   UNL A   1      33.699  26.591  25.521  1.00  0.00     0.117 C 
BRANCH   2   3
ATOM      3  N   UNL A   1      33.867  26.249  24.120  1.00  0.00    -0.354 N 
ATOM      4  C   UNL A   1      33.673  25.073  23.447  1.00  0.00     0.245 C 
ATOM      5  O   UNL A   1      33.901  25.107  22.231  1.00  0.00    -0.272 OA
ATOM      6  H   UNL A   1      34.176  26.994  23.556  1.00  0.00     0.163 HD
BRANCH   4   7
ATOM      7  C   UNL A   1      33.177  23.760  24.159  1.00  0.00     0.119 C 
ATOM      8  C   UNL A   1      33.282  22.556  23.183  1.00  0.00     0.046 C 
BRANCH   7   9
ATOM      9  C   UNL A   1      31.642  23.914  24.513  1.00  0.00    -0.001 C 
ATOM     10  C   UNL A   1      30.785  24.402  23.347  1.00  0.00     0.014 C 
ATOM     11  C   UNL A   1      31.170  24.324  25.909  1.00  0.00     0.010 C 
ATOM     12  C   UNL A   1      30.948  22.924  25.450  1.00  0.00     0.010 C 
ENDBRANCH   7   9
BRANCH   7  13
ATOM     13  N   UNL A   1      34.000  23.398  25.347  1.00  0.00    -0.371 N 
ATOM     14  H   UNL A   1      33.536  23.378  26.215  1.00  0.00     0.161 HD
BRANCH  13  15
ATOM     15  C   UNL A   1      35.361  23.084  25.359  1.00  0.00     0.036 A 
ATOM     16  C   UNL A   1      36.387  23.972  25.710  1.00  0.00     0.026 A 
ATOM     17  C   UNL A   1      35.753  21.763  25.085  1.00  0.00     0.046 A 
ATOM     18  C   UNL A   1      37.716  23.559  25.880  1.00  0.00     0.004 A 
ATOM     19  C   UNL A   1      37.089  21.355  25.204  1.00  0.00     0.043 A 
ATOM     20  C   UNL A   1      38.070  22.242  25.631  1.00  0.00     0.020 A 
ATOM     21  Cl  UNL A   1      37.528  19.732  24.829  1.00  0.00    -0.084 Cl
ENDBRANCH  13  15
ENDBRANCH   7  13
ENDBRANCH   4   7
ENDBRANCH   2   3
ENDBRANCH   1   2
BRANCH   1  22
ATOM     22  C   UNL A   1      33.607  28.420  27.308  1.00  0.00     0.118 C 
BRANCH  22  23
ATOM     23  N   UNL A   1      33.530  29.859  27.502  1.00  0.00    -0.352 N 
ATOM     24  C   UNL A   1      34.442  30.707  28.084  1.00  0.00     0.251 C 
ATOM     25  H   UNL A   1      32.708  30.287  27.169  1.00  0.00     0.163 HD
ATOM     26  O   UNL A   1      34.108  31.847  28.390  1.00  0.00    -0.269 OA
BRANCH  24  27
ATOM     27  C   UNL A   1      35.822  30.245  28.355  1.00  0.00     0.039 A 
ATOM     28  C   UNL A   1      36.132  29.748  29.624  1.00  0.00     0.014 A 
ATOM     29  C   UNL A   1      36.816  30.332  27.376  1.00  0.00     0.014 A 
ATOM     30  C   UNL A   1      37.426  29.292  29.894  1.00  0.00     0.010 A 
ATOM     31  C   UNL A   1      38.083  29.808  27.623  1.00  0.00     0.010 A 
ATOM     32  C   UNL A   1      38.405  29.294  28.889  1.00  0.00    -0.014 A 
BRANCH  32  33
ATOM     33  C   UNL A   1      39.779  28.789  29.146  1.00  0.00     0.031 A 
ATOM     34  C   UNL A   1      40.814  29.696  29.754  1.00  0.00     0.074 A 
ATOM     35  C   UNL A   1      40.116  27.537  28.776  1.00  0.00     0.049 A 
ATOM     36  N   UNL A   1      42.082  29.464  29.987  1.00  0.00    -0.248 NA
ATOM     37  C   UNL A   1      40.375  31.051  30.130  1.00  0.00     0.031 C 
ATOM     38  C   UNL A   1      39.220  26.568  28.144  1.00  0.00     0.029 A 
ATOM     39  N   UNL A   1      41.313  26.871  28.870  1.00  0.00    -0.354 N 
ATOM     40  C   UNL A   1      42.593  30.647  30.508  1.00  0.00     0.074 A 
ATOM     41  C   UNL A   1      41.512  31.607  30.523  1.00  0.00     0.031 C 
ATOM     42  C   UNL A   1      39.894  25.428  27.920  1.00  0.00     0.029 A 
ATOM     43  C   UNL A   1      41.278  25.599  28.354  1.00  0.00     0.049 A 
ATOM     44  H   UNL A   1      42.122  27.268  29.268  1.00  0.00     0.167 HD
ATOM     45  C   UNL A   1      43.846  30.906  30.951  1.00  0.00     0.031 A 
ATOM     46  C   UNL A   1      42.252  24.677  28.229  1.00  0.00     0.031 A 
ATOM     47  C   UNL A   1      44.918  29.947  30.960  1.00  0.00     0.049 A 
ATOM     48  C   UNL A   1      43.636  24.994  28.723  1.00  0.00     0.074 A 
ATOM     49  C   UNL A   1      46.201  30.098  31.458  1.00  0.00     0.029 A 
ATOM     50  N   UNL A   1      44.833  28.664  30.447  1.00  0.00    -0.354 N 
ATOM     51  N   UNL A   1      44.082  26.090  29.287  1.00  0.00    -0.248 NA
ATOM     52  C   UNL A   1      44.652  23.941  28.572  1.00  0.00     0.031 C 
ATOM     53  C   UNL A   1      46.910  28.922  31.195  1.00  0.00     0.029 A 
ATOM     54  C   UNL A   1      46.051  28.020  30.588  1.00  0.00     0.049 A 
ATOM     55  H   UNL A   1      44.028  28.268  30.043  1.00  0.00     0.167 HD
ATOM     56  C   UNL A   1      45.417  25.848  29.583  1.00  0.00     0.074 A 
ATOM     57  C   UNL A   1      45.707  24.497  29.152  1.00  0.00     0.031 C 
ATOM     58  C   UNL A   1      46.323  26.674  30.161  1.00  0.00     0.031 A 
BRANCH  45  59
ATOM     59  C   UNL A   1      44.136  32.292  31.457  1.00  0.00    -0.014 A 
ATOM     60  C   UNL A   1      43.973  32.624  32.810  1.00  0.00     0.009 A 
ATOM     61  C   UNL A   1      44.636  33.263  30.575  1.00  0.00     0.009 A 
ATOM     62  C   UNL A   1      44.277  33.908  33.266  1.00  0.00     0.001 A 
ATOM     63  C   UNL A   1      44.967  34.539  31.038  1.00  0.00     0.001 A 
ATOM     64  C   UNL A   1      44.779  34.862  32.381  1.00  0.00     0.000 A 
ENDBRANCH  45  59
BRANCH  46  65
ATOM     65  C   UNL A   1      41.959  23.360  27.602  1.00  0.00    -0.014 A 
ATOM     66  C   UNL A   1      41.397  22.318  28.354  1.00  0.00     0.009 A 
ATOM     67  C   UNL A   1      42.263  23.133  26.250  1.00  0.00     0.009 A 
ATOM     68  C   UNL A   1      41.176  21.066  27.775  1.00  0.00     0.001 A 
ATOM     69  C   UNL A   1      42.011  21.889  25.666  1.00  0.00     0.001 A 
ATOM     70  C   UNL A   1      41.479  20.855  26.432  1.00  0.00     0.000 A 
ENDBRANCH  46  65
BRANCH  58  71
ATOM     71  C   UNL A   1      47.703  26.129  30.399  1.00  0.00    -0.014 A 
ATOM     72  C   UNL A   1      48.652  26.070  29.366  1.00  0.00     0.009 A 
ATOM     73  C   UNL A   1      48.074  25.720  31.689  1.00  0.00     0.009 A 
ATOM     74  C   UNL A   1      49.937  25.584  29.618  1.00  0.00     0.001 A 
ATOM     75  C   UNL A   1      49.367  25.264  31.945  1.00  0.00     0.001 A 
ATOM     76  C   UNL A   1      50.295  25.189  30.907  1.00  0.00     0.000 A 
ENDBRANCH  58  71
ENDBRANCH  32  33
ENDBRANCH  24  27
ENDBRANCH  22  23
ENDBRANCH   1  22
TORSDOF 13
ENDMDL
MODEL 2
REMARK VINA RESULT:     -10.4      2.445      7.237
REMARK SMILES CC1([C@](C)(Nc2cccc(Cl)c2)C(=O)NCCCNC(=O)c2ccc(-c3c4nc(c(-c5ccccc5)c5ccc([nH]5)c(-c5ccccc5)c5nc(c(-c6ccccc6)c6ccc3[nH]6)C=C5)C=C4)cc2)CC1
REMARK SMILES IDX 17 1 16 2 15 3 13 4 14 5 3 7 4 8 2 9 1 10 70 11 71 12 5 13
REMARK SMILES IDX 6 15 7 16 12 17 8 18 10 19 9 20 11 21 18 22 19 23 20 24
REMARK SMILES IDX 21 26 22 27 23 28 69 29 24 30 68 31 25 32 26 33 27 34 62 35
REMARK SMILES IDX 28 36 67 37 61 38 63 39 29 40 66 41 60 42 59 43 30 45 52 46
REMARK SMILES IDX 37 47 51 48 38 49 41 50 50 51 64 52 39 53 40 54 49 56 65 57
REMARK SMILES IDX 42 58 31 59 32 60 36 61 33 62 35 63 34 64 53 65 54 66 58 67
REMARK SMILES IDX 55 68 57 69 56 70 43 71 44 72 48 73 45 74 47 75 46 76
REMARK H PARENT 15 6 5 14 19 25 63 44 41 55
REMARK Flexibility Score: inf
ROOT
ATOM      1  C   UNL A   1      37.297  19.681  25.008  1.00  0.00     0.042 C 
ENDROOT
BRANCH   1   2
ATOM      2  C   UNL A   1      36.090  20.609  24.925  1.00  0.00     0.117 C 
BRANCH   2   3
ATOM      3  N   UNL A   1      35.551  21.042  26.201  1.00  0.00    -0.354 N 
ATOM      4  C   UNL A   1      34.316  21.524  26.544  1.00  0.00     0.245 C 
ATOM      5  O   UNL A   1      34.163  21.803  27.740  1.00  0.00    -0.272 OA
ATOM      6  H   UNL A   1      36.185  20.978  26.951  1.00  0.00     0.163 HD
BRANCH   4   7
ATOM      7  C   UNL A   1      33.153  21.700  25.498  1.00  0.00     0.119 C 
ATOM      8  C   UNL A   1      33.747  21.953  24.085  1.00  0.00     0.046 C 
BRANCH   7   9
ATOM      9  C   UNL A   1      32.319  22.993  25.869  1.00  0.00    -0.001 C 
ATOM     10  C   UNL A   1      33.151  24.272  25.920  1.00  0.00     0.014 C 
ATOM     11  C   UNL A   1      31.116  22.937  26.812  1.00  0.00     0.010 C 
ATOM     12  C   UNL A   1      30.888  23.177  25.359  1.00  0.00     0.010 C 
ENDBRANCH   7   9
BRANCH   7  13
ATOM     13  N   UNL A   1      32.297  20.487  25.373  1.00  0.00    -0.371 N 
ATOM     14  H   UNL A   1      31.441  20.500  25.858  1.00  0.00     0.161 HD
BRANCH  13  15
ATOM     15  C   UNL A   1      32.581  19.333  24.639  1.00  0.00     0.036 A 
ATOM     16  C   UNL A   1      32.213  19.121  23.303  1.00  0.00     0.026 A 
ATOM     17  C   UNL A   1      33.362  18.328  25.233  1.00  0.00     0.046 A 
ATOM     18  C   UNL A   1      32.675  18.026  22.560  1.00  0.00     0.004 A 
ATOM     19  C   UNL A   1      33.785  17.205  24.509  1.00  0.00     0.043 A 
ATOM     20  C   UNL A   1      33.470  17.064  23.163  1.00  0.00     0.020 A 
ATOM     21  Cl  UNL A   1      34.718  15.983  25.287  1.00  0.00    -0.084 Cl
ENDBRANCH  13  15
ENDBRANCH   7  13
ENDBRANCH   4   7
ENDBRANCH   2   3
ENDBRANCH   1   2
BRANCH   1  22
ATOM     22  C   UNL A   1      38.595  20.371  25.389  1.00  0.00     0.118 C 
BRANCH  22  23
ATOM     23  N   UNL A   1      39.661  19.414  25.641  1.00  0.00    -0.352 N 
ATOM     24  C   UNL A   1      40.950  19.640  26.058  1.00  0.00     0.251 C 
ATOM     25  H   UNL A   1      39.424  18.470  25.492  1.00  0.00     0.163 HD
ATOM     26  O   UNL A   1      41.785  18.744  25.977  1.00  0.00    -0.269 OA
BRANCH  24  27
ATOM     27  C   UNL A   1      41.340  20.964  26.593  1.00  0.00     0.039 A 
ATOM     28  C   UNL A   1      41.212  21.204  27.964  1.00  0.00     0.014 A 
ATOM     29  C   UNL A   1      41.798  21.977  25.746  1.00  0.00     0.014 A 
ATOM     30  C   UNL A   1      41.591  22.443  28.491  1.00  0.00     0.010 A 
ATOM     31  C   UNL A   1      42.246  23.183  26.282  1.00  0.00     0.010 A 
ATOM     32  C   UNL A   1      42.134  23.433  27.658  1.00  0.00    -0.014 A 
BRANCH  32  33
ATOM     33  C   UNL A   1      42.568  24.747  28.201  1.00  0.00     0.031 A 
ATOM     34  C   UNL A   1      41.560  25.841  28.424  1.00  0.00     0.074 A 
ATOM     35  C   UNL A   1      43.875  24.980  28.435  1.00  0.00     0.049 A 
ATOM     36  N   UNL A   1      41.752  27.075  28.819  1.00  0.00    -0.248 NA
ATOM     37  C   UNL A   1      40.151  25.516  28.144  1.00  0.00     0.031 C 
ATOM     38  C   UNL A   1      44.960  24.019  28.227  1.00  0.00     0.029 A 
ATOM     39  N   UNL A   1      44.513  26.108  28.888  1.00  0.00    -0.354 N 
ATOM     40  C   UNL A   1      40.499  27.675  28.809  1.00  0.00     0.074 A 
ATOM     41  C   UNL A   1      39.558  26.686  28.333  1.00  0.00     0.031 C 
ATOM     42  C   UNL A   1      46.127  24.594  28.564  1.00  0.00     0.029 A 
ATOM     43  C   UNL A   1      45.878  25.973  28.973  1.00  0.00     0.049 A 
ATOM     44  H   UNL A   1      44.038  26.937  29.128  1.00  0.00     0.167 HD
ATOM     45  C   UNL A   1      40.158  28.932  29.179  1.00  0.00     0.031 A 
ATOM     46  C   UNL A   1      46.826  26.863  29.327  1.00  0.00     0.031 A 
ATOM     47  C   UNL A   1      41.087  29.911  29.674  1.00  0.00     0.049 A 
ATOM     48  C   UNL A   1      46.420  28.254  29.726  1.00  0.00     0.074 A 
ATOM     49  C   UNL A   1      40.822  31.188  30.143  1.00  0.00     0.029 A 
ATOM     50  N   UNL A   1      42.457  29.727  29.765  1.00  0.00    -0.354 N 
ATOM     51  N   UNL A   1      45.221  28.780  29.787  1.00  0.00    -0.248 NA
ATOM     52  C   UNL A   1      47.499  29.174  30.115  1.00  0.00     0.031 C 
ATOM     53  C   UNL A   1      42.040  31.795  30.464  1.00  0.00     0.029 A 
ATOM     54  C   UNL A   1      43.055  30.876  30.253  1.00  0.00     0.049 A 
ATOM     55  H   UNL A   1      42.933  28.901  29.519  1.00  0.00     0.167 HD
ATOM     56  C   UNL A   1      45.399  30.078  30.248  1.00  0.00     0.074 A 
ATOM     57  C   UNL A   1      46.819  30.257  30.466  1.00  0.00     0.031 C 
ATOM     58  C   UNL A   1      44.468  31.038  30.471  1.00  0.00     0.031 A 
BRANCH  45  59
ATOM     59  C   UNL A   1      38.714  29.331  29.052  1.00  0.00    -0.014 A 
ATOM     60  C   UNL A   1      38.191  29.798  27.837  1.00  0.00     0.009 A 
ATOM     61  C   UNL A   1      37.853  29.181  30.150  1.00  0.00     0.009 A 
ATOM     62  C   UNL A   1      36.839  30.134  27.732  1.00  0.00     0.001 A 
ATOM     63  C   UNL A   1      36.496  29.491  30.035  1.00  0.00     0.001 A 
ATOM     64  C   UNL A   1      35.993  29.974  28.828  1.00  0.00     0.000 A 
ENDBRANCH  45  59
BRANCH  46  65
ATOM     65  C   UNL A   1      48.260  26.471  29.314  1.00  0.00    -0.014 A 
ATOM     66  C   UNL A   1      48.857  25.900  30.448  1.00  0.00     0.009 A 
ATOM     67  C   UNL A   1      49.047  26.688  28.172  1.00  0.00     0.009 A 
ATOM     68  C   UNL A   1      50.218  25.586  30.451  1.00  0.00     0.001 A 
ATOM     69  C   UNL A   1      50.401  26.343  28.167  1.00  0.00     0.001 A 
ATOM     70  C   UNL A   1      50.987  25.804  29.310  1.00  0.00     0.000 A 
ENDBRANCH  46  65
BRANCH  58  71
ATOM     71  C   UNL A   1      44.946  32.354  31.013  1.00  0.00    -0.014 A 
ATOM     72  C   UNL A   1      45.071  32.573  32.394  1.00  0.00     0.009 A 
ATOM     73  C   UNL A   1      45.329  33.372  30.125  1.00  0.00     0.009 A 
ATOM     74  C   UNL A   1      45.544  33.797  32.874  1.00  0.00     0.001 A 
ATOM     75  C   UNL A   1      45.828  34.582  30.606  1.00  0.00     0.001 A 
ATOM     76  C   UNL A   1      45.928  34.797  31.979  1.00  0.00     0.000 A 
ENDBRANCH  58  71
ENDBRANCH  32  33
ENDBRANCH  24  27
ENDBRANCH  22  23
ENDBRANCH   1  22
TORSDOF 13
ENDMDL
MODEL 3
REMARK VINA RESULT:     -10.4      2.397      7.378
REMARK SMILES CC1([C@](C)(Nc2cccc(Cl)c2)C(=O)NCCCNC(=O)c2ccc(-c3c4nc(c(-c5ccccc5)c5ccc([nH]5)c(-c5ccccc5)c5nc(c(-c6ccccc6)c6ccc3[nH]6)C=C5)C=C4)cc2)CC1
REMARK SMILES IDX 17 1 16 2 15 3 13 4 14 5 3 7 4 8 2 9 1 10 70 11 71 12 5 13
REMARK SMILES IDX 6 15 7 16 12 17 8 18 10 19 9 20 11 21 18 22 19 23 20 24
REMARK SMILES IDX 21 26 22 27 23 28 69 29 24 30 68 31 25 32 26 33 27 34 62 35
REMARK SMILES IDX 28 36 67 37 61 38 63 39 29 40 66 41 60 42 59 43 30 45 52 46
REMARK SMILES IDX 37 47 51 48 38 49 41 50 50 51 64 52 39 53 40 54 49 56 65 57
REMARK SMILES IDX 42 58 31 59 32 60 36 61 33 62 35 63 34 64 53 65 54 66 58 67
REMARK SMILES IDX 55 68 57 69 56 70 43 71 44 72 48 73 45 74 47 75 46 76
REMARK H PARENT 15 6 5 14 19 25 63 44 41 55
REMARK Flexibility Score: inf
ROOT
ATOM      1  C   UNL A   1      37.351  19.671  24.998  1.00  0.00     0.042 C 
ENDROOT
BRANCH   1   2
ATOM      2  C   UNL A   1      36.119  20.565  24.911  1.00  0.00     0.117 C 
BRANCH   2   3
ATOM      3  N   UNL A   1      35.597  21.027  26.184  1.00  0.00    -0.354 N 
ATOM      4  C   UNL A   1      34.366  21.517  26.532  1.00  0.00     0.245 C 
ATOM      5  O   UNL A   1      34.229  21.824  27.723  1.00  0.00    -0.272 OA
ATOM      6  H   UNL A   1      36.240  20.979  26.927  1.00  0.00     0.163 HD
BRANCH   4   7
ATOM      7  C   UNL A   1      33.191  21.671  25.497  1.00  0.00     0.119 C 
ATOM      8  C   UNL A   1      33.767  21.910  24.074  1.00  0.00     0.046 C 
BRANCH   7   9
ATOM      9  C   UNL A   1      32.351  22.962  25.860  1.00  0.00    -0.001 C 
ATOM     10  C   UNL A   1      33.182  24.242  25.929  1.00  0.00     0.014 C 
ATOM     11  C   UNL A   1      31.134  22.902  26.785  1.00  0.00     0.010 C 
ATOM     12  C   UNL A   1      30.928  23.149  25.330  1.00  0.00     0.010 C 
ENDBRANCH   7   9
BRANCH   7  13
ATOM     13  N   UNL A   1      32.343  20.450  25.397  1.00  0.00    -0.371 N 
ATOM     14  H   UNL A   1      31.496  20.460  25.898  1.00  0.00     0.161 HD
BRANCH  13  15
ATOM     15  C   UNL A   1      32.622  19.293  24.667  1.00  0.00     0.036 A 
ATOM     16  C   UNL A   1      32.252  19.077  23.332  1.00  0.00     0.026 A 
ATOM     17  C   UNL A   1      33.402  18.288  25.263  1.00  0.00     0.046 A 
ATOM     18  C   UNL A   1      32.710  17.979  22.592  1.00  0.00     0.004 A 
ATOM     19  C   UNL A   1      33.821  17.161  24.543  1.00  0.00     0.043 A 
ATOM     20  C   UNL A   1      33.503  17.016  23.197  1.00  0.00     0.020 A 
ATOM     21  Cl  UNL A   1      34.752  15.940  25.323  1.00  0.00    -0.084 Cl
ENDBRANCH  13  15
ENDBRANCH   7  13
ENDBRANCH   4   7
ENDBRANCH   2   3
ENDBRANCH   1   2
BRANCH   1  22
ATOM     22  C   UNL A   1      38.584  20.353  25.566  1.00  0.00     0.118 C 
BRANCH  22  23
ATOM     23  N   UNL A   1      39.685  19.420  25.739  1.00  0.00    -0.352 N 
ATOM     24  C   UNL A   1      40.992  19.672  26.082  1.00  0.00     0.251 C 
ATOM     25  H   UNL A   1      39.463  18.472  25.590  1.00  0.00     0.163 HD
ATOM     26  O   UNL A   1      41.842  18.799  25.937  1.00  0.00    -0.269 OA
BRANCH  24  27
ATOM     27  C   UNL A   1      41.381  20.998  26.613  1.00  0.00     0.039 A 
ATOM     28  C   UNL A   1      41.927  21.943  25.739  1.00  0.00     0.014 A 
ATOM     29  C   UNL A   1      41.242  21.300  27.970  1.00  0.00     0.014 A 
ATOM     30  C   UNL A   1      42.285  23.207  26.218  1.00  0.00     0.010 A 
ATOM     31  C   UNL A   1      41.528  22.583  28.430  1.00  0.00     0.010 A 
ATOM     32  C   UNL A   1      42.066  23.546  27.562  1.00  0.00    -0.014 A 
BRANCH  32  33
ATOM     33  C   UNL A   1      42.414  24.893  28.086  1.00  0.00     0.031 A 
ATOM     34  C   UNL A   1      43.826  25.194  28.511  1.00  0.00     0.074 A 
ATOM     35  C   UNL A   1      41.452  25.824  28.241  1.00  0.00     0.049 A 
ATOM     36  N   UNL A   1      44.310  26.280  29.060  1.00  0.00    -0.248 NA
ATOM     37  C   UNL A   1      44.822  24.127  28.317  1.00  0.00     0.031 C 
ATOM     38  C   UNL A   1      40.038  25.650  27.903  1.00  0.00     0.029 A 
ATOM     39  N   UNL A   1      41.520  27.103  28.735  1.00  0.00    -0.354 N 
ATOM     40  C   UNL A   1      45.653  26.017  29.298  1.00  0.00     0.074 A 
ATOM     41  C   UNL A   1      45.902  24.658  28.872  1.00  0.00     0.031 C 
ATOM     42  C   UNL A   1      39.376  26.784  28.187  1.00  0.00     0.029 A 
ATOM     43  C   UNL A   1      40.308  27.749  28.763  1.00  0.00     0.049 A 
ATOM     44  H   UNL A   1      42.358  27.519  29.043  1.00  0.00     0.167 HD
ATOM     45  C   UNL A   1      46.600  26.839  29.810  1.00  0.00     0.031 A 
ATOM     46  C   UNL A   1      39.978  28.974  29.216  1.00  0.00     0.031 A 
ATOM     47  C   UNL A   1      46.361  28.198  30.214  1.00  0.00     0.049 A 
ATOM     48  C   UNL A   1      41.048  29.863  29.786  1.00  0.00     0.074 A 
ATOM     49  C   UNL A   1      47.276  29.130  30.676  1.00  0.00     0.029 A 
ATOM     50  N   UNL A   1      45.124  28.819  30.206  1.00  0.00    -0.354 N 
ATOM     51  N   UNL A   1      42.329  29.626  29.930  1.00  0.00    -0.248 NA
ATOM     52  C   UNL A   1      40.627  31.194  30.249  1.00  0.00     0.031 C 
ATOM     53  C   UNL A   1      46.579  30.299  31.001  1.00  0.00     0.029 A 
ATOM     54  C   UNL A   1      45.244  30.113  30.685  1.00  0.00     0.049 A 
ATOM     55  H   UNL A   1      44.284  28.403  29.905  1.00  0.00     0.167 HD
ATOM     56  C   UNL A   1      42.871  30.786  30.470  1.00  0.00     0.074 A 
ATOM     57  C   UNL A   1      41.784  31.731  30.615  1.00  0.00     0.031 C 
ATOM     58  C   UNL A   1      44.155  31.045  30.817  1.00  0.00     0.031 A 
BRANCH  45  59
ATOM     59  C   UNL A   1      47.988  26.287  29.977  1.00  0.00    -0.014 A 
ATOM     60  C   UNL A   1      48.424  25.766  31.205  1.00  0.00     0.009 A 
ATOM     61  C   UNL A   1      48.852  26.234  28.872  1.00  0.00     0.009 A 
ATOM     62  C   UNL A   1      49.707  25.230  31.330  1.00  0.00     0.001 A 
ATOM     63  C   UNL A   1      50.125  25.672  28.992  1.00  0.00     0.001 A 
ATOM     64  C   UNL A   1      50.554  25.178  30.223  1.00  0.00     0.000 A 
ENDBRANCH  45  59
BRANCH  46  65
ATOM     65  C   UNL A   1      38.567  29.438  29.155  1.00  0.00    -0.014 A 
ATOM     66  C   UNL A   1      38.070  30.074  28.008  1.00  0.00     0.009 A 
ATOM     67  C   UNL A   1      37.714  29.266  30.257  1.00  0.00     0.009 A 
ATOM     68  C   UNL A   1      36.760  30.558  27.977  1.00  0.00     0.001 A 
ATOM     69  C   UNL A   1      36.394  29.723  30.212  1.00  0.00     0.001 A 
ATOM     70  C   UNL A   1      35.923  30.379  29.077  1.00  0.00     0.000 A 
ENDBRANCH  46  65
BRANCH  58  71
ATOM     71  C   UNL A   1      44.467  32.414  31.349  1.00  0.00    -0.014 A 
ATOM     72  C   UNL A   1      44.795  33.474  30.490  1.00  0.00     0.009 A 
ATOM     73  C   UNL A   1      44.377  32.658  32.729  1.00  0.00     0.009 A 
ATOM     74  C   UNL A   1      45.055  34.745  31.007  1.00  0.00     0.001 A 
ATOM     75  C   UNL A   1      44.607  33.936  33.239  1.00  0.00     0.001 A 
ATOM     76  C   UNL A   1      44.954  34.976  32.379  1.00  0.00     0.000 A 
ENDBRANCH  58  71
ENDBRANCH  32  33
ENDBRANCH  24  27
ENDBRANCH  22  23
ENDBRANCH   1  22
TORSDOF 13
ENDMDL
