MODEL 1
REMARK VINA RESULT:     -11.0      0.000      0.000
REMARK SMILES Cc1cc(F)c(C(=O)NCCCNC(=O)c2ccc(-c3c4nc(c(-c5ccccc5)c5ccc([nH]5)c(-c5ccccc5)c5nc(c(-c6ccccc6)c6ccc3[nH]6)C=C5)C=C4)cc2)cc1F
REMARK SMILES IDX 12 1 11 2 10 3 9 4 7 5 8 6 6 8 1 9 2 10 3 11 65 12 4 13
REMARK SMILES IDX 64 14 66 15 5 16 13 17 14 18 15 20 16 21 17 22 63 23 18 24
REMARK SMILES IDX 62 25 19 26 20 27 21 28 56 29 22 30 61 31 55 32 57 33 23 34
REMARK SMILES IDX 60 35 54 36 53 37 24 39 46 40 31 41 45 42 32 43 35 44 44 45
REMARK SMILES IDX 58 46 33 47 34 48 43 50 59 51 36 52 25 53 26 54 30 55 27 56
REMARK SMILES IDX 29 57 28 58 47 59 48 60 52 61 49 62 51 63 50 64 37 65 38 66
REMARK SMILES IDX 42 67 39 68 41 69 40 70
REMARK H PARENT 9 7 13 19 57 38 35 49
REMARK Flexibility Score: inf
ROOT
ATOM      1  C   UNL A   1      38.256  20.765  25.464  1.00  0.00     0.118 C 
ENDROOT
BRANCH   1   2
ATOM      2  C   UNL A   1      37.000  20.345  24.714  1.00  0.00     0.042 C 
BRANCH   2   3
ATOM      3  C   UNL A   1      35.713  20.972  25.229  1.00  0.00     0.118 C 
BRANCH   3   4
ATOM      4  N   UNL A   1      34.606  20.030  25.335  1.00  0.00    -0.352 N 
ATOM      5  C   UNL A   1      33.241  20.160  25.257  1.00  0.00     0.254 C 
ATOM      6  O   UNL A   1      32.567  19.141  25.395  1.00  0.00    -0.269 OA
ATOM      7  H   UNL A   1      34.899  19.104  25.497  1.00  0.00     0.163 HD
BRANCH   5   8
ATOM      8  C   UNL A   1      32.568  21.459  25.026  1.00  0.00     0.078 A 
ATOM      9  C   UNL A   1      30.358  25.083  24.235  1.00  0.00     0.047 C 
ATOM     10  C   UNL A   1      31.189  23.864  24.497  1.00  0.00    -0.012 A 
ATOM     11  C   UNL A   1      31.524  22.997  23.453  1.00  0.00     0.046 A 
ATOM     12  C   UNL A   1      31.605  23.538  25.788  1.00  0.00     0.127 A 
ATOM     13  C   UNL A   1      32.200  21.804  23.720  1.00  0.00     0.136 A 
ATOM     14  C   UNL A   1      32.327  22.375  26.050  1.00  0.00     0.056 A 
ATOM     15  F   UNL A   1      31.300  24.343  26.814  1.00  0.00    -0.207 F 
ATOM     16  F   UNL A   1      32.457  20.992  22.684  1.00  0.00    -0.206 F 
ENDBRANCH   5   8
ENDBRANCH   3   4
ENDBRANCH   2   3
ENDBRANCH   1   2
BRANCH   1  17
ATOM     17  N   UNL A   1      39.272  19.720  25.532  1.00  0.00    -0.352 N 
ATOM     18  C   UNL A   1      40.589  19.739  25.936  1.00  0.00     0.251 C 
ATOM     19  H   UNL A   1      38.958  18.836  25.232  1.00  0.00     0.163 HD
ATOM     20  O   UNL A   1      41.286  18.750  25.759  1.00  0.00    -0.269 OA
BRANCH  18  21
ATOM     21  C   UNL A   1      41.187  20.954  26.539  1.00  0.00     0.039 A 
ATOM     22  C   UNL A   1      41.154  21.176  27.912  1.00  0.00     0.014 A 
ATOM     23  C   UNL A   1      41.812  21.892  25.707  1.00  0.00     0.014 A 
ATOM     24  C   UNL A   1      41.518  22.417  28.422  1.00  0.00     0.010 A 
ATOM     25  C   UNL A   1      42.295  23.092  26.241  1.00  0.00     0.010 A 
ATOM     26  C   UNL A   1      42.091  23.395  27.594  1.00  0.00    -0.014 A 
BRANCH  26  27
ATOM     27  C   UNL A   1      42.456  24.717  28.172  1.00  0.00     0.031 A 
ATOM     28  C   UNL A   1      43.895  25.069  28.451  1.00  0.00     0.074 A 
ATOM     29  C   UNL A   1      41.492  25.638  28.373  1.00  0.00     0.049 A 
ATOM     30  N   UNL A   1      44.393  26.193  28.903  1.00  0.00    -0.248 NA
ATOM     31  C   UNL A   1      44.907  24.032  28.194  1.00  0.00     0.031 C 
ATOM     32  C   UNL A   1      40.064  25.430  28.122  1.00  0.00     0.029 A 
ATOM     33  N   UNL A   1      41.567  26.944  28.791  1.00  0.00    -0.354 N 
ATOM     34  C   UNL A   1      45.763  25.989  29.008  1.00  0.00     0.074 A 
ATOM     35  C   UNL A   1      46.020  24.626  28.599  1.00  0.00     0.031 C 
ATOM     36  C   UNL A   1      39.412  26.586  28.309  1.00  0.00     0.029 A 
ATOM     37  C   UNL A   1      40.357  27.595  28.774  1.00  0.00     0.049 A 
ATOM     38  H   UNL A   1      42.407  27.372  29.075  1.00  0.00     0.167 HD
ATOM     39  C   UNL A   1      46.722  26.861  29.400  1.00  0.00     0.031 A 
ATOM     40  C   UNL A   1      40.032  28.860  29.104  1.00  0.00     0.031 A 
ATOM     41  C   UNL A   1      46.469  28.224  29.785  1.00  0.00     0.049 A 
ATOM     42  C   UNL A   1      41.106  29.793  29.579  1.00  0.00     0.074 A 
ATOM     43  C   UNL A   1      47.385  29.189  30.171  1.00  0.00     0.029 A 
ATOM     44  N   UNL A   1      45.218  28.816  29.832  1.00  0.00    -0.354 N 
ATOM     45  N   UNL A   1      42.397  29.582  29.668  1.00  0.00    -0.248 NA
ATOM     46  C   UNL A   1      40.683  31.134  30.005  1.00  0.00     0.031 C 
ATOM     47  C   UNL A   1      46.681  30.345  30.512  1.00  0.00     0.029 A 
ATOM     48  C   UNL A   1      45.333  30.125  30.271  1.00  0.00     0.049 A 
ATOM     49  H   UNL A   1      44.372  28.373  29.591  1.00  0.00     0.167 HD
ATOM     50  C   UNL A   1      42.942  30.763  30.153  1.00  0.00     0.074 A 
ATOM     51  C   UNL A   1      41.845  31.695  30.317  1.00  0.00     0.031 C 
ATOM     52  C   UNL A   1      44.236  31.043  30.440  1.00  0.00     0.031 A 
BRANCH  39  53
ATOM     53  C   UNL A   1      48.146  26.375  29.451  1.00  0.00    -0.014 A 
ATOM     54  C   UNL A   1      48.646  25.817  30.640  1.00  0.00     0.009 A 
ATOM     55  C   UNL A   1      49.019  26.550  28.368  1.00  0.00     0.009 A 
ATOM     56  C   UNL A   1      49.989  25.456  30.747  1.00  0.00     0.001 A 
ATOM     57  C   UNL A   1      50.357  26.161  28.467  1.00  0.00     0.001 A 
ATOM     58  C   UNL A   1      50.843  25.624  29.658  1.00  0.00     0.000 A 
ENDBRANCH  39  53
BRANCH  40  59
ATOM     59  C   UNL A   1      38.616  29.300  28.986  1.00  0.00    -0.014 A 
ATOM     60  C   UNL A   1      37.747  29.212  30.087  1.00  0.00     0.009 A 
ATOM     61  C   UNL A   1      38.107  29.740  27.756  1.00  0.00     0.009 A 
ATOM     62  C   UNL A   1      36.393  29.516  29.950  1.00  0.00     0.001 A 
ATOM     63  C   UNL A   1      36.756  30.077  27.630  1.00  0.00     0.001 A 
ATOM     64  C   UNL A   1      35.898  29.951  28.722  1.00  0.00     0.000 A 
ENDBRANCH  40  59
BRANCH  52  65
ATOM     65  C   UNL A   1      44.559  32.415  30.958  1.00  0.00    -0.014 A 
ATOM     66  C   UNL A   1      45.008  33.408  30.071  1.00  0.00     0.009 A 
ATOM     67  C   UNL A   1      44.524  32.695  32.332  1.00  0.00     0.009 A 
ATOM     68  C   UNL A   1      45.433  34.646  30.551  1.00  0.00     0.001 A 
ATOM     69  C   UNL A   1      44.924  33.947  32.807  1.00  0.00     0.001 A 
ATOM     70  C   UNL A   1      45.388  34.916  31.918  1.00  0.00     0.000 A 
ENDBRANCH  52  65
ENDBRANCH  26  27
ENDBRANCH  18  21
ENDBRANCH   1  17
TORSDOF 10
ENDMDL
MODEL 2
REMARK VINA RESULT:     -11.0      5.385      9.915
REMARK SMILES Cc1cc(F)c(C(=O)NCCCNC(=O)c2ccc(-c3c4nc(c(-c5ccccc5)c5ccc([nH]5)c(-c5ccccc5)c5nc(c(-c6ccccc6)c6ccc3[nH]6)C=C5)C=C4)cc2)cc1F
REMARK SMILES IDX 12 1 11 2 10 3 9 4 7 5 8 6 6 8 1 9 2 10 3 11 65 12 4 13
REMARK SMILES IDX 64 14 66 15 5 16 13 17 14 18 15 20 16 21 17 22 63 23 18 24
REMARK SMILES IDX 62 25 19 26 20 27 21 28 56 29 22 30 61 31 55 32 57 33 23 34
REMARK SMILES IDX 60 35 54 36 53 37 24 39 46 40 31 41 45 42 32 43 35 44 44 45
REMARK SMILES IDX 58 46 33 47 34 48 43 50 59 51 36 52 25 53 26 54 30 55 27 56
REMARK SMILES IDX 29 57 28 58 47 59 48 60 52 61 49 62 51 63 50 64 37 65 38 66
REMARK SMILES IDX 42 67 39 68 41 69 40 70
REMARK H PARENT 9 7 13 19 57 38 35 49
REMARK Flexibility Score: inf
ROOT
ATOM      1  C   UNL A   1      32.569  32.816  27.246  1.00  0.00     0.118 C 
ENDROOT
BRANCH   1   2
ATOM      2  C   UNL A   1      31.399  32.189  26.502  1.00  0.00     0.042 C 
BRANCH   2   3
ATOM      3  C   UNL A   1      31.586  30.722  26.143  1.00  0.00     0.118 C 
BRANCH   3   4
ATOM      4  N   UNL A   1      31.044  30.366  24.839  1.00  0.00    -0.352 N 
ATOM      5  C   UNL A   1      31.028  29.205  24.105  1.00  0.00     0.254 C 
ATOM      6  O   UNL A   1      30.474  29.238  23.008  1.00  0.00    -0.269 OA
ATOM      7  H   UNL A   1      30.595  31.117  24.388  1.00  0.00     0.163 HD
BRANCH   5   8
ATOM      8  C   UNL A   1      31.648  27.946  24.577  1.00  0.00     0.078 A 
ATOM      9  C   UNL A   1      33.658  24.453  26.126  1.00  0.00     0.047 C 
ATOM     10  C   UNL A   1      32.945  25.626  25.525  1.00  0.00    -0.012 A 
ATOM     11  C   UNL A   1      33.648  26.569  24.769  1.00  0.00     0.046 A 
ATOM     12  C   UNL A   1      31.583  25.834  25.745  1.00  0.00     0.127 A 
ATOM     13  C   UNL A   1      33.003  27.720  24.308  1.00  0.00     0.136 A 
ATOM     14  C   UNL A   1      30.925  26.953  25.239  1.00  0.00     0.056 A 
ATOM     15  F   UNL A   1      30.879  24.953  26.467  1.00  0.00    -0.207 F 
ATOM     16  F   UNL A   1      33.737  28.609  23.624  1.00  0.00    -0.206 F 
ENDBRANCH   5   8
ENDBRANCH   3   4
ENDBRANCH   2   3
ENDBRANCH   1   2
BRANCH   1  17
ATOM     17  N   UNL A   1      32.338  34.202  27.637  1.00  0.00    -0.352 N 
ATOM     18  C   UNL A   1      32.958  35.017  28.558  1.00  0.00     0.251 C 
ATOM     19  H   UNL A   1      31.600  34.637  27.151  1.00  0.00     0.163 HD
ATOM     20  O   UNL A   1      32.478  36.114  28.810  1.00  0.00    -0.269 OA
BRANCH  18  21
ATOM     21  C   UNL A   1      34.170  34.567  29.285  1.00  0.00     0.039 A 
ATOM     22  C   UNL A   1      35.443  34.740  28.751  1.00  0.00     0.014 A 
ATOM     23  C   UNL A   1      34.027  33.968  30.543  1.00  0.00     0.014 A 
ATOM     24  C   UNL A   1      36.533  34.113  29.344  1.00  0.00     0.010 A 
ATOM     25  C   UNL A   1      35.146  33.447  31.202  1.00  0.00     0.010 A 
ATOM     26  C   UNL A   1      36.401  33.454  30.576  1.00  0.00    -0.014 A 
BRANCH  26  27
ATOM     27  C   UNL A   1      37.587  32.782  31.174  1.00  0.00     0.031 A 
ATOM     28  C   UNL A   1      38.111  33.195  32.526  1.00  0.00     0.074 A 
ATOM     29  C   UNL A   1      38.148  31.739  30.531  1.00  0.00     0.049 A 
ATOM     30  N   UNL A   1      39.099  32.682  33.216  1.00  0.00    -0.248 NA
ATOM     31  C   UNL A   1      37.446  34.328  33.191  1.00  0.00     0.031 C 
ATOM     32  C   UNL A   1      37.722  31.226  29.227  1.00  0.00     0.029 A 
ATOM     33  N   UNL A   1      39.166  30.895  30.901  1.00  0.00    -0.354 N 
ATOM     34  C   UNL A   1      39.189  33.442  34.376  1.00  0.00     0.074 A 
ATOM     35  C   UNL A   1      38.175  34.469  34.289  1.00  0.00     0.031 C 
ATOM     36  C   UNL A   1      38.411  30.112  28.946  1.00  0.00     0.029 A 
ATOM     37  C   UNL A   1      39.387  29.876  30.005  1.00  0.00     0.049 A 
ATOM     38  H   UNL A   1      39.687  31.008  31.729  1.00  0.00     0.167 HD
ATOM     39  C   UNL A   1      40.034  33.291  35.424  1.00  0.00     0.031 A 
ATOM     40  C   UNL A   1      40.279  28.867  30.019  1.00  0.00     0.031 A 
ATOM     41  C   UNL A   1      41.028  32.256  35.520  1.00  0.00     0.049 A 
ATOM     42  C   UNL A   1      41.234  28.749  31.170  1.00  0.00     0.074 A 
ATOM     43  C   UNL A   1      41.911  32.010  36.559  1.00  0.00     0.029 A 
ATOM     44  N   UNL A   1      41.271  31.296  34.551  1.00  0.00    -0.354 N 
ATOM     45  N   UNL A   1      41.302  29.476  32.258  1.00  0.00    -0.248 NA
ATOM     46  C   UNL A   1      42.240  27.680  31.093  1.00  0.00     0.031 C 
ATOM     47  C   UNL A   1      42.730  30.941  36.190  1.00  0.00     0.029 A 
ATOM     48  C   UNL A   1      42.312  30.475  34.954  1.00  0.00     0.049 A 
ATOM     49  H   UNL A   1      40.778  31.210  33.703  1.00  0.00     0.167 HD
ATOM     50  C   UNL A   1      42.350  28.950  33.001  1.00  0.00     0.074 A 
ATOM     51  C   UNL A   1      42.875  27.828  32.249  1.00  0.00     0.031 C 
ATOM     52  C   UNL A   1      42.833  29.366  34.196  1.00  0.00     0.031 A 
BRANCH  39  53
ATOM     53  C   UNL A   1      39.942  34.277  36.557  1.00  0.00    -0.014 A 
ATOM     54  C   UNL A   1      39.089  34.011  37.641  1.00  0.00     0.009 A 
ATOM     55  C   UNL A   1      40.617  35.506  36.516  1.00  0.00     0.009 A 
ATOM     56  C   UNL A   1      38.904  34.955  38.652  1.00  0.00     0.001 A 
ATOM     57  C   UNL A   1      40.455  36.438  37.543  1.00  0.00     0.001 A 
ATOM     58  C   UNL A   1      39.592  36.167  38.604  1.00  0.00     0.000 A 
ENDBRANCH  39  53
BRANCH  40  59
ATOM     59  C   UNL A   1      40.291  27.893  28.895  1.00  0.00    -0.014 A 
ATOM     60  C   UNL A   1      39.591  26.678  28.997  1.00  0.00     0.009 A 
ATOM     61  C   UNL A   1      41.060  28.137  27.748  1.00  0.00     0.009 A 
ATOM     62  C   UNL A   1      39.691  25.714  27.993  1.00  0.00     0.001 A 
ATOM     63  C   UNL A   1      41.132  27.183  26.730  1.00  0.00     0.001 A 
ATOM     64  C   UNL A   1      40.460  25.968  26.859  1.00  0.00     0.000 A 
ENDBRANCH  40  59
BRANCH  52  65
ATOM     65  C   UNL A   1      43.990  28.611  34.787  1.00  0.00    -0.014 A 
ATOM     66  C   UNL A   1      43.749  27.528  35.647  1.00  0.00     0.009 A 
ATOM     67  C   UNL A   1      45.311  29.036  34.582  1.00  0.00     0.009 A 
ATOM     68  C   UNL A   1      44.804  26.897  36.304  1.00  0.00     0.001 A 
ATOM     69  C   UNL A   1      46.369  28.384  35.219  1.00  0.00     0.001 A 
ATOM     70  C   UNL A   1      46.113  27.323  36.087  1.00  0.00     0.000 A 
ENDBRANCH  52  65
ENDBRANCH  26  27
ENDBRANCH  18  21
ENDBRANCH   1  17
TORSDOF 10
ENDMDL
MODEL 3
REMARK VINA RESULT:     -11.0      2.694      7.449
REMARK SMILES Cc1cc(F)c(C(=O)NCCCNC(=O)c2ccc(-c3c4nc(c(-c5ccccc5)c5ccc([nH]5)c(-c5ccccc5)c5nc(c(-c6ccccc6)c6ccc3[nH]6)C=C5)C=C4)cc2)cc1F
REMARK SMILES IDX 12 1 11 2 10 3 9 4 7 5 8 6 6 8 1 9 2 10 3 11 65 12 4 13
REMARK SMILES IDX 64 14 66 15 5 16 13 17 14 18 15 20 16 21 17 22 63 23 18 24
REMARK SMILES IDX 62 25 19 26 20 27 21 28 56 29 22 30 61 31 55 32 57 33 23 34
REMARK SMILES IDX 60 35 54 36 53 37 24 39 46 40 31 41 45 42 32 43 35 44 44 45
REMARK SMILES IDX 58 46 33 47 34 48 43 50 59 51 36 52 25 53 26 54 30 55 27 56
REMARK SMILES IDX 29 57 28 58 47 59 48 60 52 61 49 62 51 63 50 64 37 65 38 66
REMARK SMILES IDX 42 67 39 68 41 69 40 70
REMARK H PARENT 9 7 13 19 57 38 35 49
REMARK Flexibility Score: inf
ROOT
ATOM      1  C   UNL A   1      33.387  28.820  27.027  1.00  0.00     0.118 C 
ENDROOT
BRANCH   1   2
ATOM      2  C   UNL A   1      32.011  28.189  27.183  1.00  0.00     0.042 C 
BRANCH   2   3
ATOM      3  C   UNL A   1      31.675  27.131  26.142  1.00  0.00     0.118 C 
BRANCH   3   4
ATOM      4  N   UNL A   1      31.183  25.885  26.714  1.00  0.00    -0.352 N 
ATOM      5  C   UNL A   1      31.594  24.576  26.631  1.00  0.00     0.254 C 
ATOM      6  O   UNL A   1      30.942  23.739  27.250  1.00  0.00    -0.269 OA
ATOM      7  H   UNL A   1      30.386  26.006  27.279  1.00  0.00     0.163 HD
BRANCH   5   8
ATOM      8  C   UNL A   1      32.766  24.151  25.832  1.00  0.00     0.078 A 
ATOM      9  C   UNL A   1      36.075  23.096  23.267  1.00  0.00     0.047 C 
ATOM     10  C   UNL A   1      34.933  23.393  24.189  1.00  0.00    -0.012 A 
ATOM     11  C   UNL A   1      33.620  23.099  23.809  1.00  0.00     0.046 A 
ATOM     12  C   UNL A   1      35.142  24.015  25.421  1.00  0.00     0.127 A 
ATOM     13  C   UNL A   1      32.550  23.482  24.622  1.00  0.00     0.136 A 
ATOM     14  C   UNL A   1      34.080  24.349  26.259  1.00  0.00     0.056 A 
ATOM     15  F   UNL A   1      36.386  24.316  25.817  1.00  0.00    -0.207 F 
ATOM     16  F   UNL A   1      31.312  23.209  24.185  1.00  0.00    -0.206 F 
ENDBRANCH   5   8
ENDBRANCH   3   4
ENDBRANCH   2   3
ENDBRANCH   1   2
BRANCH   1  17
ATOM     17  N   UNL A   1      33.493  30.145  27.628  1.00  0.00    -0.352 N 
ATOM     18  C   UNL A   1      34.516  30.771  28.306  1.00  0.00     0.251 C 
ATOM     19  H   UNL A   1      32.682  30.695  27.531  1.00  0.00     0.163 HD
ATOM     20  O   UNL A   1      34.307  31.847  28.848  1.00  0.00    -0.269 OA
BRANCH  18  21
ATOM     21  C   UNL A   1      35.852  30.139  28.430  1.00  0.00     0.039 A 
ATOM     22  C   UNL A   1      36.232  29.463  29.585  1.00  0.00     0.014 A 
ATOM     23  C   UNL A   1      36.744  30.214  27.352  1.00  0.00     0.014 A 
ATOM     24  C   UNL A   1      37.557  29.080  29.758  1.00  0.00     0.010 A 
ATOM     25  C   UNL A   1      38.044  29.713  27.482  1.00  0.00     0.010 A 
ATOM     26  C   UNL A   1      38.484  29.202  28.711  1.00  0.00    -0.014 A 
BRANCH  26  27
ATOM     27  C   UNL A   1      39.897  28.794  28.938  1.00  0.00     0.031 A 
ATOM     28  C   UNL A   1      40.844  29.677  29.710  1.00  0.00     0.074 A 
ATOM     29  C   UNL A   1      40.310  27.582  28.515  1.00  0.00     0.049 A 
ATOM     30  N   UNL A   1      42.091  29.452  30.043  1.00  0.00    -0.248 NA
ATOM     31  C   UNL A   1      40.333  30.980  30.165  1.00  0.00     0.031 C 
ATOM     32  C   UNL A   1      39.485  26.623  27.775  1.00  0.00     0.029 A 
ATOM     33  N   UNL A   1      41.507  26.930  28.679  1.00  0.00    -0.354 N 
ATOM     34  C   UNL A   1      42.516  30.589  30.719  1.00  0.00     0.074 A 
ATOM     35  C   UNL A   1      41.407  31.516  30.728  1.00  0.00     0.031 C 
ATOM     36  C   UNL A   1      40.169  25.480  27.625  1.00  0.00     0.029 A 
ATOM     37  C   UNL A   1      41.508  25.650  28.179  1.00  0.00     0.049 A 
ATOM     38  H   UNL A   1      42.290  27.341  29.113  1.00  0.00     0.167 HD
ATOM     39  C   UNL A   1      43.719  30.834  31.291  1.00  0.00     0.031 A 
ATOM     40  C   UNL A   1      42.475  24.713  28.155  1.00  0.00     0.031 A 
ATOM     41  C   UNL A   1      44.816  29.902  31.301  1.00  0.00     0.049 A 
ATOM     42  C   UNL A   1      43.814  25.026  28.754  1.00  0.00     0.074 A 
ATOM     43  C   UNL A   1      46.064  30.056  31.881  1.00  0.00     0.029 A 
ATOM     44  N   UNL A   1      44.798  28.649  30.711  1.00  0.00    -0.354 N 
ATOM     45  N   UNL A   1      44.196  26.106  29.392  1.00  0.00    -0.248 NA
ATOM     46  C   UNL A   1      44.858  24.000  28.626  1.00  0.00     0.031 C 
ATOM     47  C   UNL A   1      46.823  28.921  31.587  1.00  0.00     0.029 A 
ATOM     48  C   UNL A   1      46.026  28.031  30.885  1.00  0.00     0.049 A 
ATOM     49  H   UNL A   1      44.029  28.257  30.238  1.00  0.00     0.167 HD
ATOM     50  C   UNL A   1      45.520  25.888  29.748  1.00  0.00     0.074 A 
ATOM     51  C   UNL A   1      45.868  24.564  29.276  1.00  0.00     0.031 C 
ATOM     52  C   UNL A   1      46.367  26.716  30.404  1.00  0.00     0.031 A 
BRANCH  39  53
ATOM     53  C   UNL A   1      43.934  32.171  31.946  1.00  0.00    -0.014 A 
ATOM     54  C   UNL A   1      44.484  33.229  31.202  1.00  0.00     0.009 A 
ATOM     55  C   UNL A   1      43.686  32.365  33.314  1.00  0.00     0.009 A 
ATOM     56  C   UNL A   1      44.791  34.445  31.813  1.00  0.00     0.001 A 
ATOM     57  C   UNL A   1      43.967  33.593  33.917  1.00  0.00     0.001 A 
ATOM     58  C   UNL A   1      44.528  34.628  33.169  1.00  0.00     0.000 A 
ENDBRANCH  39  53
BRANCH  40  59
ATOM     59  C   UNL A   1      42.190  23.390  27.538  1.00  0.00    -0.014 A 
ATOM     60  C   UNL A   1      41.585  22.369  28.289  1.00  0.00     0.009 A 
ATOM     61  C   UNL A   1      42.586  23.118  26.220  1.00  0.00     0.009 A 
ATOM     62  C   UNL A   1      41.419  21.093  27.750  1.00  0.00     0.001 A 
ATOM     63  C   UNL A   1      42.388  21.848  25.672  1.00  0.00     0.001 A 
ATOM     64  C   UNL A   1      41.818  20.834  26.440  1.00  0.00     0.000 A 
ENDBRANCH  40  59
BRANCH  52  65
ATOM     65  C   UNL A   1      47.764  26.229  30.665  1.00  0.00    -0.014 A 
ATOM     66  C   UNL A   1      48.099  25.717  31.930  1.00  0.00     0.009 A 
ATOM     67  C   UNL A   1      48.772  26.375  29.701  1.00  0.00     0.009 A 
ATOM     68  C   UNL A   1      49.418  25.379  32.230  1.00  0.00     0.001 A 
ATOM     69  C   UNL A   1      50.088  26.009  29.995  1.00  0.00     0.001 A 
ATOM     70  C   UNL A   1      50.411  25.522  31.262  1.00  0.00     0.000 A 
ENDBRANCH  52  65
ENDBRANCH  26  27
ENDBRANCH  18  21
ENDBRANCH   1  17
TORSDOF 10
ENDMDL
