MODEL 1
REMARK VINA RESULT:     -11.7      0.000      0.000
REMARK SMILES Cc1ccc(C)c(OCc2ccc(C(=O)NCCCNC(=O)c3ccc(-c4c5nc(c(-c6ccccc6)c6ccc([nH]6)c(-c6ccccc6)c6nc(c(-c7ccccc7)c7ccc4[nH]7)C=C6)C=C5)cc3)cc2)c1C
REMARK SMILES IDX 17 1 16 2 14 3 15 4 13 6 10 7 11 8 72 9 12 10 71 11 9 12
REMARK SMILES IDX 8 13 7 14 1 15 2 16 3 17 73 18 4 19 74 20 5 21 6 22 18 23
REMARK SMILES IDX 19 24 20 25 21 26 22 28 23 29 24 30 70 31 25 32 69 33 26 34
REMARK SMILES IDX 27 35 28 36 63 37 29 38 68 39 62 40 64 41 30 42 67 43 61 44
REMARK SMILES IDX 60 45 31 47 53 48 38 49 52 50 39 51 42 52 51 53 65 54 40 55
REMARK SMILES IDX 41 56 50 58 66 59 43 60 32 61 33 62 37 63 34 64 36 65 35 66
REMARK SMILES IDX 54 67 55 68 59 69 56 70 58 71 57 72 44 73 45 74 49 75 46 76
REMARK SMILES IDX 48 77 47 78
REMARK H PARENT 16 5 20 27 64 46 42 57
REMARK Flexibility Score: inf
ROOT
ATOM      1  C   UNL A   1      36.084  20.368  24.999  1.00  0.00     0.118 C 
ENDROOT
BRANCH   1   2
ATOM      2  N   UNL A   1      34.944  19.481  25.051  1.00  0.00    -0.352 N 
ATOM      3  C   UNL A   1      33.595  19.687  24.959  1.00  0.00     0.251 C 
ATOM      4  O   UNL A   1      32.878  18.706  25.165  1.00  0.00    -0.269 OA
ATOM      5  H   UNL A   1      35.188  18.536  25.178  1.00  0.00     0.163 HD
BRANCH   3   6
ATOM      6  C   UNL A   1      32.966  20.979  24.556  1.00  0.00     0.039 A 
ATOM      7  C   UNL A   1      31.398  23.274  23.932  1.00  0.00    -0.011 A 
ATOM      8  C   UNL A   1      31.344  22.677  25.193  1.00  0.00     0.008 A 
ATOM      9  C   UNL A   1      32.332  22.760  23.022  1.00  0.00     0.008 A 
ATOM     10  C   UNL A   1      32.107  21.549  25.499  1.00  0.00     0.014 A 
ATOM     11  C   UNL A   1      33.120  21.641  23.338  1.00  0.00     0.014 A 
BRANCH   7  12
ATOM     12  C   UNL A   1      30.381  24.300  23.446  1.00  0.00     0.265 C 
BRANCH  12  13
ATOM     13  O   UNL A   1      30.482  25.667  23.839  1.00  0.00    -0.488 OA
BRANCH  13  14
ATOM     14  C   UNL A   1      31.666  26.346  23.749  1.00  0.00     0.125 A 
ATOM     15  C   UNL A   1      33.841  28.169  26.339  1.00  0.00     0.045 C 
ATOM     16  C   UNL A   1      33.298  27.628  25.046  1.00  0.00    -0.044 A 
ATOM     17  C   UNL A   1      33.946  27.956  23.851  1.00  0.00     0.004 A 
ATOM     18  C   UNL A   1      32.164  26.793  25.000  1.00  0.00    -0.006 A 
ATOM     19  C   UNL A   1      33.506  27.436  22.634  1.00  0.00     0.007 A 
ATOM     20  C   UNL A   1      31.427  26.390  26.257  1.00  0.00     0.049 C 
ATOM     21  C   UNL A   1      32.384  26.594  22.565  1.00  0.00    -0.009 A 
ATOM     22  C   UNL A   1      32.007  26.055  21.215  1.00  0.00     0.048 C 
ENDBRANCH  13  14
ENDBRANCH  12  13
ENDBRANCH   7  12
ENDBRANCH   3   6
ENDBRANCH   1   2
BRANCH   1  23
ATOM     23  C   UNL A   1      37.377  19.568  24.853  1.00  0.00     0.042 C 
BRANCH  23  24
ATOM     24  C   UNL A   1      38.578  20.258  25.494  1.00  0.00     0.118 C 
BRANCH  24  25
ATOM     25  N   UNL A   1      39.683  19.335  25.693  1.00  0.00    -0.352 N 
ATOM     26  C   UNL A   1      40.984  19.594  26.031  1.00  0.00     0.251 C 
ATOM     27  H   UNL A   1      39.465  18.383  25.565  1.00  0.00     0.163 HD
ATOM     28  O   UNL A   1      41.836  18.719  25.887  1.00  0.00    -0.269 OA
BRANCH  26  29
ATOM     29  C   UNL A   1      41.371  20.914  26.569  1.00  0.00     0.039 A 
ATOM     30  C   UNL A   1      41.194  21.162  27.933  1.00  0.00     0.014 A 
ATOM     31  C   UNL A   1      41.845  21.926  25.728  1.00  0.00     0.014 A 
ATOM     32  C   UNL A   1      41.514  22.414  28.456  1.00  0.00     0.010 A 
ATOM     33  C   UNL A   1      42.228  23.152  26.262  1.00  0.00     0.010 A 
ATOM     34  C   UNL A   1      42.046  23.414  27.627  1.00  0.00    -0.014 A 
BRANCH  34  35
ATOM     35  C   UNL A   1      42.389  24.747  28.173  1.00  0.00     0.031 A 
ATOM     36  C   UNL A   1      43.810  25.071  28.543  1.00  0.00     0.074 A 
ATOM     37  C   UNL A   1      41.414  25.655  28.365  1.00  0.00     0.049 A 
ATOM     38  N   UNL A   1      44.303  26.186  29.021  1.00  0.00    -0.248 NA
ATOM     39  C   UNL A   1      44.799  23.996  28.375  1.00  0.00     0.031 C 
ATOM     40  C   UNL A   1      39.994  25.444  28.079  1.00  0.00     0.029 A 
ATOM     41  N   UNL A   1      41.474  26.939  28.840  1.00  0.00    -0.354 N 
ATOM     42  C   UNL A   1      45.656  25.940  29.226  1.00  0.00     0.074 A 
ATOM     43  C   UNL A   1      45.893  24.558  28.868  1.00  0.00     0.031 C 
ATOM     44  C   UNL A   1      39.324  26.577  28.341  1.00  0.00     0.029 A 
ATOM     45  C   UNL A   1      40.260  27.578  28.842  1.00  0.00     0.049 A 
ATOM     46  H   UNL A   1      42.308  27.362  29.150  1.00  0.00     0.167 HD
ATOM     47  C   UNL A   1      46.617  26.791  29.655  1.00  0.00     0.031 A 
ATOM     48  C   UNL A   1      39.941  28.837  29.195  1.00  0.00     0.031 A 
ATOM     49  C   UNL A   1      46.382  28.166  30.007  1.00  0.00     0.049 A 
ATOM     50  C   UNL A   1      41.022  29.762  29.672  1.00  0.00     0.074 A 
ATOM     51  C   UNL A   1      47.295  29.128  30.398  1.00  0.00     0.029 A 
ATOM     52  N   UNL A   1      45.134  28.772  30.011  1.00  0.00    -0.354 N 
ATOM     53  N   UNL A   1      42.307  29.535  29.799  1.00  0.00    -0.248 NA
ATOM     54  C   UNL A   1      40.606  31.120  30.045  1.00  0.00     0.031 C 
ATOM     55  C   UNL A   1      46.593  30.306  30.681  1.00  0.00     0.029 A 
ATOM     56  C   UNL A   1      45.249  30.089  30.422  1.00  0.00     0.049 A 
ATOM     57  H   UNL A   1      44.291  28.330  29.761  1.00  0.00     0.167 HD
ATOM     58  C   UNL A   1      42.859  30.728  30.246  1.00  0.00     0.074 A 
ATOM     59  C   UNL A   1      41.768  31.678  30.353  1.00  0.00     0.031 C 
ATOM     60  C   UNL A   1      44.151  31.013  30.538  1.00  0.00     0.031 A 
BRANCH  47  61
ATOM     61  C   UNL A   1      48.010  26.237  29.782  1.00  0.00    -0.014 A 
ATOM     62  C   UNL A   1      48.493  25.754  31.010  1.00  0.00     0.009 A 
ATOM     63  C   UNL A   1      48.855  26.205  28.662  1.00  0.00     0.009 A 
ATOM     64  C   UNL A   1      49.808  25.300  31.125  1.00  0.00     0.001 A 
ATOM     65  C   UNL A   1      50.161  25.722  28.774  1.00  0.00     0.001 A 
ATOM     66  C   UNL A   1      50.641  25.282  30.007  1.00  0.00     0.000 A 
ENDBRANCH  47  61
BRANCH  48  67
ATOM     67  C   UNL A   1      38.540  29.306  29.054  1.00  0.00    -0.014 A 
ATOM     68  C   UNL A   1      38.080  29.779  27.816  1.00  0.00     0.009 A 
ATOM     69  C   UNL A   1      37.652  29.256  30.138  1.00  0.00     0.009 A 
ATOM     70  C   UNL A   1      36.759  30.208  27.670  1.00  0.00     0.001 A 
ATOM     71  C   UNL A   1      36.325  29.665  29.984  1.00  0.00     0.001 A 
ATOM     72  C   UNL A   1      35.882  30.145  28.751  1.00  0.00     0.000 A 
ENDBRANCH  48  67
BRANCH  60  73
ATOM     73  C   UNL A   1      44.450  32.415  30.984  1.00  0.00    -0.014 A 
ATOM     74  C   UNL A   1      44.812  33.408  30.061  1.00  0.00     0.009 A 
ATOM     75  C   UNL A   1      44.351  32.750  32.344  1.00  0.00     0.009 A 
ATOM     76  C   UNL A   1      45.108  34.701  30.498  1.00  0.00     0.001 A 
ATOM     77  C   UNL A   1      44.622  34.049  32.773  1.00  0.00     0.001 A 
ATOM     78  C   UNL A   1      45.010  35.021  31.852  1.00  0.00     0.000 A 
ENDBRANCH  60  73
ENDBRANCH  34  35
ENDBRANCH  26  29
ENDBRANCH  24  25
ENDBRANCH  23  24
ENDBRANCH   1  23
TORSDOF 13
ENDMDL
MODEL 2
REMARK VINA RESULT:     -11.6      0.290      6.000
REMARK SMILES Cc1ccc(C)c(OCc2ccc(C(=O)NCCCNC(=O)c3ccc(-c4c5nc(c(-c6ccccc6)c6ccc([nH]6)c(-c6ccccc6)c6nc(c(-c7ccccc7)c7ccc4[nH]7)C=C6)C=C5)cc3)cc2)c1C
REMARK SMILES IDX 17 1 16 2 14 3 15 4 13 6 10 7 11 8 72 9 12 10 71 11 9 12
REMARK SMILES IDX 8 13 7 14 1 15 2 16 3 17 73 18 4 19 74 20 5 21 6 22 18 23
REMARK SMILES IDX 19 24 20 25 21 26 22 28 23 29 24 30 70 31 25 32 69 33 26 34
REMARK SMILES IDX 27 35 28 36 63 37 29 38 68 39 62 40 64 41 30 42 67 43 61 44
REMARK SMILES IDX 60 45 31 47 53 48 38 49 52 50 39 51 42 52 51 53 65 54 40 55
REMARK SMILES IDX 41 56 50 58 66 59 43 60 32 61 33 62 37 63 34 64 36 65 35 66
REMARK SMILES IDX 54 67 55 68 59 69 56 70 58 71 57 72 44 73 45 74 49 75 46 76
REMARK SMILES IDX 48 77 47 78
REMARK H PARENT 16 5 20 27 64 46 42 57
REMARK Flexibility Score: inf
ROOT
ATOM      1  C   UNL A   1      35.995  20.440  25.003  1.00  0.00     0.118 C 
ENDROOT
BRANCH   1   2
ATOM      2  N   UNL A   1      34.848  19.569  25.132  1.00  0.00    -0.352 N 
ATOM      3  C   UNL A   1      33.500  19.784  25.062  1.00  0.00     0.251 C 
ATOM      4  O   UNL A   1      32.779  18.823  25.341  1.00  0.00    -0.269 OA
ATOM      5  H   UNL A   1      35.087  18.629  25.306  1.00  0.00     0.163 HD
BRANCH   3   6
ATOM      6  C   UNL A   1      32.873  21.058  24.604  1.00  0.00     0.039 A 
ATOM      7  C   UNL A   1      31.315  23.340  23.909  1.00  0.00    -0.011 A 
ATOM      8  C   UNL A   1      31.331  22.840  25.212  1.00  0.00     0.008 A 
ATOM      9  C   UNL A   1      32.177  22.736  22.982  1.00  0.00     0.008 A 
ATOM     10  C   UNL A   1      32.089  21.718  25.554  1.00  0.00     0.014 A 
ATOM     11  C   UNL A   1      32.960  21.624  23.332  1.00  0.00     0.014 A 
BRANCH   7  12
ATOM     12  C   UNL A   1      30.290  24.352  23.412  1.00  0.00     0.265 C 
BRANCH  12  13
ATOM     13  O   UNL A   1      30.414  25.734  23.741  1.00  0.00    -0.488 OA
BRANCH  13  14
ATOM     14  C   UNL A   1      31.623  26.371  23.688  1.00  0.00     0.125 A 
ATOM     15  C   UNL A   1      33.760  28.160  26.333  1.00  0.00     0.045 C 
ATOM     16  C   UNL A   1      33.248  27.617  25.028  1.00  0.00    -0.044 A 
ATOM     17  C   UNL A   1      33.951  27.905  23.853  1.00  0.00     0.004 A 
ATOM     18  C   UNL A   1      32.088  26.820  24.950  1.00  0.00    -0.006 A 
ATOM     19  C   UNL A   1      33.540  27.381  22.629  1.00  0.00     0.007 A 
ATOM     20  C   UNL A   1      31.291  26.462  26.184  1.00  0.00     0.049 C 
ATOM     21  C   UNL A   1      32.394  26.577  22.529  1.00  0.00    -0.009 A 
ATOM     22  C   UNL A   1      32.049  26.030  21.173  1.00  0.00     0.048 C 
ENDBRANCH  13  14
ENDBRANCH  12  13
ENDBRANCH   7  12
ENDBRANCH   3   6
ENDBRANCH   1   2
BRANCH   1  23
ATOM     23  C   UNL A   1      37.274  19.619  24.848  1.00  0.00     0.042 C 
BRANCH  23  24
ATOM     24  C   UNL A   1      38.508  20.335  25.389  1.00  0.00     0.118 C 
BRANCH  24  25
ATOM     25  N   UNL A   1      39.586  19.402  25.677  1.00  0.00    -0.352 N 
ATOM     26  C   UNL A   1      40.869  19.652  26.080  1.00  0.00     0.251 C 
ATOM     27  H   UNL A   1      39.358  18.450  25.567  1.00  0.00     0.163 HD
ATOM     28  O   UNL A   1      41.713  18.760  26.012  1.00  0.00    -0.269 OA
BRANCH  26  29
ATOM     29  C   UNL A   1      41.247  20.982  26.600  1.00  0.00     0.039 A 
ATOM     30  C   UNL A   1      41.772  21.926  25.714  1.00  0.00     0.014 A 
ATOM     31  C   UNL A   1      41.148  21.278  27.964  1.00  0.00     0.014 A 
ATOM     32  C   UNL A   1      42.174  23.174  26.189  1.00  0.00     0.010 A 
ATOM     33  C   UNL A   1      41.485  22.546  28.426  1.00  0.00     0.010 A 
ATOM     34  C   UNL A   1      42.021  23.498  27.547  1.00  0.00    -0.014 A 
BRANCH  34  35
ATOM     35  C   UNL A   1      42.445  24.819  28.062  1.00  0.00     0.031 A 
ATOM     36  C   UNL A   1      41.430  25.906  28.288  1.00  0.00     0.074 A 
ATOM     37  C   UNL A   1      43.749  25.052  28.296  1.00  0.00     0.049 A 
ATOM     38  N   UNL A   1      41.608  27.119  28.746  1.00  0.00    -0.248 NA
ATOM     39  C   UNL A   1      40.037  25.593  27.933  1.00  0.00     0.031 C 
ATOM     40  C   UNL A   1      44.832  24.090  28.080  1.00  0.00     0.029 A 
ATOM     41  N   UNL A   1      44.383  26.169  28.774  1.00  0.00    -0.354 N 
ATOM     42  C   UNL A   1      40.355  27.719  28.716  1.00  0.00     0.074 A 
ATOM     43  C   UNL A   1      39.437  26.754  28.151  1.00  0.00     0.031 C 
ATOM     44  C   UNL A   1      45.991  24.644  28.468  1.00  0.00     0.029 A 
ATOM     45  C   UNL A   1      45.737  26.005  28.929  1.00  0.00     0.049 A 
ATOM     46  H   UNL A   1      43.913  27.008  28.986  1.00  0.00     0.167 HD
ATOM     47  C   UNL A   1      39.996  28.955  29.139  1.00  0.00     0.031 A 
ATOM     48  C   UNL A   1      46.666  26.855  29.402  1.00  0.00     0.031 A 
ATOM     49  C   UNL A   1      40.909  29.912  29.706  1.00  0.00     0.049 A 
ATOM     50  C   UNL A   1      46.248  28.221  29.861  1.00  0.00     0.074 A 
ATOM     51  C   UNL A   1      40.638  31.168  30.218  1.00  0.00     0.029 A 
ATOM     52  N   UNL A   1      42.276  29.715  29.830  1.00  0.00    -0.354 N 
ATOM     53  N   UNL A   1      45.049  28.751  29.889  1.00  0.00    -0.248 NA
ATOM     54  C   UNL A   1      47.312  29.099  30.364  1.00  0.00     0.031 C 
ATOM     55  C   UNL A   1      41.850  31.749  30.613  1.00  0.00     0.029 A 
ATOM     56  C   UNL A   1      42.867  30.835  30.388  1.00  0.00     0.049 A 
ATOM     57  H   UNL A   1      42.755  28.899  29.560  1.00  0.00     0.167 HD
ATOM     58  C   UNL A   1      45.210  30.019  30.431  1.00  0.00     0.074 A 
ATOM     59  C   UNL A   1      46.621  30.169  30.731  1.00  0.00     0.031 C 
ATOM     60  C   UNL A   1      44.274  30.972  30.663  1.00  0.00     0.031 A 
BRANCH  47  61
ATOM     61  C   UNL A   1      38.550  29.336  28.980  1.00  0.00    -0.014 A 
ATOM     62  C   UNL A   1      38.055  29.823  27.760  1.00  0.00     0.009 A 
ATOM     63  C   UNL A   1      37.671  29.213  30.067  1.00  0.00     0.009 A 
ATOM     64  C   UNL A   1      36.724  30.230  27.646  1.00  0.00     0.001 A 
ATOM     65  C   UNL A   1      36.333  29.593  29.942  1.00  0.00     0.001 A 
ATOM     66  C   UNL A   1      35.863  30.113  28.736  1.00  0.00     0.000 A 
ENDBRANCH  47  61
BRANCH  48  67
ATOM     67  C   UNL A   1      48.078  26.409  29.516  1.00  0.00    -0.014 A 
ATOM     68  C   UNL A   1      48.513  25.746  30.673  1.00  0.00     0.009 A 
ATOM     69  C   UNL A   1      48.984  26.615  28.465  1.00  0.00     0.009 A 
ATOM     70  C   UNL A   1      49.836  25.310  30.782  1.00  0.00     0.001 A 
ATOM     71  C   UNL A   1      50.300  26.158  28.568  1.00  0.00     0.001 A 
ATOM     72  C   UNL A   1      50.726  25.511  29.729  1.00  0.00     0.000 A 
ENDBRANCH  48  67
BRANCH  60  73
ATOM     73  C   UNL A   1      44.753  32.251  31.288  1.00  0.00    -0.014 A 
ATOM     74  C   UNL A   1      45.157  33.337  30.497  1.00  0.00     0.009 A 
ATOM     75  C   UNL A   1      44.784  32.374  32.686  1.00  0.00     0.009 A 
ATOM     76  C   UNL A   1      45.621  34.510  31.096  1.00  0.00     0.001 A 
ATOM     77  C   UNL A   1      45.223  33.557  33.280  1.00  0.00     0.001 A 
ATOM     78  C   UNL A   1      45.651  34.620  32.486  1.00  0.00     0.000 A 
ENDBRANCH  60  73
ENDBRANCH  34  35
ENDBRANCH  26  29
ENDBRANCH  24  25
ENDBRANCH  23  24
ENDBRANCH   1  23
TORSDOF 13
ENDMDL
MODEL 3
REMARK VINA RESULT:     -11.5      2.168      6.867
REMARK SMILES Cc1ccc(C)c(OCc2ccc(C(=O)NCCCNC(=O)c3ccc(-c4c5nc(c(-c6ccccc6)c6ccc([nH]6)c(-c6ccccc6)c6nc(c(-c7ccccc7)c7ccc4[nH]7)C=C6)C=C5)cc3)cc2)c1C
REMARK SMILES IDX 17 1 16 2 14 3 15 4 13 6 10 7 11 8 72 9 12 10 71 11 9 12
REMARK SMILES IDX 8 13 7 14 1 15 2 16 3 17 73 18 4 19 74 20 5 21 6 22 18 23
REMARK SMILES IDX 19 24 20 25 21 26 22 28 23 29 24 30 70 31 25 32 69 33 26 34
REMARK SMILES IDX 27 35 28 36 63 37 29 38 68 39 62 40 64 41 30 42 67 43 61 44
REMARK SMILES IDX 60 45 31 47 53 48 38 49 52 50 39 51 42 52 51 53 65 54 40 55
REMARK SMILES IDX 41 56 50 58 66 59 43 60 32 61 33 62 37 63 34 64 36 65 35 66
REMARK SMILES IDX 54 67 55 68 59 69 56 70 58 71 57 72 44 73 45 74 49 75 46 76
REMARK SMILES IDX 48 77 47 78
REMARK H PARENT 16 5 20 27 64 46 42 57
REMARK Flexibility Score: inf
ROOT
ATOM      1  C   UNL A   1      34.816  21.812  26.442  1.00  0.00     0.118 C 
ENDROOT
BRANCH   1   2
ATOM      2  N   UNL A   1      33.898  20.837  25.897  1.00  0.00    -0.352 N 
ATOM      3  C   UNL A   1      32.639  20.931  25.372  1.00  0.00     0.251 C 
ATOM      4  O   UNL A   1      32.081  19.866  25.099  1.00  0.00    -0.269 OA
ATOM      5  H   UNL A   1      34.252  19.918  25.905  1.00  0.00     0.163 HD
BRANCH   3   6
ATOM      6  C   UNL A   1      31.957  22.218  25.046  1.00  0.00     0.039 A 
ATOM      7  C   UNL A   1      31.016  24.777  24.219  1.00  0.00    -0.011 A 
ATOM      8  C   UNL A   1      31.594  23.886  23.312  1.00  0.00     0.008 A 
ATOM      9  C   UNL A   1      30.824  24.319  25.530  1.00  0.00     0.008 A 
ATOM     10  C   UNL A   1      32.061  22.634  23.717  1.00  0.00     0.014 A 
ATOM     11  C   UNL A   1      31.269  23.049  25.932  1.00  0.00     0.014 A 
BRANCH   7  12
ATOM     12  C   UNL A   1      30.774  26.248  23.909  1.00  0.00     0.265 C 
BRANCH  12  13
ATOM     13  O   UNL A   1      31.866  27.161  23.810  1.00  0.00    -0.488 OA
BRANCH  13  14
ATOM     14  C   UNL A   1      32.349  27.813  24.910  1.00  0.00     0.125 A 
ATOM     15  C   UNL A   1      31.608  31.256  26.447  1.00  0.00     0.045 C 
ATOM     16  C   UNL A   1      32.208  29.905  26.172  1.00  0.00    -0.044 A 
ATOM     17  C   UNL A   1      33.283  29.471  26.954  1.00  0.00     0.004 A 
ATOM     18  C   UNL A   1      31.717  29.059  25.158  1.00  0.00    -0.006 A 
ATOM     19  C   UNL A   1      33.837  28.206  26.766  1.00  0.00     0.007 A 
ATOM     20  C   UNL A   1      30.550  29.464  24.287  1.00  0.00     0.049 C 
ATOM     21  C   UNL A   1      33.358  27.341  25.769  1.00  0.00    -0.009 A 
ATOM     22  C   UNL A   1      33.995  25.986  25.666  1.00  0.00     0.048 C 
ENDBRANCH  13  14
ENDBRANCH  12  13
ENDBRANCH   7  12
ENDBRANCH   3   6
ENDBRANCH   1   2
BRANCH   1  23
ATOM     23  C   UNL A   1      35.449  22.635  25.322  1.00  0.00     0.042 C 
BRANCH  23  24
ATOM     24  C   UNL A   1      36.713  23.367  25.763  1.00  0.00     0.118 C 
BRANCH  24  25
ATOM     25  N   UNL A   1      37.821  22.448  25.969  1.00  0.00    -0.352 N 
ATOM     26  C   UNL A   1      39.114  22.711  26.330  1.00  0.00     0.251 C 
ATOM     27  H   UNL A   1      37.610  21.497  25.827  1.00  0.00     0.163 HD
ATOM     28  O   UNL A   1      39.974  21.842  26.190  1.00  0.00    -0.269 OA
BRANCH  26  29
ATOM     29  C   UNL A   1      39.485  24.026  26.889  1.00  0.00     0.039 A 
ATOM     30  C   UNL A   1      40.119  24.955  26.060  1.00  0.00     0.014 A 
ATOM     31  C   UNL A   1      39.270  24.323  28.239  1.00  0.00     0.014 A 
ATOM     32  C   UNL A   1      40.515  26.189  26.577  1.00  0.00     0.010 A 
ATOM     33  C   UNL A   1      39.603  25.579  28.737  1.00  0.00     0.010 A 
ATOM     34  C   UNL A   1      40.248  26.514  27.916  1.00  0.00    -0.014 A 
BRANCH  34  35
ATOM     35  C   UNL A   1      40.665  27.821  28.475  1.00  0.00     0.031 A 
ATOM     36  C   UNL A   1      39.654  28.916  28.676  1.00  0.00     0.074 A 
ATOM     37  C   UNL A   1      41.960  28.032  28.771  1.00  0.00     0.049 A 
ATOM     38  N   UNL A   1      39.826  30.118  29.164  1.00  0.00    -0.248 NA
ATOM     39  C   UNL A   1      38.274  28.628  28.253  1.00  0.00     0.031 C 
ATOM     40  C   UNL A   1      43.039  27.060  28.585  1.00  0.00     0.029 A 
ATOM     41  N   UNL A   1      42.585  29.132  29.298  1.00  0.00    -0.354 N 
ATOM     42  C   UNL A   1      38.583  30.735  29.090  1.00  0.00     0.074 A 
ATOM     43  C   UNL A   1      37.680  29.793  28.466  1.00  0.00     0.031 C 
ATOM     44  C   UNL A   1      44.187  27.591  29.036  1.00  0.00     0.029 A 
ATOM     45  C   UNL A   1      43.928  28.947  29.510  1.00  0.00     0.049 A 
ATOM     46  H   UNL A   1      42.116  29.972  29.505  1.00  0.00     0.167 HD
ATOM     47  C   UNL A   1      38.221  31.967  29.520  1.00  0.00     0.031 A 
ATOM     48  C   UNL A   1      44.846  29.775  30.041  1.00  0.00     0.031 A 
ATOM     49  C   UNL A   1      39.119  32.902  30.145  1.00  0.00     0.049 A 
ATOM     50  C   UNL A   1      44.424  31.138  30.507  1.00  0.00     0.074 A 
ATOM     51  C   UNL A   1      38.841  34.151  30.668  1.00  0.00     0.029 A 
ATOM     52  N   UNL A   1      40.476  32.684  30.326  1.00  0.00    -0.354 N 
ATOM     53  N   UNL A   1      43.232  31.683  30.491  1.00  0.00    -0.248 NA
ATOM     54  C   UNL A   1      45.475  31.993  31.073  1.00  0.00     0.031 C 
ATOM     55  C   UNL A   1      40.040  34.708  31.128  1.00  0.00     0.029 A 
ATOM     56  C   UNL A   1      41.055  33.786  30.932  1.00  0.00     0.049 A 
ATOM     57  H   UNL A   1      40.957  31.867  30.063  1.00  0.00     0.167 HD
ATOM     58  C   UNL A   1      43.383  32.939  31.064  1.00  0.00     0.074 A 
ATOM     59  C   UNL A   1      44.781  33.065  31.430  1.00  0.00     0.031 C 
ATOM     60  C   UNL A   1      42.450  33.899  31.272  1.00  0.00     0.031 A 
BRANCH  47  61
ATOM     61  C   UNL A   1      36.788  32.370  29.304  1.00  0.00    -0.014 A 
ATOM     62  C   UNL A   1      36.361  32.916  28.083  1.00  0.00     0.009 A 
ATOM     63  C   UNL A   1      35.853  32.208  30.337  1.00  0.00     0.009 A 
ATOM     64  C   UNL A   1      35.041  33.342  27.919  1.00  0.00     0.001 A 
ATOM     65  C   UNL A   1      34.526  32.607  30.161  1.00  0.00     0.001 A 
ATOM     66  C   UNL A   1      34.124  33.185  28.957  1.00  0.00     0.000 A 
ENDBRANCH  47  61
BRANCH  48  67
ATOM     67  C   UNL A   1      46.246  29.309  30.209  1.00  0.00    -0.014 A 
ATOM     68  C   UNL A   1      46.629  28.650  31.386  1.00  0.00     0.009 A 
ATOM     69  C   UNL A   1      47.192  29.492  29.190  1.00  0.00     0.009 A 
ATOM     70  C   UNL A   1      47.939  28.195  31.547  1.00  0.00     0.001 A 
ATOM     71  C   UNL A   1      48.496  29.016  29.344  1.00  0.00     0.001 A 
ATOM     72  C   UNL A   1      48.869  28.372  30.524  1.00  0.00     0.000 A 
ENDBRANCH  48  67
BRANCH  60  73
ATOM     73  C   UNL A   1      42.916  35.160  31.942  1.00  0.00    -0.014 A 
ATOM     74  C   UNL A   1      43.532  36.185  31.209  1.00  0.00     0.009 A 
ATOM     75  C   UNL A   1      42.720  35.329  33.322  1.00  0.00     0.009 A 
ATOM     76  C   UNL A   1      43.979  37.341  31.853  1.00  0.00     0.001 A 
ATOM     77  C   UNL A   1      43.145  36.496  33.957  1.00  0.00     0.001 A 
ATOM     78  C   UNL A   1      43.783  37.496  33.225  1.00  0.00     0.000 A 
ENDBRANCH  60  73
ENDBRANCH  34  35
ENDBRANCH  26  29
ENDBRANCH  24  25
ENDBRANCH  23  24
ENDBRANCH   1  23
TORSDOF 13
ENDMDL
