MODEL 1
REMARK VINA RESULT:     -11.4      0.000      0.000
REMARK SMILES CC1(C)CCC[C@H]1NC(=O)N[C@@H]1COC[C@@]1(C)C(=O)NCCCNC(=O)c1ccc(-c2c3nc(c(-c4ccccc4)c4ccc([nH]4)c(-c4ccccc4)c4nc(c(-c5ccccc5)c5ccc2[nH]5)C=C4)C=C3)cc1
REMARK SMILES IDX 22 1 21 2 20 3 18 4 19 5 16 7 12 8 13 9 14 10 15 11 17 12
REMARK SMILES IDX 11 13 8 14 9 15 10 17 7 19 1 20 2 21 3 22 4 23 5 24 6 25
REMARK SMILES IDX 23 26 24 27 25 28 26 30 27 31 28 32 74 33 29 34 73 35 30 36
REMARK SMILES IDX 31 37 32 38 67 39 33 40 72 41 66 42 68 43 34 44 71 45 65 46
REMARK SMILES IDX 64 47 35 49 57 50 42 51 56 52 43 53 46 54 55 55 69 56 44 57
REMARK SMILES IDX 45 58 54 60 70 61 47 62 36 63 37 64 41 65 38 66 40 67 39 68
REMARK SMILES IDX 58 69 59 70 63 71 60 72 62 73 61 74 48 75 49 76 53 77 50 78
REMARK SMILES IDX 52 79 51 80
REMARK H PARENT 20 6 8 16 11 18 24 29 68 48 46 59
REMARK Flexibility Score: inf
ROOT
ATOM      1  C   UNL A   1      31.784  28.252  27.411  1.00  0.00     0.042 C 
ENDROOT
BRANCH   1   2
ATOM      2  C   UNL A   1      31.315  27.264  26.343  1.00  0.00     0.117 C 
BRANCH   2   3
ATOM      3  N   UNL A   1      31.376  27.716  24.963  1.00  0.00    -0.355 N 
ATOM      4  C   UNL A   1      31.736  27.095  23.803  1.00  0.00     0.230 C 
ATOM      5  O   UNL A   1      31.397  27.670  22.764  1.00  0.00    -0.274 OA
ATOM      6  H   UNL A   1      31.104  28.655  24.842  1.00  0.00     0.163 HD
BRANCH   4   7
ATOM      7  C   UNL A   1      32.607  25.832  23.766  1.00  0.00     0.092 C 
ATOM      8  C   UNL A   1      31.897  24.513  24.132  1.00  0.00     0.127 C 
ATOM      9  C   UNL A   1      32.279  23.490  23.063  1.00  0.00     0.186 C 
ATOM     10  O   UNL A   1      33.240  24.124  22.217  1.00  0.00    -0.378 OA
ATOM     11  C   UNL A   1      32.968  25.532  22.291  1.00  0.00     0.179 C 
ATOM     12  C   UNL A   1      33.897  26.153  24.502  1.00  0.00     0.026 C 
BRANCH   8  13
ATOM     13  N   UNL A   1      31.940  23.988  25.503  1.00  0.00    -0.332 N 
ATOM     14  N   UNL A   1      33.844  22.669  26.063  1.00  0.00    -0.335 N 
ATOM     15  C   UNL A   1      32.698  23.281  26.332  1.00  0.00     0.315 C 
ATOM     16  H   UNL A   1      34.309  22.397  26.887  1.00  0.00     0.165 HD
ATOM     17  O   UNL A   1      32.290  23.207  27.496  1.00  0.00    -0.249 OA
ATOM     18  H   UNL A   1      31.116  24.254  25.972  1.00  0.00     0.165 HD
BRANCH  14  19
ATOM     19  C   UNL A   1      34.605  22.291  24.875  1.00  0.00     0.089 C 
ATOM     20  C   UNL A   1      36.390  24.028  25.744  1.00  0.00     0.013 C 
ATOM     21  C   UNL A   1      36.102  22.754  24.934  1.00  0.00    -0.015 C 
ATOM     22  C   UNL A   1      36.669  22.948  23.508  1.00  0.00     0.013 C 
ATOM     23  C   UNL A   1      36.795  21.558  25.608  1.00  0.00     0.008 C 
ATOM     24  C   UNL A   1      36.134  20.347  24.978  1.00  0.00     0.003 C 
ATOM     25  C   UNL A   1      34.671  20.746  24.796  1.00  0.00     0.025 C 
ENDBRANCH  14  19
ENDBRANCH   8  13
ENDBRANCH   4   7
ENDBRANCH   2   3
ENDBRANCH   1   2
BRANCH   1  26
ATOM     26  C   UNL A   1      33.246  28.679  27.332  1.00  0.00     0.118 C 
BRANCH  26  27
ATOM     27  N   UNL A   1      33.443  30.064  27.720  1.00  0.00    -0.352 N 
ATOM     28  C   UNL A   1      34.503  30.721  28.289  1.00  0.00     0.251 C 
ATOM     29  H   UNL A   1      32.666  30.642  27.539  1.00  0.00     0.163 HD
ATOM     30  O   UNL A   1      34.307  31.854  28.726  1.00  0.00    -0.269 OA
BRANCH  28  31
ATOM     31  C   UNL A   1      35.867  30.139  28.392  1.00  0.00     0.039 A 
ATOM     32  C   UNL A   1      36.268  29.645  29.641  1.00  0.00     0.014 A 
ATOM     33  C   UNL A   1      36.802  30.187  27.354  1.00  0.00     0.014 A 
ATOM     34  C   UNL A   1      37.577  29.199  29.845  1.00  0.00     0.010 A 
ATOM     35  C   UNL A   1      38.095  29.678  27.539  1.00  0.00     0.010 A 
ATOM     36  C   UNL A   1      38.505  29.205  28.793  1.00  0.00    -0.014 A 
BRANCH  36  37
ATOM     37  C   UNL A   1      39.900  28.738  29.023  1.00  0.00     0.031 A 
ATOM     38  C   UNL A   1      40.329  27.350  28.628  1.00  0.00     0.074 A 
ATOM     39  C   UNL A   1      40.792  29.565  29.600  1.00  0.00     0.049 A 
ATOM     40  N   UNL A   1      41.518  26.801  28.699  1.00  0.00    -0.248 NA
ATOM     41  C   UNL A   1      39.286  26.454  28.105  1.00  0.00     0.031 C 
ATOM     42  C   UNL A   1      40.501  30.916  30.085  1.00  0.00     0.029 A 
ATOM     43  N   UNL A   1      42.126  29.391  29.874  1.00  0.00    -0.354 N 
ATOM     44  C   UNL A   1      41.362  25.496  28.248  1.00  0.00     0.074 A 
ATOM     45  C   UNL A   1      39.957  25.323  27.946  1.00  0.00     0.031 C 
ATOM     46  C   UNL A   1      41.629  31.456  30.573  1.00  0.00     0.029 A 
ATOM     47  C   UNL A   1      42.715  30.488  30.451  1.00  0.00     0.049 A 
ATOM     48  H   UNL A   1      42.612  28.559  29.675  1.00  0.00     0.167 HD
ATOM     49  C   UNL A   1      42.301  24.532  28.084  1.00  0.00     0.031 A 
ATOM     50  C   UNL A   1      43.988  30.701  30.833  1.00  0.00     0.031 A 
ATOM     51  C   UNL A   1      43.702  24.698  28.372  1.00  0.00     0.049 A 
ATOM     52  C   UNL A   1      45.021  29.638  30.601  1.00  0.00     0.074 A 
ATOM     53  C   UNL A   1      44.739  23.803  28.167  1.00  0.00     0.029 A 
ATOM     54  N   UNL A   1      44.262  25.835  28.933  1.00  0.00    -0.354 N 
ATOM     55  N   UNL A   1      44.873  28.440  30.089  1.00  0.00    -0.248 NA
ATOM     56  C   UNL A   1      46.403  29.966  30.982  1.00  0.00     0.031 C 
ATOM     57  C   UNL A   1      45.920  24.382  28.646  1.00  0.00     0.029 A 
ATOM     58  C   UNL A   1      45.625  25.655  29.106  1.00  0.00     0.049 A 
ATOM     59  H   UNL A   1      43.765  26.649  29.173  1.00  0.00     0.167 HD
ATOM     60  C   UNL A   1      46.141  27.875  30.076  1.00  0.00     0.074 A 
ATOM     61  C   UNL A   1      47.049  28.870  30.608  1.00  0.00     0.031 C 
ATOM     62  C   UNL A   1      46.517  26.640  29.661  1.00  0.00     0.031 A 
BRANCH  49  63
ATOM     63  C   UNL A   1      41.829  23.195  27.581  1.00  0.00    -0.014 A 
ATOM     64  C   UNL A   1      41.648  22.954  26.210  1.00  0.00     0.009 A 
ATOM     65  C   UNL A   1      41.575  22.156  28.491  1.00  0.00     0.009 A 
ATOM     66  C   UNL A   1      41.176  21.717  25.764  1.00  0.00     0.001 A 
ATOM     67  C   UNL A   1      41.130  20.912  28.041  1.00  0.00     0.001 A 
ATOM     68  C   UNL A   1      40.919  20.697  26.679  1.00  0.00     0.000 A 
ENDBRANCH  49  63
BRANCH  50  69
ATOM     69  C   UNL A   1      44.355  32.001  31.446  1.00  0.00    -0.014 A 
ATOM     70  C   UNL A   1      44.320  32.168  32.839  1.00  0.00     0.009 A 
ATOM     71  C   UNL A   1      44.777  33.071  30.641  1.00  0.00     0.009 A 
ATOM     72  C   UNL A   1      44.690  33.386  33.413  1.00  0.00     0.001 A 
ATOM     73  C   UNL A   1      45.168  34.279  31.221  1.00  0.00     0.001 A 
ATOM     74  C   UNL A   1      45.120  34.438  32.605  1.00  0.00     0.000 A 
ENDBRANCH  50  69
BRANCH  62  75
ATOM     75  C   UNL A   1      47.977  26.302  29.773  1.00  0.00    -0.014 A 
ATOM     76  C   UNL A   1      48.856  26.529  28.703  1.00  0.00     0.009 A 
ATOM     77  C   UNL A   1      48.480  25.759  30.966  1.00  0.00     0.009 A 
ATOM     78  C   UNL A   1      50.205  26.182  28.813  1.00  0.00     0.001 A 
ATOM     79  C   UNL A   1      49.833  25.437  31.080  1.00  0.00     0.001 A 
ATOM     80  C   UNL A   1      50.691  25.638  30.000  1.00  0.00     0.000 A 
ENDBRANCH  62  75
ENDBRANCH  36  37
ENDBRANCH  28  31
ENDBRANCH  26  27
ENDBRANCH   1  26
TORSDOF 12
ENDMDL
MODEL 2
REMARK VINA RESULT:     -11.3      1.823      7.529
REMARK SMILES CC1(C)CCC[C@H]1NC(=O)N[C@@H]1COC[C@@]1(C)C(=O)NCCCNC(=O)c1ccc(-c2c3nc(c(-c4ccccc4)c4ccc([nH]4)c(-c4ccccc4)c4nc(c(-c5ccccc5)c5ccc2[nH]5)C=C4)C=C3)cc1
REMARK SMILES IDX 22 1 21 2 20 3 18 4 19 5 16 7 12 8 13 9 14 10 15 11 17 12
REMARK SMILES IDX 11 13 8 14 9 15 10 17 7 19 1 20 2 21 3 22 4 23 5 24 6 25
REMARK SMILES IDX 23 26 24 27 25 28 26 30 27 31 28 32 74 33 29 34 73 35 30 36
REMARK SMILES IDX 31 37 32 38 67 39 33 40 72 41 66 42 68 43 34 44 71 45 65 46
REMARK SMILES IDX 64 47 35 49 57 50 42 51 56 52 43 53 46 54 55 55 69 56 44 57
REMARK SMILES IDX 45 58 54 60 70 61 47 62 36 63 37 64 41 65 38 66 40 67 39 68
REMARK SMILES IDX 58 69 59 70 63 71 60 72 62 73 61 74 48 75 49 76 53 77 50 78
REMARK SMILES IDX 52 79 51 80
REMARK H PARENT 20 6 8 16 11 18 24 29 68 48 46 59
REMARK Flexibility Score: inf
ROOT
ATOM      1  C   UNL A   1      37.344  19.455  24.967  1.00  0.00     0.042 C 
ENDROOT
BRANCH   1   2
ATOM      2  C   UNL A   1      36.045  20.259  24.923  1.00  0.00     0.117 C 
BRANCH   2   3
ATOM      3  N   UNL A   1      35.986  21.452  25.750  1.00  0.00    -0.355 N 
ATOM      4  C   UNL A   1      35.070  22.456  25.859  1.00  0.00     0.230 C 
ATOM      5  O   UNL A   1      35.175  23.166  26.864  1.00  0.00    -0.274 OA
ATOM      6  H   UNL A   1      36.761  21.556  26.350  1.00  0.00     0.163 HD
BRANCH   4   7
ATOM      7  C   UNL A   1      34.044  22.776  24.762  1.00  0.00     0.092 C 
ATOM      8  C   UNL A   1      33.332  24.137  24.882  1.00  0.00     0.127 C 
ATOM      9  C   UNL A   1      33.387  24.792  23.502  1.00  0.00     0.186 C 
ATOM     10  O   UNL A   1      33.967  23.831  22.618  1.00  0.00    -0.378 OA
ATOM     11  C   UNL A   1      34.805  22.996  23.433  1.00  0.00     0.179 C 
ATOM     12  C   UNL A   1      33.167  21.546  24.596  1.00  0.00     0.026 C 
BRANCH   8  13
ATOM     13  N   UNL A   1      32.026  24.251  25.544  1.00  0.00    -0.332 N 
ATOM     14  N   UNL A   1      31.365  26.447  26.192  1.00  0.00    -0.335 N 
ATOM     15  C   UNL A   1      31.182  25.140  26.053  1.00  0.00     0.315 C 
ATOM     16  H   UNL A   1      30.520  26.908  26.398  1.00  0.00     0.165 HD
ATOM     17  O   UNL A   1      30.092  24.691  26.422  1.00  0.00    -0.249 OA
ATOM     18  H   UNL A   1      31.640  23.351  25.644  1.00  0.00     0.165 HD
BRANCH  14  19
ATOM     19  C   UNL A   1      32.480  27.388  26.119  1.00  0.00     0.089 C 
ATOM     20  C   UNL A   1      31.542  27.961  23.721  1.00  0.00     0.013 C 
ATOM     21  C   UNL A   1      32.326  28.429  24.958  1.00  0.00    -0.015 C 
ATOM     22  C   UNL A   1      33.712  28.932  24.490  1.00  0.00     0.013 C 
ATOM     23  C   UNL A   1      31.562  29.578  25.637  1.00  0.00     0.008 C 
ATOM     24  C   UNL A   1      32.196  29.679  27.010  1.00  0.00     0.003 C 
ATOM     25  C   UNL A   1      32.499  28.237  27.414  1.00  0.00     0.025 C 
ENDBRANCH  14  19
ENDBRANCH   8  13
ENDBRANCH   4   7
ENDBRANCH   2   3
ENDBRANCH   1   2
BRANCH   1  26
ATOM     26  C   UNL A   1      38.578  20.203  25.462  1.00  0.00     0.118 C 
BRANCH  26  27
ATOM     27  N   UNL A   1      39.719  19.327  25.659  1.00  0.00    -0.352 N 
ATOM     28  C   UNL A   1      41.023  19.574  26.001  1.00  0.00     0.251 C 
ATOM     29  H   UNL A   1      39.516  18.374  25.520  1.00  0.00     0.163 HD
ATOM     30  O   UNL A   1      41.833  18.659  25.866  1.00  0.00    -0.269 OA
BRANCH  28  31
ATOM     31  C   UNL A   1      41.497  20.879  26.532  1.00  0.00     0.039 A 
ATOM     32  C   UNL A   1      41.306  21.130  27.898  1.00  0.00     0.014 A 
ATOM     33  C   UNL A   1      41.991  21.905  25.721  1.00  0.00     0.014 A 
ATOM     34  C   UNL A   1      41.611  22.380  28.443  1.00  0.00     0.010 A 
ATOM     35  C   UNL A   1      42.361  23.136  26.279  1.00  0.00     0.010 A 
ATOM     36  C   UNL A   1      42.149  23.397  27.641  1.00  0.00    -0.014 A 
BRANCH  36  37
ATOM     37  C   UNL A   1      42.461  24.728  28.227  1.00  0.00     0.031 A 
ATOM     38  C   UNL A   1      43.859  25.075  28.667  1.00  0.00     0.074 A 
ATOM     39  C   UNL A   1      41.478  25.636  28.377  1.00  0.00     0.049 A 
ATOM     40  N   UNL A   1      44.318  26.208  29.142  1.00  0.00    -0.248 NA
ATOM     41  C   UNL A   1      44.866  24.007  28.584  1.00  0.00     0.031 C 
ATOM     42  C   UNL A   1      40.068  25.418  28.047  1.00  0.00     0.029 A 
ATOM     43  N   UNL A   1      41.517  26.928  28.842  1.00  0.00    -0.354 N 
ATOM     44  C   UNL A   1      45.660  25.983  29.428  1.00  0.00     0.074 A 
ATOM     45  C   UNL A   1      45.928  24.596  29.115  1.00  0.00     0.031 C 
ATOM     46  C   UNL A   1      39.382  26.545  28.297  1.00  0.00     0.029 A 
ATOM     47  C   UNL A   1      40.297  27.557  28.817  1.00  0.00     0.049 A 
ATOM     48  H   UNL A   1      42.341  27.361  29.162  1.00  0.00     0.167 HD
ATOM     49  C   UNL A   1      46.590  26.852  29.895  1.00  0.00     0.031 A 
ATOM     50  C   UNL A   1      39.949  28.810  29.164  1.00  0.00     0.031 A 
ATOM     51  C   UNL A   1      46.334  28.236  30.201  1.00  0.00     0.049 A 
ATOM     52  C   UNL A   1      41.001  29.770  29.635  1.00  0.00     0.074 A 
ATOM     53  C   UNL A   1      47.229  29.212  30.607  1.00  0.00     0.029 A 
ATOM     54  N   UNL A   1      45.089  28.841  30.138  1.00  0.00    -0.354 N 
ATOM     55  N   UNL A   1      42.284  29.566  29.814  1.00  0.00    -0.248 NA
ATOM     56  C   UNL A   1      40.559  31.140  29.932  1.00  0.00     0.031 C 
ATOM     57  C   UNL A   1      46.517  30.395  30.834  1.00  0.00     0.029 A 
ATOM     58  C   UNL A   1      45.186  30.168  30.524  1.00  0.00     0.049 A 
ATOM     59  H   UNL A   1      44.257  28.393  29.861  1.00  0.00     0.167 HD
ATOM     60  C   UNL A   1      42.805  30.783  30.235  1.00  0.00     0.074 A 
ATOM     61  C   UNL A   1      41.703  31.724  30.260  1.00  0.00     0.031 C 
ATOM     62  C   UNL A   1      44.081  31.090  30.572  1.00  0.00     0.031 A 
BRANCH  49  63
ATOM     63  C   UNL A   1      47.976  26.315  30.121  1.00  0.00    -0.014 A 
ATOM     64  C   UNL A   1      48.930  26.302  29.090  1.00  0.00     0.009 A 
ATOM     65  C   UNL A   1      48.340  25.829  31.387  1.00  0.00     0.009 A 
ATOM     66  C   UNL A   1      50.202  25.768  29.309  1.00  0.00     0.001 A 
ATOM     67  C   UNL A   1      49.621  25.321  31.610  1.00  0.00     0.001 A 
ATOM     68  C   UNL A   1      50.547  25.280  30.568  1.00  0.00     0.000 A 
ENDBRANCH  49  63
BRANCH  50  69
ATOM     69  C   UNL A   1      38.532  29.231  29.040  1.00  0.00    -0.014 A 
ATOM     70  C   UNL A   1      37.682  29.214  30.156  1.00  0.00     0.009 A 
ATOM     71  C   UNL A   1      38.033  29.687  27.809  1.00  0.00     0.009 A 
ATOM     72  C   UNL A   1      36.356  29.635  30.040  1.00  0.00     0.001 A 
ATOM     73  C   UNL A   1      36.713  30.128  27.703  1.00  0.00     0.001 A 
ATOM     74  C   UNL A   1      35.874  30.098  28.816  1.00  0.00     0.000 A 
ENDBRANCH  50  69
BRANCH  62  75
ATOM     75  C   UNL A   1      44.348  32.506  30.999  1.00  0.00    -0.014 A 
ATOM     76  C   UNL A   1      44.251  32.885  32.347  1.00  0.00     0.009 A 
ATOM     77  C   UNL A   1      44.710  33.469  30.045  1.00  0.00     0.009 A 
ATOM     78  C   UNL A   1      44.474  34.211  32.725  1.00  0.00     0.001 A 
ATOM     79  C   UNL A   1      44.956  34.788  30.430  1.00  0.00     0.001 A 
ATOM     80  C   UNL A   1      44.827  35.160  31.767  1.00  0.00     0.000 A 
ENDBRANCH  62  75
ENDBRANCH  36  37
ENDBRANCH  28  31
ENDBRANCH  26  27
ENDBRANCH   1  26
TORSDOF 12
ENDMDL
MODEL 3
REMARK VINA RESULT:     -11.1      2.638      7.164
REMARK SMILES CC1(C)CCC[C@H]1NC(=O)N[C@@H]1COC[C@@]1(C)C(=O)NCCCNC(=O)c1ccc(-c2c3nc(c(-c4ccccc4)c4ccc([nH]4)c(-c4ccccc4)c4nc(c(-c5ccccc5)c5ccc2[nH]5)C=C4)C=C3)cc1
REMARK SMILES IDX 22 1 21 2 20 3 18 4 19 5 16 7 12 8 13 9 14 10 15 11 17 12
REMARK SMILES IDX 11 13 8 14 9 15 10 17 7 19 1 20 2 21 3 22 4 23 5 24 6 25
REMARK SMILES IDX 23 26 24 27 25 28 26 30 27 31 28 32 74 33 29 34 73 35 30 36
REMARK SMILES IDX 31 37 32 38 67 39 33 40 72 41 66 42 68 43 34 44 71 45 65 46
REMARK SMILES IDX 64 47 35 49 57 50 42 51 56 52 43 53 46 54 55 55 69 56 44 57
REMARK SMILES IDX 45 58 54 60 70 61 47 62 36 63 37 64 41 65 38 66 40 67 39 68
REMARK SMILES IDX 58 69 59 70 63 71 60 72 62 73 61 74 48 75 49 76 53 77 50 78
REMARK SMILES IDX 52 79 51 80
REMARK H PARENT 20 6 8 16 11 18 24 29 68 48 46 59
REMARK Flexibility Score: inf
ROOT
ATOM      1  C   UNL A   1      31.372  32.221  26.741  1.00  0.00     0.042 C 
ENDROOT
BRANCH   1   2
ATOM      2  C   UNL A   1      31.465  30.804  26.176  1.00  0.00     0.117 C 
BRANCH   2   3
ATOM      3  N   UNL A   1      32.718  30.098  26.385  1.00  0.00    -0.355 N 
ATOM      4  C   UNL A   1      33.163  28.871  25.990  1.00  0.00     0.230 C 
ATOM      5  O   UNL A   1      34.381  28.691  26.083  1.00  0.00    -0.274 OA
ATOM      6  H   UNL A   1      33.374  30.607  26.915  1.00  0.00     0.163 HD
BRANCH   4   7
ATOM      7  C   UNL A   1      32.220  27.734  25.570  1.00  0.00     0.092 C 
ATOM      8  C   UNL A   1      32.891  26.379  25.270  1.00  0.00     0.127 C 
ATOM      9  C   UNL A   1      32.085  25.310  26.006  1.00  0.00     0.186 C 
ATOM     10  O   UNL A   1      30.957  25.973  26.580  1.00  0.00    -0.378 OA
ATOM     11  C   UNL A   1      31.363  27.334  26.795  1.00  0.00     0.179 C 
ATOM     12  C   UNL A   1      31.284  28.294  24.513  1.00  0.00     0.026 C 
BRANCH   8  13
ATOM     13  N   UNL A   1      33.261  26.007  23.899  1.00  0.00    -0.332 N 
ATOM     14  N   UNL A   1      34.580  24.036  23.665  1.00  0.00    -0.335 N 
ATOM     15  C   UNL A   1      33.899  25.075  23.201  1.00  0.00     0.315 C 
ATOM     16  H   UNL A   1      34.775  23.386  22.952  1.00  0.00     0.165 HD
ATOM     17  O   UNL A   1      33.827  25.186  21.972  1.00  0.00    -0.249 OA
ATOM     18  H   UNL A   1      32.913  26.688  23.279  1.00  0.00     0.165 HD
BRANCH  14  19
ATOM     19  C   UNL A   1      35.117  23.592  24.949  1.00  0.00     0.089 C 
ATOM     20  C   UNL A   1      33.575  21.480  24.607  1.00  0.00     0.013 C 
ATOM     21  C   UNL A   1      34.845  22.075  25.235  1.00  0.00    -0.015 C 
ATOM     22  C   UNL A   1      34.804  21.807  26.758  1.00  0.00     0.013 C 
ATOM     23  C   UNL A   1      36.080  21.393  24.623  1.00  0.00     0.008 C 
ATOM     24  C   UNL A   1      37.230  22.305  25.004  1.00  0.00     0.003 C 
ATOM     25  C   UNL A   1      36.660  23.719  24.914  1.00  0.00     0.025 C 
ENDBRANCH  14  19
ENDBRANCH   8  13
ENDBRANCH   4   7
ENDBRANCH   2   3
ENDBRANCH   1   2
BRANCH   1  26
ATOM     26  C   UNL A   1      32.699  32.935  26.981  1.00  0.00     0.118 C 
BRANCH  26  27
ATOM     27  N   UNL A   1      32.546  34.145  27.768  1.00  0.00    -0.352 N 
ATOM     28  C   UNL A   1      33.208  34.617  28.871  1.00  0.00     0.251 C 
ATOM     29  H   UNL A   1      31.829  34.739  27.448  1.00  0.00     0.163 HD
ATOM     30  O   UNL A   1      32.712  35.566  29.475  1.00  0.00    -0.269 OA
BRANCH  28  31
ATOM     31  C   UNL A   1      34.492  34.049  29.360  1.00  0.00     0.039 A 
ATOM     32  C   UNL A   1      35.653  34.354  28.635  1.00  0.00     0.014 A 
ATOM     33  C   UNL A   1      34.576  33.130  30.411  1.00  0.00     0.014 A 
ATOM     34  C   UNL A   1      36.875  33.757  28.960  1.00  0.00     0.010 A 
ATOM     35  C   UNL A   1      35.812  32.583  30.780  1.00  0.00     0.010 A 
ATOM     36  C   UNL A   1      36.970  32.869  30.041  1.00  0.00    -0.014 A 
BRANCH  36  37
ATOM     37  C   UNL A   1      38.272  32.230  30.373  1.00  0.00     0.031 A 
ATOM     38  C   UNL A   1      39.232  32.877  31.337  1.00  0.00     0.074 A 
ATOM     39  C   UNL A   1      38.605  31.059  29.798  1.00  0.00     0.049 A 
ATOM     40  N   UNL A   1      40.380  32.430  31.785  1.00  0.00    -0.248 NA
ATOM     41  C   UNL A   1      38.866  34.207  31.847  1.00  0.00     0.031 C 
ATOM     42  C   UNL A   1      37.799  30.346  28.804  1.00  0.00     0.029 A 
ATOM     43  N   UNL A   1      39.708  30.260  29.970  1.00  0.00    -0.354 N 
ATOM     44  C   UNL A   1      40.879  33.427  32.614  1.00  0.00     0.074 A 
ATOM     45  C   UNL A   1      39.930  34.519  32.572  1.00  0.00     0.031 C 
ATOM     46  C   UNL A   1      38.423  29.205  28.474  1.00  0.00     0.029 A 
ATOM     47  C   UNL A   1      39.676  29.112  29.218  1.00  0.00     0.049 A 
ATOM     48  H   UNL A   1      40.450  30.488  30.575  1.00  0.00     0.167 HD
ATOM     49  C   UNL A   1      42.015  33.433  33.355  1.00  0.00     0.031 A 
ATOM     50  C   UNL A   1      40.550  28.091  29.138  1.00  0.00     0.031 A 
ATOM     51  C   UNL A   1      42.960  32.348  33.410  1.00  0.00     0.049 A 
ATOM     52  C   UNL A   1      41.778  28.094  30.000  1.00  0.00     0.074 A 
ATOM     53  C   UNL A   1      44.099  32.231  34.188  1.00  0.00     0.029 A 
ATOM     54  N   UNL A   1      42.877  31.191  32.651  1.00  0.00    -0.354 N 
ATOM     55  N   UNL A   1      42.189  29.006  30.847  1.00  0.00    -0.248 NA
ATOM     56  C   UNL A   1      42.651  26.915  29.909  1.00  0.00     0.031 C 
ATOM     57  C   UNL A   1      44.730  31.024  33.867  1.00  0.00     0.029 A 
ATOM     58  C   UNL A   1      43.959  30.368  32.922  1.00  0.00     0.049 A 
ATOM     59  H   UNL A   1      42.157  30.985  32.012  1.00  0.00     0.167 HD
ATOM     60  C   UNL A   1      43.363  28.509  31.398  1.00  0.00     0.074 A 
ATOM     61  C   UNL A   1      43.584  27.205  30.807  1.00  0.00     0.031 C 
ATOM     62  C   UNL A   1      44.184  29.084  32.310  1.00  0.00     0.031 A 
BRANCH  49  63
ATOM     63  C   UNL A   1      42.303  34.672  34.157  1.00  0.00    -0.014 A 
ATOM     64  C   UNL A   1      43.000  35.756  33.599  1.00  0.00     0.009 A 
ATOM     65  C   UNL A   1      41.858  34.763  35.485  1.00  0.00     0.009 A 
ATOM     66  C   UNL A   1      43.288  36.885  34.371  1.00  0.00     0.001 A 
ATOM     67  C   UNL A   1      42.124  35.904  36.245  1.00  0.00     0.001 A 
ATOM     68  C   UNL A   1      42.848  36.958  35.692  1.00  0.00     0.000 A 
ENDBRANCH  49  63
BRANCH  50  69
ATOM     69  C   UNL A   1      40.264  26.960  28.222  1.00  0.00    -0.014 A 
ATOM     70  C   UNL A   1      40.788  26.945  26.921  1.00  0.00     0.009 A 
ATOM     71  C   UNL A   1      39.492  25.871  28.659  1.00  0.00     0.009 A 
ATOM     72  C   UNL A   1      40.537  25.866  26.071  1.00  0.00     0.001 A 
ATOM     73  C   UNL A   1      39.262  24.784  27.813  1.00  0.00     0.001 A 
ATOM     74  C   UNL A   1      39.780  24.784  26.520  1.00  0.00     0.000 A 
ENDBRANCH  50  69
BRANCH  62  75
ATOM     75  C   UNL A   1      45.399  28.300  32.718  1.00  0.00    -0.014 A 
ATOM     76  C   UNL A   1      45.339  27.363  33.761  1.00  0.00     0.009 A 
ATOM     77  C   UNL A   1      46.616  28.495  32.047  1.00  0.00     0.009 A 
ATOM     78  C   UNL A   1      46.484  26.663  34.148  1.00  0.00     0.001 A 
ATOM     79  C   UNL A   1      47.753  27.776  32.420  1.00  0.00     0.001 A 
ATOM     80  C   UNL A   1      47.688  26.869  33.477  1.00  0.00     0.000 A 
ENDBRANCH  62  75
ENDBRANCH  36  37
ENDBRANCH  28  31
ENDBRANCH  26  27
ENDBRANCH   1  26
TORSDOF 12
ENDMDL
