MODEL 1
REMARK VINA RESULT:     -10.6      0.000      0.000
REMARK SMILES C[C@@H](C(=O)NCCCNC(=O)c1ccc(-c2c3nc(c(-c4ccccc4)c4ccc([nH]4)c(-c4ccccc4)c4nc(c(-c5ccccc5)c5ccc2[nH]5)C=C4)C=C3)cc1)[C@H](C)[N@@H+]1C[C@H]2C[NH2+]C[C@@H]2[C@@H]1C
REMARK SMILES IDX 7 1 6 2 5 3 3 4 4 5 2 7 1 8 60 9 61 10 62 11 63 12 69 13
REMARK SMILES IDX 64 15 68 16 70 17 65 18 67 19 66 20 8 23 9 24 10 25 11 27
REMARK SMILES IDX 12 28 13 29 59 30 14 31 58 32 15 33 16 34 17 35 52 36 18 37
REMARK SMILES IDX 57 38 51 39 53 40 19 41 56 42 50 43 49 44 20 46 42 47 27 48
REMARK SMILES IDX 41 49 28 50 31 51 40 52 54 53 29 54 30 55 39 57 55 58 32 59
REMARK SMILES IDX 21 60 22 61 26 62 23 63 25 64 24 65 43 66 44 67 48 68 45 69
REMARK SMILES IDX 47 70 46 71 33 72 34 73 38 74 35 75 37 76 36 77
REMARK H PARENT 5 6 62 14 66 21 66 22 9 26 53 45 31 56
REMARK Flexibility Score: inf
ROOT
ATOM      1  C   UNL A   1      37.968  19.577  25.005  1.00  0.00     0.042 C 
ENDROOT
BRANCH   1   2
ATOM      2  C   UNL A   1      36.819  20.574  24.878  1.00  0.00     0.117 C 
BRANCH   2   3
ATOM      3  N   UNL A   1      37.087  21.573  23.861  1.00  0.00    -0.356 N 
ATOM      4  C   UNL A   1      36.343  22.637  23.442  1.00  0.00     0.228 C 
ATOM      5  O   UNL A   1      36.751  23.242  22.452  1.00  0.00    -0.275 OA
ATOM      6  H   UNL A   1      37.948  21.465  23.396  1.00  0.00     0.163 HD
BRANCH   4   7
ATOM      7  C   UNL A   1      35.059  22.995  24.190  1.00  0.00     0.133 C 
ATOM      8  C   UNL A   1      33.914  23.185  23.190  1.00  0.00     0.024 C 
BRANCH   7   9
ATOM      9  C   UNL A   1      35.190  24.214  25.158  1.00  0.00     0.193 C 
ATOM     10  C   UNL A   1      36.565  24.270  25.852  1.00  0.00     0.076 C 
BRANCH   9  11
ATOM     11  N   UNL A   1      34.134  24.414  26.167  1.00  0.00    -0.329 N 
ATOM     12  C   UNL A   1      33.242  23.288  26.522  1.00  0.00     0.272 C 
ATOM     13  C   UNL A   1      33.310  25.674  26.063  1.00  0.00     0.190 C 
ATOM     14  H   UNL A   1      34.788  24.510  26.944  1.00  0.00     0.348 HD
ATOM     15  C   UNL A   1      31.912  23.781  26.042  1.00  0.00     0.114 C 
ATOM     16  C   UNL A   1      31.941  25.203  26.534  1.00  0.00     0.116 C 
ATOM     17  C   UNL A   1      33.250  26.394  24.713  1.00  0.00     0.076 C 
ATOM     18  C   UNL A   1      30.588  23.319  26.577  1.00  0.00     0.270 C 
ATOM     19  C   UNL A   1      30.588  25.671  26.060  1.00  0.00     0.271 C 
ATOM     20  N   UNL A   1      29.711  24.489  26.300  1.00  0.00    -0.345 N 
ATOM     21  H   UNL A   1      29.105  24.665  27.102  1.00  0.00     0.346 HD
ATOM     22  H   UNL A   1      29.124  24.310  25.485  1.00  0.00     0.346 HD
ENDBRANCH   9  11
ENDBRANCH   7   9
ENDBRANCH   4   7
ENDBRANCH   2   3
ENDBRANCH   1   2
BRANCH   1  23
ATOM     23  C   UNL A   1      39.069  20.007  25.970  1.00  0.00     0.118 C 
BRANCH  23  24
ATOM     24  N   UNL A   1      40.292  19.237  25.806  1.00  0.00    -0.352 N 
ATOM     25  C   UNL A   1      41.597  19.617  25.977  1.00  0.00     0.251 C 
ATOM     26  H   UNL A   1      40.161  18.300  25.533  1.00  0.00     0.163 HD
ATOM     27  O   UNL A   1      42.499  18.854  25.625  1.00  0.00    -0.269 OA
BRANCH  25  28
ATOM     28  C   UNL A   1      41.939  20.935  26.552  1.00  0.00     0.039 A 
ATOM     29  C   UNL A   1      42.290  21.970  25.682  1.00  0.00     0.014 A 
ATOM     30  C   UNL A   1      41.956  21.150  27.934  1.00  0.00     0.014 A 
ATOM     31  C   UNL A   1      42.607  23.231  26.192  1.00  0.00     0.010 A 
ATOM     32  C   UNL A   1      42.204  22.427  28.438  1.00  0.00     0.010 A 
ATOM     33  C   UNL A   1      42.541  23.477  27.572  1.00  0.00    -0.014 A 
BRANCH  33  34
ATOM     34  C   UNL A   1      42.823  24.831  28.113  1.00  0.00     0.031 A 
ATOM     35  C   UNL A   1      44.225  25.229  28.484  1.00  0.00     0.074 A 
ATOM     36  C   UNL A   1      41.808  25.695  28.299  1.00  0.00     0.049 A 
ATOM     37  N   UNL A   1      44.659  26.371  28.958  1.00  0.00    -0.248 NA
ATOM     38  C   UNL A   1      45.272  24.209  28.322  1.00  0.00     0.031 C 
ATOM     39  C   UNL A   1      40.396  25.417  28.026  1.00  0.00     0.029 A 
ATOM     40  N   UNL A   1      41.809  26.988  28.760  1.00  0.00    -0.354 N 
ATOM     41  C   UNL A   1      46.023  26.202  29.158  1.00  0.00     0.074 A 
ATOM     42  C   UNL A   1      46.337  24.835  28.803  1.00  0.00     0.031 C 
ATOM     43  C   UNL A   1      39.672  26.516  28.294  1.00  0.00     0.029 A 
ATOM     44  C   UNL A   1      40.563  27.564  28.782  1.00  0.00     0.049 A 
ATOM     45  H   UNL A   1      42.625  27.458  29.047  1.00  0.00     0.167 HD
ATOM     46  C   UNL A   1      46.938  27.108  29.579  1.00  0.00     0.031 A 
ATOM     47  C   UNL A   1      40.177  28.801  29.148  1.00  0.00     0.031 A 
ATOM     48  C   UNL A   1      46.633  28.471  29.927  1.00  0.00     0.049 A 
ATOM     49  C   UNL A   1      41.212  29.790  29.602  1.00  0.00     0.074 A 
ATOM     50  C   UNL A   1      47.500  29.476  30.319  1.00  0.00     0.029 A 
ATOM     51  N   UNL A   1      45.360  29.017  29.924  1.00  0.00    -0.354 N 
ATOM     52  N   UNL A   1      42.508  29.634  29.720  1.00  0.00    -0.248 NA
ATOM     53  C   UNL A   1      40.730  31.133  29.956  1.00  0.00     0.031 C 
ATOM     54  C   UNL A   1      46.745  30.623  30.591  1.00  0.00     0.029 A 
ATOM     55  C   UNL A   1      45.415  30.342  30.324  1.00  0.00     0.049 A 
ATOM     56  H   UNL A   1      44.538  28.536  29.675  1.00  0.00     0.167 HD
ATOM     57  C   UNL A   1      42.999  30.863  30.140  1.00  0.00     0.074 A 
ATOM     58  C   UNL A   1      41.864  31.758  30.237  1.00  0.00     0.031 C 
ATOM     59  C   UNL A   1      44.276  31.218  30.423  1.00  0.00     0.031 A 
BRANCH  46  60
ATOM     60  C   UNL A   1      48.365  26.646  29.685  1.00  0.00    -0.014 A 
ATOM     61  C   UNL A   1      49.261  26.813  28.618  1.00  0.00     0.009 A 
ATOM     62  C   UNL A   1      48.828  26.064  30.876  1.00  0.00     0.009 A 
ATOM     63  C   UNL A   1      50.583  26.373  28.726  1.00  0.00     0.001 A 
ATOM     64  C   UNL A   1      50.156  25.650  30.992  1.00  0.00     0.001 A 
ATOM     65  C   UNL A   1      51.029  25.796  29.914  1.00  0.00     0.000 A 
ENDBRANCH  46  60
BRANCH  47  66
ATOM     66  C   UNL A   1      38.744  29.183  29.073  1.00  0.00    -0.014 A 
ATOM     67  C   UNL A   1      38.208  29.702  27.885  1.00  0.00     0.009 A 
ATOM     68  C   UNL A   1      37.907  29.031  30.188  1.00  0.00     0.009 A 
ATOM     69  C   UNL A   1      36.866  30.085  27.823  1.00  0.00     0.001 A 
ATOM     70  C   UNL A   1      36.559  29.391  30.116  1.00  0.00     0.001 A 
ATOM     71  C   UNL A   1      36.042  29.926  28.937  1.00  0.00     0.000 A 
ENDBRANCH  47  66
BRANCH  59  72
ATOM     72  C   UNL A   1      44.512  32.641  30.840  1.00  0.00    -0.014 A 
ATOM     73  C   UNL A   1      44.490  33.015  32.193  1.00  0.00     0.009 A 
ATOM     74  C   UNL A   1      44.779  33.616  29.867  1.00  0.00     0.009 A 
ATOM     75  C   UNL A   1      44.696  34.346  32.559  1.00  0.00     0.001 A 
ATOM     76  C   UNL A   1      45.011  34.941  30.238  1.00  0.00     0.001 A 
ATOM     77  C   UNL A   1      44.959  35.307  31.582  1.00  0.00     0.000 A 
ENDBRANCH  59  72
ENDBRANCH  33  34
ENDBRANCH  25  28
ENDBRANCH  23  24
ENDBRANCH   1  23
TORSDOF 12
ENDMDL
MODEL 2
REMARK VINA RESULT:     -10.5      0.555      6.120
REMARK SMILES C[C@@H](C(=O)NCCCNC(=O)c1ccc(-c2c3nc(c(-c4ccccc4)c4ccc([nH]4)c(-c4ccccc4)c4nc(c(-c5ccccc5)c5ccc2[nH]5)C=C4)C=C3)cc1)[C@H](C)[N@@H+]1C[C@H]2C[NH2+]C[C@@H]2[C@@H]1C
REMARK SMILES IDX 7 1 6 2 5 3 3 4 4 5 2 7 1 8 60 9 61 10 62 11 63 12 69 13
REMARK SMILES IDX 64 15 68 16 70 17 65 18 67 19 66 20 8 23 9 24 10 25 11 27
REMARK SMILES IDX 12 28 13 29 59 30 14 31 58 32 15 33 16 34 17 35 52 36 18 37
REMARK SMILES IDX 57 38 51 39 53 40 19 41 56 42 50 43 49 44 20 46 42 47 27 48
REMARK SMILES IDX 41 49 28 50 31 51 40 52 54 53 29 54 30 55 39 57 55 58 32 59
REMARK SMILES IDX 21 60 22 61 26 62 23 63 25 64 24 65 43 66 44 67 48 68 45 69
REMARK SMILES IDX 47 70 46 71 33 72 34 73 38 74 35 75 37 76 36 77
REMARK H PARENT 5 6 62 14 66 21 66 22 9 26 53 45 31 56
REMARK Flexibility Score: inf
ROOT
ATOM      1  C   UNL A   1      37.803  19.558  25.120  1.00  0.00     0.042 C 
ENDROOT
BRANCH   1   2
ATOM      2  C   UNL A   1      36.658  20.539  24.883  1.00  0.00     0.117 C 
BRANCH   2   3
ATOM      3  N   UNL A   1      37.003  21.532  23.883  1.00  0.00    -0.356 N 
ATOM      4  C   UNL A   1      36.325  22.636  23.454  1.00  0.00     0.228 C 
ATOM      5  O   UNL A   1      36.790  23.228  22.482  1.00  0.00    -0.275 OA
ATOM      6  H   UNL A   1      37.871  21.386  23.441  1.00  0.00     0.163 HD
BRANCH   4   7
ATOM      7  C   UNL A   1      35.041  23.051  24.171  1.00  0.00     0.133 C 
ATOM      8  C   UNL A   1      33.933  23.301  23.141  1.00  0.00     0.024 C 
BRANCH   7   9
ATOM      9  C   UNL A   1      35.203  24.257  25.149  1.00  0.00     0.193 C 
ATOM     10  C   UNL A   1      36.569  24.256  25.863  1.00  0.00     0.076 C 
BRANCH   9  11
ATOM     11  N   UNL A   1      34.141  24.491  26.145  1.00  0.00    -0.329 N 
ATOM     12  C   UNL A   1      33.208  23.394  26.485  1.00  0.00     0.272 C 
ATOM     13  C   UNL A   1      33.361  25.777  26.033  1.00  0.00     0.190 C 
ATOM     14  H   UNL A   1      34.788  24.563  26.930  1.00  0.00     0.348 HD
ATOM     15  C   UNL A   1      31.902  23.931  25.989  1.00  0.00     0.114 C 
ATOM     16  C   UNL A   1      31.971  25.351  26.485  1.00  0.00     0.116 C 
ATOM     17  C   UNL A   1      33.343  26.501  24.684  1.00  0.00     0.076 C 
ATOM     18  C   UNL A   1      30.556  23.513  26.505  1.00  0.00     0.270 C 
ATOM     19  C   UNL A   1      30.641  25.864  25.994  1.00  0.00     0.271 C 
ATOM     20  N   UNL A   1      29.722  24.712  26.220  1.00  0.00    -0.345 N 
ATOM     21  H   UNL A   1      29.111  24.906  27.014  1.00  0.00     0.346 HD
ATOM     22  H   UNL A   1      29.140  24.554  25.397  1.00  0.00     0.346 HD
ENDBRANCH   9  11
ENDBRANCH   7   9
ENDBRANCH   4   7
ENDBRANCH   2   3
ENDBRANCH   1   2
BRANCH   1  23
ATOM     23  C   UNL A   1      39.045  20.181  25.749  1.00  0.00     0.118 C 
BRANCH  23  24
ATOM     24  N   UNL A   1      40.167  19.258  25.808  1.00  0.00    -0.352 N 
ATOM     25  C   UNL A   1      41.485  19.497  26.098  1.00  0.00     0.251 C 
ATOM     26  H   UNL A   1      39.947  18.320  25.612  1.00  0.00     0.163 HD
ATOM     27  O   UNL A   1      42.313  18.599  25.932  1.00  0.00    -0.269 OA
BRANCH  25  28
ATOM     28  C   UNL A   1      41.931  20.821  26.583  1.00  0.00     0.039 A 
ATOM     29  C   UNL A   1      42.332  21.774  25.643  1.00  0.00     0.014 A 
ATOM     30  C   UNL A   1      41.996  21.119  27.948  1.00  0.00     0.014 A 
ATOM     31  C   UNL A   1      42.748  23.038  26.067  1.00  0.00     0.010 A 
ATOM     32  C   UNL A   1      42.344  22.403  28.366  1.00  0.00     0.010 A 
ATOM     33  C   UNL A   1      42.732  23.372  27.430  1.00  0.00    -0.014 A 
BRANCH  33  34
ATOM     34  C   UNL A   1      43.121  24.732  27.879  1.00  0.00     0.031 A 
ATOM     35  C   UNL A   1      42.073  25.778  28.146  1.00  0.00     0.074 A 
ATOM     36  C   UNL A   1      44.425  25.038  28.017  1.00  0.00     0.049 A 
ATOM     37  N   UNL A   1      42.228  27.013  28.555  1.00  0.00    -0.248 NA
ATOM     38  C   UNL A   1      40.674  25.396  27.904  1.00  0.00     0.031 C 
ATOM     39  C   UNL A   1      45.542  24.131  27.743  1.00  0.00     0.029 A 
ATOM     40  N   UNL A   1      45.032  26.198  28.427  1.00  0.00    -0.354 N 
ATOM     41  C   UNL A   1      40.950  27.555  28.610  1.00  0.00     0.074 A 
ATOM     42  C   UNL A   1      40.037  26.533  28.145  1.00  0.00     0.031 C 
ATOM     43  C   UNL A   1      46.696  24.758  28.023  1.00  0.00     0.029 A 
ATOM     44  C   UNL A   1      46.402  26.117  28.469  1.00  0.00     0.049 A 
ATOM     45  H   UNL A   1      44.533  27.012  28.669  1.00  0.00     0.167 HD
ATOM     46  C   UNL A   1      40.566  28.785  29.028  1.00  0.00     0.031 A 
ATOM     47  C   UNL A   1      47.322  27.030  28.831  1.00  0.00     0.031 A 
ATOM     48  C   UNL A   1      41.468  29.803  29.498  1.00  0.00     0.049 A 
ATOM     49  C   UNL A   1      46.870  28.383  29.301  1.00  0.00     0.074 A 
ATOM     50  C   UNL A   1      41.169  31.062  29.987  1.00  0.00     0.029 A 
ATOM     51  N   UNL A   1      42.847  29.675  29.535  1.00  0.00    -0.354 N 
ATOM     52  N   UNL A   1      45.653  28.855  29.412  1.00  0.00    -0.248 NA
ATOM     53  C   UNL A   1      47.923  29.323  29.714  1.00  0.00     0.031 C 
ATOM     54  C   UNL A   1      42.372  31.713  30.285  1.00  0.00     0.029 A 
ATOM     55  C   UNL A   1      43.416  30.840  30.024  1.00  0.00     0.049 A 
ATOM     56  H   UNL A   1      43.349  28.876  29.256  1.00  0.00     0.167 HD
ATOM     57  C   UNL A   1      45.790  30.137  29.926  1.00  0.00     0.074 A 
ATOM     58  C   UNL A   1      47.208  30.361  30.125  1.00  0.00     0.031 C 
ATOM     59  C   UNL A   1      44.828  31.050  30.208  1.00  0.00     0.031 A 
BRANCH  46  60
ATOM     60  C   UNL A   1      39.095  29.094  28.996  1.00  0.00    -0.014 A 
ATOM     61  C   UNL A   1      38.281  28.861  30.116  1.00  0.00     0.009 A 
ATOM     62  C   UNL A   1      38.520  29.652  27.844  1.00  0.00     0.009 A 
ATOM     63  C   UNL A   1      36.915  29.146  30.071  1.00  0.00     0.001 A 
ATOM     64  C   UNL A   1      37.159  29.962  27.810  1.00  0.00     0.001 A 
ATOM     65  C   UNL A   1      36.356  29.700  28.920  1.00  0.00     0.000 A 
ENDBRANCH  46  60
BRANCH  47  66
ATOM     66  C   UNL A   1      48.766  26.685  28.791  1.00  0.00    -0.014 A 
ATOM     67  C   UNL A   1      49.505  26.855  27.611  1.00  0.00     0.009 A 
ATOM     68  C   UNL A   1      49.410  26.184  29.932  1.00  0.00     0.009 A 
ATOM     69  C   UNL A   1      50.857  26.506  27.567  1.00  0.00     0.001 A 
ATOM     70  C   UNL A   1      50.768  25.861  29.892  1.00  0.00     0.001 A 
ATOM     71  C   UNL A   1      51.488  26.013  28.708  1.00  0.00     0.000 A 
ENDBRANCH  47  66
BRANCH  59  72
ATOM     72  C   UNL A   1      45.280  32.361  30.782  1.00  0.00    -0.014 A 
ATOM     73  C   UNL A   1      45.400  32.545  32.168  1.00  0.00     0.009 A 
ATOM     74  C   UNL A   1      45.610  33.421  29.923  1.00  0.00     0.009 A 
ATOM     75  C   UNL A   1      45.807  33.777  32.684  1.00  0.00     0.001 A 
ATOM     76  C   UNL A   1      46.042  34.643  30.440  1.00  0.00     0.001 A 
ATOM     77  C   UNL A   1      46.131  34.823  31.820  1.00  0.00     0.000 A 
ENDBRANCH  59  72
ENDBRANCH  33  34
ENDBRANCH  25  28
ENDBRANCH  23  24
ENDBRANCH   1  23
TORSDOF 12
ENDMDL
MODEL 3
REMARK VINA RESULT:     -10.4      1.489      2.234
REMARK SMILES C[C@@H](C(=O)NCCCNC(=O)c1ccc(-c2c3nc(c(-c4ccccc4)c4ccc([nH]4)c(-c4ccccc4)c4nc(c(-c5ccccc5)c5ccc2[nH]5)C=C4)C=C3)cc1)[C@H](C)[N@@H+]1C[C@H]2C[NH2+]C[C@@H]2[C@@H]1C
REMARK SMILES IDX 7 1 6 2 5 3 3 4 4 5 2 7 1 8 60 9 61 10 62 11 63 12 69 13
REMARK SMILES IDX 64 15 68 16 70 17 65 18 67 19 66 20 8 23 9 24 10 25 11 27
REMARK SMILES IDX 12 28 13 29 59 30 14 31 58 32 15 33 16 34 17 35 52 36 18 37
REMARK SMILES IDX 57 38 51 39 53 40 19 41 56 42 50 43 49 44 20 46 42 47 27 48
REMARK SMILES IDX 41 49 28 50 31 51 40 52 54 53 29 54 30 55 39 57 55 58 32 59
REMARK SMILES IDX 21 60 22 61 26 62 23 63 25 64 24 65 43 66 44 67 48 68 45 69
REMARK SMILES IDX 47 70 46 71 33 72 34 73 38 74 35 75 37 76 36 77
REMARK H PARENT 5 6 62 14 66 21 66 22 9 26 53 45 31 56
REMARK Flexibility Score: inf
ROOT
ATOM      1  C   UNL A   1      37.375  19.751  24.914  1.00  0.00     0.042 C 
ENDROOT
BRANCH   1   2
ATOM      2  C   UNL A   1      36.180  20.693  24.796  1.00  0.00     0.117 C 
BRANCH   2   3
ATOM      3  N   UNL A   1      35.432  20.766  26.038  1.00  0.00    -0.356 N 
ATOM      4  C   UNL A   1      34.477  21.650  26.450  1.00  0.00     0.228 C 
ATOM      5  O   UNL A   1      34.110  21.561  27.620  1.00  0.00    -0.275 OA
ATOM      6  H   UNL A   1      35.649  20.062  26.690  1.00  0.00     0.163 HD
BRANCH   4   7
ATOM      7  C   UNL A   1      33.948  22.694  25.467  1.00  0.00     0.133 C 
ATOM      8  C   UNL A   1      34.105  24.094  26.069  1.00  0.00     0.024 C 
BRANCH   7   9
ATOM      9  C   UNL A   1      32.490  22.438  24.970  1.00  0.00     0.193 C 
ATOM     10  C   UNL A   1      32.143  20.937  24.913  1.00  0.00     0.076 C 
BRANCH   9  11
ATOM     11  N   UNL A   1      32.065  23.078  23.711  1.00  0.00    -0.329 N 
ATOM     12  C   UNL A   1      33.087  23.604  22.779  1.00  0.00     0.272 C 
ATOM     13  C   UNL A   1      30.923  24.061  23.789  1.00  0.00     0.190 C 
ATOM     14  H   UNL A   1      31.726  22.210  23.296  1.00  0.00     0.348 HD
ATOM     15  C   UNL A   1      32.809  25.075  22.812  1.00  0.00     0.114 C 
ATOM     16  C   UNL A   1      31.306  25.083  22.727  1.00  0.00     0.116 C 
ATOM     17  C   UNL A   1      30.613  24.709  25.141  1.00  0.00     0.076 C 
ATOM     18  C   UNL A   1      33.164  26.034  21.713  1.00  0.00     0.270 C 
ATOM     19  C   UNL A   1      31.052  26.569  22.739  1.00  0.00     0.271 C 
ATOM     20  N   UNL A   1      32.159  27.115  21.902  1.00  0.00    -0.345 N 
ATOM     21  H   UNL A   1      31.794  27.412  20.996  1.00  0.00     0.346 HD
ATOM     22  H   UNL A   1      32.585  27.922  22.357  1.00  0.00     0.346 HD
ENDBRANCH   9  11
ENDBRANCH   7   9
ENDBRANCH   4   7
ENDBRANCH   2   3
ENDBRANCH   1   2
BRANCH   1  23
ATOM     23  C   UNL A   1      38.578  20.351  25.635  1.00  0.00     0.118 C 
BRANCH  23  24
ATOM     24  N   UNL A   1      39.718  19.448  25.673  1.00  0.00    -0.352 N 
ATOM     25  C   UNL A   1      41.020  19.693  26.024  1.00  0.00     0.251 C 
ATOM     26  H   UNL A   1      39.524  18.521  25.409  1.00  0.00     0.163 HD
ATOM     27  O   UNL A   1      41.871  18.823  25.829  1.00  0.00    -0.269 OA
BRANCH  25  28
ATOM     28  C   UNL A   1      41.421  20.990  26.609  1.00  0.00     0.039 A 
ATOM     29  C   UNL A   1      41.914  21.981  25.756  1.00  0.00     0.014 A 
ATOM     30  C   UNL A   1      41.355  21.226  27.986  1.00  0.00     0.014 A 
ATOM     31  C   UNL A   1      42.290  23.222  26.275  1.00  0.00     0.010 A 
ATOM     32  C   UNL A   1      41.665  22.487  28.493  1.00  0.00     0.010 A 
ATOM     33  C   UNL A   1      42.145  23.494  27.644  1.00  0.00    -0.014 A 
BRANCH  33  34
ATOM     34  C   UNL A   1      42.492  24.830  28.189  1.00  0.00     0.031 A 
ATOM     35  C   UNL A   1      43.912  25.158  28.563  1.00  0.00     0.074 A 
ATOM     36  C   UNL A   1      41.520  25.743  28.378  1.00  0.00     0.049 A 
ATOM     37  N   UNL A   1      44.400  26.277  29.041  1.00  0.00    -0.248 NA
ATOM     38  C   UNL A   1      44.908  24.089  28.399  1.00  0.00     0.031 C 
ATOM     39  C   UNL A   1      40.097  25.535  28.103  1.00  0.00     0.029 A 
ATOM     40  N   UNL A   1      41.584  27.032  28.843  1.00  0.00    -0.354 N 
ATOM     41  C   UNL A   1      45.754  26.040  29.242  1.00  0.00     0.074 A 
ATOM     42  C   UNL A   1      46.001  24.661  28.883  1.00  0.00     0.031 C 
ATOM     43  C   UNL A   1      39.427  26.667  28.374  1.00  0.00     0.029 A 
ATOM     44  C   UNL A   1      40.367  27.669  28.866  1.00  0.00     0.049 A 
ATOM     45  H   UNL A   1      42.421  27.461  29.133  1.00  0.00     0.167 HD
ATOM     46  C   UNL A   1      46.712  26.899  29.667  1.00  0.00     0.031 A 
ATOM     47  C   UNL A   1      40.043  28.921  29.237  1.00  0.00     0.031 A 
ATOM     48  C   UNL A   1      46.474  28.274  30.019  1.00  0.00     0.049 A 
ATOM     49  C   UNL A   1      41.123  29.857  29.694  1.00  0.00     0.074 A 
ATOM     50  C   UNL A   1      47.388  29.234  30.416  1.00  0.00     0.029 A 
ATOM     51  N   UNL A   1      45.229  28.882  30.017  1.00  0.00    -0.354 N 
ATOM     52  N   UNL A   1      42.410  29.638  29.813  1.00  0.00    -0.248 NA
ATOM     53  C   UNL A   1      40.707  31.221  30.053  1.00  0.00     0.031 C 
ATOM     54  C   UNL A   1      46.690  30.415  30.691  1.00  0.00     0.029 A 
ATOM     55  C   UNL A   1      45.348  30.201  30.422  1.00  0.00     0.049 A 
ATOM     56  H   UNL A   1      44.385  28.442  29.766  1.00  0.00     0.167 HD
ATOM     57  C   UNL A   1      42.960  30.840  30.238  1.00  0.00     0.074 A 
ATOM     58  C   UNL A   1      41.871  31.789  30.338  1.00  0.00     0.031 C 
ATOM     59  C   UNL A   1      44.253  31.131  30.524  1.00  0.00     0.031 A 
BRANCH  46  60
ATOM     60  C   UNL A   1      48.115  26.367  29.772  1.00  0.00    -0.014 A 
ATOM     61  C   UNL A   1      48.578  25.776  30.958  1.00  0.00     0.009 A 
ATOM     62  C   UNL A   1      48.974  26.431  28.664  1.00  0.00     0.009 A 
ATOM     63  C   UNL A   1      49.885  25.292  31.045  1.00  0.00     0.001 A 
ATOM     64  C   UNL A   1      50.271  25.921  28.745  1.00  0.00     0.001 A 
ATOM     65  C   UNL A   1      50.729  25.361  29.938  1.00  0.00     0.000 A 
ENDBRANCH  46  60
BRANCH  47  66
ATOM     66  C   UNL A   1      38.630  29.374  29.162  1.00  0.00    -0.014 A 
ATOM     67  C   UNL A   1      37.791  29.275  30.282  1.00  0.00     0.009 A 
ATOM     68  C   UNL A   1      38.115  29.907  27.971  1.00  0.00     0.009 A 
ATOM     69  C   UNL A   1      36.455  29.677  30.204  1.00  0.00     0.001 A 
ATOM     70  C   UNL A   1      36.787  30.332  27.903  1.00  0.00     0.001 A 
ATOM     71  C   UNL A   1      35.956  30.209  29.016  1.00  0.00     0.000 A 
ENDBRANCH  47  66
BRANCH  59  72
ATOM     72  C   UNL A   1      44.558  32.539  30.945  1.00  0.00    -0.014 A 
ATOM     73  C   UNL A   1      44.860  33.532  30.001  1.00  0.00     0.009 A 
ATOM     74  C   UNL A   1      44.520  32.882  32.306  1.00  0.00     0.009 A 
ATOM     75  C   UNL A   1      45.155  34.833  30.414  1.00  0.00     0.001 A 
ATOM     76  C   UNL A   1      44.790  34.188  32.714  1.00  0.00     0.001 A 
ATOM     77  C   UNL A   1      45.116  35.160  31.769  1.00  0.00     0.000 A 
ENDBRANCH  59  72
ENDBRANCH  33  34
ENDBRANCH  25  28
ENDBRANCH  23  24
ENDBRANCH   1  23
TORSDOF 12
ENDMDL
