MODEL 1
REMARK VINA RESULT:     -11.2      0.000      0.000
REMARK SMILES CCc1c(C)nc(Nc2ccc(Cl)cc2Cl)nc1OCC(=O)NCCCNC(=O)c1ccc(-c2c3nc(c(-c4ccccc4)c4ccc([nH]4)c(-c4ccccc4)c4nc(c(-c5ccccc5)c5ccc2[nH]5)C=C4)C=C3)cc1
REMARK SMILES IDX 24 1 23 2 21 3 22 4 20 6 19 7 18 8 3 9 4 10 5 11 6 12 17 13
REMARK SMILES IDX 7 14 2 15 1 16 8 17 9 19 10 20 15 21 11 22 14 23 16 24 12 25
REMARK SMILES IDX 13 26 25 27 26 28 27 29 28 30 29 32 30 33 31 34 77 35 32 36
REMARK SMILES IDX 76 37 33 38 34 39 35 40 70 41 36 42 75 43 69 44 71 45 37 46
REMARK SMILES IDX 74 47 68 48 67 49 38 51 60 52 45 53 59 54 46 55 49 56 58 57
REMARK SMILES IDX 72 58 47 59 48 60 57 62 73 63 50 64 39 65 40 66 44 67 41 68
REMARK SMILES IDX 43 69 42 70 61 71 62 72 66 73 63 74 65 75 64 76 51 77 52 78
REMARK SMILES IDX 56 79 53 80 55 81 54 82
REMARK H PARENT 23 5 8 18 27 31 71 50 49 61
REMARK Flexibility Score: inf
ROOT
ATOM      1  C   UNL A   1      36.466  20.326  24.965  1.00  0.00     0.117 C 
ENDROOT
BRANCH   1   2
ATOM      2  N   UNL A   1      36.545  21.648  25.559  1.00  0.00    -0.353 N 
ATOM      3  C   UNL A   1      36.458  22.857  24.926  1.00  0.00     0.258 C 
ATOM      4  O   UNL A   1      36.268  23.866  25.609  1.00  0.00    -0.271 OA
ATOM      5  H   UNL A   1      36.678  21.679  26.533  1.00  0.00     0.163 HD
BRANCH   3   6
ATOM      6  C   UNL A   1      36.594  22.930  23.404  1.00  0.00     0.331 C 
BRANCH   6   7
ATOM      7  O   UNL A   1      35.361  22.859  22.725  1.00  0.00    -0.467 OA
BRANCH   7   8
ATOM      8  C   UNL A   1      34.176  23.349  23.168  1.00  0.00     0.222 A 
ATOM      9  C   UNL A   1      33.146  22.697  23.869  1.00  0.00     0.035 A 
ATOM     10  C   UNL A   1      32.144  23.559  24.314  1.00  0.00     0.050 A 
ATOM     11  C   UNL A   1      30.938  23.194  25.121  1.00  0.00     0.067 C 
ATOM     12  N   UNL A   1      32.200  24.889  24.122  1.00  0.00    -0.218 NA
ATOM     13  N   UNL A   1      34.185  24.682  22.932  1.00  0.00    -0.177 NA
ATOM     14  C   UNL A   1      33.210  25.419  23.440  1.00  0.00     0.230 A 
BRANCH   9  15
ATOM     15  C   UNL A   1      33.201  21.227  24.193  1.00  0.00     0.040 C 
ATOM     16  C   UNL A   1      32.418  20.157  23.446  1.00  0.00     0.009 C 
ENDBRANCH   9  15
BRANCH  14  17
ATOM     17  N   UNL A   1      33.228  26.795  23.232  1.00  0.00    -0.323 N 
ATOM     18  H   UNL A   1      34.078  27.185  22.922  1.00  0.00     0.170 HD
BRANCH  17  19
ATOM     19  C   UNL A   1      32.157  27.683  23.421  1.00  0.00     0.060 A 
ATOM     20  C   UNL A   1      31.166  27.809  22.431  1.00  0.00     0.029 A 
ATOM     21  C   UNL A   1      32.115  28.568  24.512  1.00  0.00     0.066 A 
ATOM     22  C   UNL A   1      30.173  28.786  22.518  1.00  0.00     0.023 A 
ATOM     23  C   UNL A   1      31.132  29.560  24.596  1.00  0.00     0.043 A 
ATOM     24  Cl  UNL A   1      33.313  28.494  25.757  1.00  0.00    -0.082 Cl
ATOM     25  C   UNL A   1      30.171  29.666  23.594  1.00  0.00     0.042 A 
ATOM     26  Cl  UNL A   1      28.981  30.906  23.674  1.00  0.00    -0.084 Cl
ENDBRANCH  17  19
ENDBRANCH  14  17
ENDBRANCH   7   8
ENDBRANCH   6   7
ENDBRANCH   3   6
ENDBRANCH   1   2
BRANCH   1  27
ATOM     27  C   UNL A   1      37.804  19.606  24.854  1.00  0.00     0.042 C 
BRANCH  27  28
ATOM     28  C   UNL A   1      38.924  20.177  25.718  1.00  0.00     0.118 C 
BRANCH  28  29
ATOM     29  N   UNL A   1      40.107  19.328  25.766  1.00  0.00    -0.352 N 
ATOM     30  C   UNL A   1      41.414  19.604  26.081  1.00  0.00     0.251 C 
ATOM     31  H   UNL A   1      39.938  18.387  25.531  1.00  0.00     0.163 HD
ATOM     32  O   UNL A   1      42.269  18.745  25.888  1.00  0.00    -0.269 OA
BRANCH  30  33
ATOM     33  C   UNL A   1      41.815  20.920  26.627  1.00  0.00     0.039 A 
ATOM     34  C   UNL A   1      42.282  21.897  25.741  1.00  0.00     0.014 A 
ATOM     35  C   UNL A   1      41.788  21.187  27.997  1.00  0.00     0.014 A 
ATOM     36  C   UNL A   1      42.647  23.158  26.218  1.00  0.00     0.010 A 
ATOM     37  C   UNL A   1      42.073  22.470  28.463  1.00  0.00     0.010 A 
ATOM     38  C   UNL A   1      42.506  23.470  27.580  1.00  0.00    -0.014 A 
BRANCH  38  39
ATOM     39  C   UNL A   1      42.794  24.836  28.091  1.00  0.00     0.031 A 
ATOM     40  C   UNL A   1      44.191  25.224  28.494  1.00  0.00     0.074 A 
ATOM     41  C   UNL A   1      41.783  25.712  28.248  1.00  0.00     0.049 A 
ATOM     42  N   UNL A   1      44.619  26.351  29.007  1.00  0.00    -0.248 NA
ATOM     43  C   UNL A   1      45.240  24.208  28.320  1.00  0.00     0.031 C 
ATOM     44  C   UNL A   1      40.377  25.452  27.931  1.00  0.00     0.029 A 
ATOM     45  N   UNL A   1      41.783  27.002  28.721  1.00  0.00    -0.354 N 
ATOM     46  C   UNL A   1      45.979  26.172  29.231  1.00  0.00     0.074 A 
ATOM     47  C   UNL A   1      46.294  24.814  28.846  1.00  0.00     0.031 C 
ATOM     48  C   UNL A   1      39.657  26.556  28.187  1.00  0.00     0.029 A 
ATOM     49  C   UNL A   1      40.538  27.584  28.729  1.00  0.00     0.049 A 
ATOM     50  H   UNL A   1      42.596  27.465  29.025  1.00  0.00     0.167 HD
ATOM     51  C   UNL A   1      46.889  27.062  29.695  1.00  0.00     0.031 A 
ATOM     52  C   UNL A   1      40.147  28.807  29.135  1.00  0.00     0.031 A 
ATOM     53  C   UNL A   1      46.578  28.416  30.076  1.00  0.00     0.049 A 
ATOM     54  C   UNL A   1      41.171  29.766  29.672  1.00  0.00     0.074 A 
ATOM     55  C   UNL A   1      47.439  29.408  30.511  1.00  0.00     0.029 A 
ATOM     56  N   UNL A   1      45.305  28.964  30.073  1.00  0.00    -0.354 N 
ATOM     57  N   UNL A   1      42.464  29.604  29.813  1.00  0.00    -0.248 NA
ATOM     58  C   UNL A   1      40.679  31.086  30.097  1.00  0.00     0.031 C 
ATOM     59  C   UNL A   1      46.680  30.540  30.826  1.00  0.00     0.029 A 
ATOM     60  C   UNL A   1      45.353  30.273  30.526  1.00  0.00     0.049 A 
ATOM     61  H   UNL A   1      44.487  28.494  29.793  1.00  0.00     0.167 HD
ATOM     62  C   UNL A   1      42.944  30.807  30.314  1.00  0.00     0.074 A 
ATOM     63  C   UNL A   1      41.806  31.696  30.434  1.00  0.00     0.031 C 
ATOM     64  C   UNL A   1      44.215  31.146  30.645  1.00  0.00     0.031 A 
BRANCH  51  65
ATOM     65  C   UNL A   1      48.312  26.593  29.828  1.00  0.00    -0.014 A 
ATOM     66  C   UNL A   1      48.758  25.938  30.988  1.00  0.00     0.009 A 
ATOM     67  C   UNL A   1      49.212  26.777  28.767  1.00  0.00     0.009 A 
ATOM     68  C   UNL A   1      50.085  25.514  31.096  1.00  0.00     0.001 A 
ATOM     69  C   UNL A   1      50.529  26.323  28.865  1.00  0.00     0.001 A 
ATOM     70  C   UNL A   1      50.967  25.702  30.034  1.00  0.00     0.000 A 
ENDBRANCH  51  65
BRANCH  52  71
ATOM     71  C   UNL A   1      38.716  29.203  29.037  1.00  0.00    -0.014 A 
ATOM     72  C   UNL A   1      37.856  29.044  30.135  1.00  0.00     0.009 A 
ATOM     73  C   UNL A   1      38.201  29.732  27.843  1.00  0.00     0.009 A 
ATOM     74  C   UNL A   1      36.504  29.377  30.029  1.00  0.00     0.001 A 
ATOM     75  C   UNL A   1      36.856  30.095  27.751  1.00  0.00     0.001 A 
ATOM     76  C   UNL A   1      36.006  29.907  28.839  1.00  0.00     0.000 A 
ENDBRANCH  52  71
BRANCH  64  77
ATOM     77  C   UNL A   1      44.446  32.550  31.131  1.00  0.00    -0.014 A 
ATOM     78  C   UNL A   1      44.738  33.595  30.240  1.00  0.00     0.009 A 
ATOM     79  C   UNL A   1      44.341  32.836  32.501  1.00  0.00     0.009 A 
ATOM     80  C   UNL A   1      44.959  34.889  30.716  1.00  0.00     0.001 A 
ATOM     81  C   UNL A   1      44.530  34.136  32.971  1.00  0.00     0.001 A 
ATOM     82  C   UNL A   1      44.851  35.159  32.080  1.00  0.00     0.000 A 
ENDBRANCH  64  77
ENDBRANCH  38  39
ENDBRANCH  30  33
ENDBRANCH  28  29
ENDBRANCH  27  28
ENDBRANCH   1  27
TORSDOF 15
ENDMDL
MODEL 2
REMARK VINA RESULT:     -11.0      1.149      5.933
REMARK SMILES CCc1c(C)nc(Nc2ccc(Cl)cc2Cl)nc1OCC(=O)NCCCNC(=O)c1ccc(-c2c3nc(c(-c4ccccc4)c4ccc([nH]4)c(-c4ccccc4)c4nc(c(-c5ccccc5)c5ccc2[nH]5)C=C4)C=C3)cc1
REMARK SMILES IDX 24 1 23 2 21 3 22 4 20 6 19 7 18 8 3 9 4 10 5 11 6 12 17 13
REMARK SMILES IDX 7 14 2 15 1 16 8 17 9 19 10 20 15 21 11 22 14 23 16 24 12 25
REMARK SMILES IDX 13 26 25 27 26 28 27 29 28 30 29 32 30 33 31 34 77 35 32 36
REMARK SMILES IDX 76 37 33 38 34 39 35 40 70 41 36 42 75 43 69 44 71 45 37 46
REMARK SMILES IDX 74 47 68 48 67 49 38 51 60 52 45 53 59 54 46 55 49 56 58 57
REMARK SMILES IDX 72 58 47 59 48 60 57 62 73 63 50 64 39 65 40 66 44 67 41 68
REMARK SMILES IDX 43 69 42 70 61 71 62 72 66 73 63 74 65 75 64 76 51 77 52 78
REMARK SMILES IDX 56 79 53 80 55 81 54 82
REMARK H PARENT 23 5 8 18 27 31 71 50 49 61
REMARK Flexibility Score: inf
ROOT
ATOM      1  C   UNL A   1      36.623  20.419  24.997  1.00  0.00     0.117 C 
ENDROOT
BRANCH   1   2
ATOM      2  N   UNL A   1      36.787  21.739  25.579  1.00  0.00    -0.353 N 
ATOM      3  C   UNL A   1      36.664  22.950  24.956  1.00  0.00     0.258 C 
ATOM      4  O   UNL A   1      36.562  23.962  25.653  1.00  0.00    -0.271 OA
ATOM      5  H   UNL A   1      37.013  21.766  26.536  1.00  0.00     0.163 HD
BRANCH   3   6
ATOM      6  C   UNL A   1      36.655  23.021  23.428  1.00  0.00     0.331 C 
BRANCH   6   7
ATOM      7  O   UNL A   1      35.392  22.760  22.860  1.00  0.00    -0.467 OA
BRANCH   7   8
ATOM      8  C   UNL A   1      34.207  23.263  23.285  1.00  0.00     0.222 A 
ATOM      9  C   UNL A   1      33.142  22.615  23.936  1.00  0.00     0.035 A 
ATOM     10  C   UNL A   1      32.147  23.487  24.378  1.00  0.00     0.050 A 
ATOM     11  C   UNL A   1      30.910  23.125  25.139  1.00  0.00     0.067 C 
ATOM     12  N   UNL A   1      32.238  24.820  24.228  1.00  0.00    -0.218 NA
ATOM     13  N   UNL A   1      34.252  24.602  23.089  1.00  0.00    -0.177 NA
ATOM     14  C   UNL A   1      33.279  25.346  23.592  1.00  0.00     0.230 A 
BRANCH   9  15
ATOM     15  C   UNL A   1      33.155  21.135  24.216  1.00  0.00     0.040 C 
ATOM     16  C   UNL A   1      33.180  20.529  25.612  1.00  0.00     0.009 C 
ENDBRANCH   9  15
BRANCH  14  17
ATOM     17  N   UNL A   1      33.334  26.727  23.427  1.00  0.00    -0.323 N 
ATOM     18  H   UNL A   1      34.210  27.110  23.188  1.00  0.00     0.170 HD
BRANCH  17  19
ATOM     19  C   UNL A   1      32.267  27.629  23.567  1.00  0.00     0.060 A 
ATOM     20  C   UNL A   1      31.379  27.839  22.495  1.00  0.00     0.029 A 
ATOM     21  C   UNL A   1      32.135  28.448  24.701  1.00  0.00     0.066 A 
ATOM     22  C   UNL A   1      30.402  28.833  22.547  1.00  0.00     0.023 A 
ATOM     23  C   UNL A   1      31.168  29.457  24.752  1.00  0.00     0.043 A 
ATOM     24  Cl  UNL A   1      33.205  28.269  26.048  1.00  0.00    -0.082 Cl
ATOM     25  C   UNL A   1      30.311  29.647  23.670  1.00  0.00     0.042 A 
ATOM     26  Cl  UNL A   1      29.143  30.909  23.712  1.00  0.00    -0.084 Cl
ENDBRANCH  17  19
ENDBRANCH  14  17
ENDBRANCH   7   8
ENDBRANCH   6   7
ENDBRANCH   3   6
ENDBRANCH   1   2
BRANCH   1  27
ATOM     27  C   UNL A   1      37.913  19.614  24.895  1.00  0.00     0.042 C 
BRANCH  27  28
ATOM     28  C   UNL A   1      39.050  20.090  25.794  1.00  0.00     0.118 C 
BRANCH  28  29
ATOM     29  N   UNL A   1      40.144  19.133  25.896  1.00  0.00    -0.352 N 
ATOM     30  C   UNL A   1      41.482  19.303  26.151  1.00  0.00     0.251 C 
ATOM     31  H   UNL A   1      39.875  18.196  25.760  1.00  0.00     0.163 HD
ATOM     32  O   UNL A   1      42.241  18.347  26.022  1.00  0.00    -0.269 OA
BRANCH  30  33
ATOM     33  C   UNL A   1      42.030  20.617  26.554  1.00  0.00     0.039 A 
ATOM     34  C   UNL A   1      42.465  21.495  25.555  1.00  0.00     0.014 A 
ATOM     35  C   UNL A   1      42.169  20.976  27.896  1.00  0.00     0.014 A 
ATOM     36  C   UNL A   1      42.966  22.754  25.897  1.00  0.00     0.010 A 
ATOM     37  C   UNL A   1      42.592  22.261  28.234  1.00  0.00     0.010 A 
ATOM     38  C   UNL A   1      42.995  23.164  27.240  1.00  0.00    -0.014 A 
BRANCH  38  39
ATOM     39  C   UNL A   1      43.430  24.535  27.616  1.00  0.00     0.031 A 
ATOM     40  C   UNL A   1      42.418  25.588  27.979  1.00  0.00     0.074 A 
ATOM     41  C   UNL A   1      44.740  24.851  27.573  1.00  0.00     0.049 A 
ATOM     42  N   UNL A   1      42.610  26.847  28.283  1.00  0.00    -0.248 NA
ATOM     43  C   UNL A   1      41.005  25.179  27.979  1.00  0.00     0.031 C 
ATOM     44  C   UNL A   1      45.822  23.936  27.203  1.00  0.00     0.029 A 
ATOM     45  N   UNL A   1      45.384  26.034  27.841  1.00  0.00    -0.354 N 
ATOM     46  C   UNL A   1      41.345  27.382  28.493  1.00  0.00     0.074 A 
ATOM     47  C   UNL A   1      40.392  26.326  28.232  1.00  0.00     0.031 C 
ATOM     48  C   UNL A   1      46.995  24.582  27.297  1.00  0.00     0.029 A 
ATOM     49  C   UNL A   1      46.748  25.965  27.688  1.00  0.00     0.049 A 
ATOM     50  H   UNL A   1      44.913  26.854  28.115  1.00  0.00     0.167 HD
ATOM     51  C   UNL A   1      41.005  28.633  28.887  1.00  0.00     0.031 A 
ATOM     52  C   UNL A   1      47.694  26.910  27.837  1.00  0.00     0.031 A 
ATOM     53  C   UNL A   1      41.952  29.686  29.150  1.00  0.00     0.049 A 
ATOM     54  C   UNL A   1      47.289  28.298  28.248  1.00  0.00     0.074 A 
ATOM     55  C   UNL A   1      41.708  30.972  29.601  1.00  0.00     0.029 A 
ATOM     56  N   UNL A   1      43.323  29.576  28.979  1.00  0.00    -0.354 N 
ATOM     57  N   UNL A   1      46.093  28.769  28.508  1.00  0.00    -0.248 NA
ATOM     58  C   UNL A   1      48.370  29.284  28.396  1.00  0.00     0.031 C 
ATOM     59  C   UNL A   1      42.926  31.658  29.648  1.00  0.00     0.029 A 
ATOM     60  C   UNL A   1      43.936  30.779  29.289  1.00  0.00     0.049 A 
ATOM     61  H   UNL A   1      43.792  28.763  28.681  1.00  0.00     0.167 HD
ATOM     62  C   UNL A   1      46.281  30.094  28.878  1.00  0.00     0.074 A 
ATOM     63  C   UNL A   1      47.706  30.346  28.827  1.00  0.00     0.031 C 
ATOM     64  C   UNL A   1      45.354  31.020  29.230  1.00  0.00     0.031 A 
BRANCH  51  65
ATOM     65  C   UNL A   1      39.540  28.936  29.047  1.00  0.00    -0.014 A 
ATOM     66  C   UNL A   1      38.781  29.449  27.981  1.00  0.00     0.009 A 
ATOM     67  C   UNL A   1      38.900  28.673  30.268  1.00  0.00     0.009 A 
ATOM     68  C   UNL A   1      37.423  29.729  28.149  1.00  0.00     0.001 A 
ATOM     69  C   UNL A   1      37.534  28.923  30.423  1.00  0.00     0.001 A 
ATOM     70  C   UNL A   1      36.801  29.462  29.366  1.00  0.00     0.000 A 
ENDBRANCH  51  65
BRANCH  52  71
ATOM     71  C   UNL A   1      49.126  26.576  27.611  1.00  0.00    -0.014 A 
ATOM     72  C   UNL A   1      49.951  26.210  28.686  1.00  0.00     0.009 A 
ATOM     73  C   UNL A   1      49.678  26.633  26.322  1.00  0.00     0.009 A 
ATOM     74  C   UNL A   1      51.304  25.937  28.479  1.00  0.00     0.001 A 
ATOM     75  C   UNL A   1      51.025  26.329  26.114  1.00  0.00     0.001 A 
ATOM     76  C   UNL A   1      51.840  25.992  27.193  1.00  0.00     0.000 A 
ENDBRANCH  52  71
BRANCH  64  77
ATOM     77  C   UNL A   1      45.859  32.380  29.625  1.00  0.00    -0.014 A 
ATOM     78  C   UNL A   1      46.176  32.685  30.958  1.00  0.00     0.009 A 
ATOM     79  C   UNL A   1      46.047  33.362  28.640  1.00  0.00     0.009 A 
ATOM     80  C   UNL A   1      46.633  33.959  31.302  1.00  0.00     0.001 A 
ATOM     81  C   UNL A   1      46.535  34.625  28.982  1.00  0.00     0.001 A 
ATOM     82  C   UNL A   1      46.817  34.926  30.313  1.00  0.00     0.000 A 
ENDBRANCH  64  77
ENDBRANCH  38  39
ENDBRANCH  30  33
ENDBRANCH  28  29
ENDBRANCH  27  28
ENDBRANCH   1  27
TORSDOF 15
ENDMDL
MODEL 3
REMARK VINA RESULT:     -10.7      3.441      8.475
REMARK SMILES CCc1c(C)nc(Nc2ccc(Cl)cc2Cl)nc1OCC(=O)NCCCNC(=O)c1ccc(-c2c3nc(c(-c4ccccc4)c4ccc([nH]4)c(-c4ccccc4)c4nc(c(-c5ccccc5)c5ccc2[nH]5)C=C4)C=C3)cc1
REMARK SMILES IDX 24 1 23 2 21 3 22 4 20 6 19 7 18 8 3 9 4 10 5 11 6 12 17 13
REMARK SMILES IDX 7 14 2 15 1 16 8 17 9 19 10 20 15 21 11 22 14 23 16 24 12 25
REMARK SMILES IDX 13 26 25 27 26 28 27 29 28 30 29 32 30 33 31 34 77 35 32 36
REMARK SMILES IDX 76 37 33 38 34 39 35 40 70 41 36 42 75 43 69 44 71 45 37 46
REMARK SMILES IDX 74 47 68 48 67 49 38 51 60 52 45 53 59 54 46 55 49 56 58 57
REMARK SMILES IDX 72 58 47 59 48 60 57 62 73 63 50 64 39 65 40 66 44 67 41 68
REMARK SMILES IDX 43 69 42 70 61 71 62 72 66 73 63 74 65 75 64 76 51 77 52 78
REMARK SMILES IDX 56 79 53 80 55 81 54 82
REMARK H PARENT 23 5 8 18 27 31 71 50 49 61
REMARK Flexibility Score: inf
ROOT
ATOM      1  C   UNL A   1      31.651  30.547  26.034  1.00  0.00     0.117 C 
ENDROOT
BRANCH   1   2
ATOM      2  N   UNL A   1      31.260  29.498  26.959  1.00  0.00    -0.353 N 
ATOM      3  C   UNL A   1      31.978  28.394  27.326  1.00  0.00     0.258 C 
ATOM      4  O   UNL A   1      31.617  27.761  28.320  1.00  0.00    -0.271 OA
ATOM      5  H   UNL A   1      30.372  29.593  27.371  1.00  0.00     0.163 HD
BRANCH   3   6
ATOM      6  C   UNL A   1      33.199  27.974  26.504  1.00  0.00     0.331 C 
BRANCH   6   7
ATOM      7  O   UNL A   1      33.308  26.580  26.333  1.00  0.00    -0.467 OA
BRANCH   7   8
ATOM      8  C   UNL A   1      33.265  25.915  25.151  1.00  0.00     0.222 A 
ATOM      9  C   UNL A   1      33.952  24.755  24.753  1.00  0.00     0.035 A 
ATOM     10  C   UNL A   1      33.532  24.255  23.520  1.00  0.00     0.050 A 
ATOM     11  C   UNL A   1      34.026  23.019  22.837  1.00  0.00     0.067 C 
ATOM     12  N   UNL A   1      32.531  24.816  22.818  1.00  0.00    -0.218 NA
ATOM     13  N   UNL A   1      32.302  26.501  24.402  1.00  0.00    -0.177 NA
ATOM     14  C   UNL A   1      31.942  25.919  23.269  1.00  0.00     0.230 A 
BRANCH   9  15
ATOM     15  C   UNL A   1      34.960  24.073  25.642  1.00  0.00     0.040 C 
ATOM     16  C   UNL A   1      36.464  24.101  25.408  1.00  0.00     0.009 C 
ENDBRANCH   9  15
BRANCH  14  17
ATOM     17  N   UNL A   1      30.929  26.494  22.509  1.00  0.00    -0.323 N 
ATOM     18  H   UNL A   1      30.720  26.063  21.648  1.00  0.00     0.170 HD
BRANCH  17  19
ATOM     19  C   UNL A   1      30.174  27.630  22.845  1.00  0.00     0.060 A 
ATOM     20  C   UNL A   1      28.807  27.500  23.149  1.00  0.00     0.029 A 
ATOM     21  C   UNL A   1      30.707  28.927  22.747  1.00  0.00     0.066 A 
ATOM     22  C   UNL A   1      27.996  28.620  23.340  1.00  0.00     0.023 A 
ATOM     23  C   UNL A   1      29.896  30.053  22.922  1.00  0.00     0.043 A 
ATOM     24  Cl  UNL A   1      32.373  29.170  22.352  1.00  0.00    -0.082 Cl
ATOM     25  C   UNL A   1      28.543  29.892  23.211  1.00  0.00     0.042 A 
ATOM     26  Cl  UNL A   1      27.533  31.273  23.391  1.00  0.00    -0.084 Cl
ENDBRANCH  17  19
ENDBRANCH  14  17
ENDBRANCH   7   8
ENDBRANCH   6   7
ENDBRANCH   3   6
ENDBRANCH   1   2
BRANCH   1  27
ATOM     27  C   UNL A   1      31.481  31.960  26.579  1.00  0.00     0.042 C 
BRANCH  27  28
ATOM     28  C   UNL A   1      32.774  32.662  26.982  1.00  0.00     0.118 C 
BRANCH  28  29
ATOM     29  N   UNL A   1      32.553  33.904  27.712  1.00  0.00    -0.352 N 
ATOM     30  C   UNL A   1      33.231  34.478  28.759  1.00  0.00     0.251 C 
ATOM     31  H   UNL A   1      31.780  34.425  27.397  1.00  0.00     0.163 HD
ATOM     32  O   UNL A   1      32.749  35.459  29.315  1.00  0.00    -0.269 OA
BRANCH  30  33
ATOM     33  C   UNL A   1      34.516  33.925  29.242  1.00  0.00     0.039 A 
ATOM     34  C   UNL A   1      34.506  33.103  30.375  1.00  0.00     0.014 A 
ATOM     35  C   UNL A   1      35.730  34.244  28.631  1.00  0.00     0.014 A 
ATOM     36  C   UNL A   1      35.697  32.545  30.845  1.00  0.00     0.010 A 
ATOM     37  C   UNL A   1      36.906  33.622  29.051  1.00  0.00     0.010 A 
ATOM     38  C   UNL A   1      36.904  32.766  30.161  1.00  0.00    -0.014 A 
BRANCH  38  39
ATOM     39  C   UNL A   1      38.163  32.101  30.587  1.00  0.00     0.031 A 
ATOM     40  C   UNL A   1      39.054  32.737  31.620  1.00  0.00     0.074 A 
ATOM     41  C   UNL A   1      38.537  30.948  29.998  1.00  0.00     0.049 A 
ATOM     42  N   UNL A   1      40.212  32.328  32.076  1.00  0.00    -0.248 NA
ATOM     43  C   UNL A   1      38.596  34.009  32.201  1.00  0.00     0.031 C 
ATOM     44  C   UNL A   1      37.784  30.243  28.958  1.00  0.00     0.029 A 
ATOM     45  N   UNL A   1      39.649  30.166  30.190  1.00  0.00    -0.354 N 
ATOM     46  C   UNL A   1      40.626  33.298  32.981  1.00  0.00     0.074 A 
ATOM     47  C   UNL A   1      39.621  34.339  32.972  1.00  0.00     0.031 C 
ATOM     48  C   UNL A   1      38.440  29.120  28.626  1.00  0.00     0.029 A 
ATOM     49  C   UNL A   1      39.678  29.046  29.393  1.00  0.00     0.049 A 
ATOM     50  H   UNL A   1      40.359  30.386  30.835  1.00  0.00     0.167 HD
ATOM     51  C   UNL A   1      41.731  33.314  33.764  1.00  0.00     0.031 A 
ATOM     52  C   UNL A   1      40.601  28.073  29.285  1.00  0.00     0.031 A 
ATOM     53  C   UNL A   1      42.731  32.278  33.777  1.00  0.00     0.049 A 
ATOM     54  C   UNL A   1      41.832  28.127  30.146  1.00  0.00     0.074 A 
ATOM     55  C   UNL A   1      43.861  32.180  34.571  1.00  0.00     0.029 A 
ATOM     56  N   UNL A   1      42.725  31.164  32.952  1.00  0.00    -0.354 N 
ATOM     57  N   UNL A   1      42.175  29.018  31.045  1.00  0.00    -0.248 NA
ATOM     58  C   UNL A   1      42.801  27.033  29.981  1.00  0.00     0.031 C 
ATOM     59  C   UNL A   1      44.568  31.036  34.187  1.00  0.00     0.029 A 
ATOM     60  C   UNL A   1      43.845  30.387  33.199  1.00  0.00     0.049 A 
ATOM     61  H   UNL A   1      42.028  30.956  32.289  1.00  0.00     0.167 HD
ATOM     62  C   UNL A   1      43.381  28.577  31.574  1.00  0.00     0.074 A 
ATOM     63  C   UNL A   1      43.700  27.330  30.908  1.00  0.00     0.031 C 
ATOM     64  C   UNL A   1      44.154  29.152  32.527  1.00  0.00     0.031 A 
BRANCH  51  65
ATOM     65  C   UNL A   1      41.922  34.502  34.668  1.00  0.00    -0.014 A 
ATOM     66  C   UNL A   1      41.416  34.509  35.979  1.00  0.00     0.009 A 
ATOM     67  C   UNL A   1      42.648  35.615  34.218  1.00  0.00     0.009 A 
ATOM     68  C   UNL A   1      41.598  35.622  36.803  1.00  0.00     0.001 A 
ATOM     69  C   UNL A   1      42.857  36.714  35.055  1.00  0.00     0.001 A 
ATOM     70  C   UNL A   1      42.321  36.720  36.342  1.00  0.00     0.000 A 
ENDBRANCH  51  65
BRANCH  52  71
ATOM     71  C   UNL A   1      40.393  26.949  28.333  1.00  0.00    -0.014 A 
ATOM     72  C   UNL A   1      40.886  27.025  27.021  1.00  0.00     0.009 A 
ATOM     73  C   UNL A   1      39.691  25.799  28.727  1.00  0.00     0.009 A 
ATOM     74  C   UNL A   1      40.654  25.988  26.116  1.00  0.00     0.001 A 
ATOM     75  C   UNL A   1      39.489  24.749  27.829  1.00  0.00     0.001 A 
ATOM     76  C   UNL A   1      39.959  24.849  26.521  1.00  0.00     0.000 A 
ENDBRANCH  52  71
BRANCH  64  77
ATOM     77  C   UNL A   1      45.402  28.418  32.933  1.00  0.00    -0.014 A 
ATOM     78  C   UNL A   1      45.385  27.451  33.952  1.00  0.00     0.009 A 
ATOM     79  C   UNL A   1      46.609  28.678  32.265  1.00  0.00     0.009 A 
ATOM     80  C   UNL A   1      46.559  26.791  34.319  1.00  0.00     0.001 A 
ATOM     81  C   UNL A   1      47.775  27.993  32.611  1.00  0.00     0.001 A 
ATOM     82  C   UNL A   1      47.751  27.058  33.646  1.00  0.00     0.000 A 
ENDBRANCH  64  77
ENDBRANCH  38  39
ENDBRANCH  30  33
ENDBRANCH  28  29
ENDBRANCH  27  28
ENDBRANCH   1  27
TORSDOF 15
ENDMDL
