MODEL 1
REMARK VINA RESULT:     -11.9      0.000      0.000
REMARK SMILES O=C(NCCCNC(=O)c1cc(Br)n(Cc2ccn(C3CCCC3)n2)c1)c1ccc(-c2c3nc(c(-c4ccccc4)c4ccc([nH]4)c(-c4ccccc4)c4nc(c(-c5ccccc5)c5ccc2[nH]5)C=C4)C=C3)cc1
REMARK SMILES IDX 5 1 4 2 3 3 1 4 2 5 27 7 28 8 74 9 29 10 73 11 30 12 31 13
REMARK SMILES IDX 32 14 67 15 33 16 72 17 66 18 68 19 34 20 71 21 65 22 64 23
REMARK SMILES IDX 35 25 57 26 42 27 56 28 43 29 46 30 55 31 69 32 44 33 45 34
REMARK SMILES IDX 54 36 70 37 47 38 36 39 37 40 41 41 38 42 40 43 39 44 58 45
REMARK SMILES IDX 59 46 63 47 60 48 62 49 61 50 48 51 49 52 53 53 50 54 52 55
REMARK SMILES IDX 51 56 6 57 7 58 8 59 9 61 10 62 11 63 26 64 12 65 14 66
REMARK SMILES IDX 13 67 15 68 16 69 17 70 25 71 18 72 19 73 20 74 21 75 24 76
REMARK SMILES IDX 22 77 23 78
REMARK H PARENT 3 6 68 24 46 35 7 60
REMARK Flexibility Score: inf
ROOT
ATOM      1  C   UNL A   1      35.130  30.599  27.663  1.00  0.00     0.042 C 
ENDROOT
BRANCH   1   2
ATOM      2  C   UNL A   1      34.958  32.052  28.106  1.00  0.00     0.118 C 
BRANCH   2   3
ATOM      3  N   UNL A   1      34.860  32.245  29.541  1.00  0.00    -0.352 N 
ATOM      4  O   UNL A   1      35.240  32.284  31.719  1.00  0.00    -0.269 OA
ATOM      5  C   UNL A   1      35.632  31.898  30.615  1.00  0.00     0.251 C 
ATOM      6  H   UNL A   1      34.050  32.740  29.802  1.00  0.00     0.163 HD
BRANCH   5   7
ATOM      7  C   UNL A   1      36.866  31.067  30.551  1.00  0.00     0.039 A 
ATOM      8  C   UNL A   1      38.148  31.540  30.273  1.00  0.00     0.014 A 
ATOM      9  C   UNL A   1      36.706  29.697  30.831  1.00  0.00     0.014 A 
ATOM     10  C   UNL A   1      39.233  30.663  30.214  1.00  0.00     0.010 A 
ATOM     11  C   UNL A   1      37.791  28.821  30.800  1.00  0.00     0.010 A 
ATOM     12  C   UNL A   1      39.057  29.302  30.469  1.00  0.00    -0.014 A 
BRANCH  12  13
ATOM     13  C   UNL A   1      40.240  28.438  30.466  1.00  0.00     0.031 A 
ATOM     14  C   UNL A   1      40.971  28.261  31.758  1.00  0.00     0.074 A 
ATOM     15  C   UNL A   1      40.598  27.654  29.428  1.00  0.00     0.049 A 
ATOM     16  N   UNL A   1      42.235  28.419  31.998  1.00  0.00    -0.248 NA
ATOM     17  C   UNL A   1      40.187  27.834  32.926  1.00  0.00     0.031 C 
ATOM     18  C   UNL A   1      39.838  27.387  28.207  1.00  0.00     0.029 A 
ATOM     19  N   UNL A   1      41.678  26.823  29.322  1.00  0.00    -0.354 N 
ATOM     20  C   UNL A   1      42.440  27.989  33.309  1.00  0.00     0.074 A 
ATOM     21  C   UNL A   1      41.135  27.696  33.853  1.00  0.00     0.031 C 
ATOM     22  C   UNL A   1      40.359  26.299  27.598  1.00  0.00     0.029 A 
ATOM     23  C   UNL A   1      41.554  25.880  28.316  1.00  0.00     0.049 A 
ATOM     24  H   UNL A   1      42.469  26.888  29.905  1.00  0.00     0.167 HD
ATOM     25  C   UNL A   1      43.672  27.759  33.839  1.00  0.00     0.031 A 
ATOM     26  C   UNL A   1      42.329  24.790  28.116  1.00  0.00     0.031 A 
ATOM     27  C   UNL A   1      44.736  28.337  33.070  1.00  0.00     0.049 A 
ATOM     28  C   UNL A   1      43.599  24.961  28.851  1.00  0.00     0.074 A 
ATOM     29  C   UNL A   1      45.100  29.611  32.689  1.00  0.00     0.029 A 
ATOM     30  N   UNL A   1      45.530  27.490  32.339  1.00  0.00    -0.354 N 
ATOM     31  N   UNL A   1      44.540  25.791  28.508  1.00  0.00    -0.248 NA
ATOM     32  C   UNL A   1      43.728  24.390  30.183  1.00  0.00     0.031 C 
ATOM     33  C   UNL A   1      45.754  29.455  31.433  1.00  0.00     0.029 A 
ATOM     34  C   UNL A   1      45.736  28.094  31.127  1.00  0.00     0.049 A 
ATOM     35  H   UNL A   1      45.884  26.618  32.629  1.00  0.00     0.167 HD
ATOM     36  C   UNL A   1      45.141  26.159  29.702  1.00  0.00     0.074 A 
ATOM     37  C   UNL A   1      44.708  25.156  30.666  1.00  0.00     0.031 C 
ATOM     38  C   UNL A   1      45.694  27.398  29.860  1.00  0.00     0.031 A 
BRANCH  25  39
ATOM     39  C   UNL A   1      43.953  26.750  34.922  1.00  0.00    -0.014 A 
ATOM     40  C   UNL A   1      43.787  25.380  34.648  1.00  0.00     0.009 A 
ATOM     41  C   UNL A   1      44.113  27.115  36.272  1.00  0.00     0.009 A 
ATOM     42  C   UNL A   1      43.748  24.429  35.675  1.00  0.00     0.001 A 
ATOM     43  C   UNL A   1      44.115  26.163  37.296  1.00  0.00     0.001 A 
ATOM     44  C   UNL A   1      43.912  24.822  37.000  1.00  0.00     0.000 A 
ENDBRANCH  25  39
BRANCH  26  45
ATOM     45  C   UNL A   1      41.966  23.515  27.466  1.00  0.00    -0.014 A 
ATOM     46  C   UNL A   1      42.550  23.135  26.250  1.00  0.00     0.009 A 
ATOM     47  C   UNL A   1      41.203  22.557  28.158  1.00  0.00     0.009 A 
ATOM     48  C   UNL A   1      42.389  21.836  25.753  1.00  0.00     0.001 A 
ATOM     49  C   UNL A   1      41.034  21.264  27.659  1.00  0.00     0.001 A 
ATOM     50  C   UNL A   1      41.637  20.900  26.460  1.00  0.00     0.000 A 
ENDBRANCH  26  45
BRANCH  38  51
ATOM     51  C   UNL A   1      45.934  28.229  28.626  1.00  0.00    -0.014 A 
ATOM     52  C   UNL A   1      47.198  28.325  28.017  1.00  0.00     0.009 A 
ATOM     53  C   UNL A   1      44.836  28.814  27.978  1.00  0.00     0.009 A 
ATOM     54  C   UNL A   1      47.366  29.024  26.819  1.00  0.00     0.001 A 
ATOM     55  C   UNL A   1      45.001  29.492  26.767  1.00  0.00     0.001 A 
ATOM     56  C   UNL A   1      46.266  29.603  26.193  1.00  0.00     0.000 A 
ENDBRANCH  38  51
ENDBRANCH  12  13
ENDBRANCH   5   7
ENDBRANCH   2   3
ENDBRANCH   1   2
BRANCH   1  57
ATOM     57  C   UNL A   1      33.933  30.022  26.904  1.00  0.00     0.118 C 
BRANCH  57  58
ATOM     58  N   UNL A   1      33.117  29.173  27.754  1.00  0.00    -0.352 N 
ATOM     59  C   UNL A   1      32.223  28.193  27.412  1.00  0.00     0.252 C 
ATOM     60  H   UNL A   1      33.221  29.326  28.721  1.00  0.00     0.163 HD
ATOM     61  O   UNL A   1      31.398  27.833  28.247  1.00  0.00    -0.269 OA
BRANCH  59  62
ATOM     62  C   UNL A   1      32.302  27.587  26.093  1.00  0.00     0.058 A 
ATOM     63  C   UNL A   1      33.219  26.604  25.620  1.00  0.00     0.049 A 
ATOM     64  C   UNL A   1      31.376  27.770  25.079  1.00  0.00     0.101 A 
ATOM     65  C   UNL A   1      32.796  26.200  24.375  1.00  0.00     0.086 A 
ATOM     66  N   UNL A   1      31.709  26.957  24.017  1.00  0.00    -0.335 N 
ATOM     67  Br  UNL A   1      33.584  24.788  23.437  1.00  0.00    -0.031 Br
BRANCH  66  68
ATOM     68  C   UNL A   1      30.903  26.826  22.806  1.00  0.00     0.180 C 
BRANCH  68  69
ATOM     69  C   UNL A   1      29.633  27.617  22.867  1.00  0.00     0.082 A 
ATOM     70  C   UNL A   1      28.412  27.272  23.499  1.00  0.00     0.047 A 
ATOM     71  N   UNL A   1      29.574  28.860  22.358  1.00  0.00    -0.176 NA
ATOM     72  C   UNL A   1      27.601  28.369  23.353  1.00  0.00     0.109 A 
ATOM     73  N   UNL A   1      28.337  29.297  22.677  1.00  0.00    -0.269 N 
BRANCH  73  74
ATOM     74  C   UNL A   1      27.907  30.640  22.361  1.00  0.00     0.107 C 
ATOM     75  C   UNL A   1      28.574  31.744  23.179  1.00  0.00     0.027 C 
ATOM     76  C   UNL A   1      28.174  31.079  20.923  1.00  0.00     0.027 C 
ATOM     77  C   UNL A   1      28.177  33.011  22.431  1.00  0.00     0.002 C 
ATOM     78  C   UNL A   1      28.032  32.601  20.963  1.00  0.00     0.002 C 
ENDBRANCH  73  74
ENDBRANCH  68  69
ENDBRANCH  66  68
ENDBRANCH  59  62
ENDBRANCH  57  58
ENDBRANCH   1  57
TORSDOF 13
ENDMDL
MODEL 2
REMARK VINA RESULT:     -11.8      1.877      4.139
REMARK SMILES O=C(NCCCNC(=O)c1cc(Br)n(Cc2ccn(C3CCCC3)n2)c1)c1ccc(-c2c3nc(c(-c4ccccc4)c4ccc([nH]4)c(-c4ccccc4)c4nc(c(-c5ccccc5)c5ccc2[nH]5)C=C4)C=C3)cc1
REMARK SMILES IDX 5 1 4 2 3 3 1 4 2 5 27 7 28 8 74 9 29 10 73 11 30 12 31 13
REMARK SMILES IDX 32 14 67 15 33 16 72 17 66 18 68 19 34 20 71 21 65 22 64 23
REMARK SMILES IDX 35 25 57 26 42 27 56 28 43 29 46 30 55 31 69 32 44 33 45 34
REMARK SMILES IDX 54 36 70 37 47 38 36 39 37 40 41 41 38 42 40 43 39 44 58 45
REMARK SMILES IDX 59 46 63 47 60 48 62 49 61 50 48 51 49 52 53 53 50 54 52 55
REMARK SMILES IDX 51 56 6 57 7 58 8 59 9 61 10 62 11 63 26 64 12 65 14 66
REMARK SMILES IDX 13 67 15 68 16 69 17 70 25 71 18 72 19 73 20 74 21 75 24 76
REMARK SMILES IDX 22 77 23 78
REMARK H PARENT 3 6 68 24 46 35 7 60
REMARK Flexibility Score: inf
ROOT
ATOM      1  C   UNL A   1      32.994  30.658  26.952  1.00  0.00     0.042 C 
ENDROOT
BRANCH   1   2
ATOM      2  C   UNL A   1      34.401  30.663  27.548  1.00  0.00     0.118 C 
BRANCH   2   3
ATOM      3  N   UNL A   1      34.548  31.451  28.758  1.00  0.00    -0.352 N 
ATOM      4  O   UNL A   1      35.307  32.407  30.602  1.00  0.00    -0.269 OA
ATOM      5  C   UNL A   1      35.520  31.580  29.712  1.00  0.00     0.251 C 
ATOM      6  H   UNL A   1      33.768  32.025  28.932  1.00  0.00     0.163 HD
BRANCH   5   7
ATOM      7  C   UNL A   1      36.772  30.777  29.774  1.00  0.00     0.039 A 
ATOM      8  C   UNL A   1      38.033  31.210  29.366  1.00  0.00     0.014 A 
ATOM      9  C   UNL A   1      36.655  29.488  30.326  1.00  0.00     0.014 A 
ATOM     10  C   UNL A   1      39.138  30.360  29.447  1.00  0.00     0.010 A 
ATOM     11  C   UNL A   1      37.761  28.645  30.435  1.00  0.00     0.010 A 
ATOM     12  C   UNL A   1      39.005  29.075  29.974  1.00  0.00    -0.014 A 
BRANCH  12  13
ATOM     13  C   UNL A   1      40.209  28.252  30.104  1.00  0.00     0.031 A 
ATOM     14  C   UNL A   1      40.879  28.211  31.440  1.00  0.00     0.074 A 
ATOM     15  C   UNL A   1      40.639  27.391  29.159  1.00  0.00     0.049 A 
ATOM     16  N   UNL A   1      42.124  28.429  31.725  1.00  0.00    -0.248 NA
ATOM     17  C   UNL A   1      40.049  27.864  32.603  1.00  0.00     0.031 C 
ATOM     18  C   UNL A   1      39.949  26.994  27.932  1.00  0.00     0.029 A 
ATOM     19  N   UNL A   1      41.745  26.587  29.178  1.00  0.00    -0.354 N 
ATOM     20  C   UNL A   1      42.275  28.123  33.077  1.00  0.00     0.074 A 
ATOM     21  C   UNL A   1      40.953  27.838  33.583  1.00  0.00     0.031 C 
ATOM     22  C   UNL A   1      40.529  25.874  27.447  1.00  0.00     0.029 A 
ATOM     23  C   UNL A   1      41.696  25.557  28.256  1.00  0.00     0.049 A 
ATOM     24  H   UNL A   1      42.504  26.728  29.790  1.00  0.00     0.167 HD
ATOM     25  C   UNL A   1      43.485  27.978  33.683  1.00  0.00     0.031 A 
ATOM     26  C   UNL A   1      42.509  24.478  28.191  1.00  0.00     0.031 A 
ATOM     27  C   UNL A   1      44.570  28.519  32.918  1.00  0.00     0.049 A 
ATOM     28  C   UNL A   1      43.736  24.752  28.967  1.00  0.00     0.074 A 
ATOM     29  C   UNL A   1      44.918  29.766  32.442  1.00  0.00     0.029 A 
ATOM     30  N   UNL A   1      45.422  27.636  32.303  1.00  0.00    -0.354 N 
ATOM     31  N   UNL A   1      44.671  25.577  28.597  1.00  0.00    -0.248 NA
ATOM     32  C   UNL A   1      43.814  24.304  30.350  1.00  0.00     0.031 C 
ATOM     33  C   UNL A   1      45.638  29.520  31.237  1.00  0.00     0.029 A 
ATOM     34  C   UNL A   1      45.672  28.137  31.053  1.00  0.00     0.049 A 
ATOM     35  H   UNL A   1      45.784  26.804  32.686  1.00  0.00     0.167 HD
ATOM     36  C   UNL A   1      45.201  26.067  29.780  1.00  0.00     0.074 A 
ATOM     37  C   UNL A   1      44.747  25.140  30.808  1.00  0.00     0.031 C 
ATOM     38  C   UNL A   1      45.712  27.331  29.853  1.00  0.00     0.031 A 
BRANCH  25  39
ATOM     39  C   UNL A   1      43.738  27.078  34.864  1.00  0.00    -0.014 A 
ATOM     40  C   UNL A   1      43.659  25.682  34.698  1.00  0.00     0.009 A 
ATOM     41  C   UNL A   1      43.785  27.559  36.186  1.00  0.00     0.009 A 
ATOM     42  C   UNL A   1      43.594  24.817  35.797  1.00  0.00     0.001 A 
ATOM     43  C   UNL A   1      43.762  26.695  37.285  1.00  0.00     0.001 A 
ATOM     44  C   UNL A   1      43.646  25.325  37.091  1.00  0.00     0.000 A 
ENDBRANCH  25  39
BRANCH  26  45
ATOM     45  C   UNL A   1      42.214  23.140  27.641  1.00  0.00    -0.014 A 
ATOM     46  C   UNL A   1      41.252  22.313  28.236  1.00  0.00     0.009 A 
ATOM     47  C   UNL A   1      42.722  22.761  26.384  1.00  0.00     0.009 A 
ATOM     48  C   UNL A   1      40.803  21.155  27.589  1.00  0.00     0.001 A 
ATOM     49  C   UNL A   1      42.282  21.601  25.742  1.00  0.00     0.001 A 
ATOM     50  C   UNL A   1      41.313  20.803  26.341  1.00  0.00     0.000 A 
ENDBRANCH  26  45
BRANCH  38  51
ATOM     51  C   UNL A   1      45.991  28.059  28.563  1.00  0.00    -0.014 A 
ATOM     52  C   UNL A   1      47.246  28.014  27.930  1.00  0.00     0.009 A 
ATOM     53  C   UNL A   1      44.929  28.685  27.894  1.00  0.00     0.009 A 
ATOM     54  C   UNL A   1      47.444  28.617  26.685  1.00  0.00     0.001 A 
ATOM     55  C   UNL A   1      45.122  29.267  26.637  1.00  0.00     0.001 A 
ATOM     56  C   UNL A   1      46.380  29.239  26.038  1.00  0.00     0.000 A 
ENDBRANCH  38  51
ENDBRANCH  12  13
ENDBRANCH   5   7
ENDBRANCH   2   3
ENDBRANCH   1   2
BRANCH   1  57
ATOM     57  C   UNL A   1      32.871  29.907  25.624  1.00  0.00     0.118 C 
BRANCH  57  58
ATOM     58  N   UNL A   1      31.575  30.120  25.005  1.00  0.00    -0.352 N 
ATOM     59  C   UNL A   1      30.818  29.269  24.244  1.00  0.00     0.252 C 
ATOM     60  H   UNL A   1      31.181  31.009  25.155  1.00  0.00     0.163 HD
ATOM     61  O   UNL A   1      29.928  29.741  23.543  1.00  0.00    -0.269 OA
BRANCH  59  62
ATOM     62  C   UNL A   1      31.067  27.838  24.317  1.00  0.00     0.058 A 
ATOM     63  C   UNL A   1      30.815  26.946  25.400  1.00  0.00     0.049 A 
ATOM     64  C   UNL A   1      31.476  27.049  23.256  1.00  0.00     0.101 A 
ATOM     65  C   UNL A   1      31.033  25.666  24.949  1.00  0.00     0.086 A 
ATOM     66  N   UNL A   1      31.499  25.731  23.660  1.00  0.00    -0.335 N 
ATOM     67  Br  UNL A   1      30.652  24.145  25.967  1.00  0.00    -0.031 Br
BRANCH  66  68
ATOM     68  C   UNL A   1      31.801  24.610  22.773  1.00  0.00     0.180 C 
BRANCH  68  69
ATOM     69  C   UNL A   1      32.866  23.711  23.319  1.00  0.00     0.082 A 
ATOM     70  C   UNL A   1      32.856  22.297  23.420  1.00  0.00     0.047 A 
ATOM     71  N   UNL A   1      34.051  24.211  23.713  1.00  0.00    -0.176 NA
ATOM     72  C   UNL A   1      34.098  21.955  23.893  1.00  0.00     0.109 A 
ATOM     73  N   UNL A   1      34.782  23.125  24.043  1.00  0.00    -0.269 N 
BRANCH  73  74
ATOM     74  C   UNL A   1      36.162  23.242  24.453  1.00  0.00     0.107 C 
ATOM     75  C   UNL A   1      36.392  24.017  25.750  1.00  0.00     0.027 C 
ATOM     76  C   UNL A   1      36.866  21.915  24.727  1.00  0.00     0.027 C 
ATOM     77  C   UNL A   1      37.846  23.708  26.081  1.00  0.00     0.002 C 
ATOM     78  C   UNL A   1      38.113  22.309  25.521  1.00  0.00     0.002 C 
ENDBRANCH  73  74
ENDBRANCH  68  69
ENDBRANCH  66  68
ENDBRANCH  59  62
ENDBRANCH  57  58
ENDBRANCH   1  57
TORSDOF 13
ENDMDL
MODEL 3
REMARK VINA RESULT:     -11.8      3.844      8.413
REMARK SMILES O=C(NCCCNC(=O)c1cc(Br)n(Cc2ccn(C3CCCC3)n2)c1)c1ccc(-c2c3nc(c(-c4ccccc4)c4ccc([nH]4)c(-c4ccccc4)c4nc(c(-c5ccccc5)c5ccc2[nH]5)C=C4)C=C3)cc1
REMARK SMILES IDX 5 1 4 2 3 3 1 4 2 5 27 7 28 8 74 9 29 10 73 11 30 12 31 13
REMARK SMILES IDX 32 14 67 15 33 16 72 17 66 18 68 19 34 20 71 21 65 22 64 23
REMARK SMILES IDX 35 25 57 26 42 27 56 28 43 29 46 30 55 31 69 32 44 33 45 34
REMARK SMILES IDX 54 36 70 37 47 38 36 39 37 40 41 41 38 42 40 43 39 44 58 45
REMARK SMILES IDX 59 46 63 47 60 48 62 49 61 50 48 51 49 52 53 53 50 54 52 55
REMARK SMILES IDX 51 56 6 57 7 58 8 59 9 61 10 62 11 63 26 64 12 65 14 66
REMARK SMILES IDX 13 67 15 68 16 69 17 70 25 71 18 72 19 73 20 74 21 75 24 76
REMARK SMILES IDX 22 77 23 78
REMARK H PARENT 3 6 68 24 46 35 7 60
REMARK Flexibility Score: inf
ROOT
ATOM      1  C   UNL A   1      39.305  23.307  26.785  1.00  0.00     0.042 C 
ENDROOT
BRANCH   1   2
ATOM      2  C   UNL A   1      40.230  22.120  26.515  1.00  0.00     0.118 C 
BRANCH   2   3
ATOM      3  N   UNL A   1      41.420  22.436  25.749  1.00  0.00    -0.352 N 
ATOM      4  O   UNL A   1      43.230  23.398  24.917  1.00  0.00    -0.269 OA
ATOM      5  C   UNL A   1      42.265  23.509  25.677  1.00  0.00     0.251 C 
ATOM      6  H   UNL A   1      41.681  21.709  25.138  1.00  0.00     0.163 HD
BRANCH   5   7
ATOM      7  C   UNL A   1      42.081  24.794  26.407  1.00  0.00     0.039 A 
ATOM      8  C   UNL A   1      42.507  25.054  27.710  1.00  0.00     0.014 A 
ATOM      9  C   UNL A   1      41.452  25.830  25.692  1.00  0.00     0.014 A 
ATOM     10  C   UNL A   1      42.258  26.292  28.306  1.00  0.00     0.010 A 
ATOM     11  C   UNL A   1      41.226  27.077  26.273  1.00  0.00     0.010 A 
ATOM     12  C   UNL A   1      41.611  27.303  27.594  1.00  0.00    -0.014 A 
BRANCH  12  13
ATOM     13  C   UNL A   1      41.441  28.606  28.242  1.00  0.00     0.031 A 
ATOM     14  C   UNL A   1      42.533  29.613  28.069  1.00  0.00     0.074 A 
ATOM     15  C   UNL A   1      40.293  29.016  28.819  1.00  0.00     0.049 A 
ATOM     16  N   UNL A   1      43.163  30.283  28.982  1.00  0.00    -0.248 NA
ATOM     17  C   UNL A   1      42.960  29.919  26.696  1.00  0.00     0.031 C 
ATOM     18  C   UNL A   1      38.990  28.352  28.787  1.00  0.00     0.029 A 
ATOM     19  N   UNL A   1      40.033  30.200  29.451  1.00  0.00    -0.354 N 
ATOM     20  C   UNL A   1      43.976  31.193  28.305  1.00  0.00     0.074 A 
ATOM     21  C   UNL A   1      43.857  30.885  26.900  1.00  0.00     0.031 C 
ATOM     22  C   UNL A   1      38.041  29.235  29.166  1.00  0.00     0.029 A 
ATOM     23  C   UNL A   1      38.683  30.472  29.583  1.00  0.00     0.049 A 
ATOM     24  H   UNL A   1      40.740  30.802  29.781  1.00  0.00     0.167 HD
ATOM     25  C   UNL A   1      44.594  32.243  28.914  1.00  0.00     0.031 A 
ATOM     26  C   UNL A   1      38.117  31.646  29.942  1.00  0.00     0.031 A 
ATOM     27  C   UNL A   1      44.638  32.123  30.342  1.00  0.00     0.049 A 
ATOM     28  C   UNL A   1      39.134  32.491  30.601  1.00  0.00     0.074 A 
ATOM     29  C   UNL A   1      45.186  31.234  31.243  1.00  0.00     0.029 A 
ATOM     30  N   UNL A   1      43.811  32.934  31.078  1.00  0.00    -0.354 N 
ATOM     31  N   UNL A   1      39.616  32.269  31.789  1.00  0.00    -0.248 NA
ATOM     32  C   UNL A   1      39.860  33.472  29.809  1.00  0.00     0.031 C 
ATOM     33  C   UNL A   1      44.317  31.260  32.371  1.00  0.00     0.029 A 
ATOM     34  C   UNL A   1      43.290  32.158  32.079  1.00  0.00     0.049 A 
ATOM     35  H   UNL A   1      43.627  33.888  30.918  1.00  0.00     0.167 HD
ATOM     36  C   UNL A   1      40.912  32.759  31.744  1.00  0.00     0.074 A 
ATOM     37  C   UNL A   1      40.948  33.618  30.567  1.00  0.00     0.031 C 
ATOM     38  C   UNL A   1      41.905  32.197  32.494  1.00  0.00     0.031 A 
BRANCH  25  39
ATOM     39  C   UNL A   1      44.918  33.545  28.230  1.00  0.00    -0.014 A 
ATOM     40  C   UNL A   1      43.869  34.366  27.776  1.00  0.00     0.009 A 
ATOM     41  C   UNL A   1      46.214  33.862  27.782  1.00  0.00     0.009 A 
ATOM     42  C   UNL A   1      44.101  35.426  26.890  1.00  0.00     0.001 A 
ATOM     43  C   UNL A   1      46.454  34.945  26.930  1.00  0.00     0.001 A 
ATOM     44  C   UNL A   1      45.395  35.714  26.467  1.00  0.00     0.000 A 
ENDBRANCH  25  39
BRANCH  26  45
ATOM     45  C   UNL A   1      36.779  32.163  29.591  1.00  0.00    -0.014 A 
ATOM     46  C   UNL A   1      35.781  32.301  30.565  1.00  0.00     0.009 A 
ATOM     47  C   UNL A   1      36.550  32.738  28.327  1.00  0.00     0.009 A 
ATOM     48  C   UNL A   1      34.601  33.003  30.289  1.00  0.00     0.001 A 
ATOM     49  C   UNL A   1      35.369  33.430  28.047  1.00  0.00     0.001 A 
ATOM     50  C   UNL A   1      34.399  33.572  29.033  1.00  0.00     0.000 A 
ENDBRANCH  26  45
BRANCH  38  51
ATOM     51  C   UNL A   1      41.509  31.261  33.607  1.00  0.00    -0.014 A 
ATOM     52  C   UNL A   1      41.318  29.884  33.401  1.00  0.00     0.009 A 
ATOM     53  C   UNL A   1      41.468  31.750  34.921  1.00  0.00     0.009 A 
ATOM     54  C   UNL A   1      41.049  29.028  34.472  1.00  0.00     0.001 A 
ATOM     55  C   UNL A   1      41.223  30.890  35.995  1.00  0.00     0.001 A 
ATOM     56  C   UNL A   1      41.006  29.532  35.769  1.00  0.00     0.000 A 
ENDBRANCH  38  51
ENDBRANCH  12  13
ENDBRANCH   5   7
ENDBRANCH   2   3
ENDBRANCH   1   2
BRANCH   1  57
ATOM     57  C   UNL A   1      37.975  23.259  26.029  1.00  0.00     0.118 C 
BRANCH  57  58
ATOM     58  N   UNL A   1      37.724  21.945  25.467  1.00  0.00    -0.352 N 
ATOM     59  C   UNL A   1      36.547  21.380  25.051  1.00  0.00     0.252 C 
ATOM     60  H   UNL A   1      38.520  21.373  25.369  1.00  0.00     0.163 HD
ATOM     61  O   UNL A   1      36.493  20.159  24.927  1.00  0.00    -0.269 OA
BRANCH  59  62
ATOM     62  C   UNL A   1      35.418  22.240  24.739  1.00  0.00     0.058 A 
ATOM     63  C   UNL A   1      35.137  22.931  23.524  1.00  0.00     0.049 A 
ATOM     64  C   UNL A   1      34.313  22.426  25.552  1.00  0.00     0.101 A 
ATOM     65  C   UNL A   1      33.873  23.464  23.628  1.00  0.00     0.086 A 
ATOM     66  N   UNL A   1      33.395  23.212  24.889  1.00  0.00    -0.335 N 
ATOM     67  Br  UNL A   1      32.999  24.305  22.204  1.00  0.00    -0.031 Br
BRANCH  66  68
ATOM     68  C   UNL A   1      32.072  23.541  25.413  1.00  0.00     0.180 C 
BRANCH  68  69
ATOM     69  C   UNL A   1      31.877  25.013  25.609  1.00  0.00     0.082 A 
ATOM     70  C   UNL A   1      30.757  25.806  25.256  1.00  0.00     0.047 A 
ATOM     71  N   UNL A   1      32.793  25.744  26.268  1.00  0.00    -0.176 NA
ATOM     72  C   UNL A   1      31.032  27.062  25.735  1.00  0.00     0.109 A 
ATOM     73  N   UNL A   1      32.251  26.978  26.342  1.00  0.00    -0.269 N 
BRANCH  73  74
ATOM     74  C   UNL A   1      32.909  28.050  27.052  1.00  0.00     0.107 C 
ATOM     75  C   UNL A   1      34.324  28.373  26.574  1.00  0.00     0.027 C 
ATOM     76  C   UNL A   1      32.209  29.404  26.965  1.00  0.00     0.027 C 
ATOM     77  C   UNL A   1      34.624  29.698  27.262  1.00  0.00     0.002 C 
ATOM     78  C   UNL A   1      33.275  30.407  27.408  1.00  0.00     0.002 C 
ENDBRANCH  73  74
ENDBRANCH  68  69
ENDBRANCH  66  68
ENDBRANCH  59  62
ENDBRANCH  57  58
ENDBRANCH   1  57
TORSDOF 13
ENDMDL
