MODEL 1
REMARK VINA RESULT:     -11.2      0.000      0.000
REMARK SMILES CC[C@H](C)[C@H](NC(=O)[C@H](C(C)C)n1c(=O)[nH]c2ccccc2c1=O)C(=O)NCCCNC(=O)c1ccc(-c2c3nc(c(-c4ccccc4)c4ccc([nH]4)c(-c4ccccc4)c4nc(c(-c5ccccc5)c5ccc2[nH]5)C=C4)C=C3)cc1
REMARK SMILES IDX 28 1 27 2 25 3 26 4 5 6 3 7 4 8 2 9 1 10 6 11 7 12 8 14 9 15
REMARK SMILES IDX 13 16 14 17 23 18 15 19 16 20 22 21 24 22 17 23 21 25 18 26
REMARK SMILES IDX 20 27 19 28 10 29 11 30 12 31 29 32 30 33 31 34 32 35 33 37
REMARK SMILES IDX 34 38 35 39 81 40 36 41 80 42 37 43 38 44 39 45 74 46 40 47
REMARK SMILES IDX 79 48 73 49 75 50 41 51 78 52 72 53 71 54 42 56 64 57 49 58
REMARK SMILES IDX 63 59 50 60 53 61 62 62 76 63 51 64 52 65 61 67 77 68 54 69
REMARK SMILES IDX 43 70 44 71 48 72 45 73 47 74 46 75 65 76 66 77 70 78 67 79
REMARK SMILES IDX 69 80 68 81 55 82 56 83 60 84 57 85 59 86 58 87
REMARK H PARENT 27 5 6 13 16 24 31 36 75 55 53 66
REMARK Flexibility Score: inf
ROOT
ATOM      1  C   UNL A   1      31.725  30.098  27.258  1.00  0.00     0.117 C 
ENDROOT
BRANCH   1   2
ATOM      2  N   UNL A   1      33.047  29.587  27.584  1.00  0.00    -0.354 N 
ATOM      3  C   UNL A   1      33.860  28.725  26.910  1.00  0.00     0.242 C 
ATOM      4  O   UNL A   1      35.074  28.859  27.102  1.00  0.00    -0.273 OA
ATOM      5  H   UNL A   1      33.417  29.920  28.434  1.00  0.00     0.163 HD
BRANCH   3   6
ATOM      6  C   UNL A   1      33.329  27.757  25.834  1.00  0.00     0.174 C 
BRANCH   6   7
ATOM      7  C   UNL A   1      32.727  28.572  24.638  1.00  0.00     0.018 C 
ATOM      8  C   UNL A   1      33.584  28.434  23.373  1.00  0.00     0.010 C 
BRANCH   7   9
ATOM      9  C   UNL A   1      31.241  28.276  24.316  1.00  0.00     0.002 C 
ATOM     10  C   UNL A   1      30.494  29.445  23.688  1.00  0.00     0.004 C 
ENDBRANCH   7   9
ENDBRANCH   6   7
BRANCH   6  11
ATOM     11  N   UNL A   1      32.435  26.738  26.377  1.00  0.00    -0.342 N 
ATOM     12  C   UNL A   1      32.075  25.491  26.005  1.00  0.00     0.244 C 
ATOM     13  H   UNL A   1      31.991  27.029  27.207  1.00  0.00     0.164 HD
ATOM     14  O   UNL A   1      31.300  24.958  26.817  1.00  0.00    -0.273 OA
BRANCH  12  15
ATOM     15  C   UNL A   1      32.409  24.734  24.685  1.00  0.00     0.187 C 
BRANCH  15  16
ATOM     16  N   UNL A   1      33.366  23.622  24.930  1.00  0.00    -0.247 N 
ATOM     17  C   UNL A   1      32.826  22.341  25.059  1.00  0.00     0.329 A 
ATOM     18  C   UNL A   1      34.732  23.857  25.002  1.00  0.00     0.264 A 
ATOM     19  O   UNL A   1      31.626  22.082  25.133  1.00  0.00    -0.248 OA
ATOM     20  N   UNL A   1      33.700  21.294  25.115  1.00  0.00    -0.307 N 
ATOM     21  C   UNL A   1      35.634  22.693  25.028  1.00  0.00     0.064 A 
ATOM     22  O   UNL A   1      35.259  24.961  25.043  1.00  0.00    -0.268 OA
ATOM     23  C   UNL A   1      35.080  21.424  25.066  1.00  0.00     0.055 A 
ATOM     24  H   UNL A   1      33.327  20.387  25.194  1.00  0.00     0.171 HD
ATOM     25  C   UNL A   1      37.023  22.853  24.988  1.00  0.00     0.016 A 
ATOM     26  C   UNL A   1      35.899  20.296  25.053  1.00  0.00     0.027 A 
ATOM     27  C   UNL A   1      37.849  21.730  24.963  1.00  0.00     0.001 A 
ATOM     28  C   UNL A   1      37.286  20.452  24.991  1.00  0.00     0.002 A 
ENDBRANCH  15  16
BRANCH  15  29
ATOM     29  C   UNL A   1      31.418  24.632  23.485  1.00  0.00     0.016 C 
ATOM     30  C   UNL A   1      29.982  25.131  23.601  1.00  0.00     0.010 C 
ATOM     31  C   UNL A   1      32.036  25.280  22.229  1.00  0.00     0.010 C 
ENDBRANCH  15  29
ENDBRANCH  12  15
ENDBRANCH   6  11
ENDBRANCH   3   6
ENDBRANCH   1   2
BRANCH   1  32
ATOM     32  C   UNL A   1      31.746  31.517  26.726  1.00  0.00     0.042 C 
BRANCH  32  33
ATOM     33  C   UNL A   1      32.977  32.300  27.156  1.00  0.00     0.118 C 
BRANCH  33  34
ATOM     34  N   UNL A   1      32.671  33.660  27.599  1.00  0.00    -0.352 N 
ATOM     35  C   UNL A   1      33.264  34.456  28.547  1.00  0.00     0.251 C 
ATOM     36  H   UNL A   1      31.907  34.076  27.137  1.00  0.00     0.163 HD
ATOM     37  O   UNL A   1      32.730  35.510  28.886  1.00  0.00    -0.269 OA
BRANCH  35  38
ATOM     38  C   UNL A   1      34.515  34.024  29.197  1.00  0.00     0.039 A 
ATOM     39  C   UNL A   1      35.746  34.340  28.631  1.00  0.00     0.014 A 
ATOM     40  C   UNL A   1      34.457  33.261  30.367  1.00  0.00     0.014 A 
ATOM     41  C   UNL A   1      36.888  33.696  29.075  1.00  0.00     0.010 A 
ATOM     42  C   UNL A   1      35.632  32.722  30.897  1.00  0.00     0.010 A 
ATOM     43  C   UNL A   1      36.849  32.881  30.216  1.00  0.00    -0.014 A 
BRANCH  43  44
ATOM     44  C   UNL A   1      38.092  32.212  30.674  1.00  0.00     0.031 A 
ATOM     45  C   UNL A   1      38.588  30.962  30.001  1.00  0.00     0.074 A 
ATOM     46  C   UNL A   1      38.811  32.778  31.665  1.00  0.00     0.049 A 
ATOM     47  N   UNL A   1      39.642  30.239  30.288  1.00  0.00    -0.248 NA
ATOM     48  C   UNL A   1      37.807  30.449  28.864  1.00  0.00     0.031 C 
ATOM     49  C   UNL A   1      38.451  34.011  32.368  1.00  0.00     0.029 A 
ATOM     50  N   UNL A   1      40.009  32.416  32.225  1.00  0.00    -0.354 N 
ATOM     51  C   UNL A   1      39.624  29.171  29.401  1.00  0.00     0.074 A 
ATOM     52  C   UNL A   1      38.453  29.328  28.570  1.00  0.00     0.031 C 
ATOM     53  C   UNL A   1      39.442  34.346  33.204  1.00  0.00     0.029 A 
ATOM     54  C   UNL A   1      40.459  33.302  33.173  1.00  0.00     0.049 A 
ATOM     55  H   UNL A   1      40.499  31.600  31.973  1.00  0.00     0.167 HD
ATOM     56  C   UNL A   1      40.509  28.153  29.292  1.00  0.00     0.031 A 
ATOM     57  C   UNL A   1      41.552  33.272  33.957  1.00  0.00     0.031 A 
ATOM     58  C   UNL A   1      41.696  28.025  30.097  1.00  0.00     0.049 A 
ATOM     59  C   UNL A   1      42.487  32.106  33.855  1.00  0.00     0.074 A 
ATOM     60  C   UNL A   1      42.676  27.052  30.027  1.00  0.00     0.029 A 
ATOM     61  N   UNL A   1      42.062  28.896  31.110  1.00  0.00    -0.354 N 
ATOM     62  N   UNL A   1      42.445  31.094  33.023  1.00  0.00    -0.248 NA
ATOM     63  C   UNL A   1      43.600  32.060  34.810  1.00  0.00     0.031 C 
ATOM     64  C   UNL A   1      43.605  27.299  31.041  1.00  0.00     0.029 A 
ATOM     65  C   UNL A   1      43.235  28.461  31.701  1.00  0.00     0.049 A 
ATOM     66  H   UNL A   1      41.562  29.704  31.372  1.00  0.00     0.167 HD
ATOM     67  C   UNL A   1      43.524  30.288  33.354  1.00  0.00     0.074 A 
ATOM     68  C   UNL A   1      44.215  30.939  34.449  1.00  0.00     0.031 C 
ATOM     69  C   UNL A   1      43.901  29.112  32.800  1.00  0.00     0.031 A 
BRANCH  56  70
ATOM     70  C   UNL A   1      40.229  27.068  28.289  1.00  0.00    -0.014 A 
ATOM     71  C   UNL A   1      39.477  25.947  28.680  1.00  0.00     0.009 A 
ATOM     72  C   UNL A   1      40.782  27.098  27.000  1.00  0.00     0.009 A 
ATOM     73  C   UNL A   1      39.294  24.874  27.807  1.00  0.00     0.001 A 
ATOM     74  C   UNL A   1      40.576  26.033  26.119  1.00  0.00     0.001 A 
ATOM     75  C   UNL A   1      39.842  24.919  26.526  1.00  0.00     0.000 A 
ENDBRANCH  56  70
BRANCH  57  76
ATOM     76  C   UNL A   1      41.782  34.383  34.915  1.00  0.00    -0.014 A 
ATOM     77  C   UNL A   1      41.150  34.382  36.171  1.00  0.00     0.009 A 
ATOM     78  C   UNL A   1      42.549  35.495  34.542  1.00  0.00     0.009 A 
ATOM     79  C   UNL A   1      41.246  35.489  37.015  1.00  0.00     0.001 A 
ATOM     80  C   UNL A   1      42.667  36.590  35.403  1.00  0.00     0.001 A 
ATOM     81  C   UNL A   1      42.005  36.593  36.631  1.00  0.00     0.000 A 
ENDBRANCH  57  76
BRANCH  69  82
ATOM     82  C   UNL A   1      45.114  28.431  33.364  1.00  0.00    -0.014 A 
ATOM     83  C   UNL A   1      46.379  28.688  32.812  1.00  0.00     0.009 A 
ATOM     84  C   UNL A   1      44.987  27.451  34.358  1.00  0.00     0.009 A 
ATOM     85  C   UNL A   1      47.493  27.959  33.229  1.00  0.00     0.001 A 
ATOM     86  C   UNL A   1      46.108  26.740  34.792  1.00  0.00     0.001 A 
ATOM     87  C   UNL A   1      47.356  26.987  34.219  1.00  0.00     0.000 A 
ENDBRANCH  69  82
ENDBRANCH  43  44
ENDBRANCH  35  38
ENDBRANCH  33  34
ENDBRANCH  32  33
ENDBRANCH   1  32
TORSDOF 16
ENDMDL
MODEL 2
REMARK VINA RESULT:     -11.2      0.287      5.712
REMARK SMILES CC[C@H](C)[C@H](NC(=O)[C@H](C(C)C)n1c(=O)[nH]c2ccccc2c1=O)C(=O)NCCCNC(=O)c1ccc(-c2c3nc(c(-c4ccccc4)c4ccc([nH]4)c(-c4ccccc4)c4nc(c(-c5ccccc5)c5ccc2[nH]5)C=C4)C=C3)cc1
REMARK SMILES IDX 28 1 27 2 25 3 26 4 5 6 3 7 4 8 2 9 1 10 6 11 7 12 8 14 9 15
REMARK SMILES IDX 13 16 14 17 23 18 15 19 16 20 22 21 24 22 17 23 21 25 18 26
REMARK SMILES IDX 20 27 19 28 10 29 11 30 12 31 29 32 30 33 31 34 32 35 33 37
REMARK SMILES IDX 34 38 35 39 81 40 36 41 80 42 37 43 38 44 39 45 74 46 40 47
REMARK SMILES IDX 79 48 73 49 75 50 41 51 78 52 72 53 71 54 42 56 64 57 49 58
REMARK SMILES IDX 63 59 50 60 53 61 62 62 76 63 51 64 52 65 61 67 77 68 54 69
REMARK SMILES IDX 43 70 44 71 48 72 45 73 47 74 46 75 65 76 66 77 70 78 67 79
REMARK SMILES IDX 69 80 68 81 55 82 56 83 60 84 57 85 59 86 58 87
REMARK H PARENT 27 5 6 13 16 24 31 36 75 55 53 66
REMARK Flexibility Score: inf
ROOT
ATOM      1  C   UNL A   1      31.778  29.905  27.249  1.00  0.00     0.117 C 
ENDROOT
BRANCH   1   2
ATOM      2  N   UNL A   1      33.113  29.456  27.614  1.00  0.00    -0.354 N 
ATOM      3  C   UNL A   1      33.984  28.633  26.965  1.00  0.00     0.242 C 
ATOM      4  O   UNL A   1      35.184  28.823  27.193  1.00  0.00    -0.273 OA
ATOM      5  H   UNL A   1      33.441  29.805  28.474  1.00  0.00     0.163 HD
BRANCH   3   6
ATOM      6  C   UNL A   1      33.530  27.642  25.875  1.00  0.00     0.174 C 
BRANCH   6   7
ATOM      7  C   UNL A   1      33.112  28.428  24.585  1.00  0.00     0.018 C 
ATOM      8  C   UNL A   1      33.976  28.036  23.379  1.00  0.00     0.010 C 
BRANCH   7   9
ATOM      9  C   UNL A   1      31.609  28.347  24.218  1.00  0.00     0.002 C 
ATOM     10  C   UNL A   1      31.283  28.829  22.810  1.00  0.00     0.004 C 
ENDBRANCH   7   9
ENDBRANCH   6   7
BRANCH   6  11
ATOM     11  N   UNL A   1      32.529  26.692  26.351  1.00  0.00    -0.342 N 
ATOM     12  C   UNL A   1      32.091  25.483  25.937  1.00  0.00     0.244 C 
ATOM     13  H   UNL A   1      32.066  27.005  27.162  1.00  0.00     0.164 HD
ATOM     14  O   UNL A   1      31.232  25.004  26.697  1.00  0.00    -0.273 OA
BRANCH  12  15
ATOM     15  C   UNL A   1      32.433  24.722  24.622  1.00  0.00     0.187 C 
BRANCH  15  16
ATOM     16  N   UNL A   1      33.389  23.611  24.878  1.00  0.00    -0.247 N 
ATOM     17  C   UNL A   1      32.854  22.324  24.962  1.00  0.00     0.329 A 
ATOM     18  C   UNL A   1      34.750  23.853  25.002  1.00  0.00     0.264 A 
ATOM     19  O   UNL A   1      31.654  22.056  24.990  1.00  0.00    -0.248 OA
ATOM     20  N   UNL A   1      33.734  21.282  25.027  1.00  0.00    -0.307 N 
ATOM     21  C   UNL A   1      35.659  22.694  25.036  1.00  0.00     0.064 A 
ATOM     22  O   UNL A   1      35.268  24.960  25.083  1.00  0.00    -0.268 OA
ATOM     23  C   UNL A   1      35.113  21.422  25.029  1.00  0.00     0.055 A 
ATOM     24  H   UNL A   1      33.364  20.370  25.076  1.00  0.00     0.171 HD
ATOM     25  C   UNL A   1      37.047  22.865  25.046  1.00  0.00     0.016 A 
ATOM     26  C   UNL A   1      35.940  20.300  25.021  1.00  0.00     0.027 A 
ATOM     27  C   UNL A   1      37.882  21.747  25.027  1.00  0.00     0.001 A 
ATOM     28  C   UNL A   1      37.328  20.466  25.011  1.00  0.00     0.002 A 
ENDBRANCH  15  16
BRANCH  15  29
ATOM     29  C   UNL A   1      31.449  24.613  23.416  1.00  0.00     0.016 C 
ATOM     30  C   UNL A   1      30.037  25.182  23.495  1.00  0.00     0.010 C 
ATOM     31  C   UNL A   1      32.108  25.180  22.141  1.00  0.00     0.010 C 
ENDBRANCH  15  29
ENDBRANCH  12  15
ENDBRANCH   6  11
ENDBRANCH   3   6
ENDBRANCH   1   2
BRANCH   1  32
ATOM     32  C   UNL A   1      31.740  31.343  26.771  1.00  0.00     0.042 C 
BRANCH  32  33
ATOM     33  C   UNL A   1      32.970  32.141  27.175  1.00  0.00     0.118 C 
BRANCH  33  34
ATOM     34  N   UNL A   1      32.661  33.512  27.581  1.00  0.00    -0.352 N 
ATOM     35  C   UNL A   1      33.258  34.338  28.501  1.00  0.00     0.251 C 
ATOM     36  H   UNL A   1      31.890  33.910  27.115  1.00  0.00     0.163 HD
ATOM     37  O   UNL A   1      32.722  35.398  28.815  1.00  0.00    -0.269 OA
BRANCH  35  38
ATOM     38  C   UNL A   1      34.517  33.931  29.151  1.00  0.00     0.039 A 
ATOM     39  C   UNL A   1      35.741  34.323  28.617  1.00  0.00     0.014 A 
ATOM     40  C   UNL A   1      34.477  33.118  30.287  1.00  0.00     0.014 A 
ATOM     41  C   UNL A   1      36.904  33.708  29.051  1.00  0.00     0.010 A 
ATOM     42  C   UNL A   1      35.666  32.606  30.812  1.00  0.00     0.010 A 
ATOM     43  C   UNL A   1      36.884  32.844  30.157  1.00  0.00    -0.014 A 
BRANCH  43  44
ATOM     44  C   UNL A   1      38.148  32.210  30.605  1.00  0.00     0.031 A 
ATOM     45  C   UNL A   1      38.934  32.783  31.752  1.00  0.00     0.074 A 
ATOM     46  C   UNL A   1      38.553  31.070  30.010  1.00  0.00     0.049 A 
ATOM     47  N   UNL A   1      40.069  32.368  32.257  1.00  0.00    -0.248 NA
ATOM     48  C   UNL A   1      38.387  33.975  32.420  1.00  0.00     0.031 C 
ATOM     49  C   UNL A   1      37.853  30.398  28.912  1.00  0.00     0.029 A 
ATOM     50  N   UNL A   1      39.626  30.254  30.267  1.00  0.00    -0.354 N 
ATOM     51  C   UNL A   1      40.389  33.268  33.265  1.00  0.00     0.074 A 
ATOM     52  C   UNL A   1      39.339  34.259  33.299  1.00  0.00     0.031 C 
ATOM     53  C   UNL A   1      38.465  29.237  28.646  1.00  0.00     0.029 A 
ATOM     54  C   UNL A   1      39.656  29.129  29.481  1.00  0.00     0.049 A 
ATOM     55  H   UNL A   1      40.307  30.456  30.949  1.00  0.00     0.167 HD
ATOM     56  C   UNL A   1      41.464  33.261  34.088  1.00  0.00     0.031 A 
ATOM     57  C   UNL A   1      40.554  28.129  29.410  1.00  0.00     0.031 A 
ATOM     58  C   UNL A   1      42.485  32.247  34.075  1.00  0.00     0.049 A 
ATOM     59  C   UNL A   1      41.763  28.175  30.293  1.00  0.00     0.074 A 
ATOM     60  C   UNL A   1      43.588  32.132  34.902  1.00  0.00     0.029 A 
ATOM     61  N   UNL A   1      42.525  31.176  33.197  1.00  0.00    -0.354 N 
ATOM     62  N   UNL A   1      42.060  29.044  31.229  1.00  0.00    -0.248 NA
ATOM     63  C   UNL A   1      42.771  27.126  30.098  1.00  0.00     0.031 C 
ATOM     64  C   UNL A   1      44.330  31.025  34.484  1.00  0.00     0.029 A 
ATOM     65  C   UNL A   1      43.656  30.416  33.436  1.00  0.00     0.049 A 
ATOM     66  H   UNL A   1      41.850  30.984  32.506  1.00  0.00     0.167 HD
ATOM     67  C   UNL A   1      43.290  28.649  31.735  1.00  0.00     0.074 A 
ATOM     68  C   UNL A   1      43.674  27.450  31.016  1.00  0.00     0.031 C 
ATOM     69  C   UNL A   1      44.032  29.235  32.703  1.00  0.00     0.031 A 
BRANCH  56  70
ATOM     70  C   UNL A   1      41.624  34.397  35.060  1.00  0.00    -0.014 A 
ATOM     71  C   UNL A   1      41.009  34.316  36.321  1.00  0.00     0.009 A 
ATOM     72  C   UNL A   1      42.291  35.580  34.705  1.00  0.00     0.009 A 
ATOM     73  C   UNL A   1      41.046  35.399  37.201  1.00  0.00     0.001 A 
ATOM     74  C   UNL A   1      42.348  36.653  35.598  1.00  0.00     0.001 A 
ATOM     75  C   UNL A   1      41.718  36.565  36.840  1.00  0.00     0.000 A 
ENDBRANCH  56  70
BRANCH  57  76
ATOM     76  C   UNL A   1      40.330  27.027  28.441  1.00  0.00    -0.014 A 
ATOM     77  C   UNL A   1      40.860  27.102  27.141  1.00  0.00     0.009 A 
ATOM     78  C   UNL A   1      39.503  25.945  28.774  1.00  0.00     0.009 A 
ATOM     79  C   UNL A   1      40.533  26.142  26.183  1.00  0.00     0.001 A 
ATOM     80  C   UNL A   1      39.201  24.969  27.820  1.00  0.00     0.001 A 
ATOM     81  C   UNL A   1      39.704  25.075  26.523  1.00  0.00     0.000 A 
ENDBRANCH  57  76
BRANCH  69  82
ATOM     82  C   UNL A   1      45.348  28.603  33.052  1.00  0.00    -0.014 A 
ATOM     83  C   UNL A   1      45.406  27.618  34.051  1.00  0.00     0.009 A 
ATOM     84  C   UNL A   1      46.540  29.067  32.478  1.00  0.00     0.009 A 
ATOM     85  C   UNL A   1      46.637  27.125  34.486  1.00  0.00     0.001 A 
ATOM     86  C   UNL A   1      47.769  28.553  32.898  1.00  0.00     0.001 A 
ATOM     87  C   UNL A   1      47.816  27.592  33.907  1.00  0.00     0.000 A 
ENDBRANCH  69  82
ENDBRANCH  43  44
ENDBRANCH  35  38
ENDBRANCH  33  34
ENDBRANCH  32  33
ENDBRANCH   1  32
TORSDOF 16
ENDMDL
MODEL 3
REMARK VINA RESULT:     -11.1      3.220      8.843
REMARK SMILES CC[C@H](C)[C@H](NC(=O)[C@H](C(C)C)n1c(=O)[nH]c2ccccc2c1=O)C(=O)NCCCNC(=O)c1ccc(-c2c3nc(c(-c4ccccc4)c4ccc([nH]4)c(-c4ccccc4)c4nc(c(-c5ccccc5)c5ccc2[nH]5)C=C4)C=C3)cc1
REMARK SMILES IDX 28 1 27 2 25 3 26 4 5 6 3 7 4 8 2 9 1 10 6 11 7 12 8 14 9 15
REMARK SMILES IDX 13 16 14 17 23 18 15 19 16 20 22 21 24 22 17 23 21 25 18 26
REMARK SMILES IDX 20 27 19 28 10 29 11 30 12 31 29 32 30 33 31 34 32 35 33 37
REMARK SMILES IDX 34 38 35 39 81 40 36 41 80 42 37 43 38 44 39 45 74 46 40 47
REMARK SMILES IDX 79 48 73 49 75 50 41 51 78 52 72 53 71 54 42 56 64 57 49 58
REMARK SMILES IDX 63 59 50 60 53 61 62 62 76 63 51 64 52 65 61 67 77 68 54 69
REMARK SMILES IDX 43 70 44 71 48 72 45 73 47 74 46 75 65 76 66 77 70 78 67 79
REMARK SMILES IDX 69 80 68 81 55 82 56 83 60 84 57 85 59 86 58 87
REMARK H PARENT 27 5 6 13 16 24 31 36 75 55 53 66
REMARK Flexibility Score: inf
ROOT
ATOM      1  C   UNL A   1      36.297  22.066  24.804  1.00  0.00     0.117 C 
ENDROOT
BRANCH   1   2
ATOM      2  N   UNL A   1      35.737  22.468  23.522  1.00  0.00    -0.354 N 
ATOM      3  C   UNL A   1      34.447  22.700  23.148  1.00  0.00     0.242 C 
ATOM      4  O   UNL A   1      34.284  23.503  22.223  1.00  0.00    -0.273 OA
ATOM      5  H   UNL A   1      36.401  22.595  22.807  1.00  0.00     0.163 HD
BRANCH   3   6
ATOM      6  C   UNL A   1      33.244  22.142  23.935  1.00  0.00     0.174 C 
BRANCH   6   7
ATOM      7  C   UNL A   1      33.282  20.575  23.921  1.00  0.00     0.018 C 
ATOM      8  C   UNL A   1      33.169  19.995  25.337  1.00  0.00     0.010 C 
BRANCH   7   9
ATOM      9  C   UNL A   1      32.256  19.896  22.979  1.00  0.00     0.002 C 
ATOM     10  C   UNL A   1      32.316  18.375  22.983  1.00  0.00     0.004 C 
ENDBRANCH   7   9
ENDBRANCH   6   7
BRANCH   6  11
ATOM     11  N   UNL A   1      31.971  22.716  23.510  1.00  0.00    -0.342 N 
ATOM     12  C   UNL A   1      31.404  23.940  23.589  1.00  0.00     0.244 C 
ATOM     13  H   UNL A   1      31.391  22.059  23.062  1.00  0.00     0.164 HD
ATOM     14  O   UNL A   1      30.293  23.985  23.035  1.00  0.00    -0.273 OA
BRANCH  12  15
ATOM     15  C   UNL A   1      31.905  25.197  24.361  1.00  0.00     0.187 C 
BRANCH  15  16
ATOM     16  N   UNL A   1      31.307  26.441  23.807  1.00  0.00    -0.247 N 
ATOM     17  C   UNL A   1      32.121  27.221  22.983  1.00  0.00     0.329 A 
ATOM     18  C   UNL A   1      29.992  26.787  24.084  1.00  0.00     0.264 A 
ATOM     19  O   UNL A   1      33.325  27.042  22.802  1.00  0.00    -0.248 OA
ATOM     20  N   UNL A   1      31.536  28.271  22.335  1.00  0.00    -0.307 N 
ATOM     21  C   UNL A   1      29.398  27.907  23.335  1.00  0.00     0.064 A 
ATOM     22  O   UNL A   1      29.273  26.233  24.906  1.00  0.00    -0.268 OA
ATOM     23  C   UNL A   1      30.198  28.615  22.454  1.00  0.00     0.055 A 
ATOM     24  H   UNL A   1      32.101  28.819  21.744  1.00  0.00     0.171 HD
ATOM     25  C   UNL A   1      28.047  28.239  23.480  1.00  0.00     0.016 A 
ATOM     26  C   UNL A   1      29.664  29.657  21.697  1.00  0.00     0.027 A 
ATOM     27  C   UNL A   1      27.502  29.273  22.719  1.00  0.00     0.001 A 
ATOM     28  C   UNL A   1      28.310  29.978  21.825  1.00  0.00     0.002 A 
ENDBRANCH  15  16
BRANCH  15  29
ATOM     29  C   UNL A   1      32.337  25.164  25.860  1.00  0.00     0.016 C 
ATOM     30  C   UNL A   1      31.787  24.113  26.817  1.00  0.00     0.010 C 
ATOM     31  C   UNL A   1      33.875  25.134  25.969  1.00  0.00     0.010 C 
ENDBRANCH  15  29
ENDBRANCH  12  15
ENDBRANCH   6  11
ENDBRANCH   3   6
ENDBRANCH   1   2
BRANCH   1  32
ATOM     32  C   UNL A   1      37.386  21.020  24.679  1.00  0.00     0.042 C 
BRANCH  32  33
ATOM     33  C   UNL A   1      38.431  21.109  25.781  1.00  0.00     0.118 C 
BRANCH  33  34
ATOM     34  N   UNL A   1      39.430  20.043  25.717  1.00  0.00    -0.352 N 
ATOM     35  C   UNL A   1      40.775  20.046  25.996  1.00  0.00     0.251 C 
ATOM     36  H   UNL A   1      39.077  19.172  25.421  1.00  0.00     0.163 HD
ATOM     37  O   UNL A   1      41.466  19.074  25.702  1.00  0.00    -0.269 OA
BRANCH  35  38
ATOM     38  C   UNL A   1      41.399  21.235  26.604  1.00  0.00     0.039 A 
ATOM     39  C   UNL A   1      41.428  21.384  27.987  1.00  0.00     0.014 A 
ATOM     40  C   UNL A   1      41.931  22.232  25.781  1.00  0.00     0.014 A 
ATOM     41  C   UNL A   1      41.746  22.615  28.535  1.00  0.00     0.010 A 
ATOM     42  C   UNL A   1      42.383  23.426  26.348  1.00  0.00     0.010 A 
ATOM     43  C   UNL A   1      42.232  23.653  27.725  1.00  0.00    -0.014 A 
BRANCH  43  44
ATOM     44  C   UNL A   1      42.575  24.957  28.344  1.00  0.00     0.031 A 
ATOM     45  C   UNL A   1      43.998  25.290  28.703  1.00  0.00     0.074 A 
ATOM     46  C   UNL A   1      41.601  25.871  28.523  1.00  0.00     0.049 A 
ATOM     47  N   UNL A   1      44.468  26.372  29.270  1.00  0.00    -0.248 NA
ATOM     48  C   UNL A   1      45.027  24.284  28.394  1.00  0.00     0.031 C 
ATOM     49  C   UNL A   1      40.190  25.678  28.178  1.00  0.00     0.029 A 
ATOM     50  N   UNL A   1      41.651  27.156  29.001  1.00  0.00    -0.354 N 
ATOM     51  C   UNL A   1      45.832  26.159  29.423  1.00  0.00     0.074 A 
ATOM     52  C   UNL A   1      46.118  24.843  28.901  1.00  0.00     0.031 C 
ATOM     53  C   UNL A   1      39.528  26.824  28.377  1.00  0.00     0.029 A 
ATOM     54  C   UNL A   1      40.440  27.802  28.959  1.00  0.00     0.049 A 
ATOM     55  H   UNL A   1      42.475  27.575  29.340  1.00  0.00     0.167 HD
ATOM     56  C   UNL A   1      46.760  26.993  29.951  1.00  0.00     0.031 A 
ATOM     57  C   UNL A   1      40.085  29.034  29.368  1.00  0.00     0.031 A 
ATOM     58  C   UNL A   1      46.473  28.319  30.431  1.00  0.00     0.049 A 
ATOM     59  C   UNL A   1      41.118  29.915  29.999  1.00  0.00     0.074 A 
ATOM     60  C   UNL A   1      47.356  29.254  30.940  1.00  0.00     0.029 A 
ATOM     61  N   UNL A   1      45.214  28.897  30.457  1.00  0.00    -0.354 N 
ATOM     62  N   UNL A   1      42.401  29.691  30.154  1.00  0.00    -0.248 NA
ATOM     63  C   UNL A   1      40.659  31.202  30.535  1.00  0.00     0.031 C 
ATOM     64  C   UNL A   1      46.622  30.375  31.333  1.00  0.00     0.029 A 
ATOM     65  C   UNL A   1      45.290  30.162  31.010  1.00  0.00     0.049 A 
ATOM     66  H   UNL A   1      44.388  28.470  30.130  1.00  0.00     0.167 HD
ATOM     67  C   UNL A   1      42.904  30.807  30.806  1.00  0.00     0.074 A 
ATOM     68  C   UNL A   1      41.792  31.716  31.000  1.00  0.00     0.031 C 
ATOM     69  C   UNL A   1      44.173  31.048  31.211  1.00  0.00     0.031 A 
BRANCH  56  70
ATOM     70  C   UNL A   1      48.175  26.499  30.073  1.00  0.00    -0.014 A 
ATOM     71  C   UNL A   1      49.053  26.651  28.987  1.00  0.00     0.009 A 
ATOM     72  C   UNL A   1      48.614  25.801  31.208  1.00  0.00     0.009 A 
ATOM     73  C   UNL A   1      50.337  26.105  29.029  1.00  0.00     0.001 A 
ATOM     74  C   UNL A   1      49.908  25.277  31.258  1.00  0.00     0.001 A 
ATOM     75  C   UNL A   1      50.764  25.421  30.166  1.00  0.00     0.000 A 
ENDBRANCH  56  70
BRANCH  57  76
ATOM     76  C   UNL A   1      38.675  29.469  29.204  1.00  0.00    -0.014 A 
ATOM     77  C   UNL A   1      37.744  29.274  30.239  1.00  0.00     0.009 A 
ATOM     78  C   UNL A   1      38.229  29.986  27.979  1.00  0.00     0.009 A 
ATOM     79  C   UNL A   1      36.390  29.546  30.038  1.00  0.00     0.001 A 
ATOM     80  C   UNL A   1      36.877  30.286  27.792  1.00  0.00     0.001 A 
ATOM     81  C   UNL A   1      35.958  30.053  28.815  1.00  0.00     0.000 A 
ENDBRANCH  57  76
BRANCH  69  82
ATOM     82  C   UNL A   1      44.446  32.345  31.916  1.00  0.00    -0.014 A 
ATOM     83  C   UNL A   1      44.826  33.476  31.175  1.00  0.00     0.009 A 
ATOM     84  C   UNL A   1      44.442  32.413  33.316  1.00  0.00     0.009 A 
ATOM     85  C   UNL A   1      45.220  34.645  31.825  1.00  0.00     0.001 A 
ATOM     86  C   UNL A   1      44.814  33.593  33.964  1.00  0.00     0.001 A 
ATOM     87  C   UNL A   1      45.213  34.702  33.218  1.00  0.00     0.000 A 
ENDBRANCH  69  82
ENDBRANCH  43  44
ENDBRANCH  35  38
ENDBRANCH  33  34
ENDBRANCH  32  33
ENDBRANCH   1  32
TORSDOF 16
ENDMDL
