MODEL 1
REMARK VINA RESULT:     -11.4      0.000      0.000
REMARK SMILES Cc1n[nH]c(SCC[C@@H]2CCC[C@]2([NH2+]C(C)C)C(=O)NCCCNC(=O)c2ccc(-c3c4nc(c(-c5ccccc5)c5ccc([nH]5)c(-c5ccccc5)c5nc(c(-c6ccccc6)c6ccc3[nH]6)C=C5)C=C4)cc2)n1
REMARK SMILES IDX 21 1 20 2 18 3 19 4 13 6 9 7 10 8 11 9 12 10 8 11 7 12 6 13
REMARK SMILES IDX 5 14 1 15 2 16 3 17 75 18 4 19 14 21 15 24 16 25 17 26 22 27
REMARK SMILES IDX 23 28 24 29 25 30 26 32 27 33 28 34 74 35 29 36 73 37 30 38
REMARK SMILES IDX 31 39 32 40 67 41 33 42 72 43 66 44 68 45 34 46 71 47 65 48
REMARK SMILES IDX 64 49 35 51 57 52 42 53 56 54 43 55 46 56 55 57 69 58 44 59
REMARK SMILES IDX 45 60 54 62 70 63 47 64 36 65 37 66 41 67 38 68 40 69 39 70
REMARK SMILES IDX 58 71 59 72 63 73 60 74 62 75 61 76 48 77 49 78 53 79 50 80
REMARK SMILES IDX 52 81 51 82
REMARK H PARENT 20 5 4 20 14 22 14 23 24 31 68 50 46 61
REMARK Flexibility Score: inf
ROOT
ATOM      1  C   UNL A   1      32.411  27.430  26.770  1.00  0.00     0.118 C 
ENDROOT
BRANCH   1   2
ATOM      2  N   UNL A   1      31.281  27.032  25.923  1.00  0.00    -0.351 N 
ATOM      3  C   UNL A   1      30.969  25.858  25.276  1.00  0.00     0.281 C 
ATOM      4  O   UNL A   1      29.854  25.817  24.743  1.00  0.00    -0.268 OA
ATOM      5  H   UNL A   1      30.614  27.745  25.793  1.00  0.00     0.163 HD
BRANCH   3   6
ATOM      6  C   UNL A   1      31.971  24.650  25.165  1.00  0.00     0.178 C 
ATOM      7  C   UNL A   1      33.022  24.894  24.015  1.00  0.00     0.061 C 
ATOM      8  C   UNL A   1      32.262  24.474  22.748  1.00  0.00     0.011 C 
ATOM      9  C   UNL A   1      31.541  23.215  23.142  1.00  0.00     0.008 C 
ATOM     10  C   UNL A   1      31.275  23.352  24.635  1.00  0.00     0.079 C 
BRANCH   7  11
ATOM     11  C   UNL A   1      33.618  26.283  23.731  1.00  0.00     0.022 C 
BRANCH  11  12
ATOM     12  C   UNL A   1      32.921  27.083  22.631  1.00  0.00     0.079 C 
BRANCH  12  13
ATOM     13  S   UNL A   1      32.709  28.845  23.040  1.00  0.00    -0.087 SA
BRANCH  13  14
ATOM     14  C   UNL A   1      31.076  29.160  22.623  1.00  0.00     0.183 A 
ATOM     15  C   UNL A   1      27.570  29.195  22.900  1.00  0.00     0.092 C 
ATOM     16  C   UNL A   1      28.990  29.320  22.520  1.00  0.00     0.148 A 
ATOM     17  N   UNL A   1      29.387  29.996  21.432  1.00  0.00    -0.158 NA
ATOM     18  N   UNL A   1      30.004  28.777  23.268  1.00  0.00    -0.206 NA
ATOM     19  N   UNL A   1      30.723  29.920  21.554  1.00  0.00    -0.254 N 
ATOM     20  H   UNL A   1      31.363  30.359  20.947  1.00  0.00     0.192 HD
ENDBRANCH  13  14
ENDBRANCH  12  13
ENDBRANCH  11  12
ENDBRANCH   7  11
BRANCH   6  21
ATOM     21  N   UNL A   1      32.569  24.353  26.505  1.00  0.00    -0.331 N 
ATOM     22  H   UNL A   1      31.808  24.305  27.183  1.00  0.00     0.347 HD
ATOM     23  H   UNL A   1      33.236  25.103  26.684  1.00  0.00     0.347 HD
BRANCH  21  24
ATOM     24  C   UNL A   1      33.347  23.085  26.600  1.00  0.00     0.176 C 
ATOM     25  C   UNL A   1      34.873  23.250  26.568  1.00  0.00     0.075 C 
ATOM     26  C   UNL A   1      32.984  22.405  27.927  1.00  0.00     0.075 C 
ENDBRANCH  21  24
ENDBRANCH   6  21
ENDBRANCH   3   6
ENDBRANCH   1   2
BRANCH   1  27
ATOM     27  C   UNL A   1      32.385  28.879  27.283  1.00  0.00     0.042 C 
BRANCH  27  28
ATOM     28  C   UNL A   1      33.710  29.602  27.226  1.00  0.00     0.118 C 
BRANCH  28  29
ATOM     29  N   UNL A   1      33.615  31.021  27.547  1.00  0.00    -0.352 N 
ATOM     30  C   UNL A   1      34.501  31.752  28.312  1.00  0.00     0.251 C 
ATOM     31  H   UNL A   1      32.840  31.507  27.180  1.00  0.00     0.163 HD
ATOM     32  O   UNL A   1      34.154  32.803  28.849  1.00  0.00    -0.269 OA
BRANCH  30  33
ATOM     33  C   UNL A   1      35.877  31.249  28.476  1.00  0.00     0.039 A 
ATOM     34  C   UNL A   1      36.905  32.052  28.975  1.00  0.00     0.014 A 
ATOM     35  C   UNL A   1      36.127  29.923  28.126  1.00  0.00     0.014 A 
ATOM     36  C   UNL A   1      38.164  31.488  29.164  1.00  0.00     0.010 A 
ATOM     37  C   UNL A   1      37.296  29.321  28.498  1.00  0.00     0.010 A 
ATOM     38  C   UNL A   1      38.345  30.116  28.930  1.00  0.00    -0.014 A 
BRANCH  38  39
ATOM     39  C   UNL A   1      39.619  29.460  29.170  1.00  0.00     0.031 A 
ATOM     40  C   UNL A   1      39.924  29.194  30.595  1.00  0.00     0.074 A 
ATOM     41  C   UNL A   1      40.377  28.948  28.176  1.00  0.00     0.049 A 
ATOM     42  N   UNL A   1      40.816  29.784  31.314  1.00  0.00    -0.248 NA
ATOM     43  C   UNL A   1      39.062  28.269  31.346  1.00  0.00     0.031 C 
ATOM     44  C   UNL A   1      40.065  28.838  26.745  1.00  0.00     0.029 A 
ATOM     45  N   UNL A   1      41.562  28.293  28.270  1.00  0.00    -0.354 N 
ATOM     46  C   UNL A   1      40.768  29.180  32.564  1.00  0.00     0.074 A 
ATOM     47  C   UNL A   1      39.565  28.384  32.579  1.00  0.00     0.031 C 
ATOM     48  C   UNL A   1      40.905  27.950  26.168  1.00  0.00     0.029 A 
ATOM     49  C   UNL A   1      41.912  27.568  27.139  1.00  0.00     0.049 A 
ATOM     50  H   UNL A   1      42.128  28.328  29.075  1.00  0.00     0.167 HD
ATOM     51  C   UNL A   1      41.844  29.207  33.398  1.00  0.00     0.031 A 
ATOM     52  C   UNL A   1      42.941  26.693  27.026  1.00  0.00     0.031 A 
ATOM     53  C   UNL A   1      42.855  30.119  32.921  1.00  0.00     0.049 A 
ATOM     54  C   UNL A   1      43.891  26.985  28.126  1.00  0.00     0.074 A 
ATOM     55  C   UNL A   1      42.892  31.474  32.656  1.00  0.00     0.029 A 
ATOM     56  N   UNL A   1      43.916  29.567  32.241  1.00  0.00    -0.354 N 
ATOM     57  N   UNL A   1      44.608  28.070  28.179  1.00  0.00    -0.248 NA
ATOM     58  C   UNL A   1      43.702  26.304  29.399  1.00  0.00     0.031 C 
ATOM     59  C   UNL A   1      43.657  31.589  31.459  1.00  0.00     0.029 A 
ATOM     60  C   UNL A   1      44.118  30.317  31.111  1.00  0.00     0.049 A 
ATOM     61  H   UNL A   1      44.436  28.777  32.515  1.00  0.00     0.167 HD
ATOM     62  C   UNL A   1      44.555  28.461  29.509  1.00  0.00     0.074 A 
ATOM     63  C   UNL A   1      44.083  27.279  30.231  1.00  0.00     0.031 C 
ATOM     64  C   UNL A   1      44.611  29.781  29.861  1.00  0.00     0.031 A 
BRANCH  51  65
ATOM     65  C   UNL A   1      42.172  28.140  34.408  1.00  0.00    -0.014 A 
ATOM     66  C   UNL A   1      42.712  26.926  33.945  1.00  0.00     0.009 A 
ATOM     67  C   UNL A   1      41.719  28.168  35.739  1.00  0.00     0.009 A 
ATOM     68  C   UNL A   1      42.717  25.779  34.746  1.00  0.00     0.001 A 
ATOM     69  C   UNL A   1      41.762  27.034  36.555  1.00  0.00     0.001 A 
ATOM     70  C   UNL A   1      42.233  25.831  36.048  1.00  0.00     0.000 A 
ENDBRANCH  51  65
BRANCH  52  71
ATOM     71  C   UNL A   1      43.068  25.494  26.172  1.00  0.00    -0.014 A 
ATOM     72  C   UNL A   1      44.177  25.328  25.328  1.00  0.00     0.009 A 
ATOM     73  C   UNL A   1      42.233  24.380  26.383  1.00  0.00     0.009 A 
ATOM     74  C   UNL A   1      44.468  24.082  24.757  1.00  0.00     0.001 A 
ATOM     75  C   UNL A   1      42.523  23.137  25.810  1.00  0.00     0.001 A 
ATOM     76  C   UNL A   1      43.651  22.984  25.011  1.00  0.00     0.000 A 
ENDBRANCH  52  71
BRANCH  64  77
ATOM     77  C   UNL A   1      44.973  30.789  28.794  1.00  0.00    -0.014 A 
ATOM     78  C   UNL A   1      44.033  31.373  27.927  1.00  0.00     0.009 A 
ATOM     79  C   UNL A   1      46.288  31.276  28.768  1.00  0.00     0.009 A 
ATOM     80  C   UNL A   1      44.409  32.383  27.034  1.00  0.00     0.001 A 
ATOM     81  C   UNL A   1      46.659  32.302  27.896  1.00  0.00     0.001 A 
ATOM     82  C   UNL A   1      45.722  32.849  27.023  1.00  0.00     0.000 A 
ENDBRANCH  64  77
ENDBRANCH  38  39
ENDBRANCH  30  33
ENDBRANCH  28  29
ENDBRANCH  27  28
ENDBRANCH   1  27
TORSDOF 16
ENDMDL
MODEL 2
REMARK VINA RESULT:     -11.3      3.113      7.816
REMARK SMILES Cc1n[nH]c(SCC[C@@H]2CCC[C@]2([NH2+]C(C)C)C(=O)NCCCNC(=O)c2ccc(-c3c4nc(c(-c5ccccc5)c5ccc([nH]5)c(-c5ccccc5)c5nc(c(-c6ccccc6)c6ccc3[nH]6)C=C5)C=C4)cc2)n1
REMARK SMILES IDX 21 1 20 2 18 3 19 4 13 6 9 7 10 8 11 9 12 10 8 11 7 12 6 13
REMARK SMILES IDX 5 14 1 15 2 16 3 17 75 18 4 19 14 21 15 24 16 25 17 26 22 27
REMARK SMILES IDX 23 28 24 29 25 30 26 32 27 33 28 34 74 35 29 36 73 37 30 38
REMARK SMILES IDX 31 39 32 40 67 41 33 42 72 43 66 44 68 45 34 46 71 47 65 48
REMARK SMILES IDX 64 49 35 51 57 52 42 53 56 54 43 55 46 56 55 57 69 58 44 59
REMARK SMILES IDX 45 60 54 62 70 63 47 64 36 65 37 66 41 67 38 68 40 69 39 70
REMARK SMILES IDX 58 71 59 72 63 73 60 74 62 75 61 76 48 77 49 78 53 79 50 80
REMARK SMILES IDX 52 81 51 82
REMARK H PARENT 20 5 4 20 14 22 14 23 24 31 68 50 46 61
REMARK Flexibility Score: inf
ROOT
ATOM      1  C   UNL A   1      35.511  23.498  23.650  1.00  0.00     0.118 C 
ENDROOT
BRANCH   1   2
ATOM      2  N   UNL A   1      34.190  22.948  23.327  1.00  0.00    -0.351 N 
ATOM      3  C   UNL A   1      32.934  23.507  23.282  1.00  0.00     0.281 C 
ATOM      4  O   UNL A   1      32.037  22.781  22.837  1.00  0.00    -0.268 OA
ATOM      5  H   UNL A   1      34.206  21.991  23.095  1.00  0.00     0.163 HD
BRANCH   3   6
ATOM      6  C   UNL A   1      32.623  24.958  23.805  1.00  0.00     0.178 C 
ATOM      7  C   UNL A   1      32.463  24.969  25.373  1.00  0.00     0.061 C 
ATOM      8  C   UNL A   1      31.013  24.506  25.582  1.00  0.00     0.011 C 
ATOM      9  C   UNL A   1      30.229  25.238  24.529  1.00  0.00     0.008 C 
ATOM     10  C   UNL A   1      31.201  25.449  23.376  1.00  0.00     0.079 C 
BRANCH   7  11
ATOM     11  C   UNL A   1      33.339  24.102  26.293  1.00  0.00     0.022 C 
BRANCH  11  12
ATOM     12  C   UNL A   1      32.721  22.771  26.723  1.00  0.00     0.079 C 
BRANCH  12  13
ATOM     13  S   UNL A   1      33.942  21.432  26.911  1.00  0.00    -0.087 SA
BRANCH  13  14
ATOM     14  C   UNL A   1      33.298  20.165  25.952  1.00  0.00     0.183 A 
ATOM     15  C   UNL A   1      32.381  18.384  23.061  1.00  0.00     0.092 C 
ATOM     16  C   UNL A   1      32.642  18.897  24.420  1.00  0.00     0.148 A 
ATOM     17  N   UNL A   1      32.388  18.176  25.523  1.00  0.00    -0.158 NA
ATOM     18  N   UNL A   1      33.187  20.135  24.648  1.00  0.00    -0.206 NA
ATOM     19  N   UNL A   1      32.865  18.991  26.479  1.00  0.00    -0.254 N 
ATOM     20  H   UNL A   1      32.898  18.765  27.437  1.00  0.00     0.192 HD
ENDBRANCH  13  14
ENDBRANCH  12  13
ENDBRANCH  11  12
ENDBRANCH   7  11
BRANCH   6  21
ATOM     21  N   UNL A   1      33.637  25.924  23.274  1.00  0.00    -0.331 N 
ATOM     22  H   UNL A   1      33.779  25.716  22.285  1.00  0.00     0.347 HD
ATOM     23  H   UNL A   1      34.471  25.794  23.848  1.00  0.00     0.347 HD
BRANCH  21  24
ATOM     24  C   UNL A   1      33.282  27.366  23.394  1.00  0.00     0.176 C 
ATOM     25  C   UNL A   1      33.801  28.066  24.657  1.00  0.00     0.075 C 
ATOM     26  C   UNL A   1      33.873  28.101  22.183  1.00  0.00     0.075 C 
ENDBRANCH  21  24
ENDBRANCH   6  21
ENDBRANCH   3   6
ENDBRANCH   1   2
BRANCH   1  27
ATOM     27  C   UNL A   1      36.535  22.495  24.208  1.00  0.00     0.042 C 
BRANCH  27  28
ATOM     28  C   UNL A   1      37.314  22.978  25.409  1.00  0.00     0.118 C 
BRANCH  28  29
ATOM     29  N   UNL A   1      38.249  21.988  25.934  1.00  0.00    -0.352 N 
ATOM     30  C   UNL A   1      39.487  22.242  26.489  1.00  0.00     0.251 C 
ATOM     31  H   UNL A   1      37.968  21.045  25.888  1.00  0.00     0.163 HD
ATOM     32  O   UNL A   1      40.348  21.365  26.536  1.00  0.00    -0.269 OA
BRANCH  30  33
ATOM     33  C   UNL A   1      39.760  23.587  27.026  1.00  0.00     0.039 A 
ATOM     34  C   UNL A   1      38.833  24.627  26.926  1.00  0.00     0.014 A 
ATOM     35  C   UNL A   1      40.984  23.795  27.659  1.00  0.00     0.014 A 
ATOM     36  C   UNL A   1      39.134  25.852  27.514  1.00  0.00     0.010 A 
ATOM     37  C   UNL A   1      41.192  24.921  28.404  1.00  0.00     0.010 A 
ATOM     38  C   UNL A   1      40.316  25.985  28.261  1.00  0.00    -0.014 A 
BRANCH  38  39
ATOM     39  C   UNL A   1      40.652  27.219  28.949  1.00  0.00     0.031 A 
ATOM     40  C   UNL A   1      41.616  28.088  28.234  1.00  0.00     0.074 A 
ATOM     41  C   UNL A   1      39.994  27.646  30.048  1.00  0.00     0.049 A 
ATOM     42  N   UNL A   1      42.839  28.316  28.568  1.00  0.00    -0.248 NA
ATOM     43  C   UNL A   1      41.230  28.664  26.938  1.00  0.00     0.031 C 
ATOM     44  C   UNL A   1      38.804  27.070  30.690  1.00  0.00     0.029 A 
ATOM     45  N   UNL A   1      40.190  28.784  30.761  1.00  0.00    -0.354 N 
ATOM     46  C   UNL A   1      43.335  29.217  27.634  1.00  0.00     0.074 A 
ATOM     47  C   UNL A   1      42.366  29.260  26.566  1.00  0.00     0.031 C 
ATOM     48  C   UNL A   1      38.253  27.983  31.519  1.00  0.00     0.029 A 
ATOM     49  C   UNL A   1      39.138  29.130  31.599  1.00  0.00     0.049 A 
ATOM     50  H   UNL A   1      41.012  29.322  30.689  1.00  0.00     0.167 HD
ATOM     51  C   UNL A   1      44.391  30.024  27.929  1.00  0.00     0.031 A 
ATOM     52  C   UNL A   1      38.997  30.292  32.282  1.00  0.00     0.031 A 
ATOM     53  C   UNL A   1      45.024  29.630  29.163  1.00  0.00     0.049 A 
ATOM     54  C   UNL A   1      40.337  30.921  32.364  1.00  0.00     0.074 A 
ATOM     55  C   UNL A   1      45.641  28.478  29.613  1.00  0.00     0.029 A 
ATOM     56  N   UNL A   1      44.691  30.350  30.288  1.00  0.00    -0.354 N 
ATOM     57  N   UNL A   1      41.310  30.433  33.077  1.00  0.00    -0.248 NA
ATOM     58  C   UNL A   1      40.742  31.821  31.294  1.00  0.00     0.031 C 
ATOM     59  C   UNL A   1      45.208  28.339  30.964  1.00  0.00     0.029 A 
ATOM     60  C   UNL A   1      44.430  29.452  31.291  1.00  0.00     0.049 A 
ATOM     61  H   UNL A   1      44.648  31.330  30.359  1.00  0.00     0.167 HD
ATOM     62  C   UNL A   1      42.435  30.570  32.276  1.00  0.00     0.074 A 
ATOM     63  C   UNL A   1      42.046  31.532  31.243  1.00  0.00     0.031 C 
ATOM     64  C   UNL A   1      43.466  29.676  32.346  1.00  0.00     0.031 A 
BRANCH  51  65
ATOM     65  C   UNL A   1      44.615  31.392  27.341  1.00  0.00    -0.014 A 
ATOM     66  C   UNL A   1      45.828  31.642  26.673  1.00  0.00     0.009 A 
ATOM     67  C   UNL A   1      43.821  32.510  27.655  1.00  0.00     0.009 A 
ATOM     68  C   UNL A   1      46.261  32.945  26.411  1.00  0.00     0.001 A 
ATOM     69  C   UNL A   1      44.232  33.811  27.357  1.00  0.00     0.001 A 
ATOM     70  C   UNL A   1      45.466  34.031  26.763  1.00  0.00     0.000 A 
ENDBRANCH  51  65
BRANCH  52  71
ATOM     71  C   UNL A   1      37.765  31.001  32.687  1.00  0.00    -0.014 A 
ATOM     72  C   UNL A   1      37.732  31.764  33.865  1.00  0.00     0.009 A 
ATOM     73  C   UNL A   1      36.701  31.152  31.779  1.00  0.00     0.009 A 
ATOM     74  C   UNL A   1      36.698  32.680  34.101  1.00  0.00     0.001 A 
ATOM     75  C   UNL A   1      35.667  32.065  32.017  1.00  0.00     0.001 A 
ATOM     76  C   UNL A   1      35.675  32.841  33.170  1.00  0.00     0.000 A 
ENDBRANCH  52  71
BRANCH  64  77
ATOM     77  C   UNL A   1      43.467  28.675  33.479  1.00  0.00    -0.014 A 
ATOM     78  C   UNL A   1      42.768  27.455  33.439  1.00  0.00     0.009 A 
ATOM     79  C   UNL A   1      44.327  28.908  34.563  1.00  0.00     0.009 A 
ATOM     80  C   UNL A   1      42.895  26.519  34.471  1.00  0.00     0.001 A 
ATOM     81  C   UNL A   1      44.476  27.963  35.580  1.00  0.00     0.001 A 
ATOM     82  C   UNL A   1      43.753  26.773  35.539  1.00  0.00     0.000 A 
ENDBRANCH  64  77
ENDBRANCH  38  39
ENDBRANCH  30  33
ENDBRANCH  28  29
ENDBRANCH  27  28
ENDBRANCH   1  27
TORSDOF 16
ENDMDL
MODEL 3
REMARK VINA RESULT:     -11.2      1.575      3.552
REMARK SMILES Cc1n[nH]c(SCC[C@@H]2CCC[C@]2([NH2+]C(C)C)C(=O)NCCCNC(=O)c2ccc(-c3c4nc(c(-c5ccccc5)c5ccc([nH]5)c(-c5ccccc5)c5nc(c(-c6ccccc6)c6ccc3[nH]6)C=C5)C=C4)cc2)n1
REMARK SMILES IDX 21 1 20 2 18 3 19 4 13 6 9 7 10 8 11 9 12 10 8 11 7 12 6 13
REMARK SMILES IDX 5 14 1 15 2 16 3 17 75 18 4 19 14 21 15 24 16 25 17 26 22 27
REMARK SMILES IDX 23 28 24 29 25 30 26 32 27 33 28 34 74 35 29 36 73 37 30 38
REMARK SMILES IDX 31 39 32 40 67 41 33 42 72 43 66 44 68 45 34 46 71 47 65 48
REMARK SMILES IDX 64 49 35 51 57 52 42 53 56 54 43 55 46 56 55 57 69 58 44 59
REMARK SMILES IDX 45 60 54 62 70 63 47 64 36 65 37 66 41 67 38 68 40 69 39 70
REMARK SMILES IDX 58 71 59 72 63 73 60 74 62 75 61 76 48 77 49 78 53 79 50 80
REMARK SMILES IDX 52 81 51 82
REMARK H PARENT 20 5 4 20 14 22 14 23 24 31 68 50 46 61
REMARK Flexibility Score: inf
ROOT
ATOM      1  C   UNL A   1      32.245  29.777  25.875  1.00  0.00     0.118 C 
ENDROOT
BRANCH   1   2
ATOM      2  N   UNL A   1      33.091  29.583  24.692  1.00  0.00    -0.351 N 
ATOM      3  C   UNL A   1      32.991  28.749  23.601  1.00  0.00     0.281 C 
ATOM      4  O   UNL A   1      33.822  28.935  22.704  1.00  0.00    -0.268 OA
ATOM      5  H   UNL A   1      33.886  30.164  24.674  1.00  0.00     0.163 HD
BRANCH   3   6
ATOM      6  C   UNL A   1      31.929  27.593  23.502  1.00  0.00     0.178 C 
ATOM      7  C   UNL A   1      32.481  26.264  24.144  1.00  0.00     0.061 C 
ATOM      8  C   UNL A   1      33.345  25.664  23.024  1.00  0.00     0.011 C 
ATOM      9  C   UNL A   1      32.533  25.865  21.775  1.00  0.00     0.008 C 
ATOM     10  C   UNL A   1      31.707  27.119  22.027  1.00  0.00     0.079 C 
BRANCH   7  11
ATOM     11  C   UNL A   1      33.348  26.266  25.414  1.00  0.00     0.022 C 
BRANCH  11  12
ATOM     12  C   UNL A   1      33.588  24.895  26.047  1.00  0.00     0.079 C 
BRANCH  12  13
ATOM     13  S   UNL A   1      32.053  24.026  26.499  1.00  0.00    -0.087 SA
BRANCH  13  14
ATOM     14  C   UNL A   1      32.074  22.630  25.504  1.00  0.00     0.183 A 
ATOM     15  C   UNL A   1      32.158  20.703  22.562  1.00  0.00     0.092 C 
ATOM     16  C   UNL A   1      32.109  21.243  23.935  1.00  0.00     0.148 A 
ATOM     17  N   UNL A   1      32.153  20.456  25.020  1.00  0.00    -0.158 NA
ATOM     18  N   UNL A   1      32.043  22.588  24.196  1.00  0.00    -0.206 NA
ATOM     19  N   UNL A   1      32.181  21.372  26.003  1.00  0.00    -0.254 N 
ATOM     20  H   UNL A   1      32.269  21.158  26.960  1.00  0.00     0.192 HD
ENDBRANCH  13  14
ENDBRANCH  12  13
ENDBRANCH  11  12
ENDBRANCH   7  11
BRANCH   6  21
ATOM     21  N   UNL A   1      30.615  28.054  24.054  1.00  0.00    -0.331 N 
ATOM     22  H   UNL A   1      30.803  28.779  24.746  1.00  0.00     0.347 HD
ATOM     23  H   UNL A   1      30.168  27.221  24.438  1.00  0.00     0.347 HD
BRANCH  21  24
ATOM     24  C   UNL A   1      29.655  28.608  23.058  1.00  0.00     0.176 C 
ATOM     25  C   UNL A   1      28.234  28.030  23.126  1.00  0.00     0.075 C 
ATOM     26  C   UNL A   1      29.549  30.121  23.295  1.00  0.00     0.075 C 
ENDBRANCH  21  24
ENDBRANCH   6  21
ENDBRANCH   3   6
ENDBRANCH   1   2
BRANCH   1  27
ATOM     27  C   UNL A   1      32.986  29.866  27.220  1.00  0.00     0.042 C 
BRANCH  27  28
ATOM     28  C   UNL A   1      34.138  30.843  27.251  1.00  0.00     0.118 C 
BRANCH  28  29
ATOM     29  N   UNL A   1      34.028  31.840  28.310  1.00  0.00    -0.352 N 
ATOM     30  C   UNL A   1      34.822  31.935  29.436  1.00  0.00     0.251 C 
ATOM     31  H   UNL A   1      33.316  32.514  28.212  1.00  0.00     0.163 HD
ATOM     32  O   UNL A   1      34.428  32.528  30.438  1.00  0.00    -0.269 OA
BRANCH  30  33
ATOM     33  C   UNL A   1      36.156  31.308  29.415  1.00  0.00     0.039 A 
ATOM     34  C   UNL A   1      37.330  32.064  29.452  1.00  0.00     0.014 A 
ATOM     35  C   UNL A   1      36.217  29.916  29.370  1.00  0.00     0.014 A 
ATOM     36  C   UNL A   1      38.553  31.400  29.496  1.00  0.00     0.010 A 
ATOM     37  C   UNL A   1      37.395  29.270  29.617  1.00  0.00     0.010 A 
ATOM     38  C   UNL A   1      38.572  29.999  29.587  1.00  0.00    -0.014 A 
BRANCH  38  39
ATOM     39  C   UNL A   1      39.816  29.256  29.700  1.00  0.00     0.031 A 
ATOM     40  C   UNL A   1      40.239  28.957  31.088  1.00  0.00     0.074 A 
ATOM     41  C   UNL A   1      40.436  28.703  28.636  1.00  0.00     0.049 A 
ATOM     42  N   UNL A   1      41.235  29.479  31.717  1.00  0.00    -0.248 NA
ATOM     43  C   UNL A   1      39.394  28.086  31.918  1.00  0.00     0.031 C 
ATOM     44  C   UNL A   1      39.979  28.627  27.241  1.00  0.00     0.029 A 
ATOM     45  N   UNL A   1      41.577  27.968  28.611  1.00  0.00    -0.354 N 
ATOM     46  C   UNL A   1      41.268  28.868  32.965  1.00  0.00     0.074 A 
ATOM     47  C   UNL A   1      40.021  28.156  33.095  1.00  0.00     0.031 C 
ATOM     48  C   UNL A   1      40.696  27.690  26.583  1.00  0.00     0.029 A 
ATOM     49  C   UNL A   1      41.765  27.232  27.450  1.00  0.00     0.049 A 
ATOM     50  H   UNL A   1      42.220  27.958  29.357  1.00  0.00     0.167 HD
ATOM     51  C   UNL A   1      42.420  28.815  33.689  1.00  0.00     0.031 A 
ATOM     52  C   UNL A   1      42.716  26.290  27.234  1.00  0.00     0.031 A 
ATOM     53  C   UNL A   1      43.439  29.660  33.117  1.00  0.00     0.049 A 
ATOM     54  C   UNL A   1      43.787  26.507  28.237  1.00  0.00     0.074 A 
ATOM     55  C   UNL A   1      43.543  31.012  32.853  1.00  0.00     0.029 A 
ATOM     56  N   UNL A   1      44.389  29.044  32.335  1.00  0.00    -0.354 N 
ATOM     57  N   UNL A   1      44.578  27.541  28.222  1.00  0.00    -0.248 NA
ATOM     58  C   UNL A   1      43.676  25.829  29.520  1.00  0.00     0.031 C 
ATOM     59  C   UNL A   1      44.194  31.086  31.588  1.00  0.00     0.029 A 
ATOM     60  C   UNL A   1      44.531  29.788  31.193  1.00  0.00     0.049 A 
ATOM     61  H   UNL A   1      44.878  28.218  32.556  1.00  0.00     0.167 HD
ATOM     62  C   UNL A   1      44.682  27.922  29.552  1.00  0.00     0.074 A 
ATOM     63  C   UNL A   1      44.202  26.768  30.313  1.00  0.00     0.031 C 
ATOM     64  C   UNL A   1      44.861  29.232  29.900  1.00  0.00     0.031 A 
BRANCH  51  65
ATOM     65  C   UNL A   1      42.772  27.719  34.660  1.00  0.00    -0.014 A 
ATOM     66  C   UNL A   1      43.033  26.433  34.150  1.00  0.00     0.009 A 
ATOM     67  C   UNL A   1      42.583  27.825  36.049  1.00  0.00     0.009 A 
ATOM     68  C   UNL A   1      43.020  25.305  34.976  1.00  0.00     0.001 A 
ATOM     69  C   UNL A   1      42.612  26.704  36.883  1.00  0.00     0.001 A 
ATOM     70  C   UNL A   1      42.800  25.440  36.342  1.00  0.00     0.000 A 
ENDBRANCH  51  65
BRANCH  52  71
ATOM     71  C   UNL A   1      42.676  25.093  26.369  1.00  0.00    -0.014 A 
ATOM     72  C   UNL A   1      43.609  24.925  25.333  1.00  0.00     0.009 A 
ATOM     73  C   UNL A   1      41.890  23.983  26.729  1.00  0.00     0.009 A 
ATOM     74  C   UNL A   1      43.784  23.679  24.716  1.00  0.00     0.001 A 
ATOM     75  C   UNL A   1      42.063  22.740  26.109  1.00  0.00     0.001 A 
ATOM     76  C   UNL A   1      43.022  22.584  25.115  1.00  0.00     0.000 A 
ENDBRANCH  52  71
BRANCH  64  77
ATOM     77  C   UNL A   1      45.185  30.223  28.805  1.00  0.00    -0.014 A 
ATOM     78  C   UNL A   1      46.497  30.569  28.434  1.00  0.00     0.009 A 
ATOM     79  C   UNL A   1      44.127  30.708  28.022  1.00  0.00     0.009 A 
ATOM     80  C   UNL A   1      46.736  31.408  27.339  1.00  0.00     0.001 A 
ATOM     81  C   UNL A   1      44.366  31.523  26.913  1.00  0.00     0.001 A 
ATOM     82  C   UNL A   1      45.670  31.881  26.578  1.00  0.00     0.000 A 
ENDBRANCH  64  77
ENDBRANCH  38  39
ENDBRANCH  30  33
ENDBRANCH  28  29
ENDBRANCH  27  28
ENDBRANCH   1  27
TORSDOF 16
ENDMDL
