MODEL 1
REMARK VINA RESULT:     -10.5      0.000      0.000
REMARK SMILES O=C(NCCCNC(=O)c1ccc(-c2c3nc(c(-c4ccccc4)c4ccc([nH]4)c(-c4ccccc4)c4nc(c(-c5ccccc5)c5ccc2[nH]5)C=C4)C=C3)cc1)C1=Cc2ccc(Cl)c(Cl)c2O[C@@H]1C(F)(F)F
REMARK SMILES IDX 5 1 4 2 3 3 1 4 2 5 58 7 59 8 69 9 60 10 68 11 61 12 67 13
REMARK SMILES IDX 62 14 65 15 63 16 66 17 64 18 70 19 71 20 72 21 73 22 6 23
REMARK SMILES IDX 7 24 8 25 9 27 10 28 11 29 57 30 12 31 56 32 13 33 14 34
REMARK SMILES IDX 15 35 50 36 16 37 55 38 49 39 51 40 17 41 54 42 48 43 47 44
REMARK SMILES IDX 18 46 40 47 25 48 39 49 26 50 29 51 38 52 52 53 27 54 28 55
REMARK SMILES IDX 37 57 53 58 30 59 19 60 20 61 24 62 21 63 23 64 22 65 41 66
REMARK SMILES IDX 42 67 46 68 43 69 45 70 44 71 31 72 32 73 36 74 33 75 35 76
REMARK SMILES IDX 34 77
REMARK H PARENT 3 6 7 26 51 45 29 56
REMARK Flexibility Score: inf
ROOT
ATOM      1  C   UNL A   1      34.679  33.106  29.832  1.00  0.00     0.042 C 
ENDROOT
BRANCH   1   2
ATOM      2  C   UNL A   1      35.645  34.175  30.328  1.00  0.00     0.118 C 
BRANCH   2   3
ATOM      3  N   UNL A   1      35.112  34.959  31.442  1.00  0.00    -0.352 N 
ATOM      4  O   UNL A   1      35.107  35.934  33.489  1.00  0.00    -0.270 OA
ATOM      5  C   UNL A   1      35.554  35.079  32.739  1.00  0.00     0.251 C 
ATOM      6  H   UNL A   1      34.309  35.486  31.230  1.00  0.00     0.163 HD
BRANCH   5   7
ATOM      7  C   UNL A   1      36.634  34.172  33.163  1.00  0.00     0.067 C 
ATOM      8  C   UNL A   1      37.865  34.687  33.258  1.00  0.00     0.025 C 
ATOM      9  C   UNL A   1      36.234  32.897  33.830  1.00  0.00     0.314 C 
ATOM     10  C   UNL A   1      38.514  34.384  34.540  1.00  0.00     0.019 A 
ATOM     11  O   UNL A   1      36.767  32.792  35.172  1.00  0.00    -0.474 OA
ATOM     12  C   UNL A   1      39.537  35.245  34.947  1.00  0.00     0.013 A 
ATOM     13  C   UNL A   1      37.853  33.578  35.493  1.00  0.00     0.148 A 
ATOM     14  C   UNL A   1      39.821  35.393  36.304  1.00  0.00     0.023 A 
ATOM     15  C   UNL A   1      38.155  33.717  36.860  1.00  0.00     0.102 A 
ATOM     16  C   UNL A   1      39.117  34.653  37.259  1.00  0.00     0.063 A 
ATOM     17  Cl  UNL A   1      37.204  32.857  38.031  1.00  0.00    -0.079 Cl
ATOM     18  Cl  UNL A   1      39.420  35.025  38.920  1.00  0.00    -0.083 Cl
BRANCH   9  19
ATOM     19  C   UNL A   1      36.639  31.680  32.983  1.00  0.00     0.429 C 
ATOM     20  F   UNL A   1      35.549  31.013  32.535  1.00  0.00    -0.167 F 
ATOM     21  F   UNL A   1      37.354  32.041  31.893  1.00  0.00    -0.167 F 
ATOM     22  F   UNL A   1      37.389  30.797  33.685  1.00  0.00    -0.167 F 
ENDBRANCH   9  19
ENDBRANCH   5   7
ENDBRANCH   2   3
ENDBRANCH   1   2
BRANCH   1  23
ATOM     23  C   UNL A   1      34.626  33.032  28.312  1.00  0.00     0.118 C 
BRANCH  23  24
ATOM     24  N   UNL A   1      33.923  31.864  27.793  1.00  0.00    -0.352 N 
ATOM     25  C   UNL A   1      34.341  30.557  27.681  1.00  0.00     0.251 C 
ATOM     26  H   UNL A   1      33.008  32.037  27.473  1.00  0.00     0.163 HD
ATOM     27  O   UNL A   1      33.598  29.723  27.167  1.00  0.00    -0.269 OA
BRANCH  25  28
ATOM     28  C   UNL A   1      35.692  30.152  28.134  1.00  0.00     0.039 A 
ATOM     29  C   UNL A   1      35.856  29.655  29.431  1.00  0.00     0.014 A 
ATOM     30  C   UNL A   1      36.796  30.247  27.289  1.00  0.00     0.014 A 
ATOM     31  C   UNL A   1      37.109  29.197  29.848  1.00  0.00     0.010 A 
ATOM     32  C   UNL A   1      38.002  29.665  27.652  1.00  0.00     0.010 A 
ATOM     33  C   UNL A   1      38.186  29.166  28.949  1.00  0.00    -0.014 A 
BRANCH  33  34
ATOM     34  C   UNL A   1      39.534  28.690  29.350  1.00  0.00     0.031 A 
ATOM     35  C   UNL A   1      40.392  29.555  30.240  1.00  0.00     0.074 A 
ATOM     36  C   UNL A   1      40.015  27.530  28.864  1.00  0.00     0.049 A 
ATOM     37  N   UNL A   1      41.626  29.368  30.636  1.00  0.00    -0.248 NA
ATOM     38  C   UNL A   1      39.804  30.823  30.704  1.00  0.00     0.031 C 
ATOM     39  C   UNL A   1      39.314  26.634  27.941  1.00  0.00     0.029 A 
ATOM     40  N   UNL A   1      41.216  26.905  29.083  1.00  0.00    -0.354 N 
ATOM     41  C   UNL A   1      41.967  30.512  31.349  1.00  0.00     0.074 A 
ATOM     42  C   UNL A   1      40.843  31.415  31.270  1.00  0.00     0.031 C 
ATOM     43  C   UNL A   1      40.078  25.554  27.711  1.00  0.00     0.029 A 
ATOM     44  C   UNL A   1      41.334  25.696  28.440  1.00  0.00     0.049 A 
ATOM     45  H   UNL A   1      41.928  27.286  29.647  1.00  0.00     0.167 HD
ATOM     46  C   UNL A   1      43.099  30.777  32.043  1.00  0.00     0.031 A 
ATOM     47  C   UNL A   1      42.337  24.799  28.449  1.00  0.00     0.031 A 
ATOM     48  C   UNL A   1      44.192  29.854  32.170  1.00  0.00     0.049 A 
ATOM     49  C   UNL A   1      43.557  25.083  29.282  1.00  0.00     0.074 A 
ATOM     50  C   UNL A   1      45.352  29.983  32.911  1.00  0.00     0.029 A 
ATOM     51  N   UNL A   1      44.246  28.615  31.548  1.00  0.00    -0.354 N 
ATOM     52  N   UNL A   1      43.837  26.139  30.007  1.00  0.00    -0.248 NA
ATOM     53  C   UNL A   1      44.587  24.036  29.316  1.00  0.00     0.031 C 
ATOM     54  C   UNL A   1      46.126  28.835  32.709  1.00  0.00     0.029 A 
ATOM     55  C   UNL A   1      45.423  27.971  31.883  1.00  0.00     0.049 A 
ATOM     56  H   UNL A   1      43.549  28.251  30.956  1.00  0.00     0.167 HD
ATOM     57  C   UNL A   1      45.061  25.873  30.606  1.00  0.00     0.074 A 
ATOM     58  C   UNL A   1      45.457  24.547  30.175  1.00  0.00     0.031 C 
ATOM     59  C   UNL A   1      45.793  26.653  31.440  1.00  0.00     0.031 A 
BRANCH  46  60
ATOM     60  C   UNL A   1      43.193  32.118  32.721  1.00  0.00    -0.014 A 
ATOM     61  C   UNL A   1      42.743  32.304  34.040  1.00  0.00     0.009 A 
ATOM     62  C   UNL A   1      43.734  33.214  32.032  1.00  0.00     0.009 A 
ATOM     63  C   UNL A   1      42.782  33.568  34.632  1.00  0.00     0.001 A 
ATOM     64  C   UNL A   1      43.805  34.469  32.639  1.00  0.00     0.001 A 
ATOM     65  C   UNL A   1      43.315  34.649  33.932  1.00  0.00     0.000 A 
ENDBRANCH  46  60
BRANCH  47  66
ATOM     66  C   UNL A   1      42.206  23.526  27.695  1.00  0.00    -0.014 A 
ATOM     67  C   UNL A   1      42.701  23.424  26.384  1.00  0.00     0.009 A 
ATOM     68  C   UNL A   1      41.592  22.406  28.276  1.00  0.00     0.009 A 
ATOM     69  C   UNL A   1      42.557  22.237  25.662  1.00  0.00     0.001 A 
ATOM     70  C   UNL A   1      41.475  21.212  27.560  1.00  0.00     0.001 A 
ATOM     71  C   UNL A   1      41.949  21.131  26.252  1.00  0.00     0.000 A 
ENDBRANCH  47  66
BRANCH  59  72
ATOM     72  C   UNL A   1      47.073  26.069  31.966  1.00  0.00    -0.014 A 
ATOM     73  C   UNL A   1      47.114  25.379  33.187  1.00  0.00     0.009 A 
ATOM     74  C   UNL A   1      48.251  26.196  31.214  1.00  0.00     0.009 A 
ATOM     75  C   UNL A   1      48.321  24.868  33.666  1.00  0.00     0.001 A 
ATOM     76  C   UNL A   1      49.449  25.656  31.680  1.00  0.00     0.001 A 
ATOM     77  C   UNL A   1      49.486  25.004  32.910  1.00  0.00     0.000 A 
ENDBRANCH  59  72
ENDBRANCH  33  34
ENDBRANCH  25  28
ENDBRANCH  23  24
ENDBRANCH   1  23
TORSDOF 11
ENDMDL
MODEL 2
REMARK VINA RESULT:     -10.5      5.334     10.852
REMARK SMILES O=C(NCCCNC(=O)c1ccc(-c2c3nc(c(-c4ccccc4)c4ccc([nH]4)c(-c4ccccc4)c4nc(c(-c5ccccc5)c5ccc2[nH]5)C=C4)C=C3)cc1)C1=Cc2ccc(Cl)c(Cl)c2O[C@@H]1C(F)(F)F
REMARK SMILES IDX 5 1 4 2 3 3 1 4 2 5 58 7 59 8 69 9 60 10 68 11 61 12 67 13
REMARK SMILES IDX 62 14 65 15 63 16 66 17 64 18 70 19 71 20 72 21 73 22 6 23
REMARK SMILES IDX 7 24 8 25 9 27 10 28 11 29 57 30 12 31 56 32 13 33 14 34
REMARK SMILES IDX 15 35 50 36 16 37 55 38 49 39 51 40 17 41 54 42 48 43 47 44
REMARK SMILES IDX 18 46 40 47 25 48 39 49 26 50 29 51 38 52 52 53 27 54 28 55
REMARK SMILES IDX 37 57 53 58 30 59 19 60 20 61 24 62 21 63 23 64 22 65 41 66
REMARK SMILES IDX 42 67 46 68 43 69 45 70 44 71 31 72 32 73 36 74 33 75 35 76
REMARK SMILES IDX 34 77
REMARK H PARENT 3 6 7 26 51 45 29 56
REMARK Flexibility Score: inf
ROOT
ATOM      1  C   UNL A   1      41.674  20.383  26.214  1.00  0.00     0.042 C 
ENDROOT
BRANCH   1   2
ATOM      2  C   UNL A   1      43.071  20.978  26.092  1.00  0.00     0.118 C 
BRANCH   2   3
ATOM      3  N   UNL A   1      43.494  21.703  27.290  1.00  0.00    -0.352 N 
ATOM      4  O   UNL A   1      44.183  23.483  28.514  1.00  0.00    -0.270 OA
ATOM      5  C   UNL A   1      44.077  22.941  27.423  1.00  0.00     0.251 C 
ATOM      6  H   UNL A   1      43.334  21.230  28.138  1.00  0.00     0.163 HD
BRANCH   5   7
ATOM      7  C   UNL A   1      44.509  23.612  26.186  1.00  0.00     0.067 C 
ATOM      8  C   UNL A   1      43.719  24.578  25.703  1.00  0.00     0.025 C 
ATOM      9  C   UNL A   1      45.943  23.463  25.792  1.00  0.00     0.314 C 
ATOM     10  C   UNL A   1      44.450  25.815  25.402  1.00  0.00     0.019 A 
ATOM     11  O   UNL A   1      46.623  24.738  25.719  1.00  0.00    -0.474 OA
ATOM     12  C   UNL A   1      43.705  26.997  25.379  1.00  0.00     0.013 A 
ATOM     13  C   UNL A   1      45.850  25.871  25.580  1.00  0.00     0.148 A 
ATOM     14  C   UNL A   1      44.327  28.216  25.652  1.00  0.00     0.023 A 
ATOM     15  C   UNL A   1      46.477  27.104  25.836  1.00  0.00     0.102 A 
ATOM     16  C   UNL A   1      45.701  28.267  25.906  1.00  0.00     0.063 A 
ATOM     17  Cl  UNL A   1      48.166  27.129  26.240  1.00  0.00    -0.079 Cl
ATOM     18  Cl  UNL A   1      46.352  29.792  26.397  1.00  0.00    -0.083 Cl
BRANCH   9  19
ATOM     19  C   UNL A   1      46.075  22.694  24.467  1.00  0.00     0.429 C 
ATOM     20  F   UNL A   1      46.968  23.291  23.643  1.00  0.00    -0.167 F 
ATOM     21  F   UNL A   1      46.505  21.426  24.661  1.00  0.00    -0.167 F 
ATOM     22  F   UNL A   1      44.898  22.624  23.800  1.00  0.00    -0.167 F 
ENDBRANCH   9  19
ENDBRANCH   5   7
ENDBRANCH   2   3
ENDBRANCH   1   2
BRANCH   1  23
ATOM     23  C   UNL A   1      40.713  21.304  26.953  1.00  0.00     0.118 C 
BRANCH  23  24
ATOM     24  N   UNL A   1      39.478  21.587  26.232  1.00  0.00    -0.352 N 
ATOM     25  C   UNL A   1      38.783  22.768  26.096  1.00  0.00     0.251 C 
ATOM     26  H   UNL A   1      39.079  20.814  25.770  1.00  0.00     0.163 HD
ATOM     27  O   UNL A   1      37.725  22.782  25.471  1.00  0.00    -0.269 OA
BRANCH  25  28
ATOM     28  C   UNL A   1      39.275  24.014  26.728  1.00  0.00     0.039 A 
ATOM     29  C   UNL A   1      40.002  24.929  25.958  1.00  0.00     0.014 A 
ATOM     30  C   UNL A   1      39.018  24.293  28.069  1.00  0.00     0.014 A 
ATOM     31  C   UNL A   1      40.408  26.143  26.520  1.00  0.00     0.010 A 
ATOM     32  C   UNL A   1      39.296  25.552  28.582  1.00  0.00     0.010 A 
ATOM     33  C   UNL A   1      40.027  26.480  27.828  1.00  0.00    -0.014 A 
BRANCH  33  34
ATOM     34  C   UNL A   1      40.437  27.758  28.463  1.00  0.00     0.031 A 
ATOM     35  C   UNL A   1      41.857  27.927  28.942  1.00  0.00     0.074 A 
ATOM     36  C   UNL A   1      39.530  28.730  28.677  1.00  0.00     0.049 A 
ATOM     37  N   UNL A   1      42.399  28.923  29.597  1.00  0.00    -0.248 NA
ATOM     38  C   UNL A   1      42.780  26.804  28.698  1.00  0.00     0.031 C 
ATOM     39  C   UNL A   1      38.109  28.665  28.324  1.00  0.00     0.029 A 
ATOM     40  N   UNL A   1      39.673  29.969  29.246  1.00  0.00    -0.354 N 
ATOM     41  C   UNL A   1      43.700  28.522  29.879  1.00  0.00     0.074 A 
ATOM     42  C   UNL A   1      43.845  27.171  29.392  1.00  0.00     0.031 C 
ATOM     43  C   UNL A   1      37.523  29.832  28.642  1.00  0.00     0.029 A 
ATOM     44  C   UNL A   1      38.516  30.711  29.251  1.00  0.00     0.049 A 
ATOM     45  H   UNL A   1      40.525  30.298  29.617  1.00  0.00     0.167 HD
ATOM     46  C   UNL A   1      44.701  29.226  30.457  1.00  0.00     0.031 A 
ATOM     47  C   UNL A   1      38.287  31.963  29.687  1.00  0.00     0.031 A 
ATOM     48  C   UNL A   1      44.572  30.591  30.887  1.00  0.00     0.049 A 
ATOM     49  C   UNL A   1      39.430  32.753  30.263  1.00  0.00     0.074 A 
ATOM     50  C   UNL A   1      45.540  31.428  31.412  1.00  0.00     0.029 A 
ATOM     51  N   UNL A   1      43.397  31.323  30.822  1.00  0.00    -0.354 N 
ATOM     52  N   UNL A   1      40.673  32.385  30.461  1.00  0.00    -0.248 NA
ATOM     53  C   UNL A   1      39.141  34.139  30.652  1.00  0.00     0.031 C 
ATOM     54  C   UNL A   1      44.940  32.659  31.698  1.00  0.00     0.029 A 
ATOM     55  C   UNL A   1      43.612  32.602  31.303  1.00  0.00     0.049 A 
ATOM     56  H   UNL A   1      42.538  30.983  30.483  1.00  0.00     0.167 HD
ATOM     57  C   UNL A   1      41.322  33.502  30.969  1.00  0.00     0.074 A 
ATOM     58  C   UNL A   1      40.339  34.565  31.029  1.00  0.00     0.031 C 
ATOM     59  C   UNL A   1      42.615  33.640  31.352  1.00  0.00     0.031 A 
BRANCH  46  60
ATOM     60  C   UNL A   1      46.020  28.524  30.641  1.00  0.00    -0.014 A 
ATOM     61  C   UNL A   1      47.018  28.570  29.651  1.00  0.00     0.009 A 
ATOM     62  C   UNL A   1      46.270  27.802  31.818  1.00  0.00     0.009 A 
ATOM     63  C   UNL A   1      48.211  27.863  29.812  1.00  0.00     0.001 A 
ATOM     64  C   UNL A   1      47.479  27.125  31.991  1.00  0.00     0.001 A 
ATOM     65  C   UNL A   1      48.442  27.143  30.983  1.00  0.00     0.000 A 
ENDBRANCH  46  60
BRANCH  47  66
ATOM     66  C   UNL A   1      36.938  32.569  29.540  1.00  0.00    -0.014 A 
ATOM     67  C   UNL A   1      36.007  32.489  30.589  1.00  0.00     0.009 A 
ATOM     68  C   UNL A   1      36.572  33.230  28.359  1.00  0.00     0.009 A 
ATOM     69  C   UNL A   1      34.729  33.035  30.447  1.00  0.00     0.001 A 
ATOM     70  C   UNL A   1      35.301  33.799  28.230  1.00  0.00     0.001 A 
ATOM     71  C   UNL A   1      34.379  33.693  29.270  1.00  0.00     0.000 A 
ENDBRANCH  47  66
BRANCH  59  72
ATOM     72  C   UNL A   1      43.041  34.999  31.830  1.00  0.00    -0.014 A 
ATOM     73  C   UNL A   1      42.905  35.376  33.174  1.00  0.00     0.009 A 
ATOM     74  C   UNL A   1      43.608  35.905  30.921  1.00  0.00     0.009 A 
ATOM     75  C   UNL A   1      43.285  36.653  33.589  1.00  0.00     0.001 A 
ATOM     76  C   UNL A   1      44.017  37.169  31.344  1.00  0.00     0.001 A 
ATOM     77  C   UNL A   1      43.844  37.546  32.674  1.00  0.00     0.000 A 
ENDBRANCH  59  72
ENDBRANCH  33  34
ENDBRANCH  25  28
ENDBRANCH  23  24
ENDBRANCH   1  23
TORSDOF 11
ENDMDL
MODEL 3
REMARK VINA RESULT:     -10.5      5.657     10.839
REMARK SMILES O=C(NCCCNC(=O)c1ccc(-c2c3nc(c(-c4ccccc4)c4ccc([nH]4)c(-c4ccccc4)c4nc(c(-c5ccccc5)c5ccc2[nH]5)C=C4)C=C3)cc1)C1=Cc2ccc(Cl)c(Cl)c2O[C@@H]1C(F)(F)F
REMARK SMILES IDX 5 1 4 2 3 3 1 4 2 5 58 7 59 8 69 9 60 10 68 11 61 12 67 13
REMARK SMILES IDX 62 14 65 15 63 16 66 17 64 18 70 19 71 20 72 21 73 22 6 23
REMARK SMILES IDX 7 24 8 25 9 27 10 28 11 29 57 30 12 31 56 32 13 33 14 34
REMARK SMILES IDX 15 35 50 36 16 37 55 38 49 39 51 40 17 41 54 42 48 43 47 44
REMARK SMILES IDX 18 46 40 47 25 48 39 49 26 50 29 51 38 52 52 53 27 54 28 55
REMARK SMILES IDX 37 57 53 58 30 59 19 60 20 61 24 62 21 63 23 64 22 65 41 66
REMARK SMILES IDX 42 67 46 68 43 69 45 70 44 71 31 72 32 73 36 74 33 75 35 76
REMARK SMILES IDX 34 77
REMARK H PARENT 3 6 7 26 51 45 29 56
REMARK Flexibility Score: inf
ROOT
ATOM      1  C   UNL A   1      38.324  19.910  25.004  1.00  0.00     0.042 C 
ENDROOT
BRANCH   1   2
ATOM      2  C   UNL A   1      37.297  21.018  25.207  1.00  0.00     0.118 C 
BRANCH   2   3
ATOM      3  N   UNL A   1      37.026  21.780  23.988  1.00  0.00    -0.352 N 
ATOM      4  O   UNL A   1      36.019  23.341  22.687  1.00  0.00    -0.270 OA
ATOM      5  C   UNL A   1      35.988  22.628  23.680  1.00  0.00     0.251 C 
ATOM      6  H   UNL A   1      37.693  21.669  23.274  1.00  0.00     0.163 HD
BRANCH   5   7
ATOM      7  C   UNL A   1      34.867  22.686  24.634  1.00  0.00     0.067 C 
ATOM      8  C   UNL A   1      34.851  23.706  25.500  1.00  0.00     0.025 C 
ATOM      9  C   UNL A   1      33.656  21.871  24.316  1.00  0.00     0.314 C 
ATOM     10  C   UNL A   1      33.560  24.405  25.534  1.00  0.00     0.019 A 
ATOM     11  O   UNL A   1      32.471  22.689  24.173  1.00  0.00    -0.474 OA
ATOM     12  C   UNL A   1      33.572  25.726  25.990  1.00  0.00     0.013 A 
ATOM     13  C   UNL A   1      32.486  23.945  24.742  1.00  0.00     0.148 A 
ATOM     14  C   UNL A   1      32.587  26.616  25.563  1.00  0.00     0.023 A 
ATOM     15  C   UNL A   1      31.484  24.842  24.328  1.00  0.00     0.102 A 
ATOM     16  C   UNL A   1      31.562  26.185  24.715  1.00  0.00     0.063 A 
ATOM     17  Cl  UNL A   1      30.276  24.304  23.202  1.00  0.00    -0.079 Cl
ATOM     18  Cl  UNL A   1      30.485  27.393  24.106  1.00  0.00    -0.083 Cl
BRANCH   9  19
ATOM     19  C   UNL A   1      33.440  20.770  25.367  1.00  0.00     0.429 C 
ATOM     20  F   UNL A   1      33.735  21.218  26.611  1.00  0.00    -0.167 F 
ATOM     21  F   UNL A   1      32.155  20.347  25.396  1.00  0.00    -0.167 F 
ATOM     22  F   UNL A   1      34.218  19.685  25.136  1.00  0.00    -0.167 F 
ENDBRANCH   9  19
ENDBRANCH   5   7
ENDBRANCH   2   3
ENDBRANCH   1   2
BRANCH   1  23
ATOM     23  C   UNL A   1      39.339  19.845  26.136  1.00  0.00     0.118 C 
BRANCH  23  24
ATOM     24  N   UNL A   1      40.581  19.164  25.790  1.00  0.00    -0.352 N 
ATOM     25  C   UNL A   1      41.886  19.588  25.910  1.00  0.00     0.251 C 
ATOM     26  H   UNL A   1      40.471  18.260  25.414  1.00  0.00     0.163 HD
ATOM     27  O   UNL A   1      42.799  18.866  25.514  1.00  0.00    -0.269 OA
BRANCH  25  28
ATOM     28  C   UNL A   1      42.201  20.922  26.472  1.00  0.00     0.039 A 
ATOM     29  C   UNL A   1      42.503  21.975  25.602  1.00  0.00     0.014 A 
ATOM     30  C   UNL A   1      42.190  21.146  27.847  1.00  0.00     0.014 A 
ATOM     31  C   UNL A   1      42.728  23.256  26.113  1.00  0.00     0.010 A 
ATOM     32  C   UNL A   1      42.273  22.440  28.341  1.00  0.00     0.010 A 
ATOM     33  C   UNL A   1      42.580  23.507  27.486  1.00  0.00    -0.014 A 
BRANCH  33  34
ATOM     34  C   UNL A   1      42.810  24.852  28.070  1.00  0.00     0.031 A 
ATOM     35  C   UNL A   1      44.196  25.237  28.526  1.00  0.00     0.074 A 
ATOM     36  C   UNL A   1      41.776  25.695  28.261  1.00  0.00     0.049 A 
ATOM     37  N   UNL A   1      44.596  26.322  29.139  1.00  0.00    -0.248 NA
ATOM     38  C   UNL A   1      45.266  24.247  28.311  1.00  0.00     0.031 C 
ATOM     39  C   UNL A   1      40.377  25.418  27.927  1.00  0.00     0.029 A 
ATOM     40  N   UNL A   1      41.748  26.962  28.784  1.00  0.00    -0.354 N 
ATOM     41  C   UNL A   1      45.942  26.119  29.419  1.00  0.00     0.074 A 
ATOM     42  C   UNL A   1      46.273  24.785  28.979  1.00  0.00     0.031 C 
ATOM     43  C   UNL A   1      39.635  26.501  28.211  1.00  0.00     0.029 A 
ATOM     44  C   UNL A   1      40.498  27.533  28.777  1.00  0.00     0.049 A 
ATOM     45  H   UNL A   1      42.547  27.420  29.133  1.00  0.00     0.167 HD
ATOM     46  C   UNL A   1      46.839  26.978  29.959  1.00  0.00     0.031 A 
ATOM     47  C   UNL A   1      40.097  28.756  29.170  1.00  0.00     0.031 A 
ATOM     48  C   UNL A   1      46.521  28.325  30.342  1.00  0.00     0.049 A 
ATOM     49  C   UNL A   1      41.122  29.719  29.704  1.00  0.00     0.074 A 
ATOM     50  C   UNL A   1      47.365  29.309  30.826  1.00  0.00     0.029 A 
ATOM     51  N   UNL A   1      45.254  28.883  30.266  1.00  0.00    -0.354 N 
ATOM     52  N   UNL A   1      42.405  29.537  29.900  1.00  0.00    -0.248 NA
ATOM     53  C   UNL A   1      40.643  31.064  30.047  1.00  0.00     0.031 C 
ATOM     54  C   UNL A   1      46.599  30.453  31.076  1.00  0.00     0.029 A 
ATOM     55  C   UNL A   1      45.290  30.196  30.699  1.00  0.00     0.049 A 
ATOM     56  H   UNL A   1      44.449  28.413  29.950  1.00  0.00     0.167 HD
ATOM     57  C   UNL A   1      42.894  30.752  30.361  1.00  0.00     0.074 A 
ATOM     58  C   UNL A   1      41.771  31.667  30.395  1.00  0.00     0.031 C 
ATOM     59  C   UNL A   1      44.158  31.084  30.723  1.00  0.00     0.031 A 
BRANCH  46  60
ATOM     60  C   UNL A   1      48.245  26.475  30.152  1.00  0.00    -0.014 A 
ATOM     61  C   UNL A   1      49.222  26.637  29.155  1.00  0.00     0.009 A 
ATOM     62  C   UNL A   1      48.598  25.827  31.345  1.00  0.00     0.009 A 
ATOM     63  C   UNL A   1      50.504  26.111  29.326  1.00  0.00     0.001 A 
ATOM     64  C   UNL A   1      49.891  25.333  31.528  1.00  0.00     0.001 A 
ATOM     65  C   UNL A   1      50.839  25.462  30.513  1.00  0.00     0.000 A 
ENDBRANCH  46  60
BRANCH  47  66
ATOM     66  C   UNL A   1      38.675  29.160  29.019  1.00  0.00    -0.014 A 
ATOM     67  C   UNL A   1      37.782  29.026  30.094  1.00  0.00     0.009 A 
ATOM     68  C   UNL A   1      38.202  29.682  27.806  1.00  0.00     0.009 A 
ATOM     69  C   UNL A   1      36.438  29.381  29.949  1.00  0.00     0.001 A 
ATOM     70  C   UNL A   1      36.863  30.061  27.672  1.00  0.00     0.001 A 
ATOM     71  C   UNL A   1      35.982  29.902  28.740  1.00  0.00     0.000 A 
ENDBRANCH  47  66
BRANCH  59  72
ATOM     72  C   UNL A   1      44.391  32.507  31.147  1.00  0.00    -0.014 A 
ATOM     73  C   UNL A   1      44.723  33.502  30.216  1.00  0.00     0.009 A 
ATOM     74  C   UNL A   1      44.254  32.856  32.500  1.00  0.00     0.009 A 
ATOM     75  C   UNL A   1      44.958  34.810  30.638  1.00  0.00     0.001 A 
ATOM     76  C   UNL A   1      44.459  34.171  32.914  1.00  0.00     0.001 A 
ATOM     77  C   UNL A   1      44.823  35.144  31.986  1.00  0.00     0.000 A 
ENDBRANCH  59  72
ENDBRANCH  33  34
ENDBRANCH  25  28
ENDBRANCH  23  24
ENDBRANCH   1  23
TORSDOF 11
ENDMDL
