MODEL 1
REMARK VINA RESULT:     -13.0      0.000      0.000
REMARK SMILES Cc1ccc(C(=O)N2C[C@@H](C(=O)NCCCNC(=O)c3ccc(-c4c5nc(c(-c6ccccc6)c6ccc([nH]6)c(-c6ccccc6)c6nc(c(-c7ccccc7)c7ccc4[nH]7)C=C6)C=C5)cc3)C[C@H](C(=O)N3CCOCC3)C2)cc1F
REMARK SMILES IDX 15 1 14 2 13 3 11 4 12 5 10 7 8 8 9 9 78 10 69 11 68 12 6 13
REMARK SMILES IDX 7 14 5 15 1 16 2 17 3 18 80 19 4 20 79 21 81 22 70 23 71 24
REMARK SMILES IDX 72 25 73 26 77 27 74 28 76 29 75 30 16 31 17 32 18 33 19 35
REMARK SMILES IDX 20 36 21 37 67 38 22 39 66 40 23 41 24 42 25 43 60 44 26 45
REMARK SMILES IDX 65 46 59 47 61 48 27 49 64 50 58 51 57 52 28 54 50 55 35 56
REMARK SMILES IDX 49 57 36 58 39 59 48 60 62 61 37 62 38 63 47 65 63 66 40 67
REMARK SMILES IDX 29 68 30 69 34 70 31 71 33 72 32 73 51 74 52 75 56 76 53 77
REMARK SMILES IDX 55 78 54 79 41 80 42 81 46 82 43 83 45 84 44 85
REMARK H PARENT 13 6 17 34 61 53 39 64
REMARK Flexibility Score: inf
ROOT
ATOM      1  C   UNL A   1      38.689  20.972  25.225  1.00  0.00     0.042 C 
ENDROOT
BRANCH   1   2
ATOM      2  C   UNL A   1      37.866  22.188  25.606  1.00  0.00     0.117 C 
BRANCH   2   3
ATOM      3  N   UNL A   1      37.436  22.919  24.428  1.00  0.00    -0.356 N 
ATOM      4  C   UNL A   1      36.226  22.999  23.829  1.00  0.00     0.224 C 
ATOM      5  O   UNL A   1      36.162  23.547  22.728  1.00  0.00    -0.275 OA
ATOM      6  H   UNL A   1      38.144  23.447  23.993  1.00  0.00     0.163 HD
BRANCH   4   7
ATOM      7  C   UNL A   1      34.984  22.436  24.481  1.00  0.00     0.099 C 
ATOM      8  N   UNL A   1      33.296  22.881  26.260  1.00  0.00    -0.337 N 
ATOM      9  C   UNL A   1      34.354  23.436  25.434  1.00  0.00     0.133 C 
ATOM     10  C   UNL A   1      33.539  21.586  26.895  1.00  0.00     0.133 C 
ATOM     11  C   UNL A   1      34.036  20.515  25.907  1.00  0.00     0.099 C 
ATOM     12  C   UNL A   1      35.170  21.014  25.014  1.00  0.00     0.030 C 
BRANCH   8  13
ATOM     13  C   UNL A   1      32.233  23.733  26.535  1.00  0.00     0.254 C 
ATOM     14  O   UNL A   1      31.573  23.649  27.569  1.00  0.00    -0.269 OA
BRANCH  13  15
ATOM     15  C   UNL A   1      31.756  24.699  25.522  1.00  0.00     0.042 A 
ATOM     16  C   UNL A   1      29.371  27.523  23.340  1.00  0.00     0.047 C 
ATOM     17  C   UNL A   1      30.271  26.539  24.024  1.00  0.00    -0.015 A 
ATOM     18  C   UNL A   1      30.262  25.183  23.677  1.00  0.00     0.007 A 
ATOM     19  C   UNL A   1      31.073  26.961  25.087  1.00  0.00     0.126 A 
ATOM     20  C   UNL A   1      30.998  24.261  24.428  1.00  0.00     0.014 A 
ATOM     21  C   UNL A   1      31.809  26.057  25.840  1.00  0.00     0.053 A 
ATOM     22  F   UNL A   1      31.086  28.255  25.439  1.00  0.00    -0.207 F 
ENDBRANCH  13  15
ENDBRANCH   8  13
BRANCH  11  23
ATOM     23  C   UNL A   1      32.826  19.788  25.295  1.00  0.00     0.227 C 
ATOM     24  O   UNL A   1      31.850  20.467  24.955  1.00  0.00    -0.275 OA
ATOM     25  N   UNL A   1      32.947  18.487  24.875  1.00  0.00    -0.338 N 
ATOM     26  C   UNL A   1      33.197  17.319  25.718  1.00  0.00     0.148 C 
ATOM     27  C   UNL A   1      32.422  18.113  23.563  1.00  0.00     0.148 C 
ATOM     28  C   UNL A   1      34.166  16.369  25.000  1.00  0.00     0.181 C 
ATOM     29  C   UNL A   1      33.391  17.128  22.894  1.00  0.00     0.181 C 
ATOM     30  O   UNL A   1      33.621  15.977  23.726  1.00  0.00    -0.378 OA
ENDBRANCH  11  23
ENDBRANCH   4   7
ENDBRANCH   2   3
ENDBRANCH   1   2
BRANCH   1  31
ATOM     31  C   UNL A   1      39.354  20.310  26.420  1.00  0.00     0.118 C 
BRANCH  31  32
ATOM     32  N   UNL A   1      40.496  19.490  26.031  1.00  0.00    -0.352 N 
ATOM     33  C   UNL A   1      41.812  19.846  25.885  1.00  0.00     0.251 C 
ATOM     34  H   UNL A   1      40.292  18.546  25.846  1.00  0.00     0.163 HD
ATOM     35  O   UNL A   1      42.596  19.099  25.304  1.00  0.00    -0.269 OA
BRANCH  33  36
ATOM     36  C   UNL A   1      42.269  21.144  26.412  1.00  0.00     0.039 A 
ATOM     37  C   UNL A   1      42.598  22.168  25.524  1.00  0.00     0.014 A 
ATOM     38  C   UNL A   1      42.331  21.353  27.792  1.00  0.00     0.014 A 
ATOM     39  C   UNL A   1      42.911  23.431  26.024  1.00  0.00     0.010 A 
ATOM     40  C   UNL A   1      42.529  22.634  28.282  1.00  0.00     0.010 A 
ATOM     41  C   UNL A   1      42.830  23.684  27.404  1.00  0.00    -0.014 A 
BRANCH  41  42
ATOM     42  C   UNL A   1      43.060  25.039  27.959  1.00  0.00     0.031 A 
ATOM     43  C   UNL A   1      44.440  25.443  28.399  1.00  0.00     0.074 A 
ATOM     44  C   UNL A   1      42.016  25.869  28.139  1.00  0.00     0.049 A 
ATOM     45  N   UNL A   1      44.828  26.552  28.976  1.00  0.00    -0.248 NA
ATOM     46  C   UNL A   1      45.518  24.462  28.196  1.00  0.00     0.031 C 
ATOM     47  C   UNL A   1      40.622  25.570  27.798  1.00  0.00     0.029 A 
ATOM     48  N   UNL A   1      41.962  27.135  28.663  1.00  0.00    -0.354 N 
ATOM     49  C   UNL A   1      46.186  26.391  29.220  1.00  0.00     0.074 A 
ATOM     50  C   UNL A   1      46.542  25.059  28.786  1.00  0.00     0.031 C 
ATOM     51  C   UNL A   1      39.860  26.636  28.088  1.00  0.00     0.029 A 
ATOM     52  C   UNL A   1      40.698  27.672  28.680  1.00  0.00     0.049 A 
ATOM     53  H   UNL A   1      42.756  27.614  28.996  1.00  0.00     0.167 HD
ATOM     54  C   UNL A   1      47.065  27.282  29.736  1.00  0.00     0.031 A 
ATOM     55  C   UNL A   1      40.262  28.862  29.132  1.00  0.00     0.031 A 
ATOM     56  C   UNL A   1      46.707  28.609  30.157  1.00  0.00     0.049 A 
ATOM     57  C   UNL A   1      41.253  29.827  29.721  1.00  0.00     0.074 A 
ATOM     58  C   UNL A   1      47.532  29.612  30.634  1.00  0.00     0.029 A 
ATOM     59  N   UNL A   1      45.416  29.115  30.155  1.00  0.00    -0.354 N 
ATOM     60  N   UNL A   1      42.548  29.690  29.871  1.00  0.00    -0.248 NA
ATOM     61  C   UNL A   1      40.722  31.111  30.195  1.00  0.00     0.031 C 
ATOM     62  C   UNL A   1      46.730  30.704  30.981  1.00  0.00     0.029 A 
ATOM     63  C   UNL A   1      45.417  30.406  30.656  1.00  0.00     0.049 A 
ATOM     64  H   UNL A   1      44.619  28.629  29.844  1.00  0.00     0.167 HD
ATOM     65  C   UNL A   1      42.991  30.880  30.434  1.00  0.00     0.074 A 
ATOM     66  C   UNL A   1      41.829  31.732  30.579  1.00  0.00     0.031 C 
ATOM     67  C   UNL A   1      44.247  31.235  30.799  1.00  0.00     0.031 A 
BRANCH  54  68
ATOM     68  C   UNL A   1      48.494  26.838  29.882  1.00  0.00    -0.014 A 
ATOM     69  C   UNL A   1      49.434  27.054  28.860  1.00  0.00     0.009 A 
ATOM     70  C   UNL A   1      48.915  26.219  31.070  1.00  0.00     0.009 A 
ATOM     71  C   UNL A   1      50.754  26.620  29.009  1.00  0.00     0.001 A 
ATOM     72  C   UNL A   1      50.242  25.816  31.228  1.00  0.00     0.001 A 
ATOM     73  C   UNL A   1      51.157  26.007  30.194  1.00  0.00     0.000 A 
ENDBRANCH  54  68
BRANCH  55  74
ATOM     74  C   UNL A   1      38.820  29.213  29.035  1.00  0.00    -0.014 A 
ATOM     75  C   UNL A   1      38.292  29.734  27.845  1.00  0.00     0.009 A 
ATOM     76  C   UNL A   1      37.964  29.024  30.131  1.00  0.00     0.009 A 
ATOM     77  C   UNL A   1      36.943  30.084  27.762  1.00  0.00     0.001 A 
ATOM     78  C   UNL A   1      36.608  29.347  30.035  1.00  0.00     0.001 A 
ATOM     79  C   UNL A   1      36.100  29.885  28.854  1.00  0.00     0.000 A 
ENDBRANCH  55  74
BRANCH  67  80
ATOM     80  C   UNL A   1      44.434  32.613  31.365  1.00  0.00    -0.014 A 
ATOM     81  C   UNL A   1      44.371  32.849  32.748  1.00  0.00     0.009 A 
ATOM     82  C   UNL A   1      44.725  33.685  30.505  1.00  0.00     0.009 A 
ATOM     83  C   UNL A   1      44.565  34.136  33.254  1.00  0.00     0.001 A 
ATOM     84  C   UNL A   1      44.951  34.962  31.017  1.00  0.00     0.001 A 
ATOM     85  C   UNL A   1      44.860  35.189  32.389  1.00  0.00     0.000 A 
ENDBRANCH  67  80
ENDBRANCH  41  42
ENDBRANCH  33  36
ENDBRANCH  31  32
ENDBRANCH   1  31
TORSDOF 13
ENDMDL
MODEL 2
REMARK VINA RESULT:     -12.8      4.599      9.930
REMARK SMILES Cc1ccc(C(=O)N2C[C@@H](C(=O)NCCCNC(=O)c3ccc(-c4c5nc(c(-c6ccccc6)c6ccc([nH]6)c(-c6ccccc6)c6nc(c(-c7ccccc7)c7ccc4[nH]7)C=C6)C=C5)cc3)C[C@H](C(=O)N3CCOCC3)C2)cc1F
REMARK SMILES IDX 15 1 14 2 13 3 11 4 12 5 10 7 8 8 9 9 78 10 69 11 68 12 6 13
REMARK SMILES IDX 7 14 5 15 1 16 2 17 3 18 80 19 4 20 79 21 81 22 70 23 71 24
REMARK SMILES IDX 72 25 73 26 77 27 74 28 76 29 75 30 16 31 17 32 18 33 19 35
REMARK SMILES IDX 20 36 21 37 67 38 22 39 66 40 23 41 24 42 25 43 60 44 26 45
REMARK SMILES IDX 65 46 59 47 61 48 27 49 64 50 58 51 57 52 28 54 50 55 35 56
REMARK SMILES IDX 49 57 36 58 39 59 48 60 62 61 37 62 38 63 47 65 63 66 40 67
REMARK SMILES IDX 29 68 30 69 34 70 31 71 33 72 32 73 51 74 52 75 56 76 53 77
REMARK SMILES IDX 55 78 54 79 41 80 42 81 46 82 43 83 45 84 44 85
REMARK H PARENT 13 6 17 34 61 53 39 64
REMARK Flexibility Score: inf
ROOT
ATOM      1  C   UNL A   1      31.526  32.274  26.715  1.00  0.00     0.042 C 
ENDROOT
BRANCH   1   2
ATOM      2  C   UNL A   1      31.580  30.767  26.867  1.00  0.00     0.117 C 
BRANCH   2   3
ATOM      3  N   UNL A   1      32.809  30.228  26.314  1.00  0.00    -0.356 N 
ATOM      4  C   UNL A   1      33.024  29.164  25.507  1.00  0.00     0.224 C 
ATOM      5  O   UNL A   1      34.188  28.805  25.324  1.00  0.00    -0.275 OA
ATOM      6  H   UNL A   1      33.622  30.721  26.568  1.00  0.00     0.163 HD
BRANCH   4   7
ATOM      7  C   UNL A   1      31.880  28.432  24.845  1.00  0.00     0.099 C 
ATOM      8  N   UNL A   1      31.126  26.174  24.107  1.00  0.00    -0.337 N 
ATOM      9  C   UNL A   1      32.065  26.927  24.919  1.00  0.00     0.133 C 
ATOM     10  C   UNL A   1      30.885  26.636  22.741  1.00  0.00     0.133 C 
ATOM     11  C   UNL A   1      30.544  28.136  22.666  1.00  0.00     0.099 C 
ATOM     12  C   UNL A   1      31.505  29.004  23.476  1.00  0.00     0.030 C 
BRANCH   8  13
ATOM     13  C   UNL A   1      30.701  24.962  24.641  1.00  0.00     0.254 C 
ATOM     14  O   UNL A   1      29.713  24.875  25.369  1.00  0.00    -0.269 OA
BRANCH  13  15
ATOM     15  C   UNL A   1      31.506  23.734  24.467  1.00  0.00     0.042 A 
ATOM     16  C   UNL A   1      32.706  19.642  23.979  1.00  0.00     0.047 C 
ATOM     17  C   UNL A   1      32.386  21.095  24.158  1.00  0.00    -0.015 A 
ATOM     18  C   UNL A   1      32.376  21.687  25.426  1.00  0.00     0.007 A 
ATOM     19  C   UNL A   1      32.006  21.859  23.051  1.00  0.00     0.126 A 
ATOM     20  C   UNL A   1      31.931  23.004  25.584  1.00  0.00     0.014 A 
ATOM     21  C   UNL A   1      31.563  23.167  23.193  1.00  0.00     0.053 A 
ATOM     22  F   UNL A   1      32.001  21.305  21.830  1.00  0.00    -0.207 F 
ENDBRANCH  13  15
ENDBRANCH   8  13
BRANCH  11  23
ATOM     23  C   UNL A   1      29.023  28.319  22.806  1.00  0.00     0.227 C 
ATOM     24  O   UNL A   1      28.383  27.439  23.394  1.00  0.00    -0.275 OA
ATOM     25  N   UNL A   1      28.452  29.541  22.553  1.00  0.00    -0.338 N 
ATOM     26  C   UNL A   1      28.395  30.225  21.261  1.00  0.00     0.148 C 
ATOM     27  C   UNL A   1      27.481  30.082  23.501  1.00  0.00     0.148 C 
ATOM     28  C   UNL A   1      28.623  31.729  21.469  1.00  0.00     0.181 C 
ATOM     29  C   UNL A   1      27.707  31.592  23.650  1.00  0.00     0.181 C 
ATOM     30  O   UNL A   1      27.637  32.257  22.376  1.00  0.00    -0.378 OA
ENDBRANCH  11  23
ENDBRANCH   4   7
ENDBRANCH   2   3
ENDBRANCH   1   2
BRANCH   1  31
ATOM     31  C   UNL A   1      32.772  32.967  27.242  1.00  0.00     0.118 C 
BRANCH  31  32
ATOM     32  N   UNL A   1      32.506  34.341  27.654  1.00  0.00    -0.352 N 
ATOM     33  C   UNL A   1      33.037  35.053  28.699  1.00  0.00     0.251 C 
ATOM     34  H   UNL A   1      31.852  34.826  27.103  1.00  0.00     0.163 HD
ATOM     35  O   UNL A   1      32.518  36.106  29.059  1.00  0.00    -0.269 OA
BRANCH  33  36
ATOM     36  C   UNL A   1      34.223  34.528  29.398  1.00  0.00     0.039 A 
ATOM     37  C   UNL A   1      34.066  33.880  30.624  1.00  0.00     0.014 A 
ATOM     38  C   UNL A   1      35.486  34.645  28.814  1.00  0.00     0.014 A 
ATOM     39  C   UNL A   1      35.170  33.277  31.223  1.00  0.00     0.010 A 
ATOM     40  C   UNL A   1      36.557  33.949  29.352  1.00  0.00     0.010 A 
ATOM     41  C   UNL A   1      36.412  33.266  30.567  1.00  0.00    -0.014 A 
BRANCH  41  42
ATOM     42  C   UNL A   1      37.581  32.549  31.130  1.00  0.00     0.031 A 
ATOM     43  C   UNL A   1      38.231  33.051  32.389  1.00  0.00     0.074 A 
ATOM     44  C   UNL A   1      38.101  31.501  30.464  1.00  0.00     0.049 A 
ATOM     45  N   UNL A   1      39.304  32.609  32.995  1.00  0.00    -0.248 NA
ATOM     46  C   UNL A   1      37.617  34.223  33.034  1.00  0.00     0.031 C 
ATOM     47  C   UNL A   1      37.588  30.952  29.205  1.00  0.00     0.029 A 
ATOM     48  N   UNL A   1      39.186  30.711  30.751  1.00  0.00    -0.354 N 
ATOM     49  C   UNL A   1      39.500  33.458  34.076  1.00  0.00     0.074 A 
ATOM     50  C   UNL A   1      38.476  34.476  34.009  1.00  0.00     0.031 C 
ATOM     51  C   UNL A   1      38.336  29.896  28.849  1.00  0.00     0.029 A 
ATOM     52  C   UNL A   1      39.407  29.722  29.823  1.00  0.00     0.049 A 
ATOM     53  H   UNL A   1      39.751  30.841  31.545  1.00  0.00     0.167 HD
ATOM     54  C   UNL A   1      40.435  33.384  35.052  1.00  0.00     0.031 A 
ATOM     55  C   UNL A   1      40.371  28.786  29.760  1.00  0.00     0.031 A 
ATOM     56  C   UNL A   1      41.445  32.364  35.118  1.00  0.00     0.049 A 
ATOM     57  C   UNL A   1      41.411  28.736  30.845  1.00  0.00     0.074 A 
ATOM     58  C   UNL A   1      42.400  32.160  36.099  1.00  0.00     0.029 A 
ATOM     59  N   UNL A   1      41.634  31.378  34.161  1.00  0.00    -0.354 N 
ATOM     60  N   UNL A   1      41.536  29.498  31.904  1.00  0.00    -0.248 NA
ATOM     61  C   UNL A   1      42.438  27.692  30.727  1.00  0.00     0.031 C 
ATOM     62  C   UNL A   1      43.207  31.089  35.703  1.00  0.00     0.029 A 
ATOM     63  C   UNL A   1      42.713  30.584  34.510  1.00  0.00     0.049 A 
ATOM     64  H   UNL A   1      41.083  31.261  33.354  1.00  0.00     0.167 HD
ATOM     65  C   UNL A   1      42.639  29.011  32.593  1.00  0.00     0.074 A 
ATOM     66  C   UNL A   1      43.135  27.876  31.840  1.00  0.00     0.031 C 
ATOM     67  C   UNL A   1      43.194  29.463  33.744  1.00  0.00     0.031 A 
BRANCH  54  68
ATOM     68  C   UNL A   1      40.409  34.445  36.117  1.00  0.00    -0.014 A 
ATOM     69  C   UNL A   1      41.156  35.629  35.988  1.00  0.00     0.009 A 
ATOM     70  C   UNL A   1      39.606  34.272  37.255  1.00  0.00     0.009 A 
ATOM     71  C   UNL A   1      41.131  36.595  36.995  1.00  0.00     0.001 A 
ATOM     72  C   UNL A   1      39.557  35.255  38.244  1.00  0.00     0.001 A 
ATOM     73  C   UNL A   1      40.328  36.411  38.119  1.00  0.00     0.000 A 
ENDBRANCH  54  68
BRANCH  55  74
ATOM     74  C   UNL A   1      40.392  27.812  28.637  1.00  0.00    -0.014 A 
ATOM     75  C   UNL A   1      41.077  28.109  27.450  1.00  0.00     0.009 A 
ATOM     76  C   UNL A   1      39.731  26.579  28.748  1.00  0.00     0.009 A 
ATOM     77  C   UNL A   1      41.078  27.203  26.387  1.00  0.00     0.001 A 
ATOM     78  C   UNL A   1      39.759  25.662  27.695  1.00  0.00     0.001 A 
ATOM     79  C   UNL A   1      40.424  25.978  26.512  1.00  0.00     0.000 A 
ENDBRANCH  55  74
BRANCH  67  80
ATOM     80  C   UNL A   1      44.383  28.713  34.274  1.00  0.00    -0.014 A 
ATOM     81  C   UNL A   1      44.228  27.613  35.133  1.00  0.00     0.009 A 
ATOM     82  C   UNL A   1      45.675  29.084  33.869  1.00  0.00     0.009 A 
ATOM     83  C   UNL A   1      45.347  26.920  35.600  1.00  0.00     0.001 A 
ATOM     84  C   UNL A   1      46.788  28.369  34.312  1.00  0.00     0.001 A 
ATOM     85  C   UNL A   1      46.624  27.295  35.185  1.00  0.00     0.000 A 
ENDBRANCH  67  80
ENDBRANCH  41  42
ENDBRANCH  33  36
ENDBRANCH  31  32
ENDBRANCH   1  31
TORSDOF 13
ENDMDL
MODEL 3
REMARK VINA RESULT:     -12.8      4.887      9.919
REMARK SMILES Cc1ccc(C(=O)N2C[C@@H](C(=O)NCCCNC(=O)c3ccc(-c4c5nc(c(-c6ccccc6)c6ccc([nH]6)c(-c6ccccc6)c6nc(c(-c7ccccc7)c7ccc4[nH]7)C=C6)C=C5)cc3)C[C@H](C(=O)N3CCOCC3)C2)cc1F
REMARK SMILES IDX 15 1 14 2 13 3 11 4 12 5 10 7 8 8 9 9 78 10 69 11 68 12 6 13
REMARK SMILES IDX 7 14 5 15 1 16 2 17 3 18 80 19 4 20 79 21 81 22 70 23 71 24
REMARK SMILES IDX 72 25 73 26 77 27 74 28 76 29 75 30 16 31 17 32 18 33 19 35
REMARK SMILES IDX 20 36 21 37 67 38 22 39 66 40 23 41 24 42 25 43 60 44 26 45
REMARK SMILES IDX 65 46 59 47 61 48 27 49 64 50 58 51 57 52 28 54 50 55 35 56
REMARK SMILES IDX 49 57 36 58 39 59 48 60 62 61 37 62 38 63 47 65 63 66 40 67
REMARK SMILES IDX 29 68 30 69 34 70 31 71 33 72 32 73 51 74 52 75 56 76 53 77
REMARK SMILES IDX 55 78 54 79 41 80 42 81 46 82 43 83 45 84 44 85
REMARK H PARENT 13 6 17 34 61 53 39 64
REMARK Flexibility Score: inf
ROOT
ATOM      1  C   UNL A   1      31.706  32.155  26.895  1.00  0.00     0.042 C 
ENDROOT
BRANCH   1   2
ATOM      2  C   UNL A   1      31.927  30.655  26.894  1.00  0.00     0.117 C 
BRANCH   2   3
ATOM      3  N   UNL A   1      32.937  30.275  25.924  1.00  0.00    -0.356 N 
ATOM      4  C   UNL A   1      32.933  29.311  24.975  1.00  0.00     0.224 C 
ATOM      5  O   UNL A   1      33.993  29.069  24.394  1.00  0.00    -0.275 OA
ATOM      6  H   UNL A   1      33.763  30.809  25.962  1.00  0.00     0.163 HD
BRANCH   4   7
ATOM      7  C   UNL A   1      31.675  28.547  24.630  1.00  0.00     0.099 C 
ATOM      8  N   UNL A   1      30.668  26.268  24.637  1.00  0.00    -0.337 N 
ATOM      9  C   UNL A   1      31.738  27.115  25.132  1.00  0.00     0.133 C 
ATOM     10  C   UNL A   1      30.343  26.344  23.213  1.00  0.00     0.133 C 
ATOM     11  C   UNL A   1      30.125  27.787  22.723  1.00  0.00     0.099 C 
ATOM     12  C   UNL A   1      31.227  28.741  23.181  1.00  0.00     0.030 C 
BRANCH   8  13
ATOM     13  C   UNL A   1      30.192  25.313  25.529  1.00  0.00     0.254 C 
ATOM     14  O   UNL A   1      29.263  25.540  26.303  1.00  0.00    -0.269 OA
BRANCH  13  15
ATOM     15  C   UNL A   1      30.878  24.013  25.683  1.00  0.00     0.042 A 
ATOM     16  C   UNL A   1      33.879  20.952  25.923  1.00  0.00     0.047 C 
ATOM     17  C   UNL A   1      32.760  21.947  25.845  1.00  0.00    -0.015 A 
ATOM     18  C   UNL A   1      32.073  22.176  24.648  1.00  0.00     0.007 A 
ATOM     19  C   UNL A   1      32.450  22.724  26.964  1.00  0.00     0.126 A 
ATOM     20  C   UNL A   1      31.136  23.212  24.563  1.00  0.00     0.014 A 
ATOM     21  C   UNL A   1      31.522  23.755  26.894  1.00  0.00     0.053 A 
ATOM     22  F   UNL A   1      33.106  22.524  28.117  1.00  0.00    -0.207 F 
ENDBRANCH  13  15
ENDBRANCH   8  13
BRANCH  11  23
ATOM     23  C   UNL A   1      28.645  28.166  22.899  1.00  0.00     0.227 C 
ATOM     24  O   UNL A   1      27.916  27.389  23.528  1.00  0.00    -0.275 OA
ATOM     25  N   UNL A   1      28.226  29.444  22.626  1.00  0.00    -0.338 N 
ATOM     26  C   UNL A   1      28.218  30.098  21.318  1.00  0.00     0.148 C 
ATOM     27  C   UNL A   1      27.360  30.127  23.584  1.00  0.00     0.148 C 
ATOM     28  C   UNL A   1      28.641  31.565  21.477  1.00  0.00     0.181 C 
ATOM     29  C   UNL A   1      27.780  31.600  23.685  1.00  0.00     0.181 C 
ATOM     30  O   UNL A   1      27.757  32.237  22.395  1.00  0.00    -0.378 OA
ENDBRANCH  11  23
ENDBRANCH   4   7
ENDBRANCH   2   3
ENDBRANCH   1   2
BRANCH   1  31
ATOM     31  C   UNL A   1      32.926  32.932  27.360  1.00  0.00     0.118 C 
BRANCH  31  32
ATOM     32  N   UNL A   1      32.607  34.320  27.678  1.00  0.00    -0.352 N 
ATOM     33  C   UNL A   1      33.070  35.105  28.702  1.00  0.00     0.251 C 
ATOM     34  H   UNL A   1      31.967  34.755  27.070  1.00  0.00     0.163 HD
ATOM     35  O   UNL A   1      32.509  36.163  28.976  1.00  0.00    -0.269 OA
BRANCH  33  36
ATOM     36  C   UNL A   1      34.235  34.655  29.484  1.00  0.00     0.039 A 
ATOM     37  C   UNL A   1      34.042  34.133  30.764  1.00  0.00     0.014 A 
ATOM     38  C   UNL A   1      35.515  34.713  28.928  1.00  0.00     0.014 A 
ATOM     39  C   UNL A   1      35.128  33.594  31.452  1.00  0.00     0.010 A 
ATOM     40  C   UNL A   1      36.568  34.076  29.563  1.00  0.00     0.010 A 
ATOM     41  C   UNL A   1      36.388  33.518  30.836  1.00  0.00    -0.014 A 
BRANCH  41  42
ATOM     42  C   UNL A   1      37.539  32.863  31.501  1.00  0.00     0.031 A 
ATOM     43  C   UNL A   1      38.196  31.674  30.858  1.00  0.00     0.074 A 
ATOM     44  C   UNL A   1      37.935  33.289  32.714  1.00  0.00     0.049 A 
ATOM     45  N   UNL A   1      39.164  30.921  31.316  1.00  0.00    -0.248 NA
ATOM     46  C   UNL A   1      37.678  31.254  29.546  1.00  0.00     0.031 C 
ATOM     47  C   UNL A   1      37.342  34.402  33.462  1.00  0.00     0.029 A 
ATOM     48  N   UNL A   1      38.931  32.831  33.540  1.00  0.00    -0.354 N 
ATOM     49  C   UNL A   1      39.354  29.932  30.358  1.00  0.00     0.074 A 
ATOM     50  C   UNL A   1      38.364  30.143  29.327  1.00  0.00     0.031 C 
ATOM     51  C   UNL A   1      38.008  34.561  34.617  1.00  0.00     0.029 A 
ATOM     52  C   UNL A   1      39.039  33.534  34.715  1.00  0.00     0.049 A 
ATOM     53  H   UNL A   1      39.511  32.070  33.311  1.00  0.00     0.167 HD
ATOM     54  C   UNL A   1      40.286  28.951  30.329  1.00  0.00     0.031 A 
ATOM     55  C   UNL A   1      39.870  33.364  35.759  1.00  0.00     0.031 A 
ATOM     56  C   UNL A   1      41.274  28.752  31.353  1.00  0.00     0.049 A 
ATOM     57  C   UNL A   1      40.883  32.254  35.712  1.00  0.00     0.074 A 
ATOM     58  C   UNL A   1      42.303  27.828  31.389  1.00  0.00     0.029 A 
ATOM     59  N   UNL A   1      41.353  29.487  32.526  1.00  0.00    -0.354 N 
ATOM     60  N   UNL A   1      41.102  31.377  34.763  1.00  0.00    -0.248 NA
ATOM     61  C   UNL A   1      41.766  32.117  36.878  1.00  0.00     0.031 C 
ATOM     62  C   UNL A   1      42.966  27.963  32.613  1.00  0.00     0.029 A 
ATOM     63  C   UNL A   1      42.392  29.015  33.309  1.00  0.00     0.049 A 
ATOM     64  H   UNL A   1      40.758  30.234  32.766  1.00  0.00     0.167 HD
ATOM     65  C   UNL A   1      42.164  30.599  35.205  1.00  0.00     0.074 A 
ATOM     66  C   UNL A   1      42.556  31.122  36.498  1.00  0.00     0.031 C 
ATOM     67  C   UNL A   1      42.761  29.545  34.596  1.00  0.00     0.031 A 
BRANCH  54  68
ATOM     68  C   UNL A   1      40.266  28.014  29.152  1.00  0.00    -0.014 A 
ATOM     69  C   UNL A   1      39.528  26.818  29.183  1.00  0.00     0.009 A 
ATOM     70  C   UNL A   1      40.974  28.344  27.986  1.00  0.00     0.009 A 
ATOM     71  C   UNL A   1      39.535  25.954  28.086  1.00  0.00     0.001 A 
ATOM     72  C   UNL A   1      40.952  27.493  26.879  1.00  0.00     0.001 A 
ATOM     73  C   UNL A   1      40.242  26.295  26.934  1.00  0.00     0.000 A 
ENDBRANCH  54  68
BRANCH  55  74
ATOM     74  C   UNL A   1      39.789  34.274  36.932  1.00  0.00    -0.014 A 
ATOM     75  C   UNL A   1      40.466  35.502  36.931  1.00  0.00     0.009 A 
ATOM     76  C   UNL A   1      39.029  33.920  38.059  1.00  0.00     0.009 A 
ATOM     77  C   UNL A   1      40.406  36.345  38.043  1.00  0.00     0.001 A 
ATOM     78  C   UNL A   1      38.946  34.780  39.157  1.00  0.00     0.001 A 
ATOM     79  C   UNL A   1      39.642  35.987  39.152  1.00  0.00     0.000 A 
ENDBRANCH  55  74
BRANCH  67  80
ATOM     80  C   UNL A   1      43.918  28.905  35.309  1.00  0.00    -0.014 A 
ATOM     81  C   UNL A   1      45.233  29.359  35.119  1.00  0.00     0.009 A 
ATOM     82  C   UNL A   1      43.682  27.864  36.221  1.00  0.00     0.009 A 
ATOM     83  C   UNL A   1      46.292  28.759  35.805  1.00  0.00     0.001 A 
ATOM     84  C   UNL A   1      44.738  27.290  36.929  1.00  0.00     0.001 A 
ATOM     85  C   UNL A   1      46.043  27.731  36.714  1.00  0.00     0.000 A 
ENDBRANCH  67  80
ENDBRANCH  41  42
ENDBRANCH  33  36
ENDBRANCH  31  32
ENDBRANCH   1  31
TORSDOF 13
ENDMDL
