MODEL 1
REMARK VINA RESULT:     -11.7      0.000      0.000
REMARK SMILES COc1cccc([C@@H]2CN(C(=O)c3cnn(C)c3)C[C@H]2C(=O)NCCCNC(=O)c2ccc(-c3c4nc(c(-c5ccccc5)c5ccc([nH]5)c(-c5ccccc5)c5nc(c(-c6ccccc6)c6ccc3[nH]6)C=C5)C=C4)cc2)c1OC
REMARK SMILES IDX 25 1 24 2 23 3 21 4 22 5 20 7 8 8 9 9 10 10 19 11 7 12 3 13
REMARK SMILES IDX 4 14 78 15 5 16 6 17 2 18 1 19 79 20 80 21 11 22 12 23 13 24
REMARK SMILES IDX 14 25 18 26 15 27 16 28 17 29 26 30 27 31 28 32 29 34 30 35
REMARK SMILES IDX 31 36 77 37 32 38 76 39 33 40 34 41 35 42 70 43 36 44 75 45
REMARK SMILES IDX 69 46 71 47 37 48 74 49 68 50 67 51 38 53 60 54 45 55 59 56
REMARK SMILES IDX 46 57 49 58 58 59 72 60 47 61 48 62 57 64 73 65 50 66 39 67
REMARK SMILES IDX 40 68 44 69 41 70 43 71 42 72 61 73 62 74 66 75 63 76 65 77
REMARK SMILES IDX 64 78 51 79 52 80 56 81 53 82 55 83 54 84
REMARK H PARENT 23 6 27 33 71 52 49 63
REMARK Flexibility Score: inf
ROOT
ATOM      1  C   UNL A   1      37.224  20.218  24.831  1.00  0.00     0.042 C 
ENDROOT
BRANCH   1   2
ATOM      2  C   UNL A   1      36.073  21.219  24.828  1.00  0.00     0.117 C 
BRANCH   2   3
ATOM      3  N   UNL A   1      35.649  21.589  26.170  1.00  0.00    -0.356 N 
ATOM      4  C   UNL A   1      34.427  21.718  26.746  1.00  0.00     0.225 C 
ATOM      5  O   UNL A   1      34.418  22.039  27.939  1.00  0.00    -0.275 OA
ATOM      6  H   UNL A   1      36.396  21.783  26.780  1.00  0.00     0.163 HD
BRANCH   4   7
ATOM      7  C   UNL A   1      33.115  21.523  26.007  1.00  0.00     0.107 C 
ATOM      8  C   UNL A   1      32.935  22.485  24.818  1.00  0.00     0.057 C 
ATOM      9  C   UNL A   1      32.296  21.637  23.715  1.00  0.00     0.129 C 
ATOM     10  N   UNL A   1      32.678  20.269  24.025  1.00  0.00    -0.337 N 
ATOM     11  C   UNL A   1      32.921  20.118  25.452  1.00  0.00     0.134 C 
BRANCH   8  12
ATOM     12  C   UNL A   1      32.181  23.769  25.127  1.00  0.00     0.004 A 
ATOM     13  C   UNL A   1      31.827  26.176  24.962  1.00  0.00     0.161 A 
ATOM     14  C   UNL A   1      30.690  26.062  25.772  1.00  0.00     0.050 A 
ATOM     15  C   UNL A   1      32.590  25.035  24.651  1.00  0.00     0.164 A 
ATOM     16  C   UNL A   1      30.282  24.817  26.238  1.00  0.00     0.004 A 
ATOM     17  C   UNL A   1      31.018  23.679  25.914  1.00  0.00     0.008 A 
BRANCH  13  18
ATOM     18  O   UNL A   1      32.244  27.419  24.557  1.00  0.00    -0.493 OA
ATOM     19  C   UNL A   1      33.173  28.004  25.471  1.00  0.00     0.278 C 
ENDBRANCH  13  18
BRANCH  15  20
ATOM     20  O   UNL A   1      33.768  25.045  23.947  1.00  0.00    -0.493 OA
ATOM     21  C   UNL A   1      33.678  25.162  22.532  1.00  0.00     0.278 C 
ENDBRANCH  15  20
ENDBRANCH   8  12
BRANCH  10  22
ATOM     22  C   UNL A   1      32.531  19.142  23.232  1.00  0.00     0.257 C 
ATOM     23  O   UNL A   1      32.086  19.225  22.086  1.00  0.00    -0.269 OA
BRANCH  22  24
ATOM     24  C   UNL A   1      32.940  17.856  23.764  1.00  0.00     0.077 A 
ATOM     25  C   UNL A   1      34.131  17.160  23.453  1.00  0.00     0.149 A 
ATOM     26  C   UNL A   1      32.260  16.981  24.592  1.00  0.00     0.122 A 
ATOM     27  N   UNL A   1      34.235  15.992  24.095  1.00  0.00    -0.181 NA
ATOM     28  N   UNL A   1      33.086  15.912  24.784  1.00  0.00    -0.275 N 
ATOM     29  C   UNL A   1      32.843  14.766  25.626  1.00  0.00     0.173 C 
ENDBRANCH  22  24
ENDBRANCH  10  22
ENDBRANCH   4   7
ENDBRANCH   2   3
ENDBRANCH   1   2
BRANCH   1  30
ATOM     30  C   UNL A   1      38.442  20.656  25.638  1.00  0.00     0.118 C 
BRANCH  30  31
ATOM     31  N   UNL A   1      39.505  19.662  25.646  1.00  0.00    -0.352 N 
ATOM     32  C   UNL A   1      40.834  19.778  25.975  1.00  0.00     0.251 C 
ATOM     33  H   UNL A   1      39.227  18.760  25.369  1.00  0.00     0.163 HD
ATOM     34  O   UNL A   1      41.599  18.846  25.748  1.00  0.00    -0.269 OA
BRANCH  32  35
ATOM     35  C   UNL A   1      41.362  21.023  26.576  1.00  0.00     0.039 A 
ATOM     36  C   UNL A   1      41.875  22.011  25.729  1.00  0.00     0.014 A 
ATOM     37  C   UNL A   1      41.393  21.208  27.960  1.00  0.00     0.014 A 
ATOM     38  C   UNL A   1      42.339  23.216  26.262  1.00  0.00     0.010 A 
ATOM     39  C   UNL A   1      41.801  22.432  28.489  1.00  0.00     0.010 A 
ATOM     40  C   UNL A   1      42.268  23.451  27.644  1.00  0.00    -0.014 A 
BRANCH  40  41
ATOM     41  C   UNL A   1      42.656  24.758  28.228  1.00  0.00     0.031 A 
ATOM     42  C   UNL A   1      41.625  25.827  28.455  1.00  0.00     0.074 A 
ATOM     43  C   UNL A   1      43.954  25.014  28.480  1.00  0.00     0.049 A 
ATOM     44  N   UNL A   1      41.797  27.068  28.838  1.00  0.00    -0.248 NA
ATOM     45  C   UNL A   1      40.225  25.462  28.196  1.00  0.00     0.031 C 
ATOM     46  C   UNL A   1      45.060  24.075  28.287  1.00  0.00     0.029 A 
ATOM     47  N   UNL A   1      44.561  26.154  28.944  1.00  0.00    -0.354 N 
ATOM     48  C   UNL A   1      40.531  27.640  28.835  1.00  0.00     0.074 A 
ATOM     49  C   UNL A   1      39.606  26.617  28.396  1.00  0.00     0.031 C 
ATOM     50  C   UNL A   1      46.208  24.668  28.651  1.00  0.00     0.029 A 
ATOM     51  C   UNL A   1      45.924  26.038  29.064  1.00  0.00     0.049 A 
ATOM     52  H   UNL A   1      44.067  26.975  29.170  1.00  0.00     0.167 HD
ATOM     53  C   UNL A   1      40.170  28.900  29.173  1.00  0.00     0.031 A 
ATOM     54  C   UNL A   1      46.847  26.939  29.450  1.00  0.00     0.031 A 
ATOM     55  C   UNL A   1      41.075  29.911  29.647  1.00  0.00     0.049 A 
ATOM     56  C   UNL A   1      46.423  28.332  29.807  1.00  0.00     0.074 A 
ATOM     57  C   UNL A   1      40.785  31.189  30.094  1.00  0.00     0.029 A 
ATOM     58  N   UNL A   1      42.449  29.758  29.735  1.00  0.00    -0.354 N 
ATOM     59  N   UNL A   1      45.219  28.847  29.827  1.00  0.00    -0.248 NA
ATOM     60  C   UNL A   1      47.491  29.270  30.184  1.00  0.00     0.031 C 
ATOM     61  C   UNL A   1      41.990  31.819  30.427  1.00  0.00     0.029 A 
ATOM     62  C   UNL A   1      43.024  30.925  30.207  1.00  0.00     0.049 A 
ATOM     63  H   UNL A   1      42.942  28.940  29.498  1.00  0.00     0.167 HD
ATOM     64  C   UNL A   1      45.381  30.165  30.227  1.00  0.00     0.074 A 
ATOM     65  C   UNL A   1      46.798  30.371  30.445  1.00  0.00     0.031 C 
ATOM     66  C   UNL A   1      44.435  31.119  30.403  1.00  0.00     0.031 A 
BRANCH  53  67
ATOM     67  C   UNL A   1      38.721  29.254  29.028  1.00  0.00    -0.014 A 
ATOM     68  C   UNL A   1      38.203  29.702  27.804  1.00  0.00     0.009 A 
ATOM     69  C   UNL A   1      37.861  29.127  30.131  1.00  0.00     0.009 A 
ATOM     70  C   UNL A   1      36.855  30.047  27.695  1.00  0.00     0.001 A 
ATOM     71  C   UNL A   1      36.510  29.456  30.012  1.00  0.00     0.001 A 
ATOM     72  C   UNL A   1      36.010  29.923  28.797  1.00  0.00     0.000 A 
ENDBRANCH  53  67
BRANCH  54  73
ATOM     73  C   UNL A   1      48.273  26.541  29.521  1.00  0.00    -0.014 A 
ATOM     74  C   UNL A   1      49.114  26.750  28.420  1.00  0.00     0.009 A 
ATOM     75  C   UNL A   1      48.798  25.971  30.690  1.00  0.00     0.009 A 
ATOM     76  C   UNL A   1      50.460  26.385  28.484  1.00  0.00     0.001 A 
ATOM     77  C   UNL A   1      50.148  25.619  30.754  1.00  0.00     0.001 A 
ATOM     78  C   UNL A   1      50.976  25.823  29.650  1.00  0.00     0.000 A 
ENDBRANCH  54  73
BRANCH  66  79
ATOM     79  C   UNL A   1      44.908  32.465  30.859  1.00  0.00    -0.014 A 
ATOM     80  C   UNL A   1      45.038  32.754  32.226  1.00  0.00     0.009 A 
ATOM     81  C   UNL A   1      45.250  33.443  29.915  1.00  0.00     0.009 A 
ATOM     82  C   UNL A   1      45.486  34.009  32.639  1.00  0.00     0.001 A 
ATOM     83  C   UNL A   1      45.710  34.693  30.332  1.00  0.00     0.001 A 
ATOM     84  C   UNL A   1      45.823  34.976  31.693  1.00  0.00     0.000 A 
ENDBRANCH  66  79
ENDBRANCH  40  41
ENDBRANCH  32  35
ENDBRANCH  30  31
ENDBRANCH   1  30
TORSDOF 15
ENDMDL
MODEL 2
REMARK VINA RESULT:     -11.7      2.930      7.376
REMARK SMILES COc1cccc([C@@H]2CN(C(=O)c3cnn(C)c3)C[C@H]2C(=O)NCCCNC(=O)c2ccc(-c3c4nc(c(-c5ccccc5)c5ccc([nH]5)c(-c5ccccc5)c5nc(c(-c6ccccc6)c6ccc3[nH]6)C=C5)C=C4)cc2)c1OC
REMARK SMILES IDX 25 1 24 2 23 3 21 4 22 5 20 7 8 8 9 9 10 10 19 11 7 12 3 13
REMARK SMILES IDX 4 14 78 15 5 16 6 17 2 18 1 19 79 20 80 21 11 22 12 23 13 24
REMARK SMILES IDX 14 25 18 26 15 27 16 28 17 29 26 30 27 31 28 32 29 34 30 35
REMARK SMILES IDX 31 36 77 37 32 38 76 39 33 40 34 41 35 42 70 43 36 44 75 45
REMARK SMILES IDX 69 46 71 47 37 48 74 49 68 50 67 51 38 53 60 54 45 55 59 56
REMARK SMILES IDX 46 57 49 58 58 59 72 60 47 61 48 62 57 64 73 65 50 66 39 67
REMARK SMILES IDX 40 68 44 69 41 70 43 71 42 72 61 73 62 74 66 75 63 76 65 77
REMARK SMILES IDX 64 78 51 79 52 80 56 81 53 82 55 83 54 84
REMARK H PARENT 23 6 27 33 71 52 49 63
REMARK Flexibility Score: inf
ROOT
ATOM      1  C   UNL A   1      32.705  28.240  27.580  1.00  0.00     0.042 C 
ENDROOT
BRANCH   1   2
ATOM      2  C   UNL A   1      32.454  27.057  26.651  1.00  0.00     0.117 C 
BRANCH   2   3
ATOM      3  N   UNL A   1      31.188  26.393  26.918  1.00  0.00    -0.356 N 
ATOM      4  C   UNL A   1      30.237  25.862  26.108  1.00  0.00     0.225 C 
ATOM      5  O   UNL A   1      29.267  25.346  26.672  1.00  0.00    -0.275 OA
ATOM      6  H   UNL A   1      30.979  26.314  27.877  1.00  0.00     0.163 HD
BRANCH   4   7
ATOM      7  C   UNL A   1      30.296  25.900  24.592  1.00  0.00     0.107 C 
ATOM      8  C   UNL A   1      30.795  27.246  24.034  1.00  0.00     0.057 C 
ATOM      9  C   UNL A   1      31.707  26.876  22.861  1.00  0.00     0.129 C 
ATOM     10  N   UNL A   1      32.160  25.526  23.150  1.00  0.00    -0.337 N 
ATOM     11  C   UNL A   1      31.190  24.829  23.981  1.00  0.00     0.134 C 
BRANCH   8  12
ATOM     12  C   UNL A   1      29.706  28.247  23.680  1.00  0.00     0.004 A 
ATOM     13  C   UNL A   1      28.852  30.509  23.362  1.00  0.00     0.161 A 
ATOM     14  C   UNL A   1      27.607  29.985  22.995  1.00  0.00     0.050 A 
ATOM     15  C   UNL A   1      29.902  29.646  23.725  1.00  0.00     0.164 A 
ATOM     16  C   UNL A   1      27.410  28.609  22.945  1.00  0.00     0.004 A 
ATOM     17  C   UNL A   1      28.453  27.747  23.279  1.00  0.00     0.008 A 
BRANCH  13  18
ATOM     18  O   UNL A   1      29.009  31.869  23.457  1.00  0.00    -0.493 OA
ATOM     19  C   UNL A   1      28.636  32.545  22.255  1.00  0.00     0.278 C 
ENDBRANCH  13  18
BRANCH  15  20
ATOM     20  O   UNL A   1      31.130  30.051  24.188  1.00  0.00    -0.493 OA
ATOM     21  C   UNL A   1      31.159  30.754  25.424  1.00  0.00     0.278 C 
ENDBRANCH  15  20
ENDBRANCH   8  12
BRANCH  10  22
ATOM     22  C   UNL A   1      33.159  24.807  22.513  1.00  0.00     0.257 C 
ATOM     23  O   UNL A   1      33.173  24.689  21.287  1.00  0.00    -0.269 OA
BRANCH  22  24
ATOM     24  C   UNL A   1      34.215  24.218  23.315  1.00  0.00     0.077 A 
ATOM     25  C   UNL A   1      34.734  24.730  24.526  1.00  0.00     0.149 A 
ATOM     26  C   UNL A   1      35.010  23.114  23.063  1.00  0.00     0.122 A 
ATOM     27  N   UNL A   1      35.708  23.972  25.038  1.00  0.00    -0.181 NA
ATOM     28  N   UNL A   1      35.851  22.993  24.131  1.00  0.00    -0.275 N 
ATOM     29  C   UNL A   1      36.825  21.954  24.356  1.00  0.00     0.173 C 
ENDBRANCH  22  24
ENDBRANCH  10  22
ENDBRANCH   4   7
ENDBRANCH   2   3
ENDBRANCH   1   2
BRANCH   1  30
ATOM     30  C   UNL A   1      33.812  29.183  27.120  1.00  0.00     0.118 C 
BRANCH  30  31
ATOM     31  N   UNL A   1      33.808  30.453  27.831  1.00  0.00    -0.352 N 
ATOM     32  C   UNL A   1      34.736  31.003  28.682  1.00  0.00     0.251 C 
ATOM     33  H   UNL A   1      33.010  31.007  27.679  1.00  0.00     0.163 HD
ATOM     34  O   UNL A   1      34.456  32.019  29.311  1.00  0.00    -0.269 OA
BRANCH  32  35
ATOM     35  C   UNL A   1      36.062  30.374  28.870  1.00  0.00     0.039 A 
ATOM     36  C   UNL A   1      36.970  30.391  27.806  1.00  0.00     0.014 A 
ATOM     37  C   UNL A   1      36.403  29.736  30.065  1.00  0.00     0.014 A 
ATOM     38  C   UNL A   1      38.245  29.845  27.967  1.00  0.00     0.010 A 
ATOM     39  C   UNL A   1      37.694  29.244  30.247  1.00  0.00     0.010 A 
ATOM     40  C   UNL A   1      38.631  29.303  29.203  1.00  0.00    -0.014 A 
BRANCH  40  41
ATOM     41  C   UNL A   1      40.011  28.811  29.436  1.00  0.00     0.031 A 
ATOM     42  C   UNL A   1      41.034  29.694  30.091  1.00  0.00     0.074 A 
ATOM     43  C   UNL A   1      40.367  27.594  28.983  1.00  0.00     0.049 A 
ATOM     44  N   UNL A   1      42.315  29.482  30.264  1.00  0.00    -0.248 NA
ATOM     45  C   UNL A   1      40.562  30.992  30.596  1.00  0.00     0.031 C 
ATOM     46  C   UNL A   1      39.481  26.642  28.312  1.00  0.00     0.029 A 
ATOM     47  N   UNL A   1      41.582  26.956  29.012  1.00  0.00    -0.354 N 
ATOM     48  C   UNL A   1      42.807  30.631  30.868  1.00  0.00     0.074 A 
ATOM     49  C   UNL A   1      41.692  31.543  31.015  1.00  0.00     0.031 C 
ATOM     50  C   UNL A   1      40.175  25.533  28.012  1.00  0.00     0.029 A 
ATOM     51  C   UNL A   1      41.560  25.711  28.433  1.00  0.00     0.049 A 
ATOM     52  H   UNL A   1      42.391  27.352  29.409  1.00  0.00     0.167 HD
ATOM     53  C   UNL A   1      44.071  30.902  31.270  1.00  0.00     0.031 A 
ATOM     54  C   UNL A   1      42.548  24.816  28.249  1.00  0.00     0.031 A 
ATOM     55  C   UNL A   1      45.177  29.990  31.164  1.00  0.00     0.049 A 
ATOM     56  C   UNL A   1      43.942  25.144  28.691  1.00  0.00     0.074 A 
ATOM     57  C   UNL A   1      46.474  30.147  31.623  1.00  0.00     0.029 A 
ATOM     58  N   UNL A   1      45.115  28.747  30.555  1.00  0.00    -0.354 N 
ATOM     59  N   UNL A   1      44.384  26.224  29.287  1.00  0.00    -0.248 NA
ATOM     60  C   UNL A   1      44.975  24.132  28.424  1.00  0.00     0.031 C 
ATOM     61  C   UNL A   1      47.205  29.008  31.266  1.00  0.00     0.029 A 
ATOM     62  C   UNL A   1      46.356  28.136  30.605  1.00  0.00     0.049 A 
ATOM     63  H   UNL A   1      44.308  28.357  30.148  1.00  0.00     0.167 HD
ATOM     64  C   UNL A   1      45.743  26.019  29.475  1.00  0.00     0.074 A 
ATOM     65  C   UNL A   1      46.053  24.711  28.935  1.00  0.00     0.031 C 
ATOM     66  C   UNL A   1      46.651  26.843  30.050  1.00  0.00     0.031 A 
BRANCH  53  67
ATOM     67  C   UNL A   1      44.323  32.259  31.857  1.00  0.00    -0.014 A 
ATOM     68  C   UNL A   1      44.691  33.342  31.046  1.00  0.00     0.009 A 
ATOM     69  C   UNL A   1      44.178  32.455  33.239  1.00  0.00     0.009 A 
ATOM     70  C   UNL A   1      44.941  34.593  31.614  1.00  0.00     0.001 A 
ATOM     71  C   UNL A   1      44.412  33.711  33.801  1.00  0.00     0.001 A 
ATOM     72  C   UNL A   1      44.800  34.776  32.989  1.00  0.00     0.000 A 
ENDBRANCH  53  67
BRANCH  54  73
ATOM     73  C   UNL A   1      42.245  23.512  27.613  1.00  0.00    -0.014 A 
ATOM     74  C   UNL A   1      42.469  23.332  26.241  1.00  0.00     0.009 A 
ATOM     75  C   UNL A   1      41.749  22.443  28.374  1.00  0.00     0.009 A 
ATOM     76  C   UNL A   1      42.193  22.104  25.638  1.00  0.00     0.001 A 
ATOM     77  C   UNL A   1      41.486  21.212  27.769  1.00  0.00     0.001 A 
ATOM     78  C   UNL A   1      41.706  21.045  26.402  1.00  0.00     0.000 A 
ENDBRANCH  54  73
BRANCH  66  79
ATOM     79  C   UNL A   1      48.062  26.346  30.128  1.00  0.00    -0.014 A 
ATOM     80  C   UNL A   1      48.524  25.676  31.272  1.00  0.00     0.009 A 
ATOM     81  C   UNL A   1      48.929  26.525  29.040  1.00  0.00     0.009 A 
ATOM     82  C   UNL A   1      49.839  25.211  31.330  1.00  0.00     0.001 A 
ATOM     83  C   UNL A   1      50.239  26.047  29.097  1.00  0.00     0.001 A 
ATOM     84  C   UNL A   1      50.694  25.395  30.243  1.00  0.00     0.000 A 
ENDBRANCH  66  79
ENDBRANCH  40  41
ENDBRANCH  32  35
ENDBRANCH  30  31
ENDBRANCH   1  30
TORSDOF 15
ENDMDL
MODEL 3
REMARK VINA RESULT:     -11.6      3.847      7.332
REMARK SMILES COc1cccc([C@@H]2CN(C(=O)c3cnn(C)c3)C[C@H]2C(=O)NCCCNC(=O)c2ccc(-c3c4nc(c(-c5ccccc5)c5ccc([nH]5)c(-c5ccccc5)c5nc(c(-c6ccccc6)c6ccc3[nH]6)C=C5)C=C4)cc2)c1OC
REMARK SMILES IDX 25 1 24 2 23 3 21 4 22 5 20 7 8 8 9 9 10 10 19 11 7 12 3 13
REMARK SMILES IDX 4 14 78 15 5 16 6 17 2 18 1 19 79 20 80 21 11 22 12 23 13 24
REMARK SMILES IDX 14 25 18 26 15 27 16 28 17 29 26 30 27 31 28 32 29 34 30 35
REMARK SMILES IDX 31 36 77 37 32 38 76 39 33 40 34 41 35 42 70 43 36 44 75 45
REMARK SMILES IDX 69 46 71 47 37 48 74 49 68 50 67 51 38 53 60 54 45 55 59 56
REMARK SMILES IDX 46 57 49 58 58 59 72 60 47 61 48 62 57 64 73 65 50 66 39 67
REMARK SMILES IDX 40 68 44 69 41 70 43 71 42 72 61 73 62 74 66 75 63 76 65 77
REMARK SMILES IDX 64 78 51 79 52 80 56 81 53 82 55 83 54 84
REMARK H PARENT 23 6 27 33 71 52 49 63
REMARK Flexibility Score: inf
ROOT
ATOM      1  C   UNL A   1      39.347  21.804  26.046  1.00  0.00     0.042 C 
ENDROOT
BRANCH   1   2
ATOM      2  C   UNL A   1      38.033  22.566  25.911  1.00  0.00     0.117 C 
BRANCH   2   3
ATOM      3  N   UNL A   1      37.630  22.744  24.524  1.00  0.00    -0.356 N 
ATOM      4  C   UNL A   1      36.434  23.010  23.940  1.00  0.00     0.225 C 
ATOM      5  O   UNL A   1      36.440  23.117  22.709  1.00  0.00    -0.275 OA
ATOM      6  H   UNL A   1      38.371  22.654  23.883  1.00  0.00     0.163 HD
BRANCH   4   7
ATOM      7  C   UNL A   1      35.128  23.145  24.702  1.00  0.00     0.107 C 
ATOM      8  C   UNL A   1      34.034  23.887  23.912  1.00  0.00     0.057 C 
ATOM      9  C   UNL A   1      32.740  23.127  24.217  1.00  0.00     0.129 C 
ATOM     10  N   UNL A   1      33.170  21.788  24.583  1.00  0.00    -0.337 N 
ATOM     11  C   UNL A   1      34.519  21.815  25.127  1.00  0.00     0.134 C 
BRANCH   8  12
ATOM     12  C   UNL A   1      33.948  25.384  24.169  1.00  0.00     0.004 A 
ATOM     13  C   UNL A   1      33.664  27.699  23.457  1.00  0.00     0.161 A 
ATOM     14  C   UNL A   1      33.802  28.122  24.785  1.00  0.00     0.050 A 
ATOM     15  C   UNL A   1      33.755  26.332  23.138  1.00  0.00     0.164 A 
ATOM     16  C   UNL A   1      33.987  27.192  25.802  1.00  0.00     0.004 A 
ATOM     17  C   UNL A   1      34.054  25.834  25.498  1.00  0.00     0.008 A 
BRANCH  13  18
ATOM     18  O   UNL A   1      33.536  28.634  22.462  1.00  0.00    -0.493 OA
ATOM     19  C   UNL A   1      32.239  29.232  22.441  1.00  0.00     0.278 C 
ENDBRANCH  13  18
BRANCH  15  20
ATOM     20  O   UNL A   1      33.726  25.816  21.866  1.00  0.00    -0.493 OA
ATOM     21  C   UNL A   1      32.452  25.678  21.250  1.00  0.00     0.278 C 
ENDBRANCH  15  20
ENDBRANCH   8  12
BRANCH  10  22
ATOM     22  C   UNL A   1      32.386  20.657  24.750  1.00  0.00     0.257 C 
ATOM     23  O   UNL A   1      31.381  20.680  25.461  1.00  0.00    -0.269 OA
BRANCH  22  24
ATOM     24  C   UNL A   1      32.752  19.443  24.045  1.00  0.00     0.077 A 
ATOM     25  C   UNL A   1      32.239  19.007  22.801  1.00  0.00     0.149 A 
ATOM     26  C   UNL A   1      33.581  18.406  24.434  1.00  0.00     0.122 A 
ATOM     27  N   UNL A   1      32.762  17.845  22.400  1.00  0.00    -0.181 NA
ATOM     28  N   UNL A   1      33.578  17.505  23.410  1.00  0.00    -0.275 N 
ATOM     29  C   UNL A   1      34.344  16.285  23.323  1.00  0.00     0.173 C 
ENDBRANCH  22  24
ENDBRANCH  10  22
ENDBRANCH   4   7
ENDBRANCH   2   3
ENDBRANCH   1   2
BRANCH   1  30
ATOM     30  C   UNL A   1      40.433  22.547  26.818  1.00  0.00     0.118 C 
BRANCH  30  31
ATOM     31  N   UNL A   1      41.529  22.992  25.970  1.00  0.00    -0.352 N 
ATOM     32  C   UNL A   1      42.158  24.211  25.889  1.00  0.00     0.251 C 
ATOM     33  H   UNL A   1      41.876  22.308  25.353  1.00  0.00     0.163 HD
ATOM     34  O   UNL A   1      42.954  24.424  24.980  1.00  0.00    -0.269 OA
BRANCH  32  35
ATOM     35  C   UNL A   1      41.871  25.281  26.869  1.00  0.00     0.039 A 
ATOM     36  C   UNL A   1      40.881  25.059  27.833  1.00  0.00     0.014 A 
ATOM     37  C   UNL A   1      42.535  26.509  26.824  1.00  0.00     0.014 A 
ATOM     38  C   UNL A   1      40.617  26.032  28.800  1.00  0.00     0.010 A 
ATOM     39  C   UNL A   1      42.315  27.456  27.824  1.00  0.00     0.010 A 
ATOM     40  C   UNL A   1      41.361  27.221  28.826  1.00  0.00    -0.014 A 
BRANCH  40  41
ATOM     41  C   UNL A   1      41.176  28.226  29.902  1.00  0.00     0.031 A 
ATOM     42  C   UNL A   1      42.041  28.196  31.130  1.00  0.00     0.074 A 
ATOM     43  C   UNL A   1      40.173  29.120  29.811  1.00  0.00     0.049 A 
ATOM     44  N   UNL A   1      41.944  28.912  32.222  1.00  0.00    -0.248 NA
ATOM     45  C   UNL A   1      43.140  27.220  31.141  1.00  0.00     0.031 C 
ATOM     46  C   UNL A   1      39.246  29.247  28.685  1.00  0.00     0.029 A 
ATOM     47  N   UNL A   1      39.760  30.086  30.693  1.00  0.00    -0.354 N 
ATOM     48  C   UNL A   1      42.949  28.451  33.063  1.00  0.00     0.074 A 
ATOM     49  C   UNL A   1      43.631  27.384  32.362  1.00  0.00     0.031 C 
ATOM     50  C   UNL A   1      38.388  30.249  28.934  1.00  0.00     0.029 A 
ATOM     51  C   UNL A   1      38.678  30.806  30.251  1.00  0.00     0.049 A 
ATOM     52  H   UNL A   1      40.197  30.247  31.561  1.00  0.00     0.167 HD
ATOM     53  C   UNL A   1      43.279  28.881  34.303  1.00  0.00     0.031 A 
ATOM     54  C   UNL A   1      37.985  31.796  30.844  1.00  0.00     0.031 A 
ATOM     55  C   UNL A   1      42.634  29.964  34.993  1.00  0.00     0.049 A 
ATOM     56  C   UNL A   1      38.362  32.245  32.224  1.00  0.00     0.074 A 
ATOM     57  C   UNL A   1      42.958  30.523  36.217  1.00  0.00     0.029 A 
ATOM     58  N   UNL A   1      41.531  30.653  34.517  1.00  0.00    -0.354 N 
ATOM     59  N   UNL A   1      39.334  31.818  32.992  1.00  0.00    -0.248 NA
ATOM     60  C   UNL A   1      37.538  33.306  32.820  1.00  0.00     0.031 C 
ATOM     61  C   UNL A   1      42.031  31.536  36.495  1.00  0.00     0.029 A 
ATOM     62  C   UNL A   1      41.146  31.617  35.432  1.00  0.00     0.049 A 
ATOM     63  H   UNL A   1      41.087  30.482  33.655  1.00  0.00     0.167 HD
ATOM     64  C   UNL A   1      39.245  32.564  34.158  1.00  0.00     0.074 A 
ATOM     65  C   UNL A   1      38.128  33.472  33.996  1.00  0.00     0.031 C 
ATOM     66  C   UNL A   1      40.025  32.501  35.264  1.00  0.00     0.031 A 
BRANCH  53  67
ATOM     67  C   UNL A   1      44.394  28.158  35.000  1.00  0.00    -0.014 A 
ATOM     68  C   UNL A   1      45.725  28.576  34.862  1.00  0.00     0.009 A 
ATOM     69  C   UNL A   1      44.103  27.052  35.813  1.00  0.00     0.009 A 
ATOM     70  C   UNL A   1      46.751  27.878  35.502  1.00  0.00     0.001 A 
ATOM     71  C   UNL A   1      45.129  26.367  36.465  1.00  0.00     0.001 A 
ATOM     72  C   UNL A   1      46.452  26.776  36.303  1.00  0.00     0.000 A 
ENDBRANCH  53  67
BRANCH  54  73
ATOM     73  C   UNL A   1      36.858  32.434  30.123  1.00  0.00    -0.014 A 
ATOM     74  C   UNL A   1      35.556  31.941  30.283  1.00  0.00     0.009 A 
ATOM     75  C   UNL A   1      37.077  33.542  29.292  1.00  0.00     0.009 A 
ATOM     76  C   UNL A   1      34.489  32.544  29.613  1.00  0.00     0.001 A 
ATOM     77  C   UNL A   1      36.006  34.149  28.633  1.00  0.00     0.001 A 
ATOM     78  C   UNL A   1      34.714  33.647  28.793  1.00  0.00     0.000 A 
ENDBRANCH  54  73
BRANCH  66  79
ATOM     79  C   UNL A   1      39.697  33.448  36.377  1.00  0.00    -0.014 A 
ATOM     80  C   UNL A   1      40.196  34.760  36.372  1.00  0.00     0.009 A 
ATOM     81  C   UNL A   1      38.864  33.034  37.426  1.00  0.00     0.009 A 
ATOM     82  C   UNL A   1      39.879  35.636  37.412  1.00  0.00     0.001 A 
ATOM     83  C   UNL A   1      38.538  33.917  38.457  1.00  0.00     0.001 A 
ATOM     84  C   UNL A   1      39.049  35.215  38.451  1.00  0.00     0.000 A 
ENDBRANCH  66  79
ENDBRANCH  40  41
ENDBRANCH  32  35
ENDBRANCH  30  31
ENDBRANCH   1  30
TORSDOF 15
ENDMDL
