MODEL 1
REMARK VINA RESULT:     -10.5      0.000      0.000
REMARK SMILES CC[NH2+][C@@]1(C(=O)NCCCNC(=O)c2ccc(-c3c4nc(c(-c5ccccc5)c5ccc([nH]5)c(-c5ccccc5)c5nc(c(-c6ccccc6)c6ccc3[nH]6)C=C5)C=C4)cc2)CCC[C@@H]1CC[N@@H+](C)C1CCCC1
REMARK SMILES IDX 8 1 7 2 5 3 6 4 4 6 62 7 65 8 63 9 64 10 3 11 2 14 1 15
REMARK SMILES IDX 66 16 67 17 68 18 69 19 70 21 71 22 74 23 72 24 73 25 9 26
REMARK SMILES IDX 10 27 11 28 12 29 13 31 14 32 15 33 61 34 16 35 60 36 17 37
REMARK SMILES IDX 18 38 19 39 54 40 20 41 59 42 53 43 55 44 21 45 58 46 52 47
REMARK SMILES IDX 51 48 22 50 44 51 29 52 43 53 30 54 33 55 42 56 56 57 31 58
REMARK SMILES IDX 32 59 41 61 57 62 34 63 23 64 24 65 28 66 25 67 27 68 26 69
REMARK SMILES IDX 45 70 46 71 50 72 47 73 49 74 48 75 35 76 36 77 40 78 37 79
REMARK SMILES IDX 39 80 38 81
REMARK H PARENT 7 5 3 12 3 13 68 20 11 30 55 49 33 60
REMARK Flexibility Score: inf
ROOT
ATOM      1  C   UNL A   1      35.858  20.632  24.812  1.00  0.00     0.118 C 
ENDROOT
BRANCH   1   2
ATOM      2  N   UNL A   1      35.402  21.079  26.114  1.00  0.00    -0.351 N 
ATOM      3  C   UNL A   1      34.232  21.533  26.636  1.00  0.00     0.281 C 
ATOM      4  O   UNL A   1      34.326  21.785  27.849  1.00  0.00    -0.268 OA
ATOM      5  H   UNL A   1      36.119  21.046  26.788  1.00  0.00     0.163 HD
BRANCH   3   6
ATOM      6  C   UNL A   1      32.864  21.767  25.849  1.00  0.00     0.178 C 
ATOM      7  C   UNL A   1      32.345  20.503  25.126  1.00  0.00     0.079 C 
ATOM      8  C   UNL A   1      32.935  22.842  24.706  1.00  0.00     0.066 C 
ATOM      9  C   UNL A   1      32.578  20.678  23.635  1.00  0.00     0.008 C 
ATOM     10  C   UNL A   1      33.222  22.038  23.445  1.00  0.00     0.011 C 
BRANCH   6  11
ATOM     11  N   UNL A   1      31.850  22.264  26.838  1.00  0.00    -0.334 N 
ATOM     12  H   UNL A   1      31.541  21.467  27.396  1.00  0.00     0.347 HD
ATOM     13  H   UNL A   1      32.321  22.991  27.375  1.00  0.00     0.347 HD
BRANCH  11  14
ATOM     14  C   UNL A   1      30.660  22.899  26.268  1.00  0.00     0.257 C 
ATOM     15  C   UNL A   1      29.473  22.696  27.199  1.00  0.00     0.071 C 
ENDBRANCH  11  14
ENDBRANCH   6  11
BRANCH   8  16
ATOM     16  C   UNL A   1      33.714  24.156  25.028  1.00  0.00     0.072 C 
BRANCH  16  17
ATOM     17  C   UNL A   1      33.573  25.458  24.193  1.00  0.00     0.262 C 
BRANCH  17  18
ATOM     18  N   UNL A   1      33.965  26.821  24.646  1.00  0.00    -0.335 N 
ATOM     19  C   UNL A   1      33.676  27.754  23.542  1.00  0.00     0.332 C 
ATOM     20  H   UNL A   1      34.959  26.811  24.877  1.00  0.00     0.348 HD
BRANCH  18  21
ATOM     21  C   UNL A   1      33.307  27.247  25.875  1.00  0.00     0.183 C 
ATOM     22  C   UNL A   1      33.555  28.726  26.183  1.00  0.00     0.065 C 
ATOM     23  C   UNL A   1      31.776  27.216  26.019  1.00  0.00     0.065 C 
ATOM     24  C   UNL A   1      32.686  29.004  27.403  1.00  0.00     0.006 C 
ATOM     25  C   UNL A   1      31.562  27.969  27.337  1.00  0.00     0.006 C 
ENDBRANCH  18  21
ENDBRANCH  17  18
ENDBRANCH  16  17
ENDBRANCH   8  16
ENDBRANCH   3   6
ENDBRANCH   1   2
BRANCH   1  26
ATOM     26  C   UNL A   1      37.082  19.730  24.915  1.00  0.00     0.042 C 
BRANCH  26  27
ATOM     27  C   UNL A   1      38.350  20.428  25.374  1.00  0.00     0.118 C 
BRANCH  27  28
ATOM     28  N   UNL A   1      39.440  19.485  25.566  1.00  0.00    -0.352 N 
ATOM     29  C   UNL A   1      40.735  19.709  25.958  1.00  0.00     0.251 C 
ATOM     30  H   UNL A   1      39.215  18.544  25.386  1.00  0.00     0.163 HD
ATOM     31  O   UNL A   1      41.570  18.811  25.815  1.00  0.00    -0.269 OA
BRANCH  29  32
ATOM     32  C   UNL A   1      41.152  21.004  26.543  1.00  0.00     0.039 A 
ATOM     33  C   UNL A   1      41.670  21.994  25.699  1.00  0.00     0.014 A 
ATOM     34  C   UNL A   1      41.099  21.231  27.921  1.00  0.00     0.014 A 
ATOM     35  C   UNL A   1      42.095  23.215  26.230  1.00  0.00     0.010 A 
ATOM     36  C   UNL A   1      41.448  22.476  28.439  1.00  0.00     0.010 A 
ATOM     37  C   UNL A   1      41.968  23.475  27.603  1.00  0.00    -0.014 A 
BRANCH  37  38
ATOM     38  C   UNL A   1      42.409  24.762  28.197  1.00  0.00     0.031 A 
ATOM     39  C   UNL A   1      41.409  25.865  28.421  1.00  0.00     0.074 A 
ATOM     40  C   UNL A   1      43.711  24.967  28.469  1.00  0.00     0.049 A 
ATOM     41  N   UNL A   1      41.609  27.094  28.829  1.00  0.00    -0.248 NA
ATOM     42  C   UNL A   1      40.002  25.555  28.120  1.00  0.00     0.031 C 
ATOM     43  C   UNL A   1      44.784  23.991  28.272  1.00  0.00     0.029 A 
ATOM     44  N   UNL A   1      44.357  26.074  28.961  1.00  0.00    -0.354 N 
ATOM     45  C   UNL A   1      40.362  27.706  28.805  1.00  0.00     0.074 A 
ATOM     46  C   UNL A   1      39.419  26.732  28.301  1.00  0.00     0.031 C 
ATOM     47  C   UNL A   1      45.950  24.534  28.659  1.00  0.00     0.029 A 
ATOM     48  C   UNL A   1      45.715  25.909  29.088  1.00  0.00     0.049 A 
ATOM     49  H   UNL A   1      43.891  26.909  29.200  1.00  0.00     0.167 HD
ATOM     50  C   UNL A   1      40.025  28.962  29.185  1.00  0.00     0.031 A 
ATOM     51  C   UNL A   1      46.665  26.773  29.492  1.00  0.00     0.031 A 
ATOM     52  C   UNL A   1      40.958  29.923  29.708  1.00  0.00     0.049 A 
ATOM     53  C   UNL A   1      46.271  28.166  29.893  1.00  0.00     0.074 A 
ATOM     54  C   UNL A   1      40.706  31.199  30.183  1.00  0.00     0.029 A 
ATOM     55  N   UNL A   1      42.322  29.713  29.825  1.00  0.00    -0.354 N 
ATOM     56  N   UNL A   1      45.078  28.710  29.922  1.00  0.00    -0.248 NA
ATOM     57  C   UNL A   1      47.353  29.064  30.320  1.00  0.00     0.031 C 
ATOM     58  C   UNL A   1      41.927  31.779  30.542  1.00  0.00     0.029 A 
ATOM     59  C   UNL A   1      42.931  30.845  30.338  1.00  0.00     0.049 A 
ATOM     60  H   UNL A   1      42.790  28.882  29.578  1.00  0.00     0.167 HD
ATOM     61  C   UNL A   1      45.264  30.004  30.390  1.00  0.00     0.074 A 
ATOM     62  C   UNL A   1      46.680  30.159  30.648  1.00  0.00     0.031 C 
ATOM     63  C   UNL A   1      44.343  30.980  30.585  1.00  0.00     0.031 A 
BRANCH  50  64
ATOM     64  C   UNL A   1      38.585  29.369  29.039  1.00  0.00    -0.014 A 
ATOM     65  C   UNL A   1      38.091  29.885  27.829  1.00  0.00     0.009 A 
ATOM     66  C   UNL A   1      37.700  29.206  30.117  1.00  0.00     0.009 A 
ATOM     67  C   UNL A   1      36.752  30.267  27.716  1.00  0.00     0.001 A 
ATOM     68  C   UNL A   1      36.356  29.560  29.991  1.00  0.00     0.001 A 
ATOM     69  C   UNL A   1      35.886  30.100  28.795  1.00  0.00     0.000 A 
ENDBRANCH  50  64
BRANCH  51  70
ATOM     70  C   UNL A   1      48.087  26.342  29.543  1.00  0.00    -0.014 A 
ATOM     71  C   UNL A   1      48.616  25.773  30.712  1.00  0.00     0.009 A 
ATOM     72  C   UNL A   1      48.924  26.497  28.426  1.00  0.00     0.009 A 
ATOM     73  C   UNL A   1      49.958  25.389  30.769  1.00  0.00     0.001 A 
ATOM     74  C   UNL A   1      50.257  26.086  28.476  1.00  0.00     0.001 A 
ATOM     75  C   UNL A   1      50.776  25.540  29.649  1.00  0.00     0.000 A 
ENDBRANCH  51  70
BRANCH  63  76
ATOM     76  C   UNL A   1      44.835  32.292  31.124  1.00  0.00    -0.014 A 
ATOM     77  C   UNL A   1      45.066  33.384  30.275  1.00  0.00     0.009 A 
ATOM     78  C   UNL A   1      45.018  32.451  32.507  1.00  0.00     0.009 A 
ATOM     79  C   UNL A   1      45.495  34.605  30.798  1.00  0.00     0.001 A 
ATOM     80  C   UNL A   1      45.420  33.681  33.030  1.00  0.00     0.001 A 
ATOM     81  C   UNL A   1      45.665  34.754  32.175  1.00  0.00     0.000 A 
ENDBRANCH  63  76
ENDBRANCH  37  38
ENDBRANCH  29  32
ENDBRANCH  27  28
ENDBRANCH  26  27
ENDBRANCH   1  26
TORSDOF 16
ENDMDL
MODEL 2
REMARK VINA RESULT:     -10.5      4.085      8.770
REMARK SMILES CC[NH2+][C@@]1(C(=O)NCCCNC(=O)c2ccc(-c3c4nc(c(-c5ccccc5)c5ccc([nH]5)c(-c5ccccc5)c5nc(c(-c6ccccc6)c6ccc3[nH]6)C=C5)C=C4)cc2)CCC[C@@H]1CC[N@@H+](C)C1CCCC1
REMARK SMILES IDX 8 1 7 2 5 3 6 4 4 6 62 7 65 8 63 9 64 10 3 11 2 14 1 15
REMARK SMILES IDX 66 16 67 17 68 18 69 19 70 21 71 22 74 23 72 24 73 25 9 26
REMARK SMILES IDX 10 27 11 28 12 29 13 31 14 32 15 33 61 34 16 35 60 36 17 37
REMARK SMILES IDX 18 38 19 39 54 40 20 41 59 42 53 43 55 44 21 45 58 46 52 47
REMARK SMILES IDX 51 48 22 50 44 51 29 52 43 53 30 54 33 55 42 56 56 57 31 58
REMARK SMILES IDX 32 59 41 61 57 62 34 63 23 64 24 65 28 66 25 67 27 68 26 69
REMARK SMILES IDX 45 70 46 71 50 72 47 73 49 74 48 75 35 76 36 77 40 78 37 79
REMARK SMILES IDX 39 80 38 81
REMARK H PARENT 7 5 3 12 3 13 68 20 11 30 55 49 33 60
REMARK Flexibility Score: inf
ROOT
ATOM      1  C   UNL A   1      31.388  30.244  25.880  1.00  0.00     0.118 C 
ENDROOT
BRANCH   1   2
ATOM      2  N   UNL A   1      32.356  30.041  24.819  1.00  0.00    -0.351 N 
ATOM      3  C   UNL A   1      32.781  28.987  24.073  1.00  0.00     0.281 C 
ATOM      4  O   UNL A   1      33.647  29.317  23.246  1.00  0.00    -0.268 OA
ATOM      5  H   UNL A   1      32.823  30.875  24.581  1.00  0.00     0.163 HD
BRANCH   3   6
ATOM      6  C   UNL A   1      32.294  27.473  24.199  1.00  0.00     0.178 C 
ATOM      7  C   UNL A   1      33.455  26.459  24.313  1.00  0.00     0.079 C 
ATOM      8  C   UNL A   1      31.460  26.943  22.979  1.00  0.00     0.066 C 
ATOM      9  C   UNL A   1      33.571  25.720  22.991  1.00  0.00     0.008 C 
ATOM     10  C   UNL A   1      32.487  26.265  22.082  1.00  0.00     0.011 C 
BRANCH   6  11
ATOM     11  N   UNL A   1      31.395  27.383  25.399  1.00  0.00    -0.334 N 
ATOM     12  H   UNL A   1      31.726  28.060  26.088  1.00  0.00     0.347 HD
ATOM     13  H   UNL A   1      30.454  27.568  25.053  1.00  0.00     0.347 HD
BRANCH  11  14
ATOM     14  C   UNL A   1      31.330  26.075  26.051  1.00  0.00     0.257 C 
ATOM     15  C   UNL A   1      29.916  25.520  25.951  1.00  0.00     0.071 C 
ENDBRANCH  11  14
ENDBRANCH   6  11
BRANCH   8  16
ATOM     16  C   UNL A   1      30.381  27.909  22.395  1.00  0.00     0.072 C 
BRANCH  16  17
ATOM     17  C   UNL A   1      29.153  28.407  23.206  1.00  0.00     0.262 C 
BRANCH  17  18
ATOM     18  N   UNL A   1      27.869  28.882  22.621  1.00  0.00    -0.335 N 
ATOM     19  C   UNL A   1      26.781  28.391  23.488  1.00  0.00     0.332 C 
ATOM     20  H   UNL A   1      27.788  28.510  21.674  1.00  0.00     0.348 HD
BRANCH  18  21
ATOM     21  C   UNL A   1      27.793  30.328  22.455  1.00  0.00     0.183 C 
ATOM     22  C   UNL A   1      28.667  31.074  23.467  1.00  0.00     0.065 C 
ATOM     23  C   UNL A   1      28.267  31.013  21.163  1.00  0.00     0.065 C 
ATOM     24  C   UNL A   1      28.562  32.535  23.045  1.00  0.00     0.006 C 
ATOM     25  C   UNL A   1      28.228  32.496  21.553  1.00  0.00     0.006 C 
ENDBRANCH  18  21
ENDBRANCH  17  18
ENDBRANCH  16  17
ENDBRANCH   8  16
ENDBRANCH   3   6
ENDBRANCH   1   2
BRANCH   1  26
ATOM     26  C   UNL A   1      31.329  31.700  26.328  1.00  0.00     0.042 C 
BRANCH  26  27
ATOM     27  C   UNL A   1      32.627  32.239  26.905  1.00  0.00     0.118 C 
BRANCH  27  28
ATOM     28  N   UNL A   1      32.452  33.573  27.458  1.00  0.00    -0.352 N 
ATOM     29  C   UNL A   1      33.159  34.214  28.443  1.00  0.00     0.251 C 
ATOM     30  H   UNL A   1      31.713  34.094  27.067  1.00  0.00     0.163 HD
ATOM     31  O   UNL A   1      32.694  35.242  28.943  1.00  0.00    -0.269 OA
BRANCH  29  32
ATOM     32  C   UNL A   1      34.461  33.696  28.920  1.00  0.00     0.039 A 
ATOM     33  C   UNL A   1      35.626  34.049  28.227  1.00  0.00     0.014 A 
ATOM     34  C   UNL A   1      34.542  32.815  30.001  1.00  0.00     0.014 A 
ATOM     35  C   UNL A   1      36.865  33.553  28.640  1.00  0.00     0.010 A 
ATOM     36  C   UNL A   1      35.785  32.385  30.461  1.00  0.00     0.010 A 
ATOM     37  C   UNL A   1      36.958  32.732  29.775  1.00  0.00    -0.014 A 
BRANCH  37  38
ATOM     38  C   UNL A   1      38.260  32.190  30.241  1.00  0.00     0.031 A 
ATOM     39  C   UNL A   1      38.772  30.888  29.686  1.00  0.00     0.074 A 
ATOM     40  C   UNL A   1      38.946  32.828  31.208  1.00  0.00     0.049 A 
ATOM     41  N   UNL A   1      39.828  30.197  30.036  1.00  0.00    -0.248 NA
ATOM     42  C   UNL A   1      37.976  30.265  28.615  1.00  0.00     0.031 C 
ATOM     43  C   UNL A   1      38.545  34.082  31.849  1.00  0.00     0.029 A 
ATOM     44  N   UNL A   1      40.123  32.498  31.832  1.00  0.00    -0.354 N 
ATOM     45  C   UNL A   1      39.805  29.051  29.251  1.00  0.00     0.074 A 
ATOM     46  C   UNL A   1      38.609  29.115  28.439  1.00  0.00     0.031 C 
ATOM     47  C   UNL A   1      39.471  34.426  32.759  1.00  0.00     0.029 A 
ATOM     48  C   UNL A   1      40.505  33.397  32.798  1.00  0.00     0.049 A 
ATOM     49  H   UNL A   1      40.645  31.693  31.609  1.00  0.00     0.167 HD
ATOM     50  C   UNL A   1      40.707  28.041  29.196  1.00  0.00     0.031 A 
ATOM     51  C   UNL A   1      41.563  33.387  33.631  1.00  0.00     0.031 A 
ATOM     52  C   UNL A   1      41.907  27.989  29.985  1.00  0.00     0.049 A 
ATOM     53  C   UNL A   1      42.542  32.248  33.563  1.00  0.00     0.074 A 
ATOM     54  C   UNL A   1      42.918  27.043  29.955  1.00  0.00     0.029 A 
ATOM     55  N   UNL A   1      42.258  28.923  30.947  1.00  0.00    -0.354 N 
ATOM     56  N   UNL A   1      42.538  31.203  32.772  1.00  0.00    -0.248 NA
ATOM     57  C   UNL A   1      43.673  32.290  34.501  1.00  0.00     0.031 C 
ATOM     58  C   UNL A   1      43.857  27.380  30.936  1.00  0.00     0.029 A 
ATOM     59  C   UNL A   1      43.457  28.562  31.539  1.00  0.00     0.049 A 
ATOM     60  H   UNL A   1      41.733  29.723  31.176  1.00  0.00     0.167 HD
ATOM     61  C   UNL A   1      43.673  30.475  33.102  1.00  0.00     0.074 A 
ATOM     62  C   UNL A   1      44.352  31.206  34.151  1.00  0.00     0.031 C 
ATOM     63  C   UNL A   1      44.114  29.302  32.583  1.00  0.00     0.031 A 
BRANCH  50  64
ATOM     64  C   UNL A   1      40.421  26.906  28.252  1.00  0.00    -0.014 A 
ATOM     65  C   UNL A   1      40.922  26.906  26.939  1.00  0.00     0.009 A 
ATOM     66  C   UNL A   1      39.666  25.807  28.689  1.00  0.00     0.009 A 
ATOM     67  C   UNL A   1      40.637  25.847  26.073  1.00  0.00     0.001 A 
ATOM     68  C   UNL A   1      39.409  24.736  27.831  1.00  0.00     0.001 A 
ATOM     69  C   UNL A   1      39.886  24.762  26.521  1.00  0.00     0.000 A 
ENDBRANCH  50  64
BRANCH  51  70
ATOM     70  C   UNL A   1      41.756  34.497  34.601  1.00  0.00    -0.014 A 
ATOM     71  C   UNL A   1      41.226  34.409  35.897  1.00  0.00     0.009 A 
ATOM     72  C   UNL A   1      42.472  35.650  34.238  1.00  0.00     0.009 A 
ATOM     73  C   UNL A   1      41.388  35.461  36.802  1.00  0.00     0.001 A 
ATOM     74  C   UNL A   1      42.656  36.687  35.153  1.00  0.00     0.001 A 
ATOM     75  C   UNL A   1      42.107  36.597  36.431  1.00  0.00     0.000 A 
ENDBRANCH  51  70
BRANCH  63  76
ATOM     76  C   UNL A   1      45.400  28.751  33.127  1.00  0.00    -0.014 A 
ATOM     77  C   UNL A   1      45.405  27.839  34.193  1.00  0.00     0.009 A 
ATOM     78  C   UNL A   1      46.618  29.107  32.528  1.00  0.00     0.009 A 
ATOM     79  C   UNL A   1      46.609  27.313  34.665  1.00  0.00     0.001 A 
ATOM     80  C   UNL A   1      47.818  28.559  32.984  1.00  0.00     0.001 A 
ATOM     81  C   UNL A   1      47.813  27.668  34.057  1.00  0.00     0.000 A 
ENDBRANCH  63  76
ENDBRANCH  37  38
ENDBRANCH  29  32
ENDBRANCH  27  28
ENDBRANCH  26  27
ENDBRANCH   1  26
TORSDOF 16
ENDMDL
MODEL 3
REMARK VINA RESULT:     -10.5      3.486      8.659
REMARK SMILES CC[NH2+][C@@]1(C(=O)NCCCNC(=O)c2ccc(-c3c4nc(c(-c5ccccc5)c5ccc([nH]5)c(-c5ccccc5)c5nc(c(-c6ccccc6)c6ccc3[nH]6)C=C5)C=C4)cc2)CCC[C@@H]1CC[N@@H+](C)C1CCCC1
REMARK SMILES IDX 8 1 7 2 5 3 6 4 4 6 62 7 65 8 63 9 64 10 3 11 2 14 1 15
REMARK SMILES IDX 66 16 67 17 68 18 69 19 70 21 71 22 74 23 72 24 73 25 9 26
REMARK SMILES IDX 10 27 11 28 12 29 13 31 14 32 15 33 61 34 16 35 60 36 17 37
REMARK SMILES IDX 18 38 19 39 54 40 20 41 59 42 53 43 55 44 21 45 58 46 52 47
REMARK SMILES IDX 51 48 22 50 44 51 29 52 43 53 30 54 33 55 42 56 56 57 31 58
REMARK SMILES IDX 32 59 41 61 57 62 34 63 23 64 24 65 28 66 25 67 27 68 26 69
REMARK SMILES IDX 45 70 46 71 50 72 47 73 49 74 48 75 35 76 36 77 40 78 37 79
REMARK SMILES IDX 39 80 38 81
REMARK H PARENT 7 5 3 12 3 13 68 20 11 30 55 49 33 60
REMARK Flexibility Score: inf
ROOT
ATOM      1  C   UNL A   1      31.444  29.771  25.373  1.00  0.00     0.118 C 
ENDROOT
BRANCH   1   2
ATOM      2  N   UNL A   1      32.556  29.642  24.452  1.00  0.00    -0.351 N 
ATOM      3  C   UNL A   1      32.877  28.821  23.417  1.00  0.00     0.281 C 
ATOM      4  O   UNL A   1      33.967  29.120  22.902  1.00  0.00    -0.268 OA
ATOM      5  H   UNL A   1      33.254  30.317  24.618  1.00  0.00     0.163 HD
BRANCH   3   6
ATOM      6  C   UNL A   1      32.023  27.585  22.882  1.00  0.00     0.178 C 
ATOM      7  C   UNL A   1      30.566  27.951  22.520  1.00  0.00     0.079 C 
ATOM      8  C   UNL A   1      31.863  26.401  23.902  1.00  0.00     0.066 C 
ATOM      9  C   UNL A   1      29.653  27.391  23.597  1.00  0.00     0.008 C 
ATOM     10  C   UNL A   1      30.539  26.679  24.601  1.00  0.00     0.011 C 
BRANCH   6  11
ATOM     11  N   UNL A   1      32.738  27.021  21.687  1.00  0.00    -0.334 N 
ATOM     12  H   UNL A   1      32.568  27.646  20.898  1.00  0.00     0.347 HD
ATOM     13  H   UNL A   1      33.717  26.951  21.960  1.00  0.00     0.347 HD
BRANCH  11  14
ATOM     14  C   UNL A   1      32.340  25.672  21.282  1.00  0.00     0.257 C 
ATOM     15  C   UNL A   1      32.511  25.515  19.778  1.00  0.00     0.071 C 
ENDBRANCH  11  14
ENDBRANCH   6  11
BRANCH   8  16
ATOM     16  C   UNL A   1      33.137  25.991  24.705  1.00  0.00     0.072 C 
BRANCH  16  17
ATOM     17  C   UNL A   1      33.165  24.814  25.719  1.00  0.00     0.262 C 
BRANCH  17  18
ATOM     18  N   UNL A   1      33.382  23.383  25.372  1.00  0.00    -0.335 N 
ATOM     19  C   UNL A   1      32.440  23.043  24.290  1.00  0.00     0.332 C 
ATOM     20  H   UNL A   1      33.211  22.819  26.206  1.00  0.00     0.348 HD
BRANCH  18  21
ATOM     21  C   UNL A   1      34.753  23.068  24.990  1.00  0.00     0.183 C 
ATOM     22  C   UNL A   1      34.970  23.167  23.478  1.00  0.00     0.065 C 
ATOM     23  C   UNL A   1      35.936  23.926  25.468  1.00  0.00     0.065 C 
ATOM     24  C   UNL A   1      36.468  22.944  23.302  1.00  0.00     0.006 C 
ATOM     25  C   UNL A   1      37.094  23.372  24.629  1.00  0.00     0.006 C 
ENDBRANCH  18  21
ENDBRANCH  17  18
ENDBRANCH  16  17
ENDBRANCH   8  16
ENDBRANCH   3   6
ENDBRANCH   1   2
BRANCH   1  26
ATOM     26  C   UNL A   1      31.290  31.198  25.886  1.00  0.00     0.042 C 
BRANCH  26  27
ATOM     27  C   UNL A   1      32.329  31.620  26.910  1.00  0.00     0.118 C 
BRANCH  27  28
ATOM     28  N   UNL A   1      32.197  33.027  27.257  1.00  0.00    -0.352 N 
ATOM     29  C   UNL A   1      32.961  33.800  28.093  1.00  0.00     0.251 C 
ATOM     30  H   UNL A   1      31.443  33.494  26.828  1.00  0.00     0.163 HD
ATOM     31  O   UNL A   1      32.534  34.902  28.450  1.00  0.00    -0.269 OA
BRANCH  29  32
ATOM     32  C   UNL A   1      34.283  33.339  28.577  1.00  0.00     0.039 A 
ATOM     33  C   UNL A   1      35.429  33.689  27.854  1.00  0.00     0.014 A 
ATOM     34  C   UNL A   1      34.399  32.514  29.698  1.00  0.00     0.014 A 
ATOM     35  C   UNL A   1      36.686  33.245  28.274  1.00  0.00     0.010 A 
ATOM     36  C   UNL A   1      35.658  32.138  30.162  1.00  0.00     0.010 A 
ATOM     37  C   UNL A   1      36.814  32.482  29.445  1.00  0.00    -0.014 A 
BRANCH  37  38
ATOM     38  C   UNL A   1      38.134  31.997  29.920  1.00  0.00     0.031 A 
ATOM     39  C   UNL A   1      38.679  30.689  29.413  1.00  0.00     0.074 A 
ATOM     40  C   UNL A   1      38.811  32.693  30.853  1.00  0.00     0.049 A 
ATOM     41  N   UNL A   1      39.757  30.042  29.780  1.00  0.00    -0.248 NA
ATOM     42  C   UNL A   1      37.892  30.000  28.377  1.00  0.00     0.031 C 
ATOM     43  C   UNL A   1      38.380  33.961  31.446  1.00  0.00     0.029 A 
ATOM     44  N   UNL A   1      40.003  32.424  31.478  1.00  0.00    -0.354 N 
ATOM     45  C   UNL A   1      39.760  28.864  29.044  1.00  0.00     0.074 A 
ATOM     46  C   UNL A   1      38.556  28.861  28.242  1.00  0.00     0.031 C 
ATOM     47  C   UNL A   1      39.304  34.369  32.331  1.00  0.00     0.029 A 
ATOM     48  C   UNL A   1      40.367  33.372  32.402  1.00  0.00     0.049 A 
ATOM     49  H   UNL A   1      40.545  31.625  31.283  1.00  0.00     0.167 HD
ATOM     50  C   UNL A   1      40.690  27.880  29.021  1.00  0.00     0.031 A 
ATOM     51  C   UNL A   1      41.432  33.426  33.224  1.00  0.00     0.031 A 
ATOM     52  C   UNL A   1      41.899  27.894  29.800  1.00  0.00     0.049 A 
ATOM     53  C   UNL A   1      42.443  32.314  33.193  1.00  0.00     0.074 A 
ATOM     54  C   UNL A   1      42.936  26.977  29.798  1.00  0.00     0.029 A 
ATOM     55  N   UNL A   1      42.231  28.876  30.719  1.00  0.00    -0.354 N 
ATOM     56  N   UNL A   1      42.461  31.237  32.446  1.00  0.00    -0.248 NA
ATOM     57  C   UNL A   1      43.581  32.427  34.117  1.00  0.00     0.031 C 
ATOM     58  C   UNL A   1      43.874  27.380  30.754  1.00  0.00     0.029 A 
ATOM     59  C   UNL A   1      43.445  28.574  31.312  1.00  0.00     0.049 A 
ATOM     60  H   UNL A   1      41.685  29.670  30.920  1.00  0.00     0.167 HD
ATOM     61  C   UNL A   1      43.620  30.556  32.794  1.00  0.00     0.074 A 
ATOM     62  C   UNL A   1      44.287  31.349  33.805  1.00  0.00     0.031 C 
ATOM     63  C   UNL A   1      44.090  29.375  32.319  1.00  0.00     0.031 A 
BRANCH  50  64
ATOM     64  C   UNL A   1      40.429  26.699  28.127  1.00  0.00    -0.014 A 
ATOM     65  C   UNL A   1      40.949  26.642  26.824  1.00  0.00     0.009 A 
ATOM     66  C   UNL A   1      39.677  25.614  28.605  1.00  0.00     0.009 A 
ATOM     67  C   UNL A   1      40.687  25.541  26.004  1.00  0.00     0.001 A 
ATOM     68  C   UNL A   1      39.442  24.502  27.794  1.00  0.00     0.001 A 
ATOM     69  C   UNL A   1      39.938  24.471  26.491  1.00  0.00     0.000 A 
ENDBRANCH  50  64
BRANCH  51  70
ATOM     70  C   UNL A   1      41.602  34.580  34.145  1.00  0.00    -0.014 A 
ATOM     71  C   UNL A   1      41.044  34.551  35.432  1.00  0.00     0.009 A 
ATOM     72  C   UNL A   1      42.323  35.717  33.745  1.00  0.00     0.009 A 
ATOM     73  C   UNL A   1      41.184  35.644  36.291  1.00  0.00     0.001 A 
ATOM     74  C   UNL A   1      42.486  36.796  34.615  1.00  0.00     0.001 A 
ATOM     75  C   UNL A   1      41.910  36.763  35.884  1.00  0.00     0.000 A 
ENDBRANCH  51  70
BRANCH  63  76
ATOM     76  C   UNL A   1      45.396  28.883  32.872  1.00  0.00    -0.014 A 
ATOM     77  C   UNL A   1      46.616  29.265  32.296  1.00  0.00     0.009 A 
ATOM     78  C   UNL A   1      45.406  28.073  34.018  1.00  0.00     0.009 A 
ATOM     79  C   UNL A   1      47.822  28.822  32.843  1.00  0.00     0.001 A 
ATOM     80  C   UNL A   1      46.613  27.654  34.578  1.00  0.00     0.001 A 
ATOM     81  C   UNL A   1      47.820  28.024  33.986  1.00  0.00     0.000 A 
ENDBRANCH  63  76
ENDBRANCH  37  38
ENDBRANCH  29  32
ENDBRANCH  27  28
ENDBRANCH  26  27
ENDBRANCH   1  26
TORSDOF 16
ENDMDL
