MODEL 1
REMARK VINA RESULT:     -12.6      0.000      0.000
REMARK SMILES Cc1ccc(S(=O)(=O)N(CC(=O)NCCCNC(=O)c2ccc(-c3c4nc(c(-c5ccccc5)c5ccc([nH]5)c(-c5ccccc5)c5nc(c(-c6ccccc6)c6ccc3[nH]6)C=C5)C=C4)cc2)c2cc(Cl)cc(Cl)c2)cc1
REMARK SMILES IDX 14 1 13 2 11 3 12 4 10 6 9 7 6 8 7 9 8 10 5 11 1 12 2 13
REMARK SMILES IDX 3 14 77 15 4 16 76 17 68 18 69 19 75 20 70 21 73 22 71 23
REMARK SMILES IDX 72 24 74 25 15 26 16 27 17 28 18 29 19 31 20 32 21 33 67 34
REMARK SMILES IDX 22 35 66 36 23 37 24 38 25 39 60 40 26 41 65 42 59 43 61 44
REMARK SMILES IDX 27 45 64 46 58 47 57 48 28 50 50 51 35 52 49 53 36 54 39 55
REMARK SMILES IDX 48 56 62 57 37 58 38 59 47 61 63 62 40 63 29 64 30 65 34 66
REMARK SMILES IDX 31 67 33 68 32 69 51 70 52 71 56 72 53 73 55 74 54 75 41 76
REMARK SMILES IDX 42 77 46 78 43 79 45 80 44 81
REMARK H PARENT 13 5 17 30 61 49 39 60
REMARK Flexibility Score: inf
ROOT
ATOM      1  C   UNL A   1      37.943  21.704  25.533  1.00  0.00     0.117 C 
ENDROOT
BRANCH   1   2
ATOM      2  N   UNL A   1      37.346  22.062  24.257  1.00  0.00    -0.354 N 
ATOM      3  C   UNL A   1      36.355  22.950  23.944  1.00  0.00     0.240 C 
ATOM      4  O   UNL A   1      36.245  23.253  22.751  1.00  0.00    -0.273 OA
ATOM      5  H   UNL A   1      37.720  21.583  23.483  1.00  0.00     0.163 HD
BRANCH   3   6
ATOM      6  C   UNL A   1      35.400  23.563  24.967  1.00  0.00     0.235 C 
BRANCH   6   7
ATOM      7  N   UNL A   1      33.983  23.642  24.517  1.00  0.00    -0.257 N 
BRANCH   7   8
ATOM      8  S   UNL A   1      32.896  22.459  25.161  1.00  0.00     0.264 S 
ATOM      9  O   UNL A   1      31.599  22.774  24.582  1.00  0.00    -0.201 OA
ATOM     10  O   UNL A   1      33.075  22.435  26.595  1.00  0.00    -0.201 OA
BRANCH   8  11
ATOM     11  C   UNL A   1      33.285  20.794  24.591  1.00  0.00     0.088 A 
ATOM     12  C   UNL A   1      33.861  16.639  23.506  1.00  0.00     0.044 C 
ATOM     13  C   UNL A   1      33.676  18.092  23.837  1.00  0.00    -0.051 A 
ATOM     14  C   UNL A   1      32.533  18.786  23.428  1.00  0.00     0.005 A 
ATOM     15  C   UNL A   1      34.615  18.754  24.626  1.00  0.00     0.005 A 
ATOM     16  C   UNL A   1      32.344  20.131  23.787  1.00  0.00     0.022 A 
ATOM     17  C   UNL A   1      34.402  20.076  25.029  1.00  0.00     0.022 A 
ENDBRANCH   8  11
ENDBRANCH   7   8
BRANCH   7  18
ATOM     18  C   UNL A   1      33.513  25.054  24.552  1.00  0.00     0.055 A 
ATOM     19  C   UNL A   1      33.759  25.860  23.424  1.00  0.00     0.047 A 
ATOM     20  C   UNL A   1      33.019  25.684  25.700  1.00  0.00     0.047 A 
ATOM     21  C   UNL A   1      33.587  27.246  23.469  1.00  0.00     0.044 A 
ATOM     22  C   UNL A   1      32.812  27.070  25.722  1.00  0.00     0.044 A 
ATOM     23  Cl  UNL A   1      34.015  28.202  22.103  1.00  0.00    -0.084 Cl
ATOM     24  C   UNL A   1      33.117  27.861  24.619  1.00  0.00     0.041 A 
ATOM     25  Cl  UNL A   1      32.212  27.820  27.151  1.00  0.00    -0.084 Cl
ENDBRANCH   7  18
ENDBRANCH   6   7
ENDBRANCH   3   6
ENDBRANCH   1   2
BRANCH   1  26
ATOM     26  C   UNL A   1      38.904  22.731  26.108  1.00  0.00     0.042 C 
BRANCH  26  27
ATOM     27  C   UNL A   1      40.035  22.125  26.912  1.00  0.00     0.118 C 
BRANCH  27  28
ATOM     28  N   UNL A   1      40.841  21.159  26.167  1.00  0.00    -0.352 N 
ATOM     29  C   UNL A   1      42.216  21.027  26.073  1.00  0.00     0.251 C 
ATOM     30  H   UNL A   1      40.324  20.499  25.650  1.00  0.00     0.163 HD
ATOM     31  O   UNL A   1      42.699  20.135  25.380  1.00  0.00    -0.269 OA
BRANCH  29  32
ATOM     32  C   UNL A   1      43.095  21.828  26.961  1.00  0.00     0.039 A 
ATOM     33  C   UNL A   1      42.753  21.813  28.319  1.00  0.00     0.014 A 
ATOM     34  C   UNL A   1      43.838  22.872  26.433  1.00  0.00     0.014 A 
ATOM     35  C   UNL A   1      42.801  23.002  29.026  1.00  0.00     0.010 A 
ATOM     36  C   UNL A   1      43.730  24.086  27.058  1.00  0.00     0.010 A 
ATOM     37  C   UNL A   1      43.136  24.150  28.320  1.00  0.00    -0.014 A 
BRANCH  37  38
ATOM     38  C   UNL A   1      42.957  25.489  28.832  1.00  0.00     0.031 A 
ATOM     39  C   UNL A   1      41.790  26.224  28.343  1.00  0.00     0.074 A 
ATOM     40  C   UNL A   1      43.774  25.940  29.806  1.00  0.00     0.049 A 
ATOM     41  N   UNL A   1      41.677  27.501  28.373  1.00  0.00    -0.248 NA
ATOM     42  C   UNL A   1      40.665  25.557  27.688  1.00  0.00     0.031 C 
ATOM     43  C   UNL A   1      43.617  27.110  30.662  1.00  0.00     0.029 A 
ATOM     44  N   UNL A   1      45.074  25.500  30.063  1.00  0.00    -0.354 N 
ATOM     45  C   UNL A   1      40.363  27.784  28.085  1.00  0.00     0.074 A 
ATOM     46  C   UNL A   1      39.824  26.578  27.517  1.00  0.00     0.031 C 
ATOM     47  C   UNL A   1      44.825  27.467  31.134  1.00  0.00     0.029 A 
ATOM     48  C   UNL A   1      45.808  26.636  30.457  1.00  0.00     0.049 A 
ATOM     49  H   UNL A   1      45.410  24.579  29.985  1.00  0.00     0.167 HD
ATOM     50  C   UNL A   1      39.851  28.958  28.542  1.00  0.00     0.031 A 
ATOM     51  C   UNL A   1      46.802  27.113  29.646  1.00  0.00     0.031 A 
ATOM     52  C   UNL A   1      40.914  29.791  29.107  1.00  0.00     0.049 A 
ATOM     53  C   UNL A   1      46.499  28.497  29.106  1.00  0.00     0.074 A 
ATOM     54  C   UNL A   1      41.319  30.050  30.405  1.00  0.00     0.029 A 
ATOM     55  N   UNL A   1      41.971  30.170  28.284  1.00  0.00    -0.354 N 
ATOM     56  N   UNL A   1      45.301  29.011  29.017  1.00  0.00    -0.248 NA
ATOM     57  C   UNL A   1      47.531  29.410  28.633  1.00  0.00     0.031 C 
ATOM     58  C   UNL A   1      42.660  30.530  30.356  1.00  0.00     0.029 A 
ATOM     59  C   UNL A   1      43.050  30.602  29.030  1.00  0.00     0.049 A 
ATOM     60  H   UNL A   1      41.951  30.136  27.300  1.00  0.00     0.167 HD
ATOM     61  C   UNL A   1      45.377  30.292  28.528  1.00  0.00     0.074 A 
ATOM     62  C   UNL A   1      46.799  30.488  28.299  1.00  0.00     0.031 C 
ATOM     63  C   UNL A   1      44.262  31.073  28.357  1.00  0.00     0.031 A 
BRANCH  50  64
ATOM     64  C   UNL A   1      38.376  29.221  28.737  1.00  0.00    -0.014 A 
ATOM     65  C   UNL A   1      37.612  29.643  27.634  1.00  0.00     0.009 A 
ATOM     66  C   UNL A   1      37.692  29.165  29.964  1.00  0.00     0.009 A 
ATOM     67  C   UNL A   1      36.268  30.026  27.761  1.00  0.00     0.001 A 
ATOM     68  C   UNL A   1      36.352  29.549  30.102  1.00  0.00     0.001 A 
ATOM     69  C   UNL A   1      35.640  29.989  28.999  1.00  0.00     0.000 A 
ENDBRANCH  50  64
BRANCH  51  70
ATOM     70  C   UNL A   1      47.504  26.021  28.899  1.00  0.00    -0.014 A 
ATOM     71  C   UNL A   1      47.101  25.776  27.565  1.00  0.00     0.009 A 
ATOM     72  C   UNL A   1      48.771  25.577  29.301  1.00  0.00     0.009 A 
ATOM     73  C   UNL A   1      48.008  25.284  26.621  1.00  0.00     0.001 A 
ATOM     74  C   UNL A   1      49.662  25.047  28.356  1.00  0.00     0.001 A 
ATOM     75  C   UNL A   1      49.303  24.958  27.011  1.00  0.00     0.000 A 
ENDBRANCH  51  70
BRANCH  63  76
ATOM     76  C   UNL A   1      44.162  32.378  27.582  1.00  0.00    -0.014 A 
ATOM     77  C   UNL A   1      44.059  33.654  28.144  1.00  0.00     0.009 A 
ATOM     78  C   UNL A   1      44.259  32.344  26.168  1.00  0.00     0.009 A 
ATOM     79  C   UNL A   1      44.044  34.815  27.353  1.00  0.00     0.001 A 
ATOM     80  C   UNL A   1      44.296  33.495  25.376  1.00  0.00     0.001 A 
ATOM     81  C   UNL A   1      44.178  34.736  25.972  1.00  0.00     0.000 A 
ENDBRANCH  63  76
ENDBRANCH  37  38
ENDBRANCH  29  32
ENDBRANCH  27  28
ENDBRANCH  26  27
ENDBRANCH   1  26
TORSDOF 14
ENDMDL
MODEL 2
REMARK VINA RESULT:     -12.3      3.632      8.594
REMARK SMILES Cc1ccc(S(=O)(=O)N(CC(=O)NCCCNC(=O)c2ccc(-c3c4nc(c(-c5ccccc5)c5ccc([nH]5)c(-c5ccccc5)c5nc(c(-c6ccccc6)c6ccc3[nH]6)C=C5)C=C4)cc2)c2cc(Cl)cc(Cl)c2)cc1
REMARK SMILES IDX 14 1 13 2 11 3 12 4 10 6 9 7 6 8 7 9 8 10 5 11 1 12 2 13
REMARK SMILES IDX 3 14 77 15 4 16 76 17 68 18 69 19 75 20 70 21 73 22 71 23
REMARK SMILES IDX 72 24 74 25 15 26 16 27 17 28 18 29 19 31 20 32 21 33 67 34
REMARK SMILES IDX 22 35 66 36 23 37 24 38 25 39 60 40 26 41 65 42 59 43 61 44
REMARK SMILES IDX 27 45 64 46 58 47 57 48 28 50 50 51 35 52 49 53 36 54 39 55
REMARK SMILES IDX 48 56 62 57 37 58 38 59 47 61 63 62 40 63 29 64 30 65 34 66
REMARK SMILES IDX 31 67 33 68 32 69 51 70 52 71 56 72 53 73 55 74 54 75 41 76
REMARK SMILES IDX 42 77 46 78 43 79 45 80 44 81
REMARK H PARENT 13 5 17 30 61 49 39 60
REMARK Flexibility Score: inf
ROOT
ATOM      1  C   UNL A   1      32.472  30.456  26.327  1.00  0.00     0.117 C 
ENDROOT
BRANCH   1   2
ATOM      2  N   UNL A   1      31.765  29.285  26.820  1.00  0.00    -0.354 N 
ATOM      3  C   UNL A   1      32.059  27.953  26.731  1.00  0.00     0.240 C 
ATOM      4  O   UNL A   1      31.429  27.200  27.482  1.00  0.00    -0.273 OA
ATOM      5  H   UNL A   1      30.931  29.485  27.302  1.00  0.00     0.163 HD
BRANCH   3   6
ATOM      6  C   UNL A   1      33.093  27.366  25.772  1.00  0.00     0.235 C 
BRANCH   6   7
ATOM      7  N   UNL A   1      32.635  26.156  25.037  1.00  0.00    -0.257 N 
BRANCH   7   8
ATOM      8  S   UNL A   1      32.279  26.356  23.355  1.00  0.00     0.264 S 
ATOM      9  O   UNL A   1      31.888  25.036  22.885  1.00  0.00    -0.201 OA
ATOM     10  O   UNL A   1      33.393  27.051  22.751  1.00  0.00    -0.201 OA
BRANCH   8  11
ATOM     11  C   UNL A   1      30.841  27.409  23.083  1.00  0.00     0.088 A 
ATOM     12  C   UNL A   1      27.540  30.201  22.805  1.00  0.00     0.044 C 
ATOM     13  C   UNL A   1      28.682  29.228  22.852  1.00  0.00    -0.051 A 
ATOM     14  C   UNL A   1      29.985  29.627  22.538  1.00  0.00     0.005 A 
ATOM     15  C   UNL A   1      28.469  27.920  23.285  1.00  0.00     0.005 A 
ATOM     16  C   UNL A   1      31.055  28.723  22.636  1.00  0.00     0.022 A 
ATOM     17  C   UNL A   1      29.541  27.035  23.435  1.00  0.00     0.022 A 
ENDBRANCH   8  11
ENDBRANCH   7   8
BRANCH   7  18
ATOM     18  C   UNL A   1      33.485  24.987  25.393  1.00  0.00     0.055 A 
ATOM     19  C   UNL A   1      32.968  24.048  26.307  1.00  0.00     0.047 A 
ATOM     20  C   UNL A   1      34.832  24.863  25.033  1.00  0.00     0.047 A 
ATOM     21  C   UNL A   1      33.784  23.074  26.888  1.00  0.00     0.044 A 
ATOM     22  C   UNL A   1      35.632  23.857  25.592  1.00  0.00     0.044 A 
ATOM     23  Cl  UNL A   1      33.134  22.026  28.089  1.00  0.00    -0.084 Cl
ATOM     24  C   UNL A   1      35.122  22.975  26.539  1.00  0.00     0.041 A 
ATOM     25  Cl  UNL A   1      37.288  23.734  25.137  1.00  0.00    -0.084 Cl
ENDBRANCH   7  18
ENDBRANCH   6   7
ENDBRANCH   3   6
ENDBRANCH   1   2
BRANCH   1  26
ATOM     26  C   UNL A   1      33.350  31.158  27.349  1.00  0.00     0.042 C 
BRANCH  26  27
ATOM     27  C   UNL A   1      34.681  30.475  27.583  1.00  0.00     0.118 C 
BRANCH  27  28
ATOM     28  N   UNL A   1      35.713  31.357  28.126  1.00  0.00    -0.352 N 
ATOM     29  C   UNL A   1      37.001  31.072  28.547  1.00  0.00     0.251 C 
ATOM     30  H   UNL A   1      35.450  32.303  28.205  1.00  0.00     0.163 HD
ATOM     31  O   UNL A   1      37.717  31.970  28.980  1.00  0.00    -0.269 OA
BRANCH  29  32
ATOM     32  C   UNL A   1      37.579  29.729  28.289  1.00  0.00     0.039 A 
ATOM     33  C   UNL A   1      37.555  28.845  29.375  1.00  0.00     0.014 A 
ATOM     34  C   UNL A   1      38.497  29.561  27.263  1.00  0.00     0.014 A 
ATOM     35  C   UNL A   1      38.675  28.071  29.622  1.00  0.00     0.010 A 
ATOM     36  C   UNL A   1      39.675  28.940  27.583  1.00  0.00     0.010 A 
ATOM     37  C   UNL A   1      39.779  28.266  28.802  1.00  0.00    -0.014 A 
BRANCH  37  38
ATOM     38  C   UNL A   1      41.098  27.758  29.096  1.00  0.00     0.031 A 
ATOM     39  C   UNL A   1      41.379  26.385  28.672  1.00  0.00     0.074 A 
ATOM     40  C   UNL A   1      42.027  28.587  29.615  1.00  0.00     0.049 A 
ATOM     41  N   UNL A   1      42.309  25.654  29.164  1.00  0.00    -0.248 NA
ATOM     42  C   UNL A   1      40.550  25.688  27.689  1.00  0.00     0.031 C 
ATOM     43  C   UNL A   1      43.468  28.392  29.724  1.00  0.00     0.029 A 
ATOM     44  N   UNL A   1      41.780  29.736  30.367  1.00  0.00    -0.354 N 
ATOM     45  C   UNL A   1      42.426  24.561  28.340  1.00  0.00     0.074 A 
ATOM     46  C   UNL A   1      41.226  24.547  27.546  1.00  0.00     0.031 C 
ATOM     47  C   UNL A   1      43.941  29.193  30.696  1.00  0.00     0.029 A 
ATOM     48  C   UNL A   1      42.790  29.797  31.348  1.00  0.00     0.049 A 
ATOM     49  H   UNL A   1      41.045  30.379  30.237  1.00  0.00     0.167 HD
ATOM     50  C   UNL A   1      43.621  23.913  28.307  1.00  0.00     0.031 A 
ATOM     51  C   UNL A   1      42.464  29.623  32.665  1.00  0.00     0.031 A 
ATOM     52  C   UNL A   1      44.509  24.431  29.350  1.00  0.00     0.049 A 
ATOM     53  C   UNL A   1      43.086  28.375  33.260  1.00  0.00     0.074 A 
ATOM     54  C   UNL A   1      45.568  25.322  29.329  1.00  0.00     0.029 A 
ATOM     55  N   UNL A   1      44.100  24.340  30.677  1.00  0.00    -0.354 N 
ATOM     56  N   UNL A   1      43.495  27.348  32.564  1.00  0.00    -0.248 NA
ATOM     57  C   UNL A   1      43.302  28.198  34.690  1.00  0.00     0.031 C 
ATOM     58  C   UNL A   1      45.749  25.816  30.654  1.00  0.00     0.029 A 
ATOM     59  C   UNL A   1      44.830  25.193  31.481  1.00  0.00     0.049 A 
ATOM     60  H   UNL A   1      43.384  23.745  31.001  1.00  0.00     0.167 HD
ATOM     61  C   UNL A   1      44.046  26.407  33.398  1.00  0.00     0.074 A 
ATOM     62  C   UNL A   1      43.893  26.990  34.721  1.00  0.00     0.031 C 
ATOM     63  C   UNL A   1      44.577  25.235  32.923  1.00  0.00     0.031 A 
BRANCH  50  64
ATOM     64  C   UNL A   1      44.078  23.033  27.168  1.00  0.00    -0.014 A 
ATOM     65  C   UNL A   1      45.356  23.244  26.620  1.00  0.00     0.009 A 
ATOM     66  C   UNL A   1      43.298  22.052  26.531  1.00  0.00     0.009 A 
ATOM     67  C   UNL A   1      45.804  22.553  25.484  1.00  0.00     0.001 A 
ATOM     68  C   UNL A   1      43.734  21.360  25.392  1.00  0.00     0.001 A 
ATOM     69  C   UNL A   1      44.987  21.617  24.863  1.00  0.00     0.000 A 
ENDBRANCH  50  64
BRANCH  51  70
ATOM     70  C   UNL A   1      41.105  30.161  32.993  1.00  0.00    -0.014 A 
ATOM     71  C   UNL A   1      40.849  31.520  32.695  1.00  0.00     0.009 A 
ATOM     72  C   UNL A   1      40.011  29.298  33.149  1.00  0.00     0.009 A 
ATOM     73  C   UNL A   1      39.559  31.952  32.371  1.00  0.00     0.001 A 
ATOM     74  C   UNL A   1      38.715  29.750  32.860  1.00  0.00     0.001 A 
ATOM     75  C   UNL A   1      38.498  31.054  32.414  1.00  0.00     0.000 A 
ENDBRANCH  51  70
BRANCH  63  76
ATOM     76  C   UNL A   1      44.960  24.003  33.730  1.00  0.00    -0.014 A 
ATOM     77  C   UNL A   1      44.117  22.929  34.027  1.00  0.00     0.009 A 
ATOM     78  C   UNL A   1      46.302  23.860  34.165  1.00  0.00     0.009 A 
ATOM     79  C   UNL A   1      44.576  21.795  34.719  1.00  0.00     0.001 A 
ATOM     80  C   UNL A   1      46.779  22.715  34.808  1.00  0.00     0.001 A 
ATOM     81  C   UNL A   1      45.909  21.681  35.095  1.00  0.00     0.000 A 
ENDBRANCH  63  76
ENDBRANCH  37  38
ENDBRANCH  29  32
ENDBRANCH  27  28
ENDBRANCH  26  27
ENDBRANCH   1  26
TORSDOF 14
ENDMDL
MODEL 3
REMARK VINA RESULT:     -12.2      4.297      9.246
REMARK SMILES Cc1ccc(S(=O)(=O)N(CC(=O)NCCCNC(=O)c2ccc(-c3c4nc(c(-c5ccccc5)c5ccc([nH]5)c(-c5ccccc5)c5nc(c(-c6ccccc6)c6ccc3[nH]6)C=C5)C=C4)cc2)c2cc(Cl)cc(Cl)c2)cc1
REMARK SMILES IDX 14 1 13 2 11 3 12 4 10 6 9 7 6 8 7 9 8 10 5 11 1 12 2 13
REMARK SMILES IDX 3 14 77 15 4 16 76 17 68 18 69 19 75 20 70 21 73 22 71 23
REMARK SMILES IDX 72 24 74 25 15 26 16 27 17 28 18 29 19 31 20 32 21 33 67 34
REMARK SMILES IDX 22 35 66 36 23 37 24 38 25 39 60 40 26 41 65 42 59 43 61 44
REMARK SMILES IDX 27 45 64 46 58 47 57 48 28 50 50 51 35 52 49 53 36 54 39 55
REMARK SMILES IDX 48 56 62 57 37 58 38 59 47 61 63 62 40 63 29 64 30 65 34 66
REMARK SMILES IDX 31 67 33 68 32 69 51 70 52 71 56 72 53 73 55 74 54 75 41 76
REMARK SMILES IDX 42 77 46 78 43 79 45 80 44 81
REMARK H PARENT 13 5 17 30 61 49 39 60
REMARK Flexibility Score: inf
ROOT
ATOM      1  C   UNL A   1      34.307  29.410  27.604  1.00  0.00     0.117 C 
ENDROOT
BRANCH   1   2
ATOM      2  N   UNL A   1      33.004  28.767  27.628  1.00  0.00    -0.354 N 
ATOM      3  C   UNL A   1      32.455  27.813  26.817  1.00  0.00     0.240 C 
ATOM      4  O   UNL A   1      31.439  27.251  27.239  1.00  0.00    -0.273 OA
ATOM      5  H   UNL A   1      32.413  29.070  28.355  1.00  0.00     0.163 HD
BRANCH   3   6
ATOM      6  C   UNL A   1      33.019  27.424  25.451  1.00  0.00     0.235 C 
BRANCH   6   7
ATOM      7  N   UNL A   1      32.422  26.192  24.866  1.00  0.00    -0.257 N 
BRANCH   7   8
ATOM      8  S   UNL A   1      31.841  26.307  23.240  1.00  0.00     0.264 S 
ATOM      9  O   UNL A   1      31.070  25.092  23.020  1.00  0.00    -0.201 OA
ATOM     10  O   UNL A   1      32.969  26.625  22.394  1.00  0.00    -0.201 OA
BRANCH   8  11
ATOM     11  C   UNL A   1      30.673  27.663  23.026  1.00  0.00     0.088 A 
ATOM     12  C   UNL A   1      27.657  30.653  22.171  1.00  0.00     0.044 C 
ATOM     13  C   UNL A   1      28.702  29.632  22.515  1.00  0.00    -0.051 A 
ATOM     14  C   UNL A   1      28.357  28.422  23.126  1.00  0.00     0.005 A 
ATOM     15  C   UNL A   1      30.033  29.846  22.159  1.00  0.00     0.005 A 
ATOM     16  C   UNL A   1      29.335  27.451  23.396  1.00  0.00     0.022 A 
ATOM     17  C   UNL A   1      30.997  28.858  22.377  1.00  0.00     0.022 A 
ENDBRANCH   8  11
ENDBRANCH   7   8
BRANCH   7  18
ATOM     18  C   UNL A   1      33.273  25.012  25.178  1.00  0.00     0.055 A 
ATOM     19  C   UNL A   1      32.829  24.121  26.174  1.00  0.00     0.047 A 
ATOM     20  C   UNL A   1      34.573  24.835  24.686  1.00  0.00     0.047 A 
ATOM     21  C   UNL A   1      33.676  23.144  26.706  1.00  0.00     0.044 A 
ATOM     22  C   UNL A   1      35.399  23.826  25.199  1.00  0.00     0.044 A 
ATOM     23  Cl  UNL A   1      33.126  22.159  28.005  1.00  0.00    -0.084 Cl
ATOM     24  C   UNL A   1      34.967  22.993  26.225  1.00  0.00     0.041 A 
ATOM     25  Cl  UNL A   1      36.996  23.638  24.582  1.00  0.00    -0.084 Cl
ENDBRANCH   7  18
ENDBRANCH   6   7
ENDBRANCH   3   6
ENDBRANCH   1   2
BRANCH   1  26
ATOM     26  C   UNL A   1      34.280  30.917  27.415  1.00  0.00     0.042 C 
BRANCH  26  27
ATOM     27  C   UNL A   1      34.830  31.691  28.596  1.00  0.00     0.118 C 
BRANCH  27  28
ATOM     28  N   UNL A   1      33.965  32.782  29.043  1.00  0.00    -0.352 N 
ATOM     29  C   UNL A   1      34.230  33.837  29.901  1.00  0.00     0.251 C 
ATOM     30  H   UNL A   1      33.051  32.763  28.678  1.00  0.00     0.163 HD
ATOM     31  O   UNL A   1      33.352  34.656  30.153  1.00  0.00    -0.269 OA
BRANCH  29  32
ATOM     32  C   UNL A   1      35.622  34.087  30.352  1.00  0.00     0.039 A 
ATOM     33  C   UNL A   1      36.542  34.373  29.336  1.00  0.00     0.014 A 
ATOM     34  C   UNL A   1      36.051  33.581  31.570  1.00  0.00     0.014 A 
ATOM     35  C   UNL A   1      37.795  33.787  29.394  1.00  0.00     0.010 A 
ATOM     36  C   UNL A   1      37.213  32.856  31.563  1.00  0.00     0.010 A 
ATOM     37  C   UNL A   1      38.037  32.903  30.437  1.00  0.00    -0.014 A 
BRANCH  37  38
ATOM     38  C   UNL A   1      39.168  32.005  30.482  1.00  0.00     0.031 A 
ATOM     39  C   UNL A   1      38.925  30.627  30.055  1.00  0.00     0.074 A 
ATOM     40  C   UNL A   1      40.389  32.493  30.783  1.00  0.00     0.049 A 
ATOM     41  N   UNL A   1      39.664  29.631  30.378  1.00  0.00    -0.248 NA
ATOM     42  C   UNL A   1      37.747  30.248  29.276  1.00  0.00     0.031 C 
ATOM     43  C   UNL A   1      41.693  31.863  30.613  1.00  0.00     0.029 A 
ATOM     44  N   UNL A   1      40.659  33.640  31.533  1.00  0.00    -0.354 N 
ATOM     45  C   UNL A   1      39.276  28.581  29.581  1.00  0.00     0.074 A 
ATOM     46  C   UNL A   1      37.998  28.959  29.039  1.00  0.00     0.031 C 
ATOM     47  C   UNL A   1      42.570  32.450  31.449  1.00  0.00     0.029 A 
ATOM     48  C   UNL A   1      41.810  33.357  32.294  1.00  0.00     0.049 A 
ATOM     49  H   UNL A   1      40.146  34.480  31.529  1.00  0.00     0.167 HD
ATOM     50  C   UNL A   1      40.184  27.599  29.335  1.00  0.00     0.031 A 
ATOM     51  C   UNL A   1      41.711  33.251  33.655  1.00  0.00     0.031 A 
ATOM     52  C   UNL A   1      41.374  27.787  30.168  1.00  0.00     0.049 A 
ATOM     53  C   UNL A   1      42.024  31.855  34.155  1.00  0.00     0.074 A 
ATOM     54  C   UNL A   1      42.630  28.310  29.912  1.00  0.00     0.029 A 
ATOM     55  N   UNL A   1      41.226  27.785  31.552  1.00  0.00    -0.354 N 
ATOM     56  N   UNL A   1      41.954  30.774  33.424  1.00  0.00    -0.248 NA
ATOM     57  C   UNL A   1      42.451  31.576  35.520  1.00  0.00     0.031 C 
ATOM     58  C   UNL A   1      43.209  28.684  31.159  1.00  0.00     0.029 A 
ATOM     59  C   UNL A   1      42.325  28.348  32.170  1.00  0.00     0.049 A 
ATOM     60  H   UNL A   1      40.440  27.429  32.028  1.00  0.00     0.167 HD
ATOM     61  C   UNL A   1      42.342  29.683  34.164  1.00  0.00     0.074 A 
ATOM     62  C   UNL A   1      42.638  30.245  35.473  1.00  0.00     0.031 C 
ATOM     63  C   UNL A   1      42.385  28.421  33.631  1.00  0.00     0.031 A 
BRANCH  50  64
ATOM     64  C   UNL A   1      40.117  26.656  28.157  1.00  0.00    -0.014 A 
ATOM     65  C   UNL A   1      39.343  25.488  28.268  1.00  0.00     0.009 A 
ATOM     66  C   UNL A   1      40.839  26.795  26.959  1.00  0.00     0.009 A 
ATOM     67  C   UNL A   1      39.329  24.504  27.267  1.00  0.00     0.001 A 
ATOM     68  C   UNL A   1      40.836  25.817  25.955  1.00  0.00     0.001 A 
ATOM     69  C   UNL A   1      40.086  24.665  26.114  1.00  0.00     0.000 A 
ENDBRANCH  50  64
BRANCH  51  70
ATOM     70  C   UNL A   1      40.674  34.169  34.225  1.00  0.00    -0.014 A 
ATOM     71  C   UNL A   1      39.442  33.599  34.621  1.00  0.00     0.009 A 
ATOM     72  C   UNL A   1      41.036  35.410  34.768  1.00  0.00     0.009 A 
ATOM     73  C   UNL A   1      38.697  34.155  35.666  1.00  0.00     0.001 A 
ATOM     74  C   UNL A   1      40.262  35.982  35.789  1.00  0.00     0.001 A 
ATOM     75  C   UNL A   1      39.131  35.326  36.277  1.00  0.00     0.000 A 
ENDBRANCH  51  70
BRANCH  63  76
ATOM     76  C   UNL A   1      42.522  27.106  34.385  1.00  0.00    -0.014 A 
ATOM     77  C   UNL A   1      41.527  26.503  35.160  1.00  0.00     0.009 A 
ATOM     78  C   UNL A   1      43.720  26.361  34.249  1.00  0.00     0.009 A 
ATOM     79  C   UNL A   1      41.716  25.250  35.765  1.00  0.00     0.001 A 
ATOM     80  C   UNL A   1      43.898  25.091  34.804  1.00  0.00     0.001 A 
ATOM     81  C   UNL A   1      42.893  24.537  35.574  1.00  0.00     0.000 A 
ENDBRANCH  63  76
ENDBRANCH  37  38
ENDBRANCH  29  32
ENDBRANCH  27  28
ENDBRANCH  26  27
ENDBRANCH   1  26
TORSDOF 14
ENDMDL
