MODEL 1
REMARK VINA RESULT:     -12.1      0.000      0.000
REMARK SMILES COc1ccc(-c2ncn(CC(=O)NCCCNC(=O)c3ccc(-c4c5nc(c(-c6ccccc6)c6ccc([nH]6)c(-c6ccccc6)c6nc(c(-c7ccccc7)c7ccc4[nH]7)C=C6)C=C5)cc3)c2-c2ccc(OC)cc2)cc1
REMARK SMILES IDX 15 1 14 2 12 3 13 4 11 6 10 7 7 8 8 9 69 10 9 11 6 12 3 13
REMARK SMILES IDX 4 14 79 15 5 16 78 17 2 18 1 19 70 20 71 21 77 22 72 23
REMARK SMILES IDX 76 24 73 25 74 26 75 27 16 28 17 29 18 30 19 31 20 33 21 34
REMARK SMILES IDX 22 35 68 36 23 37 67 38 24 39 25 40 26 41 61 42 27 43 66 44
REMARK SMILES IDX 60 45 62 46 28 47 65 48 59 49 58 50 29 52 51 53 36 54 50 55
REMARK SMILES IDX 37 56 40 57 49 58 63 59 38 60 39 61 48 63 64 64 41 65 30 66
REMARK SMILES IDX 31 67 35 68 32 69 34 70 33 71 52 72 53 73 57 74 54 75 56 76
REMARK SMILES IDX 55 77 42 78 43 79 47 80 44 81 46 82 45 83
REMARK H PARENT 14 5 18 32 62 51 40 62
REMARK Flexibility Score: inf
ROOT
ATOM      1  C   UNL A   1      35.448  22.574  24.297  1.00  0.00     0.117 C 
ENDROOT
BRANCH   1   2
ATOM      2  N   UNL A   1      34.565  21.888  25.227  1.00  0.00    -0.354 N 
ATOM      3  C   UNL A   1      33.540  22.388  25.979  1.00  0.00     0.239 C 
ATOM      4  O   UNL A   1      32.792  21.576  26.532  1.00  0.00    -0.273 OA
ATOM      5  H   UNL A   1      34.729  20.922  25.328  1.00  0.00     0.163 HD
BRANCH   3   6
ATOM      6  C   UNL A   1      33.294  23.878  26.084  1.00  0.00     0.223 C 
BRANCH   6   7
ATOM      7  N   UNL A   1      32.295  24.379  25.156  1.00  0.00    -0.321 N 
ATOM      8  C   UNL A   1      30.890  25.580  24.001  1.00  0.00     0.096 A 
ATOM      9  N   UNL A   1      30.640  24.269  23.681  1.00  0.00    -0.236 NA
ATOM     10  C   UNL A   1      31.906  25.688  24.945  1.00  0.00     0.076 A 
ATOM     11  C   UNL A   1      31.473  23.572  24.413  1.00  0.00     0.201 A 
BRANCH   8  12
ATOM     12  C   UNL A   1      30.086  26.679  23.508  1.00  0.00     0.003 A 
ATOM     13  C   UNL A   1      28.529  28.891  22.787  1.00  0.00     0.118 A 
ATOM     14  C   UNL A   1      29.869  28.821  22.402  1.00  0.00     0.047 A 
ATOM     15  C   UNL A   1      27.949  27.827  23.477  1.00  0.00     0.047 A 
ATOM     16  C   UNL A   1      30.650  27.724  22.769  1.00  0.00     0.014 A 
ATOM     17  C   UNL A   1      28.726  26.722  23.832  1.00  0.00     0.014 A 
BRANCH  13  18
ATOM     18  O   UNL A   1      27.851  30.015  22.399  1.00  0.00    -0.497 OA
ATOM     19  C   UNL A   1      27.695  30.986  23.431  1.00  0.00     0.278 C 
ENDBRANCH  13  18
ENDBRANCH   8  12
BRANCH  10  20
ATOM     20  C   UNL A   1      32.373  26.846  25.700  1.00  0.00     0.001 A 
ATOM     21  C   UNL A   1      31.635  27.385  26.755  1.00  0.00     0.014 A 
ATOM     22  C   UNL A   1      33.610  27.419  25.381  1.00  0.00     0.014 A 
ATOM     23  C   UNL A   1      32.104  28.512  27.439  1.00  0.00     0.047 A 
ATOM     24  C   UNL A   1      34.090  28.528  26.083  1.00  0.00     0.047 A 
ATOM     25  C   UNL A   1      33.332  29.086  27.110  1.00  0.00     0.118 A 
BRANCH  25  26
ATOM     26  O   UNL A   1      33.675  30.179  27.859  1.00  0.00    -0.497 OA
ATOM     27  C   UNL A   1      33.247  31.443  27.368  1.00  0.00     0.278 C 
ENDBRANCH  25  26
ENDBRANCH  10  20
ENDBRANCH   6   7
ENDBRANCH   3   6
ENDBRANCH   1   2
BRANCH   1  28
ATOM     28  C   UNL A   1      36.911  22.130  24.381  1.00  0.00     0.042 C 
BRANCH  28  29
ATOM     29  C   UNL A   1      37.688  22.837  25.476  1.00  0.00     0.118 C 
BRANCH  29  30
ATOM     30  N   UNL A   1      38.596  21.958  26.217  1.00  0.00    -0.352 N 
ATOM     31  C   UNL A   1      39.750  22.299  26.910  1.00  0.00     0.251 C 
ATOM     32  H   UNL A   1      38.358  21.003  26.224  1.00  0.00     0.163 HD
ATOM     33  O   UNL A   1      40.575  21.459  27.217  1.00  0.00    -0.269 OA
BRANCH  31  34
ATOM     34  C   UNL A   1      39.951  23.715  27.271  1.00  0.00     0.039 A 
ATOM     35  C   UNL A   1      38.929  24.665  27.177  1.00  0.00     0.014 A 
ATOM     36  C   UNL A   1      41.200  24.065  27.768  1.00  0.00     0.014 A 
ATOM     37  C   UNL A   1      39.165  25.948  27.668  1.00  0.00     0.010 A 
ATOM     38  C   UNL A   1      41.344  25.233  28.455  1.00  0.00     0.010 A 
ATOM     39  C   UNL A   1      40.375  26.216  28.324  1.00  0.00    -0.014 A 
BRANCH  39  40
ATOM     40  C   UNL A   1      40.639  27.484  28.991  1.00  0.00     0.031 A 
ATOM     41  C   UNL A   1      41.611  28.348  28.277  1.00  0.00     0.074 A 
ATOM     42  C   UNL A   1      39.866  27.933  30.006  1.00  0.00     0.049 A 
ATOM     43  N   UNL A   1      42.809  28.652  28.645  1.00  0.00    -0.248 NA
ATOM     44  C   UNL A   1      41.272  28.798  26.915  1.00  0.00     0.031 C 
ATOM     45  C   UNL A   1      38.668  27.295  30.580  1.00  0.00     0.029 A 
ATOM     46  N   UNL A   1      39.898  29.128  30.658  1.00  0.00    -0.354 N 
ATOM     47  C   UNL A   1      43.285  29.534  27.679  1.00  0.00     0.074 A 
ATOM     48  C   UNL A   1      42.403  29.404  26.550  1.00  0.00     0.031 C 
ATOM     49  C   UNL A   1      37.963  28.200  31.293  1.00  0.00     0.029 A 
ATOM     50  C   UNL A   1      38.749  29.413  31.391  1.00  0.00     0.049 A 
ATOM     51  H   UNL A   1      40.669  29.737  30.615  1.00  0.00     0.167 HD
ATOM     52  C   UNL A   1      44.145  30.535  28.020  1.00  0.00     0.031 A 
ATOM     53  C   UNL A   1      38.459  30.570  32.033  1.00  0.00     0.031 A 
ATOM     54  C   UNL A   1      44.698  30.313  29.337  1.00  0.00     0.049 A 
ATOM     55  C   UNL A   1      39.739  31.270  32.247  1.00  0.00     0.074 A 
ATOM     56  C   UNL A   1      45.500  29.366  29.937  1.00  0.00     0.029 A 
ATOM     57  N   UNL A   1      44.053  30.983  30.346  1.00  0.00    -0.354 N 
ATOM     58  N   UNL A   1      40.681  30.815  33.023  1.00  0.00    -0.248 NA
ATOM     59  C   UNL A   1      40.153  32.281  31.289  1.00  0.00     0.031 C 
ATOM     60  C   UNL A   1      45.024  29.266  31.280  1.00  0.00     0.029 A 
ATOM     61  C   UNL A   1      44.000  30.198  31.463  1.00  0.00     0.049 A 
ATOM     62  H   UNL A   1      43.684  31.893  30.276  1.00  0.00     0.167 HD
ATOM     63  C   UNL A   1      41.855  31.124  32.358  1.00  0.00     0.074 A 
ATOM     64  C   UNL A   1      41.479  32.162  31.400  1.00  0.00     0.031 C 
ATOM     65  C   UNL A   1      42.939  30.297  32.445  1.00  0.00     0.031 A 
BRANCH  52  66
ATOM     66  C   UNL A   1      44.052  31.941  27.451  1.00  0.00    -0.014 A 
ATOM     67  C   UNL A   1      44.759  32.223  26.266  1.00  0.00     0.009 A 
ATOM     68  C   UNL A   1      43.585  33.055  28.177  1.00  0.00     0.009 A 
ATOM     69  C   UNL A   1      45.077  33.537  25.895  1.00  0.00     0.001 A 
ATOM     70  C   UNL A   1      43.867  34.368  27.789  1.00  0.00     0.001 A 
ATOM     71  C   UNL A   1      44.643  34.608  26.667  1.00  0.00     0.000 A 
ENDBRANCH  52  66
BRANCH  53  72
ATOM     72  C   UNL A   1      37.154  31.220  32.272  1.00  0.00    -0.014 A 
ATOM     73  C   UNL A   1      36.911  31.931  33.460  1.00  0.00     0.009 A 
ATOM     74  C   UNL A   1      36.253  31.396  31.207  1.00  0.00     0.009 A 
ATOM     75  C   UNL A   1      35.834  32.823  33.558  1.00  0.00     0.001 A 
ATOM     76  C   UNL A   1      35.178  32.287  31.305  1.00  0.00     0.001 A 
ATOM     77  C   UNL A   1      34.978  33.014  32.475  1.00  0.00     0.000 A 
ENDBRANCH  53  72
BRANCH  65  78
ATOM     78  C   UNL A   1      42.927  29.253  33.535  1.00  0.00    -0.014 A 
ATOM     79  C   UNL A   1      43.503  29.447  34.803  1.00  0.00     0.009 A 
ATOM     80  C   UNL A   1      42.199  28.077  33.308  1.00  0.00     0.009 A 
ATOM     81  C   UNL A   1      43.372  28.478  35.805  1.00  0.00     0.001 A 
ATOM     82  C   UNL A   1      42.052  27.119  34.314  1.00  0.00     0.001 A 
ATOM     83  C   UNL A   1      42.643  27.317  35.560  1.00  0.00     0.000 A 
ENDBRANCH  65  78
ENDBRANCH  39  40
ENDBRANCH  31  34
ENDBRANCH  29  30
ENDBRANCH  28  29
ENDBRANCH   1  28
TORSDOF 15
ENDMDL
MODEL 2
REMARK VINA RESULT:     -12.0      2.475      5.686
REMARK SMILES COc1ccc(-c2ncn(CC(=O)NCCCNC(=O)c3ccc(-c4c5nc(c(-c6ccccc6)c6ccc([nH]6)c(-c6ccccc6)c6nc(c(-c7ccccc7)c7ccc4[nH]7)C=C6)C=C5)cc3)c2-c2ccc(OC)cc2)cc1
REMARK SMILES IDX 15 1 14 2 12 3 13 4 11 6 10 7 7 8 8 9 69 10 9 11 6 12 3 13
REMARK SMILES IDX 4 14 79 15 5 16 78 17 2 18 1 19 70 20 71 21 77 22 72 23
REMARK SMILES IDX 76 24 73 25 74 26 75 27 16 28 17 29 18 30 19 31 20 33 21 34
REMARK SMILES IDX 22 35 68 36 23 37 67 38 24 39 25 40 26 41 61 42 27 43 66 44
REMARK SMILES IDX 60 45 62 46 28 47 65 48 59 49 58 50 29 52 51 53 36 54 50 55
REMARK SMILES IDX 37 56 40 57 49 58 63 59 38 60 39 61 48 63 64 64 41 65 30 66
REMARK SMILES IDX 31 67 35 68 32 69 34 70 33 71 52 72 53 73 57 74 54 75 56 76
REMARK SMILES IDX 55 77 42 78 43 79 47 80 44 81 46 82 45 83
REMARK H PARENT 14 5 18 32 62 51 40 62
REMARK Flexibility Score: inf
ROOT
ATOM      1  C   UNL A   1      35.197  21.463  25.259  1.00  0.00     0.117 C 
ENDROOT
BRANCH   1   2
ATOM      2  N   UNL A   1      35.139  22.413  24.159  1.00  0.00    -0.354 N 
ATOM      3  C   UNL A   1      34.330  23.500  23.992  1.00  0.00     0.239 C 
ATOM      4  O   UNL A   1      34.609  24.283  23.080  1.00  0.00    -0.273 OA
ATOM      5  H   UNL A   1      35.779  22.249  23.428  1.00  0.00     0.163 HD
BRANCH   3   6
ATOM      6  C   UNL A   1      33.169  23.768  24.927  1.00  0.00     0.223 C 
BRANCH   6   7
ATOM      7  N   UNL A   1      32.042  24.433  24.295  1.00  0.00    -0.321 N 
ATOM      8  C   UNL A   1      30.501  25.828  23.641  1.00  0.00     0.096 A 
ATOM      9  N   UNL A   1      30.153  24.598  23.141  1.00  0.00    -0.236 NA
ATOM     10  C   UNL A   1      31.668  25.759  24.395  1.00  0.00     0.076 A 
ATOM     11  C   UNL A   1      31.077  23.777  23.577  1.00  0.00     0.201 A 
BRANCH   8  12
ATOM     12  C   UNL A   1      29.661  27.000  23.504  1.00  0.00     0.003 A 
ATOM     13  C   UNL A   1      28.048  29.231  22.994  1.00  0.00     0.118 A 
ATOM     14  C   UNL A   1      27.490  28.070  23.531  1.00  0.00     0.047 A 
ATOM     15  C   UNL A   1      29.423  29.300  22.770  1.00  0.00     0.047 A 
ATOM     16  C   UNL A   1      28.290  26.953  23.777  1.00  0.00     0.014 A 
ATOM     17  C   UNL A   1      30.228  28.188  23.030  1.00  0.00     0.014 A 
BRANCH  13  18
ATOM     18  O   UNL A   1      27.181  30.265  22.767  1.00  0.00    -0.497 OA
ATOM     19  C   UNL A   1      27.622  31.518  23.286  1.00  0.00     0.278 C 
ENDBRANCH  13  18
ENDBRANCH   8  12
BRANCH  10  20
ATOM     20  C   UNL A   1      32.299  26.759  25.251  1.00  0.00     0.001 A 
ATOM     21  C   UNL A   1      33.447  27.448  24.858  1.00  0.00     0.014 A 
ATOM     22  C   UNL A   1      31.721  27.062  26.490  1.00  0.00     0.014 A 
ATOM     23  C   UNL A   1      34.037  28.380  25.717  1.00  0.00     0.047 A 
ATOM     24  C   UNL A   1      32.296  28.014  27.336  1.00  0.00     0.047 A 
ATOM     25  C   UNL A   1      33.464  28.672  26.956  1.00  0.00     0.118 A 
BRANCH  25  26
ATOM     26  O   UNL A   1      34.136  29.606  27.695  1.00  0.00    -0.497 OA
ATOM     27  C   UNL A   1      33.841  30.968  27.416  1.00  0.00     0.278 C 
ENDBRANCH  25  26
ENDBRANCH  10  20
ENDBRANCH   6   7
ENDBRANCH   3   6
ENDBRANCH   1   2
BRANCH   1  28
ATOM     28  C   UNL A   1      36.143  20.283  25.017  1.00  0.00     0.042 C 
BRANCH  28  29
ATOM     29  C   UNL A   1      37.607  20.680  25.026  1.00  0.00     0.118 C 
BRANCH  29  30
ATOM     30  N   UNL A   1      38.523  19.549  25.199  1.00  0.00    -0.352 N 
ATOM     31  C   UNL A   1      39.806  19.554  25.732  1.00  0.00     0.251 C 
ATOM     32  H   UNL A   1      38.187  18.675  24.899  1.00  0.00     0.163 HD
ATOM     33  O   UNL A   1      40.573  18.629  25.541  1.00  0.00    -0.269 OA
BRANCH  31  34
ATOM     34  C   UNL A   1      40.217  20.715  26.545  1.00  0.00     0.039 A 
ATOM     35  C   UNL A   1      41.015  20.585  27.685  1.00  0.00     0.014 A 
ATOM     36  C   UNL A   1      39.821  21.967  26.096  1.00  0.00     0.014 A 
ATOM     37  C   UNL A   1      41.471  21.742  28.315  1.00  0.00     0.010 A 
ATOM     38  C   UNL A   1      40.456  23.079  26.565  1.00  0.00     0.010 A 
ATOM     39  C   UNL A   1      41.199  22.988  27.732  1.00  0.00    -0.014 A 
BRANCH  39  40
ATOM     40  C   UNL A   1      41.760  24.231  28.244  1.00  0.00     0.031 A 
ATOM     41  C   UNL A   1      40.881  25.411  28.054  1.00  0.00     0.074 A 
ATOM     42  C   UNL A   1      42.843  24.246  29.054  1.00  0.00     0.049 A 
ATOM     43  N   UNL A   1      41.074  26.412  27.263  1.00  0.00    -0.248 NA
ATOM     44  C   UNL A   1      39.555  25.402  28.695  1.00  0.00     0.031 C 
ATOM     45  C   UNL A   1      43.601  23.094  29.572  1.00  0.00     0.029 A 
ATOM     46  N   UNL A   1      43.424  25.291  29.707  1.00  0.00    -0.354 N 
ATOM     47  C   UNL A   1      40.010  27.280  27.494  1.00  0.00     0.074 A 
ATOM     48  C   UNL A   1      39.014  26.514  28.195  1.00  0.00     0.031 C 
ATOM     49  C   UNL A   1      44.354  23.475  30.627  1.00  0.00     0.029 A 
ATOM     50  C   UNL A   1      44.286  24.918  30.735  1.00  0.00     0.049 A 
ATOM     51  H   UNL A   1      43.249  26.230  29.471  1.00  0.00     0.167 HD
ATOM     52  C   UNL A   1      40.184  28.629  27.397  1.00  0.00     0.031 A 
ATOM     53  C   UNL A   1      44.901  25.738  31.620  1.00  0.00     0.031 A 
ATOM     54  C   UNL A   1      41.426  28.942  26.728  1.00  0.00     0.049 A 
ATOM     55  C   UNL A   1      44.909  27.085  31.017  1.00  0.00     0.074 A 
ATOM     56  C   UNL A   1      41.964  28.742  25.474  1.00  0.00     0.029 A 
ATOM     57  N   UNL A   1      42.476  29.208  27.571  1.00  0.00    -0.354 N 
ATOM     58  N   UNL A   1      45.577  27.380  29.940  1.00  0.00    -0.248 NA
ATOM     59  C   UNL A   1      43.854  28.018  31.375  1.00  0.00     0.031 C 
ATOM     60  C   UNL A   1      43.361  28.540  25.692  1.00  0.00     0.029 A 
ATOM     61  C   UNL A   1      43.629  28.688  27.054  1.00  0.00     0.049 A 
ATOM     62  H   UNL A   1      42.409  29.700  28.421  1.00  0.00     0.167 HD
ATOM     63  C   UNL A   1      44.749  28.247  29.247  1.00  0.00     0.074 A 
ATOM     64  C   UNL A   1      43.796  28.730  30.246  1.00  0.00     0.031 C 
ATOM     65  C   UNL A   1      44.735  28.249  27.881  1.00  0.00     0.031 A 
BRANCH  52  66
ATOM     66  C   UNL A   1      39.561  29.619  28.367  1.00  0.00    -0.014 A 
ATOM     67  C   UNL A   1      40.165  29.776  29.630  1.00  0.00     0.009 A 
ATOM     68  C   UNL A   1      38.263  30.147  28.229  1.00  0.00     0.009 A 
ATOM     69  C   UNL A   1      39.467  30.322  30.715  1.00  0.00     0.001 A 
ATOM     70  C   UNL A   1      37.577  30.728  29.300  1.00  0.00     0.001 A 
ATOM     71  C   UNL A   1      38.166  30.784  30.552  1.00  0.00     0.000 A 
ENDBRANCH  52  66
BRANCH  53  72
ATOM     72  C   UNL A   1      45.276  25.503  33.030  1.00  0.00    -0.014 A 
ATOM     73  C   UNL A   1      46.568  25.802  33.491  1.00  0.00     0.009 A 
ATOM     74  C   UNL A   1      44.276  25.265  33.990  1.00  0.00     0.009 A 
ATOM     75  C   UNL A   1      46.838  25.909  34.863  1.00  0.00     0.001 A 
ATOM     76  C   UNL A   1      44.545  25.372  35.360  1.00  0.00     0.001 A 
ATOM     77  C   UNL A   1      45.822  25.711  35.796  1.00  0.00     0.000 A 
ENDBRANCH  53  72
BRANCH  65  78
ATOM     78  C   UNL A   1      45.869  27.546  27.176  1.00  0.00    -0.014 A 
ATOM     79  C   UNL A   1      47.068  28.181  26.808  1.00  0.00     0.009 A 
ATOM     80  C   UNL A   1      45.765  26.161  26.989  1.00  0.00     0.009 A 
ATOM     81  C   UNL A   1      48.122  27.451  26.246  1.00  0.00     0.001 A 
ATOM     82  C   UNL A   1      46.823  25.429  26.446  1.00  0.00     0.001 A 
ATOM     83  C   UNL A   1      47.999  26.074  26.070  1.00  0.00     0.000 A 
ENDBRANCH  65  78
ENDBRANCH  39  40
ENDBRANCH  31  34
ENDBRANCH  29  30
ENDBRANCH  28  29
ENDBRANCH   1  28
TORSDOF 15
ENDMDL
MODEL 3
REMARK VINA RESULT:     -11.8      3.435      8.864
REMARK SMILES COc1ccc(-c2ncn(CC(=O)NCCCNC(=O)c3ccc(-c4c5nc(c(-c6ccccc6)c6ccc([nH]6)c(-c6ccccc6)c6nc(c(-c7ccccc7)c7ccc4[nH]7)C=C6)C=C5)cc3)c2-c2ccc(OC)cc2)cc1
REMARK SMILES IDX 15 1 14 2 12 3 13 4 11 6 10 7 7 8 8 9 69 10 9 11 6 12 3 13
REMARK SMILES IDX 4 14 79 15 5 16 78 17 2 18 1 19 70 20 71 21 77 22 72 23
REMARK SMILES IDX 76 24 73 25 74 26 75 27 16 28 17 29 18 30 19 31 20 33 21 34
REMARK SMILES IDX 22 35 68 36 23 37 67 38 24 39 25 40 26 41 61 42 27 43 66 44
REMARK SMILES IDX 60 45 62 46 28 47 65 48 59 49 58 50 29 52 51 53 36 54 50 55
REMARK SMILES IDX 37 56 40 57 49 58 63 59 38 60 39 61 48 63 64 64 41 65 30 66
REMARK SMILES IDX 31 67 35 68 32 69 34 70 33 71 52 72 53 73 57 74 54 75 56 76
REMARK SMILES IDX 55 77 42 78 43 79 47 80 44 81 46 82 45 83
REMARK H PARENT 14 5 18 32 62 51 40 62
REMARK Flexibility Score: inf
ROOT
ATOM      1  C   UNL A   1      37.610  33.326  31.891  1.00  0.00     0.117 C 
ENDROOT
BRANCH   1   2
ATOM      2  N   UNL A   1      36.193  33.644  31.964  1.00  0.00    -0.354 N 
ATOM      3  C   UNL A   1      35.256  33.671  30.971  1.00  0.00     0.239 C 
ATOM      4  O   UNL A   1      34.072  33.758  31.308  1.00  0.00    -0.273 OA
ATOM      5  H   UNL A   1      35.860  33.872  32.863  1.00  0.00     0.163 HD
BRANCH   3   6
ATOM      6  C   UNL A   1      35.649  33.538  29.515  1.00  0.00     0.223 C 
BRANCH   6   7
ATOM      7  N   UNL A   1      34.721  32.749  28.721  1.00  0.00    -0.321 N 
ATOM      8  C   UNL A   1      33.664  31.186  27.632  1.00  0.00     0.096 A 
ATOM      9  N   UNL A   1      33.055  32.371  27.304  1.00  0.00    -0.236 NA
ATOM     10  C   UNL A   1      34.733  31.386  28.500  1.00  0.00     0.076 A 
ATOM     11  C   UNL A   1      33.731  33.292  27.945  1.00  0.00     0.201 A 
BRANCH   8  12
ATOM     12  C   UNL A   1      33.306  29.921  27.024  1.00  0.00     0.003 A 
ATOM     13  C   UNL A   1      32.837  27.394  25.914  1.00  0.00     0.118 A 
ATOM     14  C   UNL A   1      32.190  27.774  27.091  1.00  0.00     0.047 A 
ATOM     15  C   UNL A   1      33.669  28.299  25.257  1.00  0.00     0.047 A 
ATOM     16  C   UNL A   1      32.429  29.030  27.652  1.00  0.00     0.014 A 
ATOM     17  C   UNL A   1      33.899  29.562  25.809  1.00  0.00     0.014 A 
BRANCH  13  18
ATOM     18  O   UNL A   1      32.554  26.137  25.453  1.00  0.00    -0.497 OA
ATOM     19  C   UNL A   1      31.242  25.681  25.772  1.00  0.00     0.278 C 
ENDBRANCH  13  18
ENDBRANCH   8  12
BRANCH  10  20
ATOM     20  C   UNL A   1      35.761  30.458  28.960  1.00  0.00     0.001 A 
ATOM     21  C   UNL A   1      35.905  30.126  30.308  1.00  0.00     0.014 A 
ATOM     22  C   UNL A   1      36.610  29.857  28.023  1.00  0.00     0.014 A 
ATOM     23  C   UNL A   1      36.920  29.252  30.713  1.00  0.00     0.047 A 
ATOM     24  C   UNL A   1      37.606  28.962  28.426  1.00  0.00     0.047 A 
ATOM     25  C   UNL A   1      37.770  28.664  29.777  1.00  0.00     0.118 A 
BRANCH  25  26
ATOM     26  O   UNL A   1      38.714  27.825  30.304  1.00  0.00    -0.497 OA
ATOM     27  C   UNL A   1      38.717  27.684  31.719  1.00  0.00     0.278 C 
ENDBRANCH  25  26
ENDBRANCH  10  20
ENDBRANCH   6   7
ENDBRANCH   3   6
ENDBRANCH   1   2
BRANCH   1  28
ATOM     28  C   UNL A   1      38.514  34.323  32.621  1.00  0.00     0.042 C 
BRANCH  28  29
ATOM     29  C   UNL A   1      39.990  34.103  32.347  1.00  0.00     0.118 C 
BRANCH  29  30
ATOM     30  N   UNL A   1      40.427  34.606  31.041  1.00  0.00    -0.352 N 
ATOM     31  C   UNL A   1      41.266  33.992  30.120  1.00  0.00     0.251 C 
ATOM     32  H   UNL A   1      40.084  35.491  30.785  1.00  0.00     0.163 HD
ATOM     33  O   UNL A   1      41.796  34.627  29.228  1.00  0.00    -0.269 OA
BRANCH  31  34
ATOM     34  C   UNL A   1      41.495  32.540  30.247  1.00  0.00     0.039 A 
ATOM     35  C   UNL A   1      40.449  31.613  30.242  1.00  0.00     0.014 A 
ATOM     36  C   UNL A   1      42.816  32.118  30.319  1.00  0.00     0.014 A 
ATOM     37  C   UNL A   1      40.762  30.255  30.228  1.00  0.00     0.010 A 
ATOM     38  C   UNL A   1      43.116  30.812  30.067  1.00  0.00     0.010 A 
ATOM     39  C   UNL A   1      42.105  29.866  30.121  1.00  0.00    -0.014 A 
BRANCH  39  40
ATOM     40  C   UNL A   1      42.506  28.475  29.954  1.00  0.00     0.031 A 
ATOM     41  C   UNL A   1      43.206  27.905  31.132  1.00  0.00     0.074 A 
ATOM     42  C   UNL A   1      42.037  27.712  28.940  1.00  0.00     0.049 A 
ATOM     43  N   UNL A   1      44.449  27.572  31.219  1.00  0.00    -0.248 NA
ATOM     44  C   UNL A   1      42.481  27.850  32.413  1.00  0.00     0.031 C 
ATOM     45  C   UNL A   1      41.072  28.094  27.894  1.00  0.00     0.029 A 
ATOM     46  N   UNL A   1      42.213  26.384  28.701  1.00  0.00    -0.354 N 
ATOM     47  C   UNL A   1      44.603  27.031  32.492  1.00  0.00     0.074 A 
ATOM     48  C   UNL A   1      43.442  27.435  33.241  1.00  0.00     0.031 C 
ATOM     49  C   UNL A   1      40.568  26.986  27.307  1.00  0.00     0.029 A 
ATOM     50  C   UNL A   1      41.310  25.839  27.791  1.00  0.00     0.049 A 
ATOM     51  H   UNL A   1      42.920  25.853  29.133  1.00  0.00     0.167 HD
ATOM     52  C   UNL A   1      45.491  26.021  32.713  1.00  0.00     0.031 A 
ATOM     53  C   UNL A   1      41.176  24.533  27.459  1.00  0.00     0.031 A 
ATOM     54  C   UNL A   1      46.401  25.882  31.599  1.00  0.00     0.049 A 
ATOM     55  C   UNL A   1      42.441  23.869  27.826  1.00  0.00     0.074 A 
ATOM     56  C   UNL A   1      47.371  26.657  30.999  1.00  0.00     0.029 A 
ATOM     57  N   UNL A   1      46.047  24.917  30.690  1.00  0.00    -0.354 N 
ATOM     58  N   UNL A   1      43.577  24.130  27.247  1.00  0.00    -0.248 NA
ATOM     59  C   UNL A   1      42.533  23.200  29.113  1.00  0.00     0.031 C 
ATOM     60  C   UNL A   1      47.298  26.340  29.607  1.00  0.00     0.029 A 
ATOM     61  C   UNL A   1      46.338  25.343  29.425  1.00  0.00     0.049 A 
ATOM     62  H   UNL A   1      45.643  24.048  30.916  1.00  0.00     0.167 HD
ATOM     63  C   UNL A   1      44.505  24.088  28.275  1.00  0.00     0.074 A 
ATOM     64  C   UNL A   1      43.839  23.351  29.348  1.00  0.00     0.031 C 
ATOM     65  C   UNL A   1      45.595  24.910  28.258  1.00  0.00     0.031 A 
BRANCH  52  66
ATOM     66  C   UNL A   1      45.194  24.835  33.617  1.00  0.00    -0.014 A 
ATOM     67  C   UNL A   1      46.274  24.232  34.292  1.00  0.00     0.009 A 
ATOM     68  C   UNL A   1      43.994  24.100  33.582  1.00  0.00     0.009 A 
ATOM     69  C   UNL A   1      46.188  22.928  34.797  1.00  0.00     0.001 A 
ATOM     70  C   UNL A   1      43.892  22.814  34.120  1.00  0.00     0.001 A 
ATOM     71  C   UNL A   1      45.000  22.214  34.697  1.00  0.00     0.000 A 
ENDBRANCH  52  66
BRANCH  53  72
ATOM     72  C   UNL A   1      39.971  23.774  27.064  1.00  0.00    -0.014 A 
ATOM     73  C   UNL A   1      38.762  24.434  26.788  1.00  0.00     0.009 A 
ATOM     74  C   UNL A   1      40.090  22.429  26.669  1.00  0.00     0.009 A 
ATOM     75  C   UNL A   1      37.729  23.785  26.096  1.00  0.00     0.001 A 
ATOM     76  C   UNL A   1      39.058  21.782  25.978  1.00  0.00     0.001 A 
ATOM     77  C   UNL A   1      37.884  22.466  25.676  1.00  0.00     0.000 A 
ENDBRANCH  53  72
BRANCH  65  78
ATOM     78  C   UNL A   1      45.927  25.594  26.954  1.00  0.00    -0.014 A 
ATOM     79  C   UNL A   1      45.411  26.847  26.581  1.00  0.00     0.009 A 
ATOM     80  C   UNL A   1      46.893  25.000  26.130  1.00  0.00     0.009 A 
ATOM     81  C   UNL A   1      45.834  27.475  25.403  1.00  0.00     0.001 A 
ATOM     82  C   UNL A   1      47.329  25.635  24.965  1.00  0.00     0.001 A 
ATOM     83  C   UNL A   1      46.797  26.868  24.599  1.00  0.00     0.000 A 
ENDBRANCH  65  78
ENDBRANCH  39  40
ENDBRANCH  31  34
ENDBRANCH  29  30
ENDBRANCH  28  29
ENDBRANCH   1  28
TORSDOF 15
ENDMDL
