MODEL 1
REMARK VINA RESULT:     -12.6      0.000      0.000
REMARK SMILES NS(=O)(=O)c1ccc(-n2nc(NC(=O)NCCCC(=O)NCCCNC(=O)c3ccc(-c4c5nc(c(-c6ccccc6)c6ccc([nH]6)c(-c6ccccc6)c6nc(c(-c7ccccc7)c7ccc4[nH]7)C=C6)C=C5)cc3)cc2-c2ccccc2)cc1
REMARK SMILES IDX 19 1 20 2 21 3 18 5 17 6 16 7 15 8 12 9 13 10 14 12 11 14
REMARK SMILES IDX 9 15 10 16 77 17 76 18 8 19 5 20 6 21 85 22 7 23 84 24 2 25
REMARK SMILES IDX 3 26 4 27 1 28 78 31 79 32 83 33 80 34 82 35 81 36 22 37
REMARK SMILES IDX 23 38 24 39 25 40 26 41 27 43 28 44 29 45 75 46 30 47 74 48
REMARK SMILES IDX 31 49 32 50 33 51 68 52 34 53 73 54 67 55 69 56 35 57 72 58
REMARK SMILES IDX 66 59 65 60 36 62 58 63 43 64 57 65 44 66 47 67 56 68 70 69
REMARK SMILES IDX 45 70 46 71 55 73 71 74 48 75 37 76 38 77 42 78 39 79 41 80
REMARK SMILES IDX 40 81 59 82 60 83 64 84 61 85 63 86 62 87 49 88 50 89 54 90
REMARK SMILES IDX 51 91 53 92 52 93
REMARK H PARENT 21 4 12 11 15 13 1 29 1 30 25 42 69 61 47 72
REMARK Flexibility Score: inf
ROOT
ATOM      1  C   UNL A   1      36.403  22.958  24.829  1.00  0.00     0.220 C 
ATOM      2  O   UNL A   1      36.840  23.975  25.370  1.00  0.00    -0.275 OA
ATOM      3  N   UNL A   1      36.599  21.763  25.457  1.00  0.00    -0.356 N 
ATOM      4  H   UNL A   1      37.003  21.833  26.352  1.00  0.00     0.163 HD
ENDROOT
BRANCH   1   5
ATOM      5  C   UNL A   1      35.660  23.036  23.508  1.00  0.00     0.102 C 
BRANCH   5   6
ATOM      6  C   UNL A   1      34.805  24.296  23.358  1.00  0.00     0.031 C 
BRANCH   6   7
ATOM      7  C   UNL A   1      33.669  24.167  22.353  1.00  0.00     0.118 C 
BRANCH   7   8
ATOM      8  N   UNL A   1      33.133  22.823  22.221  1.00  0.00    -0.338 N 
ATOM      9  N   UNL A   1      31.730  22.552  24.136  1.00  0.00    -0.291 N 
ATOM     10  C   UNL A   1      32.284  22.107  22.991  1.00  0.00     0.320 C 
ATOM     11  H   UNL A   1      31.403  21.837  24.731  1.00  0.00     0.173 HD
ATOM     12  O   UNL A   1      32.080  20.934  22.656  1.00  0.00    -0.248 OA
ATOM     13  H   UNL A   1      33.447  22.343  21.421  1.00  0.00     0.165 HD
BRANCH   9  14
ATOM     14  C   UNL A   1      31.537  23.819  24.624  1.00  0.00     0.157 A 
ATOM     15  N   UNL A   1      30.845  25.815  24.708  1.00  0.00    -0.231 N 
ATOM     16  N   UNL A   1      30.457  24.563  24.406  1.00  0.00    -0.149 NA
ATOM     17  C   UNL A   1      31.947  25.800  25.554  1.00  0.00     0.076 A 
ATOM     18  C   UNL A   1      32.415  24.496  25.498  1.00  0.00     0.078 A 
BRANCH  15  19
ATOM     19  C   UNL A   1      30.213  26.905  24.053  1.00  0.00     0.065 A 
ATOM     20  C   UNL A   1      28.977  29.086  22.834  1.00  0.00     0.082 A 
ATOM     21  C   UNL A   1      28.199  28.032  23.319  1.00  0.00     0.024 A 
ATOM     22  C   UNL A   1      30.368  29.073  22.983  1.00  0.00     0.024 A 
ATOM     23  C   UNL A   1      28.818  26.936  23.920  1.00  0.00     0.030 A 
ATOM     24  C   UNL A   1      30.985  27.992  23.616  1.00  0.00     0.030 A 
BRANCH  20  25
ATOM     25  S   UNL A   1      28.229  30.435  21.970  1.00  0.00     0.238 S 
ATOM     26  O   UNL A   1      27.238  31.039  22.851  1.00  0.00    -0.207 OA
ATOM     27  O   UNL A   1      27.944  30.038  20.629  1.00  0.00    -0.207 OA
BRANCH  25  28
ATOM     28  N   UNL A   1      29.456  31.586  21.864  1.00  0.00    -0.225 NA
ATOM     29  H   UNL A   1      29.482  31.968  20.919  1.00  0.00     0.137 HD
ATOM     30  H   UNL A   1      30.351  31.148  22.080  1.00  0.00     0.137 HD
ENDBRANCH  25  28
ENDBRANCH  20  25
ENDBRANCH  15  19
BRANCH  17  31
ATOM     31  C   UNL A   1      32.441  26.968  26.274  1.00  0.00     0.000 A 
ATOM     32  C   UNL A   1      31.564  27.727  27.064  1.00  0.00     0.010 A 
ATOM     33  C   UNL A   1      33.766  27.391  26.126  1.00  0.00     0.010 A 
ATOM     34  C   UNL A   1      31.991  28.915  27.656  1.00  0.00     0.001 A 
ATOM     35  C   UNL A   1      34.192  28.580  26.722  1.00  0.00     0.001 A 
ATOM     36  C   UNL A   1      33.303  29.345  27.477  1.00  0.00     0.000 A 
ENDBRANCH  17  31
ENDBRANCH   9  14
ENDBRANCH   7   8
ENDBRANCH   6   7
ENDBRANCH   5   6
ENDBRANCH   1   5
BRANCH   3  37
ATOM     37  C   UNL A   1      36.311  20.396  25.027  1.00  0.00     0.117 C 
BRANCH  37  38
ATOM     38  C   UNL A   1      37.581  19.575  24.778  1.00  0.00     0.042 C 
BRANCH  38  39
ATOM     39  C   UNL A   1      38.813  20.077  25.494  1.00  0.00     0.118 C 
BRANCH  39  40
ATOM     40  N   UNL A   1      39.839  19.047  25.694  1.00  0.00    -0.352 N 
ATOM     41  C   UNL A   1      41.186  19.229  25.974  1.00  0.00     0.251 C 
ATOM     42  H   UNL A   1      39.535  18.114  25.620  1.00  0.00     0.163 HD
ATOM     43  O   UNL A   1      42.006  18.346  25.757  1.00  0.00    -0.269 OA
BRANCH  41  44
ATOM     44  C   UNL A   1      41.614  20.526  26.532  1.00  0.00     0.039 A 
ATOM     45  C   UNL A   1      42.209  21.532  25.768  1.00  0.00     0.014 A 
ATOM     46  C   UNL A   1      41.321  20.748  27.866  1.00  0.00     0.014 A 
ATOM     47  C   UNL A   1      42.421  22.780  26.359  1.00  0.00     0.010 A 
ATOM     48  C   UNL A   1      41.232  22.029  28.322  1.00  0.00     0.010 A 
ATOM     49  C   UNL A   1      41.908  23.026  27.643  1.00  0.00    -0.014 A 
BRANCH  49  50
ATOM     50  C   UNL A   1      42.102  24.286  28.346  1.00  0.00     0.031 A 
ATOM     51  C   UNL A   1      41.115  25.359  28.103  1.00  0.00     0.074 A 
ATOM     52  C   UNL A   1      43.058  24.470  29.285  1.00  0.00     0.049 A 
ATOM     53  N   UNL A   1      41.287  26.416  27.383  1.00  0.00    -0.248 NA
ATOM     54  C   UNL A   1      39.766  25.222  28.663  1.00  0.00     0.031 C 
ATOM     55  C   UNL A   1      43.977  23.496  29.901  1.00  0.00     0.029 A 
ATOM     56  N   UNL A   1      43.345  25.611  29.964  1.00  0.00    -0.354 N 
ATOM     57  C   UNL A   1      40.134  27.176  27.525  1.00  0.00     0.074 A 
ATOM     58  C   UNL A   1      39.181  26.336  28.212  1.00  0.00     0.031 C 
ATOM     59  C   UNL A   1      44.535  24.030  31.007  1.00  0.00     0.029 A 
ATOM     60  C   UNL A   1      44.194  25.436  31.043  1.00  0.00     0.049 A 
ATOM     61  H   UNL A   1      42.981  26.489  29.709  1.00  0.00     0.167 HD
ATOM     62  C   UNL A   1      40.120  28.508  27.242  1.00  0.00     0.031 A 
ATOM     63  C   UNL A   1      44.621  26.387  31.898  1.00  0.00     0.031 A 
ATOM     64  C   UNL A   1      41.320  28.930  26.563  1.00  0.00     0.049 A 
ATOM     65  C   UNL A   1      44.509  27.683  31.197  1.00  0.00     0.074 A 
ATOM     66  C   UNL A   1      41.934  28.607  25.369  1.00  0.00     0.029 A 
ATOM     67  N   UNL A   1      42.289  29.541  27.325  1.00  0.00    -0.354 N 
ATOM     68  N   UNL A   1      45.235  27.997  30.160  1.00  0.00    -0.248 NA
ATOM     69  C   UNL A   1      43.300  28.470  31.368  1.00  0.00     0.031 C 
ATOM     70  C   UNL A   1      43.331  28.591  25.666  1.00  0.00     0.029 A 
ATOM     71  C   UNL A   1      43.486  28.951  27.007  1.00  0.00     0.049 A 
ATOM     72  H   UNL A   1      42.149  30.266  27.977  1.00  0.00     0.167 HD
ATOM     73  C   UNL A   1      44.377  28.695  29.323  1.00  0.00     0.074 A 
ATOM     74  C   UNL A   1      43.246  29.064  30.172  1.00  0.00     0.031 C 
ATOM     75  C   UNL A   1      44.536  28.671  27.966  1.00  0.00     0.031 A 
BRANCH  62  76
ATOM     76  C   UNL A   1      39.194  29.503  27.883  1.00  0.00    -0.014 A 
ATOM     77  C   UNL A   1      39.530  30.032  29.141  1.00  0.00     0.009 A 
ATOM     78  C   UNL A   1      37.886  29.736  27.421  1.00  0.00     0.009 A 
ATOM     79  C   UNL A   1      38.589  30.718  29.917  1.00  0.00     0.001 A 
ATOM     80  C   UNL A   1      36.956  30.455  28.177  1.00  0.00     0.001 A 
ATOM     81  C   UNL A   1      37.300  30.925  29.437  1.00  0.00     0.000 A 
ENDBRANCH  62  76
BRANCH  63  82
ATOM     82  C   UNL A   1      44.893  26.248  33.337  1.00  0.00    -0.014 A 
ATOM     83  C   UNL A   1      45.918  26.979  33.950  1.00  0.00     0.009 A 
ATOM     84  C   UNL A   1      43.962  25.589  34.163  1.00  0.00     0.009 A 
ATOM     85  C   UNL A   1      45.982  27.086  35.345  1.00  0.00     0.001 A 
ATOM     86  C   UNL A   1      44.026  25.695  35.555  1.00  0.00     0.001 A 
ATOM     87  C   UNL A   1      45.027  26.459  36.144  1.00  0.00     0.000 A 
ENDBRANCH  63  82
BRANCH  75  88
ATOM     88  C   UNL A   1      45.792  28.029  27.420  1.00  0.00    -0.014 A 
ATOM     89  C   UNL A   1      45.905  26.643  27.209  1.00  0.00     0.009 A 
ATOM     90  C   UNL A   1      46.835  28.852  26.972  1.00  0.00     0.009 A 
ATOM     91  C   UNL A   1      47.038  26.094  26.600  1.00  0.00     0.001 A 
ATOM     92  C   UNL A   1      47.960  28.306  26.346  1.00  0.00     0.001 A 
ATOM     93  C   UNL A   1      48.065  26.928  26.165  1.00  0.00     0.000 A 
ENDBRANCH  75  88
ENDBRANCH  49  50
ENDBRANCH  41  44
ENDBRANCH  39  40
ENDBRANCH  38  39
ENDBRANCH  37  38
ENDBRANCH   3  37
TORSDOF 18
ENDMDL
MODEL 2
REMARK VINA RESULT:     -11.8      3.109      7.974
REMARK SMILES NS(=O)(=O)c1ccc(-n2nc(NC(=O)NCCCC(=O)NCCCNC(=O)c3ccc(-c4c5nc(c(-c6ccccc6)c6ccc([nH]6)c(-c6ccccc6)c6nc(c(-c7ccccc7)c7ccc4[nH]7)C=C6)C=C5)cc3)cc2-c2ccccc2)cc1
REMARK SMILES IDX 19 1 20 2 21 3 18 5 17 6 16 7 15 8 12 9 13 10 14 12 11 14
REMARK SMILES IDX 9 15 10 16 77 17 76 18 8 19 5 20 6 21 85 22 7 23 84 24 2 25
REMARK SMILES IDX 3 26 4 27 1 28 78 31 79 32 83 33 80 34 82 35 81 36 22 37
REMARK SMILES IDX 23 38 24 39 25 40 26 41 27 43 28 44 29 45 75 46 30 47 74 48
REMARK SMILES IDX 31 49 32 50 33 51 68 52 34 53 73 54 67 55 69 56 35 57 72 58
REMARK SMILES IDX 66 59 65 60 36 62 58 63 43 64 57 65 44 66 47 67 56 68 70 69
REMARK SMILES IDX 45 70 46 71 55 73 71 74 48 75 37 76 38 77 42 78 39 79 41 80
REMARK SMILES IDX 40 81 59 82 60 83 64 84 61 85 63 86 62 87 49 88 50 89 54 90
REMARK SMILES IDX 51 91 53 92 52 93
REMARK H PARENT 21 4 12 11 15 13 1 29 1 30 25 42 69 61 47 72
REMARK Flexibility Score: inf
ROOT
ATOM      1  C   UNL A   1      31.937  29.051  23.940  1.00  0.00     0.220 C 
ATOM      2  O   UNL A   1      30.753  29.382  23.848  1.00  0.00    -0.275 OA
ATOM      3  N   UNL A   1      32.505  29.037  25.181  1.00  0.00    -0.356 N 
ATOM      4  H   UNL A   1      31.877  29.208  25.919  1.00  0.00     0.163 HD
ENDROOT
BRANCH   1   5
ATOM      5  C   UNL A   1      32.736  28.664  22.708  1.00  0.00     0.102 C 
BRANCH   5   6
ATOM      6  C   UNL A   1      32.861  27.152  22.509  1.00  0.00     0.031 C 
BRANCH   6   7
ATOM      7  C   UNL A   1      31.605  26.485  21.965  1.00  0.00     0.118 C 
BRANCH   7   8
ATOM      8  N   UNL A   1      30.403  26.746  22.740  1.00  0.00    -0.338 N 
ATOM      9  N   UNL A   1      30.079  24.756  24.023  1.00  0.00    -0.291 N 
ATOM     10  C   UNL A   1      29.728  26.001  23.642  1.00  0.00     0.320 C 
ATOM     11  H   UNL A   1      29.346  24.235  24.426  1.00  0.00     0.173 HD
ATOM     12  O   UNL A   1      28.670  26.471  24.075  1.00  0.00    -0.248 OA
ATOM     13  H   UNL A   1      30.005  27.631  22.576  1.00  0.00     0.165 HD
BRANCH   9  14
ATOM     14  C   UNL A   1      31.272  24.083  23.951  1.00  0.00     0.157 A 
ATOM     15  N   UNL A   1      32.614  22.450  23.904  1.00  0.00    -0.231 N 
ATOM     16  N   UNL A   1      31.434  22.875  23.418  1.00  0.00    -0.149 NA
ATOM     17  C   UNL A   1      33.397  23.523  24.310  1.00  0.00     0.076 A 
ATOM     18  C   UNL A   1      32.523  24.599  24.354  1.00  0.00     0.078 A 
BRANCH  15  19
ATOM     19  C   UNL A   1      32.828  21.055  24.060  1.00  0.00     0.065 A 
ATOM     20  C   UNL A   1      33.175  18.310  24.395  1.00  0.00     0.082 A 
ATOM     21  C   UNL A   1      33.642  19.189  25.374  1.00  0.00     0.024 A 
ATOM     22  C   UNL A   1      32.507  18.789  23.264  1.00  0.00     0.024 A 
ATOM     23  C   UNL A   1      33.477  20.564  25.202  1.00  0.00     0.030 A 
ATOM     24  C   UNL A   1      32.311  20.163  23.108  1.00  0.00     0.030 A 
BRANCH  20  25
ATOM     25  S   UNL A   1      33.468  16.571  24.532  1.00  0.00     0.238 S 
ATOM     26  O   UNL A   1      34.395  16.357  25.636  1.00  0.00    -0.207 OA
ATOM     27  O   UNL A   1      33.663  16.020  23.230  1.00  0.00    -0.207 OA
BRANCH  25  28
ATOM     28  N   UNL A   1      32.003  15.950  25.086  1.00  0.00    -0.225 NA
ATOM     29  H   UNL A   1      31.995  14.938  24.964  1.00  0.00     0.137 HD
ATOM     30  H   UNL A   1      31.237  16.363  24.555  1.00  0.00     0.137 HD
ENDBRANCH  25  28
ENDBRANCH  20  25
ENDBRANCH  15  19
BRANCH  17  31
ATOM     31  C   UNL A   1      34.817  23.426  24.628  1.00  0.00     0.000 A 
ATOM     32  C   UNL A   1      35.274  23.780  25.906  1.00  0.00     0.010 A 
ATOM     33  C   UNL A   1      35.745  23.060  23.648  1.00  0.00     0.010 A 
ATOM     34  C   UNL A   1      36.639  23.812  26.187  1.00  0.00     0.001 A 
ATOM     35  C   UNL A   1      37.112  23.092  23.932  1.00  0.00     0.001 A 
ATOM     36  C   UNL A   1      37.558  23.478  25.196  1.00  0.00     0.000 A 
ENDBRANCH  17  31
ENDBRANCH   9  14
ENDBRANCH   7   8
ENDBRANCH   6   7
ENDBRANCH   5   6
ENDBRANCH   1   5
BRANCH   3  37
ATOM     37  C   UNL A   1      33.887  28.810  25.598  1.00  0.00     0.117 C 
BRANCH  37  38
ATOM     38  C   UNL A   1      34.067  28.901  27.118  1.00  0.00     0.042 C 
BRANCH  38  39
ATOM     39  C   UNL A   1      35.444  29.321  27.572  1.00  0.00     0.118 C 
BRANCH  39  40
ATOM     40  N   UNL A   1      35.511  29.689  28.991  1.00  0.00    -0.352 N 
ATOM     41  C   UNL A   1      36.506  29.377  29.906  1.00  0.00     0.251 C 
ATOM     42  H   UNL A   1      34.757  30.220  29.336  1.00  0.00     0.163 HD
ATOM     43  O   UNL A   1      36.294  29.405  31.112  1.00  0.00    -0.269 OA
BRANCH  41  44
ATOM     44  C   UNL A   1      37.834  28.995  29.390  1.00  0.00     0.039 A 
ATOM     45  C   UNL A   1      38.457  29.640  28.319  1.00  0.00     0.014 A 
ATOM     46  C   UNL A   1      38.497  27.994  30.078  1.00  0.00     0.014 A 
ATOM     47  C   UNL A   1      39.781  29.308  28.020  1.00  0.00     0.010 A 
ATOM     48  C   UNL A   1      39.855  27.915  29.991  1.00  0.00     0.010 A 
ATOM     49  C   UNL A   1      40.484  28.450  28.881  1.00  0.00    -0.014 A 
BRANCH  49  50
ATOM     50  C   UNL A   1      41.855  28.030  28.636  1.00  0.00     0.031 A 
ATOM     51  C   UNL A   1      42.060  26.841  27.780  1.00  0.00     0.074 A 
ATOM     52  C   UNL A   1      42.931  28.737  29.050  1.00  0.00     0.049 A 
ATOM     53  N   UNL A   1      42.393  25.658  28.171  1.00  0.00    -0.248 NA
ATOM     54  C   UNL A   1      41.807  26.953  26.339  1.00  0.00     0.031 C 
ATOM     55  C   UNL A   1      43.002  30.072  29.669  1.00  0.00     0.029 A 
ATOM     56  N   UNL A   1      44.242  28.411  28.908  1.00  0.00    -0.354 N 
ATOM     57  C   UNL A   1      42.563  24.901  27.020  1.00  0.00     0.074 A 
ATOM     58  C   UNL A   1      42.061  25.706  25.932  1.00  0.00     0.031 C 
ATOM     59  C   UNL A   1      44.270  30.530  29.625  1.00  0.00     0.029 A 
ATOM     60  C   UNL A   1      45.121  29.442  29.192  1.00  0.00     0.049 A 
ATOM     61  H   UNL A   1      44.543  27.518  28.627  1.00  0.00     0.167 HD
ATOM     62  C   UNL A   1      43.287  23.747  27.027  1.00  0.00     0.031 A 
ATOM     63  C   UNL A   1      46.466  29.403  29.111  1.00  0.00     0.031 A 
ATOM     64  C   UNL A   1      43.603  23.314  28.366  1.00  0.00     0.049 A 
ATOM     65  C   UNL A   1      46.867  27.985  29.222  1.00  0.00     0.074 A 
ATOM     66  C   UNL A   1      42.867  22.947  29.475  1.00  0.00     0.029 A 
ATOM     67  N   UNL A   1      44.863  23.602  28.836  1.00  0.00    -0.354 N 
ATOM     68  N   UNL A   1      46.705  27.282  30.308  1.00  0.00    -0.248 NA
ATOM     69  C   UNL A   1      47.052  27.213  28.006  1.00  0.00     0.031 C 
ATOM     70  C   UNL A   1      43.571  23.504  30.585  1.00  0.00     0.029 A 
ATOM     71  C   UNL A   1      44.716  24.134  30.092  1.00  0.00     0.049 A 
ATOM     72  H   UNL A   1      45.713  23.453  28.361  1.00  0.00     0.167 HD
ATOM     73  C   UNL A   1      46.331  26.022  29.865  1.00  0.00     0.074 A 
ATOM     74  C   UNL A   1      46.686  26.005  28.447  1.00  0.00     0.031 C 
ATOM     75  C   UNL A   1      45.523  25.217  30.618  1.00  0.00     0.031 A 
BRANCH  62  76
ATOM     76  C   UNL A   1      44.016  23.195  25.834  1.00  0.00    -0.014 A 
ATOM     77  C   UNL A   1      43.870  21.833  25.519  1.00  0.00     0.009 A 
ATOM     78  C   UNL A   1      45.038  23.898  25.172  1.00  0.00     0.009 A 
ATOM     79  C   UNL A   1      44.737  21.197  24.623  1.00  0.00     0.001 A 
ATOM     80  C   UNL A   1      45.879  23.276  24.246  1.00  0.00     0.001 A 
ATOM     81  C   UNL A   1      45.745  21.918  23.990  1.00  0.00     0.000 A 
ENDBRANCH  62  76
BRANCH  63  82
ATOM     82  C   UNL A   1      47.377  30.490  28.717  1.00  0.00    -0.014 A 
ATOM     83  C   UNL A   1      48.513  30.789  29.481  1.00  0.00     0.009 A 
ATOM     84  C   UNL A   1      47.269  31.061  27.435  1.00  0.00     0.009 A 
ATOM     85  C   UNL A   1      49.530  31.597  28.957  1.00  0.00     0.001 A 
ATOM     86  C   UNL A   1      48.284  31.867  26.914  1.00  0.00     0.001 A 
ATOM     87  C   UNL A   1      49.423  32.120  27.670  1.00  0.00     0.000 A 
ENDBRANCH  63  82
BRANCH  75  88
ATOM     88  C   UNL A   1      45.220  25.657  32.033  1.00  0.00    -0.014 A 
ATOM     89  C   UNL A   1      44.164  26.533  32.344  1.00  0.00     0.009 A 
ATOM     90  C   UNL A   1      45.919  25.065  33.093  1.00  0.00     0.009 A 
ATOM     91  C   UNL A   1      43.840  26.833  33.671  1.00  0.00     0.001 A 
ATOM     92  C   UNL A   1      45.585  25.350  34.421  1.00  0.00     0.001 A 
ATOM     93  C   UNL A   1      44.550  26.238  34.710  1.00  0.00     0.000 A 
ENDBRANCH  75  88
ENDBRANCH  49  50
ENDBRANCH  41  44
ENDBRANCH  39  40
ENDBRANCH  38  39
ENDBRANCH  37  38
ENDBRANCH   3  37
TORSDOF 18
ENDMDL
MODEL 3
REMARK VINA RESULT:     -11.8      3.068      8.203
REMARK SMILES NS(=O)(=O)c1ccc(-n2nc(NC(=O)NCCCC(=O)NCCCNC(=O)c3ccc(-c4c5nc(c(-c6ccccc6)c6ccc([nH]6)c(-c6ccccc6)c6nc(c(-c7ccccc7)c7ccc4[nH]7)C=C6)C=C5)cc3)cc2-c2ccccc2)cc1
REMARK SMILES IDX 19 1 20 2 21 3 18 5 17 6 16 7 15 8 12 9 13 10 14 12 11 14
REMARK SMILES IDX 9 15 10 16 77 17 76 18 8 19 5 20 6 21 85 22 7 23 84 24 2 25
REMARK SMILES IDX 3 26 4 27 1 28 78 31 79 32 83 33 80 34 82 35 81 36 22 37
REMARK SMILES IDX 23 38 24 39 25 40 26 41 27 43 28 44 29 45 75 46 30 47 74 48
REMARK SMILES IDX 31 49 32 50 33 51 68 52 34 53 73 54 67 55 69 56 35 57 72 58
REMARK SMILES IDX 66 59 65 60 36 62 58 63 43 64 57 65 44 66 47 67 56 68 70 69
REMARK SMILES IDX 45 70 46 71 55 73 71 74 48 75 37 76 38 77 42 78 39 79 41 80
REMARK SMILES IDX 40 81 59 82 60 83 64 84 61 85 63 86 62 87 49 88 50 89 54 90
REMARK SMILES IDX 51 91 53 92 52 93
REMARK H PARENT 21 4 12 11 15 13 1 29 1 30 25 42 69 61 47 72
REMARK Flexibility Score: inf
ROOT
ATOM      1  C   UNL A   1      31.290  29.451  23.773  1.00  0.00     0.220 C 
ATOM      2  O   UNL A   1      30.105  29.631  23.485  1.00  0.00    -0.275 OA
ATOM      3  N   UNL A   1      31.672  29.640  25.069  1.00  0.00    -0.356 N 
ATOM      4  H   UNL A   1      30.931  29.820  25.691  1.00  0.00     0.163 HD
ENDROOT
BRANCH   1   5
ATOM      5  C   UNL A   1      32.292  29.022  22.716  1.00  0.00     0.102 C 
BRANCH   5   6
ATOM      6  C   UNL A   1      32.565  27.516  22.705  1.00  0.00     0.031 C 
BRANCH   6   7
ATOM      7  C   UNL A   1      31.388  26.668  22.245  1.00  0.00     0.118 C 
BRANCH   7   8
ATOM      8  N   UNL A   1      30.176  26.846  23.029  1.00  0.00    -0.338 N 
ATOM      9  N   UNL A   1      29.858  24.744  24.117  1.00  0.00    -0.291 N 
ATOM     10  C   UNL A   1      29.499  26.016  23.851  1.00  0.00     0.320 C 
ATOM     11  H   UNL A   1      29.125  24.182  24.463  1.00  0.00     0.173 HD
ATOM     12  O   UNL A   1      28.433  26.435  24.315  1.00  0.00    -0.248 OA
ATOM     13  H   UNL A   1      29.773  27.741  22.944  1.00  0.00     0.165 HD
BRANCH   9  14
ATOM     14  C   UNL A   1      31.057  24.089  23.995  1.00  0.00     0.157 A 
ATOM     15  N   UNL A   1      32.420  22.477  23.890  1.00  0.00    -0.231 N 
ATOM     16  N   UNL A   1      31.214  22.884  23.454  1.00  0.00    -0.149 NA
ATOM     17  C   UNL A   1      33.203  23.561  24.264  1.00  0.00     0.076 A 
ATOM     18  C   UNL A   1      32.315  24.623  24.346  1.00  0.00     0.078 A 
BRANCH  15  19
ATOM     19  C   UNL A   1      32.662  21.085  24.035  1.00  0.00     0.065 A 
ATOM     20  C   UNL A   1      33.061  18.343  24.337  1.00  0.00     0.082 A 
ATOM     21  C   UNL A   1      33.367  19.206  25.392  1.00  0.00     0.024 A 
ATOM     22  C   UNL A   1      32.526  18.836  23.143  1.00  0.00     0.024 A 
ATOM     23  C   UNL A   1      33.176  20.580  25.237  1.00  0.00     0.030 A 
ATOM     24  C   UNL A   1      32.303  20.208  23.000  1.00  0.00     0.030 A 
BRANCH  20  25
ATOM     25  S   UNL A   1      33.395  16.611  24.464  1.00  0.00     0.238 S 
ATOM     26  O   UNL A   1      33.858  16.146  23.162  1.00  0.00    -0.207 OA
ATOM     27  O   UNL A   1      32.342  15.979  25.191  1.00  0.00    -0.207 OA
BRANCH  25  28
ATOM     28  N   UNL A   1      34.758  16.527  25.450  1.00  0.00    -0.225 NA
ATOM     29  H   UNL A   1      34.510  16.810  26.398  1.00  0.00     0.137 HD
ATOM     30  H   UNL A   1      35.480  17.148  25.086  1.00  0.00     0.137 HD
ENDBRANCH  25  28
ENDBRANCH  20  25
ENDBRANCH  15  19
BRANCH  17  31
ATOM     31  C   UNL A   1      34.636  23.486  24.523  1.00  0.00     0.000 A 
ATOM     32  C   UNL A   1      35.508  23.054  23.512  1.00  0.00     0.010 A 
ATOM     33  C   UNL A   1      35.149  23.764  25.794  1.00  0.00     0.010 A 
ATOM     34  C   UNL A   1      36.862  22.857  23.780  1.00  0.00     0.001 A 
ATOM     35  C   UNL A   1      36.505  23.567  26.060  1.00  0.00     0.001 A 
ATOM     36  C   UNL A   1      37.358  23.105  25.058  1.00  0.00     0.000 A 
ENDBRANCH  17  31
ENDBRANCH   9  14
ENDBRANCH   7   8
ENDBRANCH   6   7
ENDBRANCH   5   6
ENDBRANCH   1   5
BRANCH   3  37
ATOM     37  C   UNL A   1      32.995  29.621  25.690  1.00  0.00     0.117 C 
BRANCH  37  38
ATOM     38  C   UNL A   1      33.022  30.339  27.043  1.00  0.00     0.042 C 
BRANCH  38  39
ATOM     39  C   UNL A   1      34.400  30.707  27.542  1.00  0.00     0.118 C 
BRANCH  39  40
ATOM     40  N   UNL A   1      34.390  31.691  28.629  1.00  0.00    -0.352 N 
ATOM     41  C   UNL A   1      35.218  31.740  29.742  1.00  0.00     0.251 C 
ATOM     42  H   UNL A   1      33.714  32.404  28.562  1.00  0.00     0.163 HD
ATOM     43  O   UNL A   1      34.895  32.359  30.749  1.00  0.00    -0.269 OA
BRANCH  41  44
ATOM     44  C   UNL A   1      36.499  31.011  29.691  1.00  0.00     0.039 A 
ATOM     45  C   UNL A   1      37.722  31.626  29.412  1.00  0.00     0.014 A 
ATOM     46  C   UNL A   1      36.457  29.668  30.019  1.00  0.00     0.014 A 
ATOM     47  C   UNL A   1      38.892  30.876  29.553  1.00  0.00     0.010 A 
ATOM     48  C   UNL A   1      37.592  29.055  30.461  1.00  0.00     0.010 A 
ATOM     49  C   UNL A   1      38.817  29.585  30.100  1.00  0.00    -0.014 A 
BRANCH  49  50
ATOM     50  C   UNL A   1      39.979  28.723  30.261  1.00  0.00     0.031 A 
ATOM     51  C   UNL A   1      40.575  28.630  31.611  1.00  0.00     0.074 A 
ATOM     52  C   UNL A   1      40.452  27.927  29.275  1.00  0.00     0.049 A 
ATOM     53  N   UNL A   1      41.670  29.185  32.010  1.00  0.00    -0.248 NA
ATOM     54  C   UNL A   1      39.852  27.897  32.656  1.00  0.00     0.031 C 
ATOM     55  C   UNL A   1      39.886  27.630  27.948  1.00  0.00     0.029 A 
ATOM     56  N   UNL A   1      41.546  27.123  29.312  1.00  0.00    -0.354 N 
ATOM     57  C   UNL A   1      41.879  28.742  33.309  1.00  0.00     0.074 A 
ATOM     58  C   UNL A   1      40.667  28.063  33.702  1.00  0.00     0.031 C 
ATOM     59  C   UNL A   1      40.500  26.552  27.419  1.00  0.00     0.029 A 
ATOM     60  C   UNL A   1      41.637  26.233  28.257  1.00  0.00     0.049 A 
ATOM     61  H   UNL A   1      42.219  27.170  30.029  1.00  0.00     0.167 HD
ATOM     62  C   UNL A   1      43.109  28.797  33.890  1.00  0.00     0.031 A 
ATOM     63  C   UNL A   1      42.599  25.309  28.058  1.00  0.00     0.031 A 
ATOM     64  C   UNL A   1      44.041  29.575  33.113  1.00  0.00     0.049 A 
ATOM     65  C   UNL A   1      43.795  25.762  28.800  1.00  0.00     0.074 A 
ATOM     66  C   UNL A   1      44.103  30.887  32.685  1.00  0.00     0.029 A 
ATOM     67  N   UNL A   1      44.923  28.883  32.315  1.00  0.00    -0.354 N 
ATOM     68  N   UNL A   1      44.467  26.834  28.483  1.00  0.00    -0.248 NA
ATOM     69  C   UNL A   1      44.003  25.278  30.153  1.00  0.00     0.031 C 
ATOM     70  C   UNL A   1      44.631  30.817  31.360  1.00  0.00     0.029 A 
ATOM     71  C   UNL A   1      44.902  29.476  31.078  1.00  0.00     0.049 A 
ATOM     72  H   UNL A   1      45.468  28.108  32.582  1.00  0.00     0.167 HD
ATOM     73  C   UNL A   1      44.827  27.401  29.696  1.00  0.00     0.074 A 
ATOM     74  C   UNL A   1      44.627  26.337  30.679  1.00  0.00     0.031 C 
ATOM     75  C   UNL A   1      44.989  28.751  29.827  1.00  0.00     0.031 A 
BRANCH  62  76
ATOM     76  C   UNL A   1      43.580  27.864  34.971  1.00  0.00    -0.014 A 
ATOM     77  C   UNL A   1      43.773  26.507  34.661  1.00  0.00     0.009 A 
ATOM     78  C   UNL A   1      43.588  28.216  36.332  1.00  0.00     0.009 A 
ATOM     79  C   UNL A   1      43.916  25.544  35.668  1.00  0.00     0.001 A 
ATOM     80  C   UNL A   1      43.771  27.263  37.338  1.00  0.00     0.001 A 
ATOM     81  C   UNL A   1      43.910  25.923  37.006  1.00  0.00     0.000 A 
ENDBRANCH  62  76
BRANCH  63  82
ATOM     82  C   UNL A   1      42.456  23.973  27.460  1.00  0.00    -0.014 A 
ATOM     83  C   UNL A   1      41.688  22.983  28.086  1.00  0.00     0.009 A 
ATOM     84  C   UNL A   1      42.863  23.756  26.129  1.00  0.00     0.009 A 
ATOM     85  C   UNL A   1      41.300  21.834  27.387  1.00  0.00     0.001 A 
ATOM     86  C   UNL A   1      42.475  22.609  25.432  1.00  0.00     0.001 A 
ATOM     87  C   UNL A   1      41.678  21.656  26.057  1.00  0.00     0.000 A 
ENDBRANCH  63  82
BRANCH  75  88
ATOM     88  C   UNL A   1      44.966  29.584  28.564  1.00  0.00    -0.014 A 
ATOM     89  C   UNL A   1      43.769  29.996  27.950  1.00  0.00     0.009 A 
ATOM     90  C   UNL A   1      46.172  30.088  28.060  1.00  0.00     0.009 A 
ATOM     91  C   UNL A   1      43.780  30.856  26.848  1.00  0.00     0.001 A 
ATOM     92  C   UNL A   1      46.184  30.963  26.969  1.00  0.00     0.001 A 
ATOM     93  C   UNL A   1      44.990  31.343  26.360  1.00  0.00     0.000 A 
ENDBRANCH  75  88
ENDBRANCH  49  50
ENDBRANCH  41  44
ENDBRANCH  39  40
ENDBRANCH  38  39
ENDBRANCH  37  38
ENDBRANCH   3  37
TORSDOF 18
ENDMDL
