MODEL 1
REMARK VINA RESULT:     -13.2      0.000      0.000
REMARK SMILES O=C(NCCCNC(=O)c1cc(N2C(=O)[C@H]3[C@@H]4C=C[C@@H]([C@@H]5C[C@H]45)[C@@H]3C2=O)ccc1Cl)c1ccc(-c2c3nc(c(-c4ccccc4)c4ccc([nH]4)c(-c4ccccc4)c4nc(c(-c5ccccc5)c5ccc2[nH]5)C=C4)C=C3)cc1
REMARK SMILES IDX 4 1 3 2 1 3 2 4 31 6 32 7 78 8 33 9 77 10 34 11 35 12 36 13
REMARK SMILES IDX 71 14 37 15 76 16 70 17 72 18 38 19 75 20 69 21 68 22 39 24
REMARK SMILES IDX 61 25 46 26 60 27 47 28 50 29 59 30 73 31 48 32 49 33 58 35
REMARK SMILES IDX 74 36 51 37 40 38 41 39 45 40 42 41 44 42 43 43 62 44 63 45
REMARK SMILES IDX 67 46 64 47 66 48 65 49 52 50 53 51 57 52 54 53 56 54 55 55
REMARK SMILES IDX 5 56 6 57 7 58 8 59 9 61 10 62 11 63 29 64 12 65 28 66 30 67
REMARK SMILES IDX 27 68 13 69 14 70 25 71 15 72 16 73 24 74 26 75 17 76 20 77
REMARK SMILES IDX 18 78 23 79 19 80 21 81 22 82
REMARK H PARENT 3 5 72 23 50 34 7 60
REMARK Flexibility Score: inf
ROOT
ATOM      1  C   UNL A   1      38.569  20.264  25.684  1.00  0.00     0.118 C 
ENDROOT
BRANCH   1   2
ATOM      2  N   UNL A   1      39.666  19.304  25.752  1.00  0.00    -0.352 N 
ATOM      3  O   UNL A   1      41.798  18.582  25.936  1.00  0.00    -0.269 OA
ATOM      4  C   UNL A   1      40.987  19.489  26.086  1.00  0.00     0.251 C 
ATOM      5  H   UNL A   1      39.423  18.377  25.523  1.00  0.00     0.163 HD
BRANCH   4   6
ATOM      6  C   UNL A   1      41.433  20.800  26.602  1.00  0.00     0.039 A 
ATOM      7  C   UNL A   1      41.358  21.076  27.965  1.00  0.00     0.014 A 
ATOM      8  C   UNL A   1      41.918  21.770  25.718  1.00  0.00     0.014 A 
ATOM      9  C   UNL A   1      41.552  22.370  28.415  1.00  0.00     0.010 A 
ATOM     10  C   UNL A   1      42.259  23.038  26.200  1.00  0.00     0.010 A 
ATOM     11  C   UNL A   1      42.045  23.359  27.548  1.00  0.00    -0.014 A 
BRANCH  11  12
ATOM     12  C   UNL A   1      42.419  24.674  28.128  1.00  0.00     0.031 A 
ATOM     13  C   UNL A   1      43.842  25.017  28.467  1.00  0.00     0.074 A 
ATOM     14  C   UNL A   1      41.442  25.592  28.282  1.00  0.00     0.049 A 
ATOM     15  N   UNL A   1      44.324  26.149  28.916  1.00  0.00    -0.248 NA
ATOM     16  C   UNL A   1      44.855  23.965  28.287  1.00  0.00     0.031 C 
ATOM     17  C   UNL A   1      40.021  25.368  27.992  1.00  0.00     0.029 A 
ATOM     18  N   UNL A   1      41.493  26.903  28.675  1.00  0.00    -0.354 N 
ATOM     19  C   UNL A   1      45.687  25.945  29.085  1.00  0.00     0.074 A 
ATOM     20  C   UNL A   1      45.955  24.571  28.718  1.00  0.00     0.031 C 
ATOM     21  C   UNL A   1      39.352  26.518  28.141  1.00  0.00     0.029 A 
ATOM     22  C   UNL A   1      40.273  27.534  28.627  1.00  0.00     0.049 A 
ATOM     23  H   UNL A   1      42.321  27.349  28.964  1.00  0.00     0.167 HD
ATOM     24  C   UNL A   1      46.628  26.827  29.503  1.00  0.00     0.031 A 
ATOM     25  C   UNL A   1      39.922  28.788  28.961  1.00  0.00     0.031 A 
ATOM     26  C   UNL A   1      46.353  28.191  29.876  1.00  0.00     0.049 A 
ATOM     27  C   UNL A   1      40.981  29.720  29.466  1.00  0.00     0.074 A 
ATOM     28  C   UNL A   1      47.241  29.164  30.301  1.00  0.00     0.029 A 
ATOM     29  N   UNL A   1      45.095  28.777  29.871  1.00  0.00    -0.354 N 
ATOM     30  N   UNL A   1      42.270  29.516  29.592  1.00  0.00    -0.248 NA
ATOM     31  C   UNL A   1      40.535  31.056  29.877  1.00  0.00     0.031 C 
ATOM     32  C   UNL A   1      46.514  30.319  30.608  1.00  0.00     0.029 A 
ATOM     33  C   UNL A   1      45.182  30.088  30.310  1.00  0.00     0.049 A 
ATOM     34  H   UNL A   1      44.264  28.327  29.595  1.00  0.00     0.167 HD
ATOM     35  C   UNL A   1      42.791  30.703  30.083  1.00  0.00     0.074 A 
ATOM     36  C   UNL A   1      41.685  31.632  30.193  1.00  0.00     0.031 C 
ATOM     37  C   UNL A   1      44.070  30.996  30.422  1.00  0.00     0.031 A 
BRANCH  24  38
ATOM     38  C   UNL A   1      48.050  26.343  29.604  1.00  0.00    -0.014 A 
ATOM     39  C   UNL A   1      48.933  26.443  28.518  1.00  0.00     0.009 A 
ATOM     40  C   UNL A   1      48.536  25.855  30.829  1.00  0.00     0.009 A 
ATOM     41  C   UNL A   1      50.267  26.045  28.650  1.00  0.00     0.001 A 
ATOM     42  C   UNL A   1      49.876  25.485  30.965  1.00  0.00     0.001 A 
ATOM     43  C   UNL A   1      50.738  25.574  29.875  1.00  0.00     0.000 A 
ENDBRANCH  24  38
BRANCH  25  44
ATOM     44  C   UNL A   1      38.500  29.215  28.876  1.00  0.00    -0.014 A 
ATOM     45  C   UNL A   1      37.964  29.704  27.676  1.00  0.00     0.009 A 
ATOM     46  C   UNL A   1      37.674  29.152  30.010  1.00  0.00     0.009 A 
ATOM     47  C   UNL A   1      36.645  30.159  27.625  1.00  0.00     0.001 A 
ATOM     48  C   UNL A   1      36.344  29.567  29.946  1.00  0.00     0.001 A 
ATOM     49  C   UNL A   1      35.836  30.086  28.758  1.00  0.00     0.000 A 
ENDBRANCH  25  44
BRANCH  37  50
ATOM     50  C   UNL A   1      44.332  32.391  30.915  1.00  0.00    -0.014 A 
ATOM     51  C   UNL A   1      44.621  33.438  30.024  1.00  0.00     0.009 A 
ATOM     52  C   UNL A   1      44.294  32.662  32.292  1.00  0.00     0.009 A 
ATOM     53  C   UNL A   1      44.916  34.715  30.507  1.00  0.00     0.001 A 
ATOM     54  C   UNL A   1      44.553  33.946  32.768  1.00  0.00     0.001 A 
ATOM     55  C   UNL A   1      44.878  34.967  31.877  1.00  0.00     0.000 A 
ENDBRANCH  37  50
ENDBRANCH  11  12
ENDBRANCH   4   6
ENDBRANCH   1   2
BRANCH   1  56
ATOM     56  C   UNL A   1      37.458  19.839  24.741  1.00  0.00     0.042 C 
BRANCH  56  57
ATOM     57  C   UNL A   1      36.142  20.546  25.001  1.00  0.00     0.118 C 
BRANCH  57  58
ATOM     58  N   UNL A   1      35.078  19.617  25.345  1.00  0.00    -0.352 N 
ATOM     59  C   UNL A   1      33.724  19.753  25.208  1.00  0.00     0.252 C 
ATOM     60  H   UNL A   1      35.376  18.764  25.735  1.00  0.00     0.163 HD
ATOM     61  O   UNL A   1      32.969  18.902  25.668  1.00  0.00    -0.269 OA
BRANCH  59  62
ATOM     62  C   UNL A   1      33.154  20.941  24.555  1.00  0.00     0.060 A 
ATOM     63  C   UNL A   1      33.257  22.152  25.260  1.00  0.00     0.042 A 
ATOM     64  C   UNL A   1      32.465  20.882  23.335  1.00  0.00     0.053 A 
ATOM     65  C   UNL A   1      32.645  23.296  24.752  1.00  0.00     0.053 A 
ATOM     66  C   UNL A   1      31.949  22.053  22.783  1.00  0.00     0.023 A 
ATOM     67  Cl  UNL A   1      32.154  19.413  22.481  1.00  0.00    -0.083 Cl
ATOM     68  C   UNL A   1      32.017  23.246  23.499  1.00  0.00     0.028 A 
BRANCH  65  69
ATOM     69  N   UNL A   1      32.694  24.521  25.440  1.00  0.00    -0.250 N 
ATOM     70  C   UNL A   1      33.731  25.452  25.261  1.00  0.00     0.238 C 
ATOM     71  C   UNL A   1      31.557  25.093  26.049  1.00  0.00     0.238 C 
ATOM     72  O   UNL A   1      34.760  25.360  24.616  1.00  0.00    -0.274 OA
ATOM     73  C   UNL A   1      33.277  26.641  26.047  1.00  0.00     0.100 C 
ATOM     74  C   UNL A   1      31.772  26.536  25.783  1.00  0.00     0.100 C 
ATOM     75  O   UNL A   1      30.552  24.568  26.485  1.00  0.00    -0.274 OA
ATOM     76  C   UNL A   1      33.705  28.113  25.934  1.00  0.00     0.028 C 
ATOM     77  C   UNL A   1      31.098  27.850  26.143  1.00  0.00     0.028 C 
ATOM     78  C   UNL A   1      33.107  28.666  27.251  1.00  0.00    -0.026 C 
ATOM     79  C   UNL A   1      33.003  28.926  24.829  1.00  0.00     0.001 C 
ATOM     80  C   UNL A   1      31.772  28.472  27.375  1.00  0.00    -0.026 C 
ATOM     81  C   UNL A   1      31.475  28.795  24.941  1.00  0.00     0.001 C 
ATOM     82  C   UNL A   1      32.218  28.411  23.658  1.00  0.00     0.009 C 
ENDBRANCH  65  69
ENDBRANCH  59  62
ENDBRANCH  57  58
ENDBRANCH  56  57
ENDBRANCH   1  56
TORSDOF 11
ENDMDL
MODEL 2
REMARK VINA RESULT:     -13.2      3.722      8.949
REMARK SMILES O=C(NCCCNC(=O)c1cc(N2C(=O)[C@H]3[C@@H]4C=C[C@@H]([C@@H]5C[C@H]45)[C@@H]3C2=O)ccc1Cl)c1ccc(-c2c3nc(c(-c4ccccc4)c4ccc([nH]4)c(-c4ccccc4)c4nc(c(-c5ccccc5)c5ccc2[nH]5)C=C4)C=C3)cc1
REMARK SMILES IDX 4 1 3 2 1 3 2 4 31 6 32 7 78 8 33 9 77 10 34 11 35 12 36 13
REMARK SMILES IDX 71 14 37 15 76 16 70 17 72 18 38 19 75 20 69 21 68 22 39 24
REMARK SMILES IDX 61 25 46 26 60 27 47 28 50 29 59 30 73 31 48 32 49 33 58 35
REMARK SMILES IDX 74 36 51 37 40 38 41 39 45 40 42 41 44 42 43 43 62 44 63 45
REMARK SMILES IDX 67 46 64 47 66 48 65 49 52 50 53 51 57 52 54 53 56 54 55 55
REMARK SMILES IDX 5 56 6 57 7 58 8 59 9 61 10 62 11 63 29 64 12 65 28 66 30 67
REMARK SMILES IDX 27 68 13 69 14 70 25 71 15 72 16 73 24 74 26 75 17 76 20 77
REMARK SMILES IDX 18 78 23 79 19 80 21 81 22 82
REMARK H PARENT 3 5 72 23 50 34 7 60
REMARK Flexibility Score: inf
ROOT
ATOM      1  C   UNL A   1      32.273  32.115  26.766  1.00  0.00     0.118 C 
ENDROOT
BRANCH   1   2
ATOM      2  N   UNL A   1      32.143  33.481  27.262  1.00  0.00    -0.352 N 
ATOM      3  O   UNL A   1      32.578  35.283  28.552  1.00  0.00    -0.269 OA
ATOM      4  C   UNL A   1      32.939  34.189  28.132  1.00  0.00     0.251 C 
ATOM      5  H   UNL A   1      31.361  33.974  26.921  1.00  0.00     0.163 HD
BRANCH   4   6
ATOM      6  C   UNL A   1      34.222  33.612  28.582  1.00  0.00     0.039 A 
ATOM      7  C   UNL A   1      34.248  32.706  29.640  1.00  0.00     0.014 A 
ATOM      8  C   UNL A   1      35.414  33.987  27.954  1.00  0.00     0.014 A 
ATOM      9  C   UNL A   1      35.458  32.350  30.209  1.00  0.00     0.010 A 
ATOM     10  C   UNL A   1      36.635  33.504  28.438  1.00  0.00     0.010 A 
ATOM     11  C   UNL A   1      36.668  32.708  29.593  1.00  0.00    -0.014 A 
BRANCH  11  12
ATOM     12  C   UNL A   1      37.926  32.135  30.136  1.00  0.00     0.031 A 
ATOM     13  C   UNL A   1      38.626  32.736  31.321  1.00  0.00     0.074 A 
ATOM     14  C   UNL A   1      38.393  31.003  29.570  1.00  0.00     0.049 A 
ATOM     15  N   UNL A   1      39.695  32.304  31.943  1.00  0.00    -0.248 NA
ATOM     16  C   UNL A   1      38.070  33.978  31.880  1.00  0.00     0.031 C 
ATOM     17  C   UNL A   1      37.797  30.332  28.408  1.00  0.00     0.029 A 
ATOM     18  N   UNL A   1      39.443  30.193  29.913  1.00  0.00    -0.354 N 
ATOM     19  C   UNL A   1      39.947  33.222  32.954  1.00  0.00     0.074 A 
ATOM     20  C   UNL A   1      38.937  34.252  32.847  1.00  0.00     0.031 C 
ATOM     21  C   UNL A   1      38.440  29.179  28.186  1.00  0.00     0.029 A 
ATOM     22  C   UNL A   1      39.547  29.072  29.124  1.00  0.00     0.049 A 
ATOM     23  H   UNL A   1      40.061  30.392  30.652  1.00  0.00     0.167 HD
ATOM     24  C   UNL A   1      40.929  33.200  33.889  1.00  0.00     0.031 A 
ATOM     25  C   UNL A   1      40.451  28.077  29.132  1.00  0.00     0.031 A 
ATOM     26  C   UNL A   1      41.936  32.174  33.984  1.00  0.00     0.049 A 
ATOM     27  C   UNL A   1      41.551  28.113  30.148  1.00  0.00     0.074 A 
ATOM     28  C   UNL A   1      42.965  32.060  34.904  1.00  0.00     0.029 A 
ATOM     29  N   UNL A   1      42.045  31.088  33.129  1.00  0.00    -0.354 N 
ATOM     30  N   UNL A   1      41.755  28.975  31.114  1.00  0.00    -0.248 NA
ATOM     31  C   UNL A   1      42.546  27.037  30.073  1.00  0.00     0.031 C 
ATOM     32  C   UNL A   1      43.730  30.938  34.569  1.00  0.00     0.029 A 
ATOM     33  C   UNL A   1      43.139  30.314  33.484  1.00  0.00     0.049 A 
ATOM     34  H   UNL A   1      41.435  30.895  32.381  1.00  0.00     0.167 HD
ATOM     35  C   UNL A   1      42.894  28.538  31.772  1.00  0.00     0.074 A 
ATOM     36  C   UNL A   1      43.311  27.313  31.119  1.00  0.00     0.031 C 
ATOM     37  C   UNL A   1      43.545  29.104  32.818  1.00  0.00     0.031 A 
BRANCH  24  38
ATOM     38  C   UNL A   1      40.982  34.333  34.880  1.00  0.00    -0.014 A 
ATOM     39  C   UNL A   1      41.652  35.530  34.583  1.00  0.00     0.009 A 
ATOM     40  C   UNL A   1      40.282  34.231  36.093  1.00  0.00     0.009 A 
ATOM     41  C   UNL A   1      41.639  36.592  35.491  1.00  0.00     0.001 A 
ATOM     42  C   UNL A   1      40.247  35.305  36.985  1.00  0.00     0.001 A 
ATOM     43  C   UNL A   1      40.930  36.482  36.687  1.00  0.00     0.000 A 
ENDBRANCH  24  38
BRANCH  25  44
ATOM     44  C   UNL A   1      40.379  26.994  28.114  1.00  0.00    -0.014 A 
ATOM     45  C   UNL A   1      41.083  27.093  26.905  1.00  0.00     0.009 A 
ATOM     46  C   UNL A   1      39.585  25.860  28.345  1.00  0.00     0.009 A 
ATOM     47  C   UNL A   1      40.958  26.098  25.933  1.00  0.00     0.001 A 
ATOM     48  C   UNL A   1      39.495  24.848  27.389  1.00  0.00     0.001 A 
ATOM     49  C   UNL A   1      40.169  24.975  26.177  1.00  0.00     0.000 A 
ENDBRANCH  25  44
BRANCH  37  50
ATOM     50  C   UNL A   1      44.756  28.377  33.329  1.00  0.00    -0.014 A 
ATOM     51  C   UNL A   1      46.042  28.668  32.843  1.00  0.00     0.009 A 
ATOM     52  C   UNL A   1      44.609  27.384  34.310  1.00  0.00     0.009 A 
ATOM     53  C   UNL A   1      47.147  27.942  33.292  1.00  0.00     0.001 A 
ATOM     54  C   UNL A   1      45.720  26.686  34.782  1.00  0.00     0.001 A 
ATOM     55  C   UNL A   1      46.985  26.955  34.262  1.00  0.00     0.000 A 
ENDBRANCH  37  50
ENDBRANCH  11  12
ENDBRANCH   4   6
ENDBRANCH   1   2
BRANCH   1  56
ATOM     56  C   UNL A   1      31.004  31.584  26.125  1.00  0.00     0.042 C 
BRANCH  56  57
ATOM     57  C   UNL A   1      31.217  30.315  25.323  1.00  0.00     0.118 C 
BRANCH  57  58
ATOM     58  N   UNL A   1      30.634  30.401  23.994  1.00  0.00    -0.352 N 
ATOM     59  C   UNL A   1      30.273  29.401  23.134  1.00  0.00     0.252 C 
ATOM     60  H   UNL A   1      30.474  31.315  23.664  1.00  0.00     0.163 HD
ATOM     61  O   UNL A   1      29.903  29.671  21.996  1.00  0.00    -0.269 OA
BRANCH  59  62
ATOM     62  C   UNL A   1      30.374  27.992  23.542  1.00  0.00     0.060 A 
ATOM     63  C   UNL A   1      31.672  27.471  23.676  1.00  0.00     0.042 A 
ATOM     64  C   UNL A   1      29.253  27.166  23.711  1.00  0.00     0.053 A 
ATOM     65  C   UNL A   1      31.842  26.116  23.954  1.00  0.00     0.053 A 
ATOM     66  C   UNL A   1      29.431  25.839  24.095  1.00  0.00     0.023 A 
ATOM     67  Cl  UNL A   1      27.631  27.681  23.411  1.00  0.00    -0.083 Cl
ATOM     68  C   UNL A   1      30.718  25.312  24.191  1.00  0.00     0.028 A 
BRANCH  65  69
ATOM     69  N   UNL A   1      33.122  25.545  24.065  1.00  0.00    -0.250 N 
ATOM     70  C   UNL A   1      33.734  25.286  25.302  1.00  0.00     0.238 C 
ATOM     71  C   UNL A   1      33.729  24.836  23.006  1.00  0.00     0.238 C 
ATOM     72  O   UNL A   1      33.368  25.570  26.429  1.00  0.00    -0.274 OA
ATOM     73  C   UNL A   1      34.975  24.537  24.933  1.00  0.00     0.100 C 
ATOM     74  C   UNL A   1      34.428  23.752  23.737  1.00  0.00     0.100 C 
ATOM     75  O   UNL A   1      33.566  24.927  21.806  1.00  0.00    -0.274 OA
ATOM     76  C   UNL A   1      35.851  23.607  25.787  1.00  0.00     0.028 C 
ATOM     77  C   UNL A   1      35.372  22.609  23.402  1.00  0.00     0.028 C 
ATOM     78  C   UNL A   1      37.097  23.500  24.873  1.00  0.00    -0.026 C 
ATOM     79  C   UNL A   1      35.349  22.155  25.913  1.00  0.00     0.001 C 
ATOM     80  C   UNL A   1      36.829  23.041  23.627  1.00  0.00    -0.026 C 
ATOM     81  C   UNL A   1      35.075  21.548  24.528  1.00  0.00     0.001 C 
ATOM     82  C   UNL A   1      33.984  21.617  25.601  1.00  0.00     0.009 C 
ENDBRANCH  65  69
ENDBRANCH  59  62
ENDBRANCH  57  58
ENDBRANCH  56  57
ENDBRANCH   1  56
TORSDOF 11
ENDMDL
MODEL 3
REMARK VINA RESULT:     -13.1      0.325      5.829
REMARK SMILES O=C(NCCCNC(=O)c1cc(N2C(=O)[C@H]3[C@@H]4C=C[C@@H]([C@@H]5C[C@H]45)[C@@H]3C2=O)ccc1Cl)c1ccc(-c2c3nc(c(-c4ccccc4)c4ccc([nH]4)c(-c4ccccc4)c4nc(c(-c5ccccc5)c5ccc2[nH]5)C=C4)C=C3)cc1
REMARK SMILES IDX 4 1 3 2 1 3 2 4 31 6 32 7 78 8 33 9 77 10 34 11 35 12 36 13
REMARK SMILES IDX 71 14 37 15 76 16 70 17 72 18 38 19 75 20 69 21 68 22 39 24
REMARK SMILES IDX 61 25 46 26 60 27 47 28 50 29 59 30 73 31 48 32 49 33 58 35
REMARK SMILES IDX 74 36 51 37 40 38 41 39 45 40 42 41 44 42 43 43 62 44 63 45
REMARK SMILES IDX 67 46 64 47 66 48 65 49 52 50 53 51 57 52 54 53 56 54 55 55
REMARK SMILES IDX 5 56 6 57 7 58 8 59 9 61 10 62 11 63 29 64 12 65 28 66 30 67
REMARK SMILES IDX 27 68 13 69 14 70 25 71 15 72 16 73 24 74 26 75 17 76 20 77
REMARK SMILES IDX 18 78 23 79 19 80 21 81 22 82
REMARK H PARENT 3 5 72 23 50 34 7 60
REMARK Flexibility Score: inf
ROOT
ATOM      1  C   UNL A   1      38.610  20.305  25.530  1.00  0.00     0.118 C 
ENDROOT
BRANCH   1   2
ATOM      2  N   UNL A   1      39.686  19.335  25.711  1.00  0.00    -0.352 N 
ATOM      3  O   UNL A   1      41.792  18.596  26.050  1.00  0.00    -0.269 OA
ATOM      4  C   UNL A   1      40.990  19.521  26.106  1.00  0.00     0.251 C 
ATOM      5  H   UNL A   1      39.440  18.401  25.518  1.00  0.00     0.163 HD
BRANCH   4   6
ATOM      6  C   UNL A   1      41.428  20.851  26.574  1.00  0.00     0.039 A 
ATOM      7  C   UNL A   1      41.322  21.187  27.923  1.00  0.00     0.014 A 
ATOM      8  C   UNL A   1      41.938  21.780  25.662  1.00  0.00     0.014 A 
ATOM      9  C   UNL A   1      41.510  22.500  28.320  1.00  0.00     0.010 A 
ATOM     10  C   UNL A   1      42.271  23.068  26.095  1.00  0.00     0.010 A 
ATOM     11  C   UNL A   1      42.027  23.448  27.423  1.00  0.00    -0.014 A 
BRANCH  11  12
ATOM     12  C   UNL A   1      42.392  24.786  27.954  1.00  0.00     0.031 A 
ATOM     13  C   UNL A   1      41.362  25.852  28.201  1.00  0.00     0.074 A 
ATOM     14  C   UNL A   1      43.684  25.000  28.278  1.00  0.00     0.049 A 
ATOM     15  N   UNL A   1      41.528  27.042  28.722  1.00  0.00    -0.248 NA
ATOM     16  C   UNL A   1      39.974  25.557  27.812  1.00  0.00     0.031 C 
ATOM     17  C   UNL A   1      44.775  24.038  28.076  1.00  0.00     0.029 A 
ATOM     18  N   UNL A   1      44.296  26.067  28.880  1.00  0.00    -0.354 N 
ATOM     19  C   UNL A   1      40.274  27.641  28.714  1.00  0.00     0.074 A 
ATOM     20  C   UNL A   1      39.361  26.696  28.109  1.00  0.00     0.031 C 
ATOM     21  C   UNL A   1      45.900  24.525  28.614  1.00  0.00     0.029 A 
ATOM     22  C   UNL A   1      45.636  25.866  29.114  1.00  0.00     0.049 A 
ATOM     23  H   UNL A   1      43.823  26.895  29.123  1.00  0.00     0.167 HD
ATOM     24  C   UNL A   1      39.921  28.866  29.176  1.00  0.00     0.031 A 
ATOM     25  C   UNL A   1      46.563  26.681  29.647  1.00  0.00     0.031 A 
ATOM     26  C   UNL A   1      40.839  29.805  29.770  1.00  0.00     0.049 A 
ATOM     27  C   UNL A   1      46.145  28.046  30.101  1.00  0.00     0.074 A 
ATOM     28  C   UNL A   1      40.573  31.065  30.277  1.00  0.00     0.029 A 
ATOM     29  N   UNL A   1      42.199  29.589  29.934  1.00  0.00    -0.354 N 
ATOM     30  N   UNL A   1      44.949  28.583  30.110  1.00  0.00    -0.248 NA
ATOM     31  C   UNL A   1      47.207  28.918  30.617  1.00  0.00     0.031 C 
ATOM     32  C   UNL A   1      41.781  31.634  30.695  1.00  0.00     0.029 A 
ATOM     33  C   UNL A   1      42.789  30.703  30.510  1.00  0.00     0.049 A 
ATOM     34  H   UNL A   1      42.675  28.766  29.679  1.00  0.00     0.167 HD
ATOM     35  C   UNL A   1      45.112  29.851  30.646  1.00  0.00     0.074 A 
ATOM     36  C   UNL A   1      46.514  29.985  30.986  1.00  0.00     0.031 C 
ATOM     37  C   UNL A   1      44.186  30.823  30.833  1.00  0.00     0.031 A 
BRANCH  24  38
ATOM     38  C   UNL A   1      38.480  29.279  29.041  1.00  0.00    -0.014 A 
ATOM     39  C   UNL A   1      37.602  29.232  30.135  1.00  0.00     0.009 A 
ATOM     40  C   UNL A   1      38.015  29.801  27.822  1.00  0.00     0.009 A 
ATOM     41  C   UNL A   1      36.283  29.677  30.005  1.00  0.00     0.001 A 
ATOM     42  C   UNL A   1      36.706  30.272  27.704  1.00  0.00     0.001 A 
ATOM     43  C   UNL A   1      35.840  30.204  28.793  1.00  0.00     0.000 A 
ENDBRANCH  24  38
BRANCH  25  44
ATOM     44  C   UNL A   1      47.982  26.243  29.733  1.00  0.00    -0.014 A 
ATOM     45  C   UNL A   1      48.836  26.344  28.625  1.00  0.00     0.009 A 
ATOM     46  C   UNL A   1      48.483  25.701  30.927  1.00  0.00     0.009 A 
ATOM     47  C   UNL A   1      50.149  25.873  28.701  1.00  0.00     0.001 A 
ATOM     48  C   UNL A   1      49.807  25.269  31.013  1.00  0.00     0.001 A 
ATOM     49  C   UNL A   1      50.633  25.341  29.895  1.00  0.00     0.000 A 
ENDBRANCH  25  44
BRANCH  37  50
ATOM     50  C   UNL A   1      44.669  32.101  31.459  1.00  0.00    -0.014 A 
ATOM     51  C   UNL A   1      44.674  32.274  32.853  1.00  0.00     0.009 A 
ATOM     52  C   UNL A   1      45.123  33.148  30.642  1.00  0.00     0.009 A 
ATOM     53  C   UNL A   1      45.075  33.490  33.412  1.00  0.00     0.001 A 
ATOM     54  C   UNL A   1      45.557  34.348  31.205  1.00  0.00     0.001 A 
ATOM     55  C   UNL A   1      45.519  34.523  32.587  1.00  0.00     0.000 A 
ENDBRANCH  37  50
ENDBRANCH  11  12
ENDBRANCH   4   6
ENDBRANCH   1   2
BRANCH   1  56
ATOM     56  C   UNL A   1      37.453  19.772  24.704  1.00  0.00     0.042 C 
BRANCH  56  57
ATOM     57  C   UNL A   1      36.144  20.491  24.962  1.00  0.00     0.118 C 
BRANCH  57  58
ATOM     58  N   UNL A   1      35.069  19.572  25.297  1.00  0.00    -0.352 N 
ATOM     59  C   UNL A   1      33.716  19.730  25.173  1.00  0.00     0.252 C 
ATOM     60  H   UNL A   1      35.357  18.707  25.668  1.00  0.00     0.163 HD
ATOM     61  O   UNL A   1      32.952  18.881  25.623  1.00  0.00    -0.269 OA
BRANCH  59  62
ATOM     62  C   UNL A   1      33.159  20.939  24.548  1.00  0.00     0.060 A 
ATOM     63  C   UNL A   1      33.264  22.130  25.286  1.00  0.00     0.042 A 
ATOM     64  C   UNL A   1      32.479  20.917  23.322  1.00  0.00     0.053 A 
ATOM     65  C   UNL A   1      32.663  23.291  24.804  1.00  0.00     0.053 A 
ATOM     66  C   UNL A   1      31.976  22.105  22.796  1.00  0.00     0.023 A 
ATOM     67  Cl  UNL A   1      32.166  19.473  22.426  1.00  0.00    -0.083 Cl
ATOM     68  C   UNL A   1      32.045  23.279  23.545  1.00  0.00     0.028 A 
BRANCH  65  69
ATOM     69  N   UNL A   1      32.714  24.497  25.525  1.00  0.00    -0.250 N 
ATOM     70  C   UNL A   1      33.757  25.426  25.377  1.00  0.00     0.238 C 
ATOM     71  C   UNL A   1      31.576  25.058  26.142  1.00  0.00     0.238 C 
ATOM     72  O   UNL A   1      34.790  25.346  24.737  1.00  0.00    -0.274 OA
ATOM     73  C   UNL A   1      33.305  26.597  26.192  1.00  0.00     0.100 C 
ATOM     74  C   UNL A   1      31.800  26.507  25.916  1.00  0.00     0.100 C 
ATOM     75  O   UNL A   1      30.566  24.528  26.558  1.00  0.00    -0.274 OA
ATOM     76  C   UNL A   1      33.741  28.069  26.122  1.00  0.00     0.028 C 
ATOM     77  C   UNL A   1      31.131  27.814  26.307  1.00  0.00     0.028 C 
ATOM     78  C   UNL A   1      33.138  28.589  27.449  1.00  0.00    -0.026 C 
ATOM     79  C   UNL A   1      33.050  28.915  25.035  1.00  0.00     0.001 C 
ATOM     80  C   UNL A   1      31.801  28.399  27.560  1.00  0.00    -0.026 C 
ATOM     81  C   UNL A   1      31.521  28.789  25.134  1.00  0.00     0.001 C 
ATOM     82  C   UNL A   1      32.271  28.436  23.845  1.00  0.00     0.009 C 
ENDBRANCH  65  69
ENDBRANCH  59  62
ENDBRANCH  57  58
ENDBRANCH  56  57
ENDBRANCH   1  56
TORSDOF 11
ENDMDL
