MODEL 1
REMARK VINA RESULT:     -11.3      0.000      0.000
REMARK SMILES N#Cc1ccn2cc(C(=O)NCCCNC(=O)c3ccc(-c4c5nc(c(-c6ccccc6)c6ccc([nH]6)c(-c6ccccc6)c6nc(c(-c7ccccc7)c7ccc4[nH]7)C=C6)C=C5)cc3)nc2c1
REMARK SMILES IDX 13 1 12 2 11 3 9 4 10 5 8 7 3 8 4 9 68 10 5 11 67 12 6 13
REMARK SMILES IDX 66 14 7 15 2 16 1 17 14 18 15 19 16 20 17 22 18 23 19 24
REMARK SMILES IDX 65 25 20 26 64 27 21 28 22 29 23 30 58 31 24 32 63 33 57 34
REMARK SMILES IDX 59 35 25 36 62 37 56 38 55 39 26 41 48 42 33 43 47 44 34 45
REMARK SMILES IDX 37 46 46 47 60 48 35 49 36 50 45 52 61 53 38 54 27 55 28 56
REMARK SMILES IDX 32 57 29 58 31 59 30 60 49 61 50 62 54 63 51 64 53 65 52 66
REMARK SMILES IDX 39 67 40 68 44 69 41 70 43 71 42 72
REMARK H PARENT 11 6 15 21 59 40 37 51
REMARK Flexibility Score: inf
ROOT
ATOM      1  C   UNL A   1      33.191  29.134  27.124  1.00  0.00     0.042 C 
ENDROOT
BRANCH   1   2
ATOM      2  C   UNL A   1      32.588  27.736  26.995  1.00  0.00     0.118 C 
BRANCH   2   3
ATOM      3  N   UNL A   1      33.192  26.981  25.906  1.00  0.00    -0.351 N 
ATOM      4  C   UNL A   1      32.851  26.848  24.585  1.00  0.00     0.271 C 
ATOM      5  O   UNL A   1      33.571  26.121  23.887  1.00  0.00    -0.267 OA
ATOM      6  H   UNL A   1      33.992  26.472  26.166  1.00  0.00     0.163 HD
BRANCH   4   7
ATOM      7  C   UNL A   1      31.700  27.547  24.016  1.00  0.00     0.147 A 
ATOM      8  C   UNL A   1      28.652  30.021  21.849  1.00  0.00     0.057 A 
ATOM      9  C   UNL A   1      27.738  29.068  22.476  1.00  0.00     0.038 A 
ATOM     10  C   UNL A   1      29.983  29.960  22.048  1.00  0.00     0.067 A 
ATOM     11  C   UNL A   1      28.249  28.101  23.261  1.00  0.00     0.094 A 
ATOM     12  C   UNL A   1      30.517  28.942  22.881  1.00  0.00     0.138 A 
ATOM     13  N   UNL A   1      29.627  28.043  23.453  1.00  0.00    -0.306 N 
ATOM     14  N   UNL A   1      31.755  28.676  23.222  1.00  0.00    -0.223 NA
ATOM     15  C   UNL A   1      30.378  27.161  24.179  1.00  0.00     0.127 A 
BRANCH   8  16
ATOM     16  C   UNL A   1      28.087  31.120  20.965  1.00  0.00     0.099 C 
ATOM     17  N   UNL A   1      27.618  32.032  20.231  1.00  0.00    -0.192 NA
ENDBRANCH   8  16
ENDBRANCH   4   7
ENDBRANCH   2   3
ENDBRANCH   1   2
BRANCH   1  18
ATOM     18  C   UNL A   1      34.706  29.124  27.341  1.00  0.00     0.118 C 
BRANCH  18  19
ATOM     19  N   UNL A   1      35.138  29.805  28.547  1.00  0.00    -0.352 N 
ATOM     20  C   UNL A   1      36.327  29.960  29.198  1.00  0.00     0.251 C 
ATOM     21  H   UNL A   1      34.396  30.262  29.006  1.00  0.00     0.163 HD
ATOM     22  O   UNL A   1      36.327  30.751  30.145  1.00  0.00    -0.269 OA
BRANCH  20  23
ATOM     23  C   UNL A   1      37.564  29.185  28.920  1.00  0.00     0.039 A 
ATOM     24  C   UNL A   1      38.142  28.240  29.768  1.00  0.00     0.014 A 
ATOM     25  C   UNL A   1      38.248  29.547  27.742  1.00  0.00     0.014 A 
ATOM     26  C   UNL A   1      39.441  27.803  29.541  1.00  0.00     0.010 A 
ATOM     27  C   UNL A   1      39.534  29.096  27.497  1.00  0.00     0.010 A 
ATOM     28  C   UNL A   1      40.153  28.293  28.446  1.00  0.00    -0.014 A 
BRANCH  28  29
ATOM     29  C   UNL A   1      41.553  27.918  28.309  1.00  0.00     0.031 A 
ATOM     30  C   UNL A   1      41.799  26.614  27.633  1.00  0.00     0.074 A 
ATOM     31  C   UNL A   1      42.548  28.745  28.686  1.00  0.00     0.049 A 
ATOM     32  N   UNL A   1      42.444  25.591  28.089  1.00  0.00    -0.248 NA
ATOM     33  C   UNL A   1      41.163  26.383  26.327  1.00  0.00     0.031 C 
ATOM     34  C   UNL A   1      42.464  30.147  29.110  1.00  0.00     0.029 A 
ATOM     35  N   UNL A   1      43.888  28.527  28.648  1.00  0.00    -0.354 N 
ATOM     36  C   UNL A   1      42.411  24.623  27.086  1.00  0.00     0.074 A 
ATOM     37  C   UNL A   1      41.525  25.126  26.067  1.00  0.00     0.031 C 
ATOM     38  C   UNL A   1      43.690  30.714  29.019  1.00  0.00     0.029 A 
ATOM     39  C   UNL A   1      44.657  29.684  28.679  1.00  0.00     0.049 A 
ATOM     40  H   UNL A   1      44.282  27.626  28.601  1.00  0.00     0.167 HD
ATOM     41  C   UNL A   1      43.228  23.533  27.101  1.00  0.00     0.031 A 
ATOM     42  C   UNL A   1      45.970  29.782  28.350  1.00  0.00     0.031 A 
ATOM     43  C   UNL A   1      43.795  23.313  28.401  1.00  0.00     0.049 A 
ATOM     44  C   UNL A   1      46.548  28.419  28.444  1.00  0.00     0.074 A 
ATOM     45  C   UNL A   1      43.270  22.976  29.632  1.00  0.00     0.029 A 
ATOM     46  N   UNL A   1      45.054  23.806  28.647  1.00  0.00    -0.354 N 
ATOM     47  N   UNL A   1      46.671  27.768  29.565  1.00  0.00    -0.248 NA
ATOM     48  C   UNL A   1      46.545  27.602  27.240  1.00  0.00     0.031 C 
ATOM     49  C   UNL A   1      44.013  23.752  30.564  1.00  0.00     0.029 A 
ATOM     50  C   UNL A   1      45.000  24.446  29.859  1.00  0.00     0.049 A 
ATOM     51  H   UNL A   1      45.843  23.717  28.065  1.00  0.00     0.167 HD
ATOM     52  C   UNL A   1      46.316  26.465  29.254  1.00  0.00     0.074 A 
ATOM     53  C   UNL A   1      46.325  26.406  27.792  1.00  0.00     0.031 C 
ATOM     54  C   UNL A   1      45.760  25.632  30.184  1.00  0.00     0.031 A 
BRANCH  41  55
ATOM     55  C   UNL A   1      43.754  22.837  25.873  1.00  0.00    -0.014 A 
ATOM     56  C   UNL A   1      44.496  23.489  24.872  1.00  0.00     0.009 A 
ATOM     57  C   UNL A   1      43.742  21.429  25.833  1.00  0.00     0.009 A 
ATOM     58  C   UNL A   1      45.212  22.781  23.903  1.00  0.00     0.001 A 
ATOM     59  C   UNL A   1      44.490  20.716  24.888  1.00  0.00     0.001 A 
ATOM     60  C   UNL A   1      45.231  21.394  23.928  1.00  0.00     0.000 A 
ENDBRANCH  41  55
BRANCH  42  61
ATOM     61  C   UNL A   1      46.608  30.844  27.530  1.00  0.00    -0.014 A 
ATOM     62  C   UNL A   1      47.978  31.130  27.675  1.00  0.00     0.009 A 
ATOM     63  C   UNL A   1      45.820  31.778  26.835  1.00  0.00     0.009 A 
ATOM     64  C   UNL A   1      48.531  32.323  27.198  1.00  0.00     0.001 A 
ATOM     65  C   UNL A   1      46.373  32.977  26.360  1.00  0.00     0.001 A 
ATOM     66  C   UNL A   1      47.724  33.256  26.557  1.00  0.00     0.000 A 
ENDBRANCH  42  61
BRANCH  54  67
ATOM     67  C   UNL A   1      45.667  26.096  31.621  1.00  0.00    -0.014 A 
ATOM     68  C   UNL A   1      46.587  25.573  32.544  1.00  0.00     0.009 A 
ATOM     69  C   UNL A   1      44.575  26.830  32.120  1.00  0.00     0.009 A 
ATOM     70  C   UNL A   1      46.406  25.745  33.917  1.00  0.00     0.001 A 
ATOM     71  C   UNL A   1      44.409  27.026  33.497  1.00  0.00     0.001 A 
ATOM     72  C   UNL A   1      45.317  26.471  34.394  1.00  0.00     0.000 A 
ENDBRANCH  54  67
ENDBRANCH  28  29
ENDBRANCH  20  23
ENDBRANCH  18  19
ENDBRANCH   1  18
TORSDOF 11
ENDMDL
MODEL 2
REMARK VINA RESULT:     -11.2      1.927      5.897
REMARK SMILES N#Cc1ccn2cc(C(=O)NCCCNC(=O)c3ccc(-c4c5nc(c(-c6ccccc6)c6ccc([nH]6)c(-c6ccccc6)c6nc(c(-c7ccccc7)c7ccc4[nH]7)C=C6)C=C5)cc3)nc2c1
REMARK SMILES IDX 13 1 12 2 11 3 9 4 10 5 8 7 3 8 4 9 68 10 5 11 67 12 6 13
REMARK SMILES IDX 66 14 7 15 2 16 1 17 14 18 15 19 16 20 17 22 18 23 19 24
REMARK SMILES IDX 65 25 20 26 64 27 21 28 22 29 23 30 58 31 24 32 63 33 57 34
REMARK SMILES IDX 59 35 25 36 62 37 56 38 55 39 26 41 48 42 33 43 47 44 34 45
REMARK SMILES IDX 37 46 46 47 60 48 35 49 36 50 45 52 61 53 38 54 27 55 28 56
REMARK SMILES IDX 32 57 29 58 31 59 30 60 49 61 50 62 54 63 51 64 53 65 52 66
REMARK SMILES IDX 39 67 40 68 44 69 41 70 43 71 42 72
REMARK H PARENT 11 6 15 21 59 40 37 51
REMARK Flexibility Score: inf
ROOT
ATOM      1  C   UNL A   1      33.512  29.481  26.325  1.00  0.00     0.042 C 
ENDROOT
BRANCH   1   2
ATOM      2  C   UNL A   1      33.045  28.030  26.438  1.00  0.00     0.118 C 
BRANCH   2   3
ATOM      3  N   UNL A   1      33.510  27.220  25.321  1.00  0.00    -0.351 N 
ATOM      4  C   UNL A   1      33.029  27.050  24.049  1.00  0.00     0.271 C 
ATOM      5  O   UNL A   1      33.652  26.278  23.309  1.00  0.00    -0.267 OA
ATOM      6  H   UNL A   1      34.321  26.697  25.515  1.00  0.00     0.163 HD
BRANCH   4   7
ATOM      7  C   UNL A   1      31.843  27.763  23.578  1.00  0.00     0.147 A 
ATOM      8  C   UNL A   1      28.652  30.266  21.665  1.00  0.00     0.057 A 
ATOM      9  C   UNL A   1      27.783  29.334  22.380  1.00  0.00     0.038 A 
ATOM     10  C   UNL A   1      29.995  30.186  21.747  1.00  0.00     0.067 A 
ATOM     11  C   UNL A   1      28.347  28.365  23.126  1.00  0.00     0.094 A 
ATOM     12  C   UNL A   1      30.584  29.167  22.538  1.00  0.00     0.138 A 
ATOM     13  N   UNL A   1      29.735  28.287  23.195  1.00  0.00    -0.306 N 
ATOM     14  N   UNL A   1      31.844  28.885  22.771  1.00  0.00    -0.223 NA
ATOM     15  C   UNL A   1      30.535  27.399  23.861  1.00  0.00     0.127 A 
BRANCH   8  16
ATOM     16  C   UNL A   1      28.028  31.367  20.824  1.00  0.00     0.099 C 
ATOM     17  N   UNL A   1      27.510  32.281  20.125  1.00  0.00    -0.192 NA
ENDBRANCH   8  16
ENDBRANCH   4   7
ENDBRANCH   2   3
ENDBRANCH   1   2
BRANCH   1  18
ATOM     18  C   UNL A   1      33.425  30.251  27.645  1.00  0.00     0.118 C 
BRANCH  18  19
ATOM     19  N   UNL A   1      34.061  31.554  27.615  1.00  0.00    -0.352 N 
ATOM     20  C   UNL A   1      35.325  32.019  27.833  1.00  0.00     0.251 C 
ATOM     21  H   UNL A   1      33.430  32.274  27.385  1.00  0.00     0.163 HD
ATOM     22  O   UNL A   1      35.518  33.209  27.566  1.00  0.00    -0.269 OA
BRANCH  20  23
ATOM     23  C   UNL A   1      36.430  31.242  28.452  1.00  0.00     0.039 A 
ATOM     24  C   UNL A   1      37.450  31.766  29.247  1.00  0.00     0.014 A 
ATOM     25  C   UNL A   1      36.485  29.882  28.087  1.00  0.00     0.014 A 
ATOM     26  C   UNL A   1      38.580  31.005  29.520  1.00  0.00     0.010 A 
ATOM     27  C   UNL A   1      37.598  29.111  28.376  1.00  0.00     0.010 A 
ATOM     28  C   UNL A   1      38.676  29.707  29.018  1.00  0.00    -0.014 A 
BRANCH  28  29
ATOM     29  C   UNL A   1      39.925  28.984  29.209  1.00  0.00     0.031 A 
ATOM     30  C   UNL A   1      40.248  28.633  30.620  1.00  0.00     0.074 A 
ATOM     31  C   UNL A   1      40.679  28.583  28.166  1.00  0.00     0.049 A 
ATOM     32  N   UNL A   1      41.304  28.945  31.296  1.00  0.00    -0.248 NA
ATOM     33  C   UNL A   1      39.221  27.934  31.409  1.00  0.00     0.031 C 
ATOM     34  C   UNL A   1      40.357  28.620  26.735  1.00  0.00     0.029 A 
ATOM     35  N   UNL A   1      41.871  27.932  28.186  1.00  0.00    -0.354 N 
ATOM     36  C   UNL A   1      41.146  28.379  32.561  1.00  0.00     0.074 A 
ATOM     37  C   UNL A   1      39.805  27.856  32.606  1.00  0.00     0.031 C 
ATOM     38  C   UNL A   1      41.188  27.782  26.071  1.00  0.00     0.029 A 
ATOM     39  C   UNL A   1      42.183  27.276  27.002  1.00  0.00     0.049 A 
ATOM     40  H   UNL A   1      42.463  27.924  28.972  1.00  0.00     0.167 HD
ATOM     41  C   UNL A   1      42.183  28.257  33.437  1.00  0.00     0.031 A 
ATOM     42  C   UNL A   1      43.131  26.318  26.843  1.00  0.00     0.031 A 
ATOM     43  C   UNL A   1      43.287  29.101  33.073  1.00  0.00     0.049 A 
ATOM     44  C   UNL A   1      44.082  26.451  27.974  1.00  0.00     0.074 A 
ATOM     45  C   UNL A   1      43.466  30.467  33.001  1.00  0.00     0.029 A 
ATOM     46  N   UNL A   1      44.312  28.544  32.347  1.00  0.00    -0.354 N 
ATOM     47  N   UNL A   1      44.863  27.480  28.137  1.00  0.00    -0.248 NA
ATOM     48  C   UNL A   1      43.818  25.666  29.171  1.00  0.00     0.031 C 
ATOM     49  C   UNL A   1      44.257  30.665  31.836  1.00  0.00     0.029 A 
ATOM     50  C   UNL A   1      44.584  29.409  31.318  1.00  0.00     0.049 A 
ATOM     51  H   UNL A   1      44.764  27.689  32.530  1.00  0.00     0.167 HD
ATOM     52  C   UNL A   1      44.828  27.733  29.500  1.00  0.00     0.074 A 
ATOM     53  C   UNL A   1      44.232  26.537  30.095  1.00  0.00     0.031 C 
ATOM     54  C   UNL A   1      45.006  28.993  29.999  1.00  0.00     0.031 A 
BRANCH  41  55
ATOM     55  C   UNL A   1      42.323  27.155  34.454  1.00  0.00    -0.014 A 
ATOM     56  C   UNL A   1      41.608  27.126  35.664  1.00  0.00     0.009 A 
ATOM     57  C   UNL A   1      42.986  25.969  34.083  1.00  0.00     0.009 A 
ATOM     58  C   UNL A   1      41.531  25.972  36.449  1.00  0.00     0.001 A 
ATOM     59  C   UNL A   1      42.879  24.801  34.846  1.00  0.00     0.001 A 
ATOM     60  C   UNL A   1      42.145  24.801  36.026  1.00  0.00     0.000 A 
ENDBRANCH  41  55
BRANCH  42  61
ATOM     61  C   UNL A   1      42.999  25.049  26.081  1.00  0.00    -0.014 A 
ATOM     62  C   UNL A   1      42.133  24.035  26.530  1.00  0.00     0.009 A 
ATOM     63  C   UNL A   1      43.941  24.708  25.095  1.00  0.00     0.009 A 
ATOM     64  C   UNL A   1      42.237  22.723  26.059  1.00  0.00     0.001 A 
ATOM     65  C   UNL A   1      44.048  23.390  24.624  1.00  0.00     0.001 A 
ATOM     66  C   UNL A   1      43.208  22.396  25.120  1.00  0.00     0.000 A 
ENDBRANCH  42  61
BRANCH  54  67
ATOM     67  C   UNL A   1      45.395  30.108  29.054  1.00  0.00    -0.014 A 
ATOM     68  C   UNL A   1      44.422  30.584  28.160  1.00  0.00     0.009 A 
ATOM     69  C   UNL A   1      46.726  30.523  28.865  1.00  0.00     0.009 A 
ATOM     70  C   UNL A   1      44.770  31.417  27.094  1.00  0.00     0.001 A 
ATOM     71  C   UNL A   1      47.069  31.381  27.813  1.00  0.00     0.001 A 
ATOM     72  C   UNL A   1      46.093  31.814  26.920  1.00  0.00     0.000 A 
ENDBRANCH  54  67
ENDBRANCH  28  29
ENDBRANCH  20  23
ENDBRANCH  18  19
ENDBRANCH   1  18
TORSDOF 11
ENDMDL
MODEL 3
REMARK VINA RESULT:     -11.1      4.425     11.369
REMARK SMILES N#Cc1ccn2cc(C(=O)NCCCNC(=O)c3ccc(-c4c5nc(c(-c6ccccc6)c6ccc([nH]6)c(-c6ccccc6)c6nc(c(-c7ccccc7)c7ccc4[nH]7)C=C6)C=C5)cc3)nc2c1
REMARK SMILES IDX 13 1 12 2 11 3 9 4 10 5 8 7 3 8 4 9 68 10 5 11 67 12 6 13
REMARK SMILES IDX 66 14 7 15 2 16 1 17 14 18 15 19 16 20 17 22 18 23 19 24
REMARK SMILES IDX 65 25 20 26 64 27 21 28 22 29 23 30 58 31 24 32 63 33 57 34
REMARK SMILES IDX 59 35 25 36 62 37 56 38 55 39 26 41 48 42 33 43 47 44 34 45
REMARK SMILES IDX 37 46 46 47 60 48 35 49 36 50 45 52 61 53 38 54 27 55 28 56
REMARK SMILES IDX 32 57 29 58 31 59 30 60 49 61 50 62 54 63 51 64 53 65 52 66
REMARK SMILES IDX 39 67 40 68 44 69 41 70 43 71 42 72
REMARK H PARENT 11 6 15 21 59 40 37 51
REMARK Flexibility Score: inf
ROOT
ATOM      1  C   UNL A   1      45.731  26.738  27.436  1.00  0.00     0.042 C 
ENDROOT
BRANCH   1   2
ATOM      2  C   UNL A   1      45.800  26.888  25.917  1.00  0.00     0.118 C 
BRANCH   2   3
ATOM      3  N   UNL A   1      44.606  27.524  25.378  1.00  0.00    -0.351 N 
ATOM      4  C   UNL A   1      43.356  27.037  25.098  1.00  0.00     0.271 C 
ATOM      5  O   UNL A   1      42.530  27.836  24.636  1.00  0.00    -0.267 OA
ATOM      6  H   UNL A   1      44.717  28.481  25.177  1.00  0.00     0.163 HD
BRANCH   4   7
ATOM      7  C   UNL A   1      43.003  25.642  25.350  1.00  0.00     0.147 A 
ATOM      8  C   UNL A   1      42.569  21.208  25.862  1.00  0.00     0.057 A 
ATOM      9  C   UNL A   1      41.443  21.624  26.696  1.00  0.00     0.038 A 
ATOM     10  C   UNL A   1      43.342  22.105  25.220  1.00  0.00     0.067 A 
ATOM     11  C   UNL A   1      41.186  22.939  26.829  1.00  0.00     0.094 A 
ATOM     12  C   UNL A   1      43.065  23.490  25.359  1.00  0.00     0.138 A 
ATOM     13  N   UNL A   1      41.998  23.857  26.167  1.00  0.00    -0.306 N 
ATOM     14  N   UNL A   1      43.663  24.539  24.846  1.00  0.00    -0.223 NA
ATOM     15  C   UNL A   1      41.954  25.224  26.156  1.00  0.00     0.127 A 
BRANCH   8  16
ATOM     16  C   UNL A   1      42.865  19.727  25.700  1.00  0.00     0.099 C 
ATOM     17  N   UNL A   1      43.111  18.497  25.565  1.00  0.00    -0.192 NA
ENDBRANCH   8  16
ENDBRANCH   4   7
ENDBRANCH   2   3
ENDBRANCH   1   2
BRANCH   1  18
ATOM     18  C   UNL A   1      45.600  25.284  27.897  1.00  0.00     0.118 C 
BRANCH  18  19
ATOM     19  N   UNL A   1      45.766  25.096  29.325  1.00  0.00    -0.352 N 
ATOM     20  C   UNL A   1      45.029  25.397  30.433  1.00  0.00     0.251 C 
ATOM     21  H   UNL A   1      46.612  24.645  29.548  1.00  0.00     0.163 HD
ATOM     22  O   UNL A   1      45.443  24.938  31.501  1.00  0.00    -0.269 OA
BRANCH  20  23
ATOM     23  C   UNL A   1      43.852  26.304  30.460  1.00  0.00     0.039 A 
ATOM     24  C   UNL A   1      42.864  26.385  29.478  1.00  0.00     0.014 A 
ATOM     25  C   UNL A   1      43.829  27.228  31.523  1.00  0.00     0.014 A 
ATOM     26  C   UNL A   1      41.986  27.462  29.462  1.00  0.00     0.010 A 
ATOM     27  C   UNL A   1      42.942  28.290  31.526  1.00  0.00     0.010 A 
ATOM     28  C   UNL A   1      42.082  28.446  30.446  1.00  0.00    -0.014 A 
BRANCH  28  29
ATOM     29  C   UNL A   1      41.238  29.626  30.327  1.00  0.00     0.031 A 
ATOM     30  C   UNL A   1      41.956  30.894  30.023  1.00  0.00     0.074 A 
ATOM     31  C   UNL A   1      39.894  29.546  30.396  1.00  0.00     0.049 A 
ATOM     32  N   UNL A   1      41.950  31.995  30.700  1.00  0.00    -0.248 NA
ATOM     33  C   UNL A   1      42.876  30.907  28.874  1.00  0.00     0.031 C 
ATOM     34  C   UNL A   1      39.047  28.348  30.423  1.00  0.00     0.029 A 
ATOM     35  N   UNL A   1      38.983  30.551  30.333  1.00  0.00    -0.354 N 
ATOM     36  C   UNL A   1      42.763  32.891  30.006  1.00  0.00     0.074 A 
ATOM     37  C   UNL A   1      43.385  32.138  28.948  1.00  0.00     0.031 C 
ATOM     38  C   UNL A   1      37.779  28.693  30.099  1.00  0.00     0.029 A 
ATOM     39  C   UNL A   1      37.700  30.140  29.994  1.00  0.00     0.049 A 
ATOM     40  H   UNL A   1      39.212  31.492  30.511  1.00  0.00     0.167 HD
ATOM     41  C   UNL A   1      42.758  34.229  30.268  1.00  0.00     0.031 A 
ATOM     42  C   UNL A   1      36.689  30.939  29.566  1.00  0.00     0.031 A 
ATOM     43  C   UNL A   1      42.156  34.518  31.540  1.00  0.00     0.049 A 
ATOM     44  C   UNL A   1      37.014  32.322  29.994  1.00  0.00     0.074 A 
ATOM     45  C   UNL A   1      42.491  34.230  32.847  1.00  0.00     0.029 A 
ATOM     46  N   UNL A   1      40.830  34.880  31.558  1.00  0.00    -0.354 N 
ATOM     47  N   UNL A   1      37.051  32.696  31.241  1.00  0.00    -0.248 NA
ATOM     48  C   UNL A   1      37.759  33.157  29.064  1.00  0.00     0.031 C 
ATOM     49  C   UNL A   1      41.252  33.934  33.479  1.00  0.00     0.029 A 
ATOM     50  C   UNL A   1      40.232  34.143  32.547  1.00  0.00     0.049 A 
ATOM     51  H   UNL A   1      40.395  35.541  30.973  1.00  0.00     0.167 HD
ATOM     52  C   UNL A   1      38.158  33.526  31.324  1.00  0.00     0.074 A 
ATOM     53  C   UNL A   1      38.508  33.836  29.938  1.00  0.00     0.031 C 
ATOM     54  C   UNL A   1      38.873  33.652  32.482  1.00  0.00     0.031 A 
BRANCH  41  55
ATOM     55  C   UNL A   1      43.024  35.304  29.248  1.00  0.00    -0.014 A 
ATOM     56  C   UNL A   1      44.272  35.935  29.098  1.00  0.00     0.009 A 
ATOM     57  C   UNL A   1      42.082  35.514  28.222  1.00  0.00     0.009 A 
ATOM     58  C   UNL A   1      44.578  36.708  27.975  1.00  0.00     0.001 A 
ATOM     59  C   UNL A   1      42.399  36.255  27.077  1.00  0.00     0.001 A 
ATOM     60  C   UNL A   1      43.651  36.846  26.952  1.00  0.00     0.000 A 
ENDBRANCH  41  55
BRANCH  42  61
ATOM     61  C   UNL A   1      35.753  30.670  28.445  1.00  0.00    -0.014 A 
ATOM     62  C   UNL A   1      34.597  31.456  28.278  1.00  0.00     0.009 A 
ATOM     63  C   UNL A   1      35.825  29.462  27.729  1.00  0.00     0.009 A 
ATOM     64  C   UNL A   1      33.533  31.031  27.477  1.00  0.00     0.001 A 
ATOM     65  C   UNL A   1      34.756  29.033  26.928  1.00  0.00     0.001 A 
ATOM     66  C   UNL A   1      33.604  29.809  26.816  1.00  0.00     0.000 A 
ENDBRANCH  42  61
BRANCH  54  67
ATOM     67  C   UNL A   1      38.358  32.985  33.738  1.00  0.00    -0.014 A 
ATOM     68  C   UNL A   1      37.811  33.802  34.742  1.00  0.00     0.009 A 
ATOM     69  C   UNL A   1      38.611  31.636  34.049  1.00  0.00     0.009 A 
ATOM     70  C   UNL A   1      37.558  33.300  36.020  1.00  0.00     0.001 A 
ATOM     71  C   UNL A   1      38.330  31.127  35.323  1.00  0.00     0.001 A 
ATOM     72  C   UNL A   1      37.818  31.964  36.311  1.00  0.00     0.000 A 
ENDBRANCH  54  67
ENDBRANCH  28  29
ENDBRANCH  20  23
ENDBRANCH  18  19
ENDBRANCH   1  18
TORSDOF 11
ENDMDL
