MODEL 1
REMARK VINA RESULT:     -12.1      0.000      0.000
REMARK SMILES O=C(CC1(C(=O)NCCCNC(=O)c2ccc(-c3c4nc(c(-c5ccccc5)c5ccc([nH]5)c(-c5ccccc5)c5nc(c(-c6ccccc6)c6ccc3[nH]6)C=C5)C=C4)cc2)CCCCC1)Nc1ccc(N2CCOC2=O)cc1
REMARK SMILES IDX 8 1 7 2 5 3 6 4 4 6 62 7 66 8 63 9 65 10 64 11 3 12 2 13
REMARK SMILES IDX 1 14 67 15 68 17 69 18 79 19 70 20 78 21 71 22 72 23 73 24
REMARK SMILES IDX 76 25 74 26 75 27 77 28 9 29 10 30 11 31 12 32 13 34 14 35
REMARK SMILES IDX 15 36 61 37 16 38 60 39 17 40 18 41 19 42 54 43 20 44 59 45
REMARK SMILES IDX 53 46 55 47 21 48 58 49 52 50 51 51 22 53 44 54 29 55 43 56
REMARK SMILES IDX 30 57 33 58 42 59 56 60 31 61 32 62 41 64 57 65 34 66 23 67
REMARK SMILES IDX 24 68 28 69 25 70 27 71 26 72 45 73 46 74 50 75 47 76 49 77
REMARK SMILES IDX 48 78 35 79 36 80 40 81 37 82 39 83 38 84
REMARK H PARENT 7 5 67 16 11 33 55 52 33 63
REMARK Flexibility Score: inf
ROOT
ATOM      1  C   UNL A   1      31.800  29.865  25.348  1.00  0.00     0.117 C 
ENDROOT
BRANCH   1   2
ATOM      2  N   UNL A   1      32.864  29.113  25.954  1.00  0.00    -0.356 N 
ATOM      3  C   UNL A   1      33.393  27.894  25.708  1.00  0.00     0.226 C 
ATOM      4  O   UNL A   1      34.307  27.597  26.491  1.00  0.00    -0.274 OA
ATOM      5  H   UNL A   1      33.297  29.582  26.703  1.00  0.00     0.163 HD
BRANCH   3   6
ATOM      6  C   UNL A   1      32.902  26.879  24.614  1.00  0.00     0.058 C 
ATOM      7  C   UNL A   1      32.891  27.467  23.179  1.00  0.00     0.017 C 
ATOM      8  C   UNL A   1      31.546  26.273  25.046  1.00  0.00     0.017 C 
ATOM      9  C   UNL A   1      31.585  28.011  22.599  1.00  0.00     0.001 C 
ATOM     10  C   UNL A   1      30.270  26.917  24.536  1.00  0.00     0.001 C 
ATOM     11  C   UNL A   1      30.307  27.332  23.074  1.00  0.00     0.000 C 
BRANCH   6  12
ATOM     12  C   UNL A   1      34.027  25.749  24.680  1.00  0.00     0.117 C 
BRANCH  12  13
ATOM     13  C   UNL A   1      33.635  24.340  25.113  1.00  0.00     0.225 C 
ATOM     14  O   UNL A   1      33.424  24.074  26.292  1.00  0.00    -0.275 OA
ATOM     15  N   UNL A   1      33.617  23.425  24.084  1.00  0.00    -0.326 N 
ATOM     16  H   UNL A   1      33.680  23.765  23.163  1.00  0.00     0.169 HD
BRANCH  15  17
ATOM     17  C   UNL A   1      33.513  22.046  24.267  1.00  0.00     0.041 A 
ATOM     18  C   UNL A   1      34.673  21.341  24.600  1.00  0.00     0.028 A 
ATOM     19  C   UNL A   1      32.312  21.379  24.064  1.00  0.00     0.028 A 
ATOM     20  C   UNL A   1      34.614  19.962  24.795  1.00  0.00     0.028 A 
ATOM     21  C   UNL A   1      32.285  19.988  24.137  1.00  0.00     0.028 A 
ATOM     22  C   UNL A   1      33.426  19.278  24.527  1.00  0.00     0.047 A 
BRANCH  22  23
ATOM     23  N   UNL A   1      33.356  17.888  24.671  1.00  0.00    -0.274 N 
ATOM     24  C   UNL A   1      33.002  17.235  25.887  1.00  0.00     0.171 C 
ATOM     25  C   UNL A   1      33.605  16.963  23.681  1.00  0.00     0.414 C 
ATOM     26  C   UNL A   1      32.631  15.859  25.389  1.00  0.00     0.257 C 
ATOM     27  O   UNL A   1      33.344  15.706  24.159  1.00  0.00    -0.447 OA
ATOM     28  O   UNL A   1      34.036  17.169  22.554  1.00  0.00    -0.224 OA
ENDBRANCH  22  23
ENDBRANCH  15  17
ENDBRANCH  12  13
ENDBRANCH   6  12
ENDBRANCH   3   6
ENDBRANCH   1   2
BRANCH   1  29
ATOM     29  C   UNL A   1      31.388  31.073  26.172  1.00  0.00     0.042 C 
BRANCH  29  30
ATOM     30  C   UNL A   1      32.526  31.631  26.998  1.00  0.00     0.118 C 
BRANCH  30  31
ATOM     31  N   UNL A   1      32.310  33.033  27.342  1.00  0.00    -0.352 N 
ATOM     32  C   UNL A   1      33.006  33.870  28.180  1.00  0.00     0.251 C 
ATOM     33  H   UNL A   1      31.536  33.450  26.899  1.00  0.00     0.163 HD
ATOM     34  O   UNL A   1      32.514  34.945  28.508  1.00  0.00    -0.269 OA
BRANCH  32  35
ATOM     35  C   UNL A   1      34.329  33.471  28.703  1.00  0.00     0.039 A 
ATOM     36  C   UNL A   1      34.405  32.745  29.894  1.00  0.00     0.014 A 
ATOM     37  C   UNL A   1      35.497  33.816  28.024  1.00  0.00     0.014 A 
ATOM     38  C   UNL A   1      35.648  32.307  30.356  1.00  0.00     0.010 A 
ATOM     39  C   UNL A   1      36.708  33.259  28.403  1.00  0.00     0.010 A 
ATOM     40  C   UNL A   1      36.804  32.521  29.589  1.00  0.00    -0.014 A 
BRANCH  40  41
ATOM     41  C   UNL A   1      38.133  32.022  30.018  1.00  0.00     0.031 A 
ATOM     42  C   UNL A   1      38.642  30.704  29.495  1.00  0.00     0.074 A 
ATOM     43  C   UNL A   1      38.848  32.716  30.925  1.00  0.00     0.049 A 
ATOM     44  N   UNL A   1      39.739  30.061  29.803  1.00  0.00    -0.248 NA
ATOM     45  C   UNL A   1      37.790  29.995  28.524  1.00  0.00     0.031 C 
ATOM     46  C   UNL A   1      38.439  33.981  31.544  1.00  0.00     0.029 A 
ATOM     47  N   UNL A   1      40.070  32.453  31.487  1.00  0.00    -0.354 N 
ATOM     48  C   UNL A   1      39.693  28.872  29.086  1.00  0.00     0.074 A 
ATOM     49  C   UNL A   1      38.431  28.846  28.383  1.00  0.00     0.031 C 
ATOM     50  C   UNL A   1      39.414  34.404  32.365  1.00  0.00     0.029 A 
ATOM     51  C   UNL A   1      40.489  33.418  32.371  1.00  0.00     0.049 A 
ATOM     52  H   UNL A   1      40.598  31.650  31.277  1.00  0.00     0.167 HD
ATOM     53  C   UNL A   1      40.629  27.901  28.992  1.00  0.00     0.031 A 
ATOM     54  C   UNL A   1      41.612  33.496  33.110  1.00  0.00     0.031 A 
ATOM     55  C   UNL A   1      41.892  27.939  29.677  1.00  0.00     0.049 A 
ATOM     56  C   UNL A   1      42.630  32.394  33.001  1.00  0.00     0.074 A 
ATOM     57  C   UNL A   1      42.937  27.036  29.607  1.00  0.00     0.029 A 
ATOM     58  N   UNL A   1      42.280  28.937  30.557  1.00  0.00    -0.354 N 
ATOM     59  N   UNL A   1      42.603  31.312  32.261  1.00  0.00    -0.248 NA
ATOM     60  C   UNL A   1      43.840  32.532  33.823  1.00  0.00     0.031 C 
ATOM     61  C   UNL A   1      43.934  27.456  30.494  1.00  0.00     0.029 A 
ATOM     62  C   UNL A   1      43.538  28.657  31.060  1.00  0.00     0.049 A 
ATOM     63  H   UNL A   1      41.740  29.727  30.790  1.00  0.00     0.167 HD
ATOM     64  C   UNL A   1      43.804  30.658  32.502  1.00  0.00     0.074 A 
ATOM     65  C   UNL A   1      44.544  31.476  33.442  1.00  0.00     0.031 C 
ATOM     66  C   UNL A   1      44.257  29.486  31.992  1.00  0.00     0.031 A 
BRANCH  53  67
ATOM     67  C   UNL A   1      40.319  26.715  28.120  1.00  0.00    -0.014 A 
ATOM     68  C   UNL A   1      40.794  26.636  26.799  1.00  0.00     0.009 A 
ATOM     69  C   UNL A   1      39.570  25.646  28.634  1.00  0.00     0.009 A 
ATOM     70  C   UNL A   1      40.492  25.531  26.002  1.00  0.00     0.001 A 
ATOM     71  C   UNL A   1      39.298  24.526  27.845  1.00  0.00     0.001 A 
ATOM     72  C   UNL A   1      39.750  24.473  26.528  1.00  0.00     0.000 A 
ENDBRANCH  53  67
BRANCH  54  73
ATOM     73  C   UNL A   1      41.843  34.659  34.008  1.00  0.00    -0.014 A 
ATOM     74  C   UNL A   1      42.484  35.814  33.532  1.00  0.00     0.009 A 
ATOM     75  C   UNL A   1      41.440  34.616  35.352  1.00  0.00     0.009 A 
ATOM     76  C   UNL A   1      42.751  36.883  34.391  1.00  0.00     0.001 A 
ATOM     77  C   UNL A   1      41.677  35.702  36.200  1.00  0.00     0.001 A 
ATOM     78  C   UNL A   1      42.344  36.827  35.722  1.00  0.00     0.000 A 
ENDBRANCH  54  73
BRANCH  66  79
ATOM     79  C   UNL A   1      45.632  29.041  32.407  1.00  0.00    -0.014 A 
ATOM     80  C   UNL A   1      45.836  28.269  33.561  1.00  0.00     0.009 A 
ATOM     81  C   UNL A   1      46.735  29.366  31.601  1.00  0.00     0.009 A 
ATOM     82  C   UNL A   1      47.124  27.864  33.919  1.00  0.00     0.001 A 
ATOM     83  C   UNL A   1      48.015  28.930  31.942  1.00  0.00     0.001 A 
ATOM     84  C   UNL A   1      48.209  28.189  33.106  1.00  0.00     0.000 A 
ENDBRANCH  66  79
ENDBRANCH  40  41
ENDBRANCH  32  35
ENDBRANCH  30  31
ENDBRANCH  29  30
ENDBRANCH   1  29
TORSDOF 14
ENDMDL
MODEL 2
REMARK VINA RESULT:     -12.1      3.135      8.633
REMARK SMILES O=C(CC1(C(=O)NCCCNC(=O)c2ccc(-c3c4nc(c(-c5ccccc5)c5ccc([nH]5)c(-c5ccccc5)c5nc(c(-c6ccccc6)c6ccc3[nH]6)C=C5)C=C4)cc2)CCCCC1)Nc1ccc(N2CCOC2=O)cc1
REMARK SMILES IDX 8 1 7 2 5 3 6 4 4 6 62 7 66 8 63 9 65 10 64 11 3 12 2 13
REMARK SMILES IDX 1 14 67 15 68 17 69 18 79 19 70 20 78 21 71 22 72 23 73 24
REMARK SMILES IDX 76 25 74 26 75 27 77 28 9 29 10 30 11 31 12 32 13 34 14 35
REMARK SMILES IDX 15 36 61 37 16 38 60 39 17 40 18 41 19 42 54 43 20 44 59 45
REMARK SMILES IDX 53 46 55 47 21 48 58 49 52 50 51 51 22 53 44 54 29 55 43 56
REMARK SMILES IDX 30 57 33 58 42 59 56 60 31 61 32 62 41 64 57 65 34 66 23 67
REMARK SMILES IDX 24 68 28 69 25 70 27 71 26 72 45 73 46 74 50 75 47 76 49 77
REMARK SMILES IDX 48 78 35 79 36 80 40 81 37 82 39 83 38 84
REMARK H PARENT 7 5 67 16 11 33 55 52 33 63
REMARK Flexibility Score: inf
ROOT
ATOM      1  C   UNL A   1      32.088  26.981  26.199  1.00  0.00     0.117 C 
ENDROOT
BRANCH   1   2
ATOM      2  N   UNL A   1      31.701  25.788  26.902  1.00  0.00    -0.356 N 
ATOM      3  C   UNL A   1      31.748  24.474  26.592  1.00  0.00     0.226 C 
ATOM      4  O   UNL A   1      31.284  23.750  27.484  1.00  0.00    -0.274 OA
ATOM      5  H   UNL A   1      31.323  25.966  27.793  1.00  0.00     0.163 HD
BRANCH   3   6
ATOM      6  C   UNL A   1      32.254  23.864  25.235  1.00  0.00     0.058 C 
ATOM      7  C   UNL A   1      32.793  22.416  25.366  1.00  0.00     0.017 C 
ATOM      8  C   UNL A   1      33.253  24.841  24.572  1.00  0.00     0.017 C 
ATOM      9  C   UNL A   1      34.298  22.183  25.497  1.00  0.00     0.001 C 
ATOM     10  C   UNL A   1      34.736  24.640  24.824  1.00  0.00     0.001 C 
ATOM     11  C   UNL A   1      35.196  23.191  24.791  1.00  0.00     0.000 C 
BRANCH   6  12
ATOM     12  C   UNL A   1      30.912  23.820  24.371  1.00  0.00     0.117 C 
BRANCH  12  13
ATOM     13  C   UNL A   1      30.576  25.000  23.466  1.00  0.00     0.225 C 
ATOM     14  O   UNL A   1      31.135  25.149  22.383  1.00  0.00    -0.275 OA
ATOM     15  N   UNL A   1      29.668  25.881  24.010  1.00  0.00    -0.326 N 
ATOM     16  H   UNL A   1      29.191  25.605  24.825  1.00  0.00     0.169 HD
BRANCH  15  17
ATOM     17  C   UNL A   1      29.382  27.137  23.476  1.00  0.00     0.041 A 
ATOM     18  C   UNL A   1      30.454  27.934  23.068  1.00  0.00     0.028 A 
ATOM     19  C   UNL A   1      28.079  27.613  23.409  1.00  0.00     0.028 A 
ATOM     20  C   UNL A   1      30.213  29.196  22.525  1.00  0.00     0.028 A 
ATOM     21  C   UNL A   1      27.853  28.920  22.984  1.00  0.00     0.028 A 
ATOM     22  C   UNL A   1      28.913  29.706  22.517  1.00  0.00     0.047 A 
BRANCH  22  23
ATOM     23  N   UNL A   1      28.653  30.988  22.020  1.00  0.00    -0.274 N 
ATOM     24  C   UNL A   1      28.322  31.258  20.661  1.00  0.00     0.171 C 
ATOM     25  C   UNL A   1      28.670  32.153  22.755  1.00  0.00     0.414 C 
ATOM     26  C   UNL A   1      27.708  32.633  20.772  1.00  0.00     0.257 C 
ATOM     27  O   UNL A   1      28.273  33.195  21.960  1.00  0.00    -0.447 OA
ATOM     28  O   UNL A   1      29.021  32.301  23.918  1.00  0.00    -0.224 OA
ENDBRANCH  22  23
ENDBRANCH  15  17
ENDBRANCH  12  13
ENDBRANCH   6  12
ENDBRANCH   3   6
ENDBRANCH   1   2
BRANCH   1  29
ATOM     29  C   UNL A   1      32.255  28.179  27.117  1.00  0.00     0.042 C 
BRANCH  29  30
ATOM     30  C   UNL A   1      33.649  28.764  27.066  1.00  0.00     0.118 C 
BRANCH  30  31
ATOM     31  N   UNL A   1      33.691  30.115  27.617  1.00  0.00    -0.352 N 
ATOM     32  C   UNL A   1      34.651  30.750  28.366  1.00  0.00     0.251 C 
ATOM     33  H   UNL A   1      32.898  30.664  27.419  1.00  0.00     0.163 HD
ATOM     34  O   UNL A   1      34.382  31.808  28.926  1.00  0.00    -0.269 OA
BRANCH  32  35
ATOM     35  C   UNL A   1      35.995  30.155  28.516  1.00  0.00     0.039 A 
ATOM     36  C   UNL A   1      36.907  30.245  27.462  1.00  0.00     0.014 A 
ATOM     37  C   UNL A   1      36.358  29.503  29.694  1.00  0.00     0.014 A 
ATOM     38  C   UNL A   1      38.200  29.745  27.623  1.00  0.00     0.010 A 
ATOM     39  C   UNL A   1      37.679  29.140  29.906  1.00  0.00     0.010 A 
ATOM     40  C   UNL A   1      38.610  29.231  28.864  1.00  0.00    -0.014 A 
BRANCH  40  41
ATOM     41  C   UNL A   1      39.992  28.741  29.092  1.00  0.00     0.031 A 
ATOM     42  C   UNL A   1      41.016  29.657  29.711  1.00  0.00     0.074 A 
ATOM     43  C   UNL A   1      40.341  27.507  28.683  1.00  0.00     0.049 A 
ATOM     44  N   UNL A   1      42.290  29.446  29.925  1.00  0.00    -0.248 NA
ATOM     45  C   UNL A   1      40.560  31.000  30.110  1.00  0.00     0.031 C 
ATOM     46  C   UNL A   1      39.452  26.545  28.025  1.00  0.00     0.029 A 
ATOM     47  N   UNL A   1      41.542  26.849  28.758  1.00  0.00    -0.354 N 
ATOM     48  C   UNL A   1      42.783  30.632  30.457  1.00  0.00     0.074 A 
ATOM     49  C   UNL A   1      41.694  31.581  30.467  1.00  0.00     0.031 C 
ATOM     50  C   UNL A   1      40.127  25.406  27.798  1.00  0.00     0.029 A 
ATOM     51  C   UNL A   1      41.505  25.575  28.245  1.00  0.00     0.049 A 
ATOM     52  H   UNL A   1      42.353  27.250  29.145  1.00  0.00     0.167 HD
ATOM     53  C   UNL A   1      44.023  30.900  30.926  1.00  0.00     0.031 A 
ATOM     54  C   UNL A   1      42.477  24.649  28.140  1.00  0.00     0.031 A 
ATOM     55  C   UNL A   1      45.099  29.947  30.932  1.00  0.00     0.049 A 
ATOM     56  C   UNL A   1      43.852  24.978  28.652  1.00  0.00     0.074 A 
ATOM     57  C   UNL A   1      46.378  30.096  31.437  1.00  0.00     0.029 A 
ATOM     58  N   UNL A   1      45.019  28.666  30.409  1.00  0.00    -0.354 N 
ATOM     59  N   UNL A   1      44.282  26.078  29.220  1.00  0.00    -0.248 NA
ATOM     60  C   UNL A   1      44.873  23.930  28.519  1.00  0.00     0.031 C 
ATOM     61  C   UNL A   1      47.092  28.925  31.162  1.00  0.00     0.029 A 
ATOM     62  C   UNL A   1      46.235  28.022  30.552  1.00  0.00     0.049 A 
ATOM     63  H   UNL A   1      44.215  28.273  29.997  1.00  0.00     0.167 HD
ATOM     64  C   UNL A   1      45.613  25.844  29.542  1.00  0.00     0.074 A 
ATOM     65  C   UNL A   1      45.911  24.489  29.124  1.00  0.00     0.031 C 
ATOM     66  C   UNL A   1      46.509  26.673  30.131  1.00  0.00     0.031 A 
BRANCH  53  67
ATOM     67  C   UNL A   1      44.281  32.280  31.467  1.00  0.00    -0.014 A 
ATOM     68  C   UNL A   1      44.096  32.575  32.829  1.00  0.00     0.009 A 
ATOM     69  C   UNL A   1      44.746  33.291  30.612  1.00  0.00     0.009 A 
ATOM     70  C   UNL A   1      44.334  33.863  33.313  1.00  0.00     0.001 A 
ATOM     71  C   UNL A   1      45.017  34.568  31.106  1.00  0.00     0.001 A 
ATOM     72  C   UNL A   1      44.801  34.856  32.453  1.00  0.00     0.000 A 
ENDBRANCH  53  67
BRANCH  54  73
ATOM     73  C   UNL A   1      42.187  23.320  27.536  1.00  0.00    -0.014 A 
ATOM     74  C   UNL A   1      41.634  22.288  28.311  1.00  0.00     0.009 A 
ATOM     75  C   UNL A   1      42.480  23.068  26.187  1.00  0.00     0.009 A 
ATOM     76  C   UNL A   1      41.415  21.024  27.758  1.00  0.00     0.001 A 
ATOM     77  C   UNL A   1      42.228  21.813  25.627  1.00  0.00     0.001 A 
ATOM     78  C   UNL A   1      41.709  20.789  26.416  1.00  0.00     0.000 A 
ENDBRANCH  54  73
BRANCH  66  79
ATOM     79  C   UNL A   1      47.883  26.123  30.397  1.00  0.00    -0.014 A 
ATOM     80  C   UNL A   1      48.840  26.017  29.377  1.00  0.00     0.009 A 
ATOM     81  C   UNL A   1      48.235  25.748  31.704  1.00  0.00     0.009 A 
ATOM     82  C   UNL A   1      50.111  25.508  29.655  1.00  0.00     0.001 A 
ATOM     83  C   UNL A   1      49.516  25.275  31.984  1.00  0.00     0.001 A 
ATOM     84  C   UNL A   1      50.449  25.145  30.958  1.00  0.00     0.000 A 
ENDBRANCH  66  79
ENDBRANCH  40  41
ENDBRANCH  32  35
ENDBRANCH  30  31
ENDBRANCH  29  30
ENDBRANCH   1  29
TORSDOF 14
ENDMDL
MODEL 3
REMARK VINA RESULT:     -12.0      3.340      9.379
REMARK SMILES O=C(CC1(C(=O)NCCCNC(=O)c2ccc(-c3c4nc(c(-c5ccccc5)c5ccc([nH]5)c(-c5ccccc5)c5nc(c(-c6ccccc6)c6ccc3[nH]6)C=C5)C=C4)cc2)CCCCC1)Nc1ccc(N2CCOC2=O)cc1
REMARK SMILES IDX 8 1 7 2 5 3 6 4 4 6 62 7 66 8 63 9 65 10 64 11 3 12 2 13
REMARK SMILES IDX 1 14 67 15 68 17 69 18 79 19 70 20 78 21 71 22 72 23 73 24
REMARK SMILES IDX 76 25 74 26 75 27 77 28 9 29 10 30 11 31 12 32 13 34 14 35
REMARK SMILES IDX 15 36 61 37 16 38 60 39 17 40 18 41 19 42 54 43 20 44 59 45
REMARK SMILES IDX 53 46 55 47 21 48 58 49 52 50 51 51 22 53 44 54 29 55 43 56
REMARK SMILES IDX 30 57 33 58 42 59 56 60 31 61 32 62 41 64 57 65 34 66 23 67
REMARK SMILES IDX 24 68 28 69 25 70 27 71 26 72 45 73 46 74 50 75 47 76 49 77
REMARK SMILES IDX 48 78 35 79 36 80 40 81 37 82 39 83 38 84
REMARK H PARENT 7 5 67 16 11 33 55 52 33 63
REMARK Flexibility Score: inf
ROOT
ATOM      1  C   UNL A   1      36.999  20.707  25.040  1.00  0.00     0.117 C 
ENDROOT
BRANCH   1   2
ATOM      2  N   UNL A   1      37.045  21.680  23.983  1.00  0.00    -0.356 N 
ATOM      3  C   UNL A   1      36.182  22.632  23.563  1.00  0.00     0.226 C 
ATOM      4  O   UNL A   1      36.600  23.262  22.581  1.00  0.00    -0.274 OA
ATOM      5  H   UNL A   1      37.876  21.646  23.457  1.00  0.00     0.163 HD
BRANCH   3   6
ATOM      6  C   UNL A   1      34.757  22.914  24.161  1.00  0.00     0.058 C 
ATOM      7  C   UNL A   1      34.788  23.672  25.513  1.00  0.00     0.017 C 
ATOM      8  C   UNL A   1      33.948  21.597  24.206  1.00  0.00     0.017 C 
ATOM      9  C   UNL A   1      34.672  22.886  26.820  1.00  0.00     0.001 C 
ATOM     10  C   UNL A   1      33.953  20.788  25.491  1.00  0.00     0.001 C 
ATOM     11  C   UNL A   1      33.837  21.613  26.762  1.00  0.00     0.000 C 
BRANCH   6  12
ATOM     12  C   UNL A   1      34.122  23.882  23.062  1.00  0.00     0.117 C 
BRANCH  12  13
ATOM     13  C   UNL A   1      32.885  24.698  23.421  1.00  0.00     0.225 C 
ATOM     14  O   UNL A   1      31.814  24.151  23.669  1.00  0.00    -0.275 OA
ATOM     15  N   UNL A   1      33.078  26.060  23.368  1.00  0.00    -0.326 N 
ATOM     16  H   UNL A   1      34.001  26.391  23.281  1.00  0.00     0.169 HD
BRANCH  15  17
ATOM     17  C   UNL A   1      32.048  26.999  23.431  1.00  0.00     0.041 A 
ATOM     18  C   UNL A   1      31.452  27.396  22.231  1.00  0.00     0.028 A 
ATOM     19  C   UNL A   1      31.666  27.571  24.637  1.00  0.00     0.028 A 
ATOM     20  C   UNL A   1      30.416  28.330  22.249  1.00  0.00     0.028 A 
ATOM     21  C   UNL A   1      30.720  28.593  24.635  1.00  0.00     0.028 A 
ATOM     22  C   UNL A   1      30.074  28.958  23.448  1.00  0.00     0.047 A 
BRANCH  22  23
ATOM     23  N   UNL A   1      29.070  29.932  23.482  1.00  0.00    -0.274 N 
ATOM     24  C   UNL A   1      29.310  31.306  23.770  1.00  0.00     0.171 C 
ATOM     25  C   UNL A   1      27.731  29.714  23.240  1.00  0.00     0.414 C 
ATOM     26  C   UNL A   1      28.054  31.947  23.230  1.00  0.00     0.257 C 
ATOM     27  O   UNL A   1      27.066  30.912  23.264  1.00  0.00    -0.447 OA
ATOM     28  O   UNL A   1      27.163  28.644  23.071  1.00  0.00    -0.224 OA
ENDBRANCH  22  23
ENDBRANCH  15  17
ENDBRANCH  12  13
ENDBRANCH   6  12
ENDBRANCH   3   6
ENDBRANCH   1   2
BRANCH   1  29
ATOM     29  C   UNL A   1      38.171  19.743  25.006  1.00  0.00     0.042 C 
BRANCH  29  30
ATOM     30  C   UNL A   1      39.199  20.035  26.077  1.00  0.00     0.118 C 
BRANCH  30  31
ATOM     31  N   UNL A   1      40.422  19.262  25.882  1.00  0.00    -0.352 N 
ATOM     32  C   UNL A   1      41.741  19.643  25.918  1.00  0.00     0.251 C 
ATOM     33  H   UNL A   1      40.277  18.306  25.694  1.00  0.00     0.163 HD
ATOM     34  O   UNL A   1      42.604  18.882  25.492  1.00  0.00    -0.269 OA
BRANCH  32  35
ATOM     35  C   UNL A   1      42.120  20.970  26.445  1.00  0.00     0.039 A 
ATOM     36  C   UNL A   1      42.448  21.994  25.553  1.00  0.00     0.014 A 
ATOM     37  C   UNL A   1      42.159  21.208  27.818  1.00  0.00     0.014 A 
ATOM     38  C   UNL A   1      42.740  23.269  26.042  1.00  0.00     0.010 A 
ATOM     39  C   UNL A   1      42.304  22.501  28.293  1.00  0.00     0.010 A 
ATOM     40  C   UNL A   1      42.625  23.543  27.415  1.00  0.00    -0.014 A 
BRANCH  40  41
ATOM     41  C   UNL A   1      42.872  24.897  27.967  1.00  0.00     0.031 A 
ATOM     42  C   UNL A   1      44.264  25.287  28.392  1.00  0.00     0.074 A 
ATOM     43  C   UNL A   1      41.842  25.745  28.149  1.00  0.00     0.049 A 
ATOM     44  N   UNL A   1      44.674  26.391  28.964  1.00  0.00    -0.248 NA
ATOM     45  C   UNL A   1      45.333  24.295  28.181  1.00  0.00     0.031 C 
ATOM     46  C   UNL A   1      40.440  25.464  27.824  1.00  0.00     0.029 A 
ATOM     47  N   UNL A   1      41.814  27.018  28.656  1.00  0.00    -0.354 N 
ATOM     48  C   UNL A   1      46.032  26.211  29.199  1.00  0.00     0.074 A 
ATOM     49  C   UNL A   1      46.364  24.871  28.777  1.00  0.00     0.031 C 
ATOM     50  C   UNL A   1      39.699  26.549  28.098  1.00  0.00     0.029 A 
ATOM     51  C   UNL A   1      40.560  27.580  28.666  1.00  0.00     0.049 A 
ATOM     52  H   UNL A   1      42.616  27.486  28.982  1.00  0.00     0.167 HD
ATOM     53  C   UNL A   1      46.931  27.093  29.693  1.00  0.00     0.031 A 
ATOM     54  C   UNL A   1      40.150  28.790  29.092  1.00  0.00     0.031 A 
ATOM     55  C   UNL A   1      46.600  28.433  30.094  1.00  0.00     0.049 A 
ATOM     56  C   UNL A   1      41.167  29.746  29.653  1.00  0.00     0.074 A 
ATOM     57  C   UNL A   1      47.445  29.428  30.552  1.00  0.00     0.029 A 
ATOM     58  N   UNL A   1      45.321  28.965  30.081  1.00  0.00    -0.354 N 
ATOM     59  N   UNL A   1      42.460  29.586  29.799  1.00  0.00    -0.248 NA
ATOM     60  C   UNL A   1      40.666  31.054  30.097  1.00  0.00     0.031 C 
ATOM     61  C   UNL A   1      46.666  30.543  30.877  1.00  0.00     0.029 A 
ATOM     62  C   UNL A   1      45.347  30.265  30.552  1.00  0.00     0.049 A 
ATOM     63  H   UNL A   1      44.513  28.487  29.782  1.00  0.00     0.167 HD
ATOM     64  C   UNL A   1      42.933  30.784  30.320  1.00  0.00     0.074 A 
ATOM     65  C   UNL A   1      41.790  31.666  30.445  1.00  0.00     0.031 C 
ATOM     66  C   UNL A   1      44.198  31.125  30.665  1.00  0.00     0.031 A 
BRANCH  53  67
ATOM     67  C   UNL A   1      48.357  26.633  29.827  1.00  0.00    -0.014 A 
ATOM     68  C   UNL A   1      48.805  25.972  30.984  1.00  0.00     0.009 A 
ATOM     69  C   UNL A   1      49.259  26.833  28.771  1.00  0.00     0.009 A 
ATOM     70  C   UNL A   1      50.133  25.556  31.094  1.00  0.00     0.001 A 
ATOM     71  C   UNL A   1      50.578  26.386  28.870  1.00  0.00     0.001 A 
ATOM     72  C   UNL A   1      51.017  25.758  30.034  1.00  0.00     0.000 A 
ENDBRANCH  53  67
BRANCH  54  73
ATOM     73  C   UNL A   1      38.715  29.174  28.997  1.00  0.00    -0.014 A 
ATOM     74  C   UNL A   1      38.193  29.695  27.803  1.00  0.00     0.009 A 
ATOM     75  C   UNL A   1      37.864  29.040  30.105  1.00  0.00     0.009 A 
ATOM     76  C   UNL A   1      36.860  30.109  27.732  1.00  0.00     0.001 A 
ATOM     77  C   UNL A   1      36.522  29.421  30.020  1.00  0.00     0.001 A 
ATOM     78  C   UNL A   1      36.025  29.968  28.839  1.00  0.00     0.000 A 
ENDBRANCH  54  73
BRANCH  66  79
ATOM     79  C   UNL A   1      44.420  32.525  31.168  1.00  0.00    -0.014 A 
ATOM     80  C   UNL A   1      44.272  32.848  32.525  1.00  0.00     0.009 A 
ATOM     81  C   UNL A   1      44.827  33.525  30.270  1.00  0.00     0.009 A 
ATOM     82  C   UNL A   1      44.490  34.155  32.966  1.00  0.00     0.001 A 
ATOM     83  C   UNL A   1      45.079  34.821  30.719  1.00  0.00     0.001 A 
ATOM     84  C   UNL A   1      44.899  35.137  32.064  1.00  0.00     0.000 A 
ENDBRANCH  66  79
ENDBRANCH  40  41
ENDBRANCH  32  35
ENDBRANCH  30  31
ENDBRANCH  29  30
ENDBRANCH   1  29
TORSDOF 14
ENDMDL
