MODEL 1
REMARK VINA RESULT:     -11.2      0.000      0.000
REMARK SMILES O=C(CC1(CC(=O)Nc2ccc(F)cc2F)CCCCC1)NCCCNC(=O)c1ccc(-c2c3nc(c(-c4ccccc4)c4ccc([nH]4)c(-c4ccccc4)c4nc(c(-c5ccccc5)c5ccc2[nH]5)C=C4)C=C3)cc1
REMARK SMILES IDX 23 1 22 2 1 3 2 4 3 6 4 7 17 8 21 9 18 10 20 11 19 12 5 13
REMARK SMILES IDX 6 14 7 15 8 16 9 18 10 19 15 20 11 21 14 22 16 23 12 24
REMARK SMILES IDX 13 25 24 26 25 27 26 28 27 29 28 31 29 32 30 33 76 34 31 35
REMARK SMILES IDX 75 36 32 37 33 38 34 39 69 40 35 41 74 42 68 43 70 44 36 45
REMARK SMILES IDX 73 46 67 47 66 48 37 50 59 51 44 52 58 53 45 54 48 55 57 56
REMARK SMILES IDX 71 57 46 58 47 59 56 61 72 62 49 63 38 64 39 65 43 66 40 67
REMARK SMILES IDX 42 68 41 69 60 70 61 71 65 72 62 73 64 74 63 75 50 76 51 77
REMARK SMILES IDX 55 78 52 79 54 80 53 81
REMARK H PARENT 22 5 8 17 26 30 70 49 48 60
REMARK Flexibility Score: inf
ROOT
ATOM      1  C   UNL A   1      31.470  27.679  26.568  1.00  0.00     0.117 C 
ENDROOT
BRANCH   1   2
ATOM      2  N   UNL A   1      31.268  26.259  26.774  1.00  0.00    -0.356 N 
ATOM      3  O   UNL A   1      29.784  26.009  25.047  1.00  0.00    -0.275 OA
ATOM      4  C   UNL A   1      30.486  25.513  25.922  1.00  0.00     0.220 C 
ATOM      5  H   UNL A   1      31.700  25.818  27.542  1.00  0.00     0.163 HD
BRANCH   4   6
ATOM      6  C   UNL A   1      30.595  24.007  26.117  1.00  0.00     0.107 C 
BRANCH   6   7
ATOM      7  C   UNL A   1      31.723  23.295  25.312  1.00  0.00    -0.012 C 
ATOM      8  C   UNL A   1      31.639  21.769  25.679  1.00  0.00     0.008 C 
ATOM      9  C   UNL A   1      31.435  23.320  23.796  1.00  0.00     0.008 C 
ATOM     10  C   UNL A   1      32.620  20.890  24.892  1.00  0.00     0.001 C 
ATOM     11  C   UNL A   1      32.485  22.571  22.976  1.00  0.00     0.001 C 
ATOM     12  C   UNL A   1      32.549  21.103  23.379  1.00  0.00     0.000 C 
BRANCH   7  13
ATOM     13  C   UNL A   1      33.150  23.792  25.699  1.00  0.00     0.108 C 
BRANCH  13  14
ATOM     14  C   UNL A   1      34.003  24.732  24.857  1.00  0.00     0.225 C 
ATOM     15  O   UNL A   1      33.488  25.785  24.456  1.00  0.00    -0.275 OA
ATOM     16  N   UNL A   1      35.337  24.559  24.639  1.00  0.00    -0.324 N 
ATOM     17  H   UNL A   1      35.802  25.346  24.275  1.00  0.00     0.170 HD
BRANCH  16  18
ATOM     18  C   UNL A   1      36.150  23.443  24.850  1.00  0.00     0.077 A 
ATOM     19  C   UNL A   1      36.020  22.313  24.040  1.00  0.00     0.032 A 
ATOM     20  C   UNL A   1      37.228  23.517  25.735  1.00  0.00     0.149 A 
ATOM     21  C   UNL A   1      36.859  21.211  24.232  1.00  0.00     0.041 A 
ATOM     22  C   UNL A   1      38.076  22.432  25.926  1.00  0.00     0.080 A 
ATOM     23  F   UNL A   1      37.437  24.641  26.437  1.00  0.00    -0.205 F 
ATOM     24  C   UNL A   1      37.867  21.275  25.187  1.00  0.00     0.126 A 
ATOM     25  F   UNL A   1      38.655  20.212  25.385  1.00  0.00    -0.207 F 
ENDBRANCH  16  18
ENDBRANCH  13  14
ENDBRANCH   7  13
ENDBRANCH   6   7
ENDBRANCH   4   6
ENDBRANCH   1   2
BRANCH   1  26
ATOM     26  C   UNL A   1      32.325  28.346  27.639  1.00  0.00     0.042 C 
BRANCH  26  27
ATOM     27  C   UNL A   1      33.487  29.201  27.141  1.00  0.00     0.118 C 
BRANCH  27  28
ATOM     28  N   UNL A   1      33.582  30.510  27.771  1.00  0.00    -0.352 N 
ATOM     29  C   UNL A   1      34.651  31.075  28.433  1.00  0.00     0.251 C 
ATOM     30  H   UNL A   1      32.773  31.068  27.718  1.00  0.00     0.163 HD
ATOM     31  O   UNL A   1      34.561  32.186  28.936  1.00  0.00    -0.269 OA
BRANCH  29  32
ATOM     32  C   UNL A   1      35.902  30.294  28.569  1.00  0.00     0.039 A 
ATOM     33  C   UNL A   1      36.806  30.268  27.504  1.00  0.00     0.014 A 
ATOM     34  C   UNL A   1      36.209  29.655  29.772  1.00  0.00     0.014 A 
ATOM     35  C   UNL A   1      38.067  29.693  27.683  1.00  0.00     0.010 A 
ATOM     36  C   UNL A   1      37.487  29.141  29.969  1.00  0.00     0.010 A 
ATOM     37  C   UNL A   1      38.438  29.177  28.936  1.00  0.00    -0.014 A 
BRANCH  37  38
ATOM     38  C   UNL A   1      39.820  28.707  29.215  1.00  0.00     0.031 A 
ATOM     39  C   UNL A   1      40.835  29.652  29.793  1.00  0.00     0.074 A 
ATOM     40  C   UNL A   1      40.196  27.467  28.841  1.00  0.00     0.049 A 
ATOM     41  N   UNL A   1      42.123  29.484  29.958  1.00  0.00    -0.248 NA
ATOM     42  C   UNL A   1      40.339  30.971  30.219  1.00  0.00     0.031 C 
ATOM     43  C   UNL A   1      39.320  26.458  28.242  1.00  0.00     0.029 A 
ATOM     44  N   UNL A   1      41.423  26.853  28.889  1.00  0.00    -0.354 N 
ATOM     45  C   UNL A   1      42.596  30.681  30.478  1.00  0.00     0.074 A 
ATOM     46  C   UNL A   1      41.464  31.579  30.570  1.00  0.00     0.031 C 
ATOM     47  C   UNL A   1      40.035  25.349  27.991  1.00  0.00     0.029 A 
ATOM     48  C   UNL A   1      41.426  25.584  28.361  1.00  0.00     0.049 A 
ATOM     49  H   UNL A   1      42.226  27.281  29.266  1.00  0.00     0.167 HD
ATOM     50  C   UNL A   1      43.856  31.003  30.855  1.00  0.00     0.031 A 
ATOM     51  C   UNL A   1      42.437  24.714  28.176  1.00  0.00     0.031 A 
ATOM     52  C   UNL A   1      44.980  30.109  30.775  1.00  0.00     0.049 A 
ATOM     53  C   UNL A   1      43.831  25.101  28.584  1.00  0.00     0.074 A 
ATOM     54  C   UNL A   1      46.286  30.331  31.179  1.00  0.00     0.029 A 
ATOM     55  N   UNL A   1      44.933  28.825  30.257  1.00  0.00    -0.354 N 
ATOM     56  N   UNL A   1      44.252  26.221  29.118  1.00  0.00    -0.248 NA
ATOM     57  C   UNL A   1      44.887  24.101  28.369  1.00  0.00     0.031 C 
ATOM     58  C   UNL A   1      47.039  29.195  30.865  1.00  0.00     0.029 A 
ATOM     59  C   UNL A   1      46.189  28.248  30.316  1.00  0.00     0.049 A 
ATOM     60  H   UNL A   1      44.126  28.389  29.901  1.00  0.00     0.167 HD
ATOM     61  C   UNL A   1      45.613  26.046  29.337  1.00  0.00     0.074 A 
ATOM     62  C   UNL A   1      45.946  24.713  28.882  1.00  0.00     0.031 C 
ATOM     63  C   UNL A   1      46.504  26.914  29.875  1.00  0.00     0.031 A 
BRANCH  50  64
ATOM     64  C   UNL A   1      44.086  32.392  31.380  1.00  0.00    -0.014 A 
ATOM     65  C   UNL A   1      43.984  32.679  32.750  1.00  0.00     0.009 A 
ATOM     66  C   UNL A   1      44.446  33.422  30.495  1.00  0.00     0.009 A 
ATOM     67  C   UNL A   1      44.199  33.976  33.218  1.00  0.00     0.001 A 
ATOM     68  C   UNL A   1      44.689  34.712  30.971  1.00  0.00     0.001 A 
ATOM     69  C   UNL A   1      44.556  34.990  32.331  1.00  0.00     0.000 A 
ENDBRANCH  50  64
BRANCH  51  70
ATOM     70  C   UNL A   1      42.171  23.379  27.577  1.00  0.00    -0.014 A 
ATOM     71  C   UNL A   1      42.404  23.156  26.212  1.00  0.00     0.009 A 
ATOM     72  C   UNL A   1      41.676  22.326  28.362  1.00  0.00     0.009 A 
ATOM     73  C   UNL A   1      42.123  21.913  25.638  1.00  0.00     0.001 A 
ATOM     74  C   UNL A   1      41.422  21.076  27.792  1.00  0.00     0.001 A 
ATOM     75  C   UNL A   1      41.637  20.873  26.430  1.00  0.00     0.000 A 
ENDBRANCH  51  70
BRANCH  63  76
ATOM     76  C   UNL A   1      47.915  26.434  30.058  1.00  0.00    -0.014 A 
ATOM     77  C   UNL A   1      48.338  25.839  31.256  1.00  0.00     0.009 A 
ATOM     78  C   UNL A   1      48.817  26.523  28.985  1.00  0.00     0.009 A 
ATOM     79  C   UNL A   1      49.646  25.365  31.384  1.00  0.00     0.001 A 
ATOM     80  C   UNL A   1      50.115  26.025  29.108  1.00  0.00     0.001 A 
ATOM     81  C   UNL A   1      50.530  25.452  30.308  1.00  0.00     0.000 A 
ENDBRANCH  63  76
ENDBRANCH  37  38
ENDBRANCH  29  32
ENDBRANCH  27  28
ENDBRANCH  26  27
ENDBRANCH   1  26
TORSDOF 14
ENDMDL
MODEL 2
REMARK VINA RESULT:     -11.1      2.338      7.488
REMARK SMILES O=C(CC1(CC(=O)Nc2ccc(F)cc2F)CCCCC1)NCCCNC(=O)c1ccc(-c2c3nc(c(-c4ccccc4)c4ccc([nH]4)c(-c4ccccc4)c4nc(c(-c5ccccc5)c5ccc2[nH]5)C=C4)C=C3)cc1
REMARK SMILES IDX 23 1 22 2 1 3 2 4 3 6 4 7 17 8 21 9 18 10 20 11 19 12 5 13
REMARK SMILES IDX 6 14 7 15 8 16 9 18 10 19 15 20 11 21 14 22 16 23 12 24
REMARK SMILES IDX 13 25 24 26 25 27 26 28 27 29 28 31 29 32 30 33 76 34 31 35
REMARK SMILES IDX 75 36 32 37 33 38 34 39 69 40 35 41 74 42 68 43 70 44 36 45
REMARK SMILES IDX 73 46 67 47 66 48 37 50 59 51 44 52 58 53 45 54 48 55 57 56
REMARK SMILES IDX 71 57 46 58 47 59 56 61 72 62 49 63 38 64 39 65 43 66 40 67
REMARK SMILES IDX 42 68 41 69 60 70 61 71 65 72 62 73 64 74 63 75 50 76 51 77
REMARK SMILES IDX 55 78 52 79 54 80 53 81
REMARK H PARENT 22 5 8 17 26 30 70 49 48 60
REMARK Flexibility Score: inf
ROOT
ATOM      1  C   UNL A   1      36.088  21.316  25.061  1.00  0.00     0.117 C 
ENDROOT
BRANCH   1   2
ATOM      2  N   UNL A   1      35.261  22.321  24.423  1.00  0.00    -0.356 N 
ATOM      3  O   UNL A   1      35.726  23.967  25.948  1.00  0.00    -0.275 OA
ATOM      4  C   UNL A   1      35.216  23.615  24.889  1.00  0.00     0.220 C 
ATOM      5  H   UNL A   1      34.719  22.071  23.640  1.00  0.00     0.163 HD
BRANCH   4   6
ATOM      6  C   UNL A   1      34.521  24.599  23.959  1.00  0.00     0.107 C 
BRANCH   6   7
ATOM      7  C   UNL A   1      32.995  24.803  24.199  1.00  0.00    -0.012 C 
ATOM      8  C   UNL A   1      32.416  23.400  24.607  1.00  0.00     0.008 C 
ATOM      9  C   UNL A   1      32.733  25.679  25.442  1.00  0.00     0.008 C 
ATOM     10  C   UNL A   1      30.929  23.431  24.986  1.00  0.00     0.001 C 
ATOM     11  C   UNL A   1      31.245  25.845  25.753  1.00  0.00     0.001 C 
ATOM     12  C   UNL A   1      30.590  24.497  26.028  1.00  0.00     0.000 C 
BRANCH   7  13
ATOM     13  C   UNL A   1      32.236  25.268  22.919  1.00  0.00     0.108 C 
BRANCH  13  14
ATOM     14  C   UNL A   1      32.802  26.209  21.864  1.00  0.00     0.225 C 
ATOM     15  O   UNL A   1      33.268  25.712  20.829  1.00  0.00    -0.275 OA
ATOM     16  N   UNL A   1      32.699  27.567  21.922  1.00  0.00    -0.324 N 
ATOM     17  H   UNL A   1      32.904  28.033  21.080  1.00  0.00     0.170 HD
BRANCH  16  18
ATOM     18  C   UNL A   1      32.349  28.403  22.985  1.00  0.00     0.077 A 
ATOM     19  C   UNL A   1      31.011  28.722  23.220  1.00  0.00     0.032 A 
ATOM     20  C   UNL A   1      33.306  28.764  23.937  1.00  0.00     0.149 A 
ATOM     21  C   UNL A   1      30.663  29.531  24.306  1.00  0.00     0.041 A 
ATOM     22  C   UNL A   1      32.969  29.557  25.028  1.00  0.00     0.080 A 
ATOM     23  F   UNL A   1      34.578  28.365  23.788  1.00  0.00    -0.205 F 
ATOM     24  C   UNL A   1      31.649  29.956  25.188  1.00  0.00     0.126 A 
ATOM     25  F   UNL A   1      31.317  30.748  26.216  1.00  0.00    -0.207 F 
ENDBRANCH  16  18
ENDBRANCH  13  14
ENDBRANCH   7  13
ENDBRANCH   6   7
ENDBRANCH   4   6
ENDBRANCH   1   2
BRANCH   1  26
ATOM     26  C   UNL A   1      37.551  21.355  24.633  1.00  0.00     0.042 C 
BRANCH  26  27
ATOM     27  C   UNL A   1      38.584  21.217  25.747  1.00  0.00     0.118 C 
BRANCH  27  28
ATOM     28  N   UNL A   1      39.456  20.057  25.617  1.00  0.00    -0.352 N 
ATOM     29  C   UNL A   1      40.779  19.925  25.981  1.00  0.00     0.251 C 
ATOM     30  H   UNL A   1      39.044  19.259  25.215  1.00  0.00     0.163 HD
ATOM     31  O   UNL A   1      41.384  18.882  25.777  1.00  0.00    -0.269 OA
BRANCH  29  32
ATOM     32  C   UNL A   1      41.475  21.086  26.581  1.00  0.00     0.039 A 
ATOM     33  C   UNL A   1      42.004  22.071  25.742  1.00  0.00     0.014 A 
ATOM     34  C   UNL A   1      41.535  21.233  27.969  1.00  0.00     0.014 A 
ATOM     35  C   UNL A   1      42.496  23.257  26.295  1.00  0.00     0.010 A 
ATOM     36  C   UNL A   1      41.966  22.439  28.512  1.00  0.00     0.010 A 
ATOM     37  C   UNL A   1      42.427  23.474  27.681  1.00  0.00    -0.014 A 
BRANCH  37  38
ATOM     38  C   UNL A   1      42.786  24.780  28.291  1.00  0.00     0.031 A 
ATOM     39  C   UNL A   1      41.732  25.832  28.493  1.00  0.00     0.074 A 
ATOM     40  C   UNL A   1      44.077  25.065  28.556  1.00  0.00     0.049 A 
ATOM     41  N   UNL A   1      41.871  27.083  28.856  1.00  0.00    -0.248 NA
ATOM     42  C   UNL A   1      40.341  25.432  28.226  1.00  0.00     0.031 C 
ATOM     43  C   UNL A   1      45.203  24.146  28.380  1.00  0.00     0.029 A 
ATOM     44  N   UNL A   1      44.662  26.222  29.009  1.00  0.00    -0.354 N 
ATOM     45  C   UNL A   1      40.593  27.625  28.834  1.00  0.00     0.074 A 
ATOM     46  C   UNL A   1      39.697  26.579  28.389  1.00  0.00     0.031 C 
ATOM     47  C   UNL A   1      46.339  24.770  28.731  1.00  0.00     0.029 A 
ATOM     48  C   UNL A   1      46.030  26.146  29.108  1.00  0.00     0.049 A 
ATOM     49  H   UNL A   1      44.149  27.030  29.240  1.00  0.00     0.167 HD
ATOM     50  C   UNL A   1      40.198  28.878  29.164  1.00  0.00     0.031 A 
ATOM     51  C   UNL A   1      46.939  27.081  29.445  1.00  0.00     0.031 A 
ATOM     52  C   UNL A   1      41.084  29.916  29.617  1.00  0.00     0.049 A 
ATOM     53  C   UNL A   1      46.477  28.470  29.787  1.00  0.00     0.074 A 
ATOM     54  C   UNL A   1      40.768  31.202  30.020  1.00  0.00     0.029 A 
ATOM     55  N   UNL A   1      42.459  29.787  29.727  1.00  0.00    -0.354 N 
ATOM     56  N   UNL A   1      45.259  28.954  29.807  1.00  0.00    -0.248 NA
ATOM     57  C   UNL A   1      47.517  29.441  30.161  1.00  0.00     0.031 C 
ATOM     58  C   UNL A   1      41.958  31.866  30.333  1.00  0.00     0.029 A 
ATOM     59  C   UNL A   1      43.008  30.976  30.176  1.00  0.00     0.049 A 
ATOM     60  H   UNL A   1      42.970  28.972  29.517  1.00  0.00     0.167 HD
ATOM     61  C   UNL A   1      45.382  30.271  30.229  1.00  0.00     0.074 A 
ATOM     62  C   UNL A   1      46.791  30.511  30.459  1.00  0.00     0.031 C 
ATOM     63  C   UNL A   1      44.410  31.197  30.416  1.00  0.00     0.031 A 
BRANCH  50  64
ATOM     64  C   UNL A   1      38.735  29.197  29.033  1.00  0.00    -0.014 A 
ATOM     65  C   UNL A   1      37.869  29.107  30.134  1.00  0.00     0.009 A 
ATOM     66  C   UNL A   1      38.222  29.629  27.799  1.00  0.00     0.009 A 
ATOM     67  C   UNL A   1      36.513  29.405  29.992  1.00  0.00     0.001 A 
ATOM     68  C   UNL A   1      36.871  29.954  27.668  1.00  0.00     0.001 A 
ATOM     69  C   UNL A   1      36.016  29.833  28.762  1.00  0.00     0.000 A 
ENDBRANCH  50  64
BRANCH  51  70
ATOM     70  C   UNL A   1      48.385  26.737  29.482  1.00  0.00    -0.014 A 
ATOM     71  C   UNL A   1      48.949  26.175  30.637  1.00  0.00     0.009 A 
ATOM     72  C   UNL A   1      49.207  26.975  28.371  1.00  0.00     0.009 A 
ATOM     73  C   UNL A   1      50.315  25.882  30.687  1.00  0.00     0.001 A 
ATOM     74  C   UNL A   1      50.567  26.655  28.414  1.00  0.00     0.001 A 
ATOM     75  C   UNL A   1      51.121  26.118  29.574  1.00  0.00     0.000 A 
ENDBRANCH  51  70
BRANCH  63  76
ATOM     76  C   UNL A   1      44.824  32.539  30.949  1.00  0.00    -0.014 A 
ATOM     77  C   UNL A   1      44.917  32.783  32.327  1.00  0.00     0.009 A 
ATOM     78  C   UNL A   1      45.187  33.554  30.050  1.00  0.00     0.009 A 
ATOM     79  C   UNL A   1      45.344  34.029  32.794  1.00  0.00     0.001 A 
ATOM     80  C   UNL A   1      45.637  34.788  30.519  1.00  0.00     0.001 A 
ATOM     81  C   UNL A   1      45.709  35.026  31.891  1.00  0.00     0.000 A 
ENDBRANCH  63  76
ENDBRANCH  37  38
ENDBRANCH  29  32
ENDBRANCH  27  28
ENDBRANCH  26  27
ENDBRANCH   1  26
TORSDOF 14
ENDMDL
MODEL 3
REMARK VINA RESULT:     -11.1      2.318      7.638
REMARK SMILES O=C(CC1(CC(=O)Nc2ccc(F)cc2F)CCCCC1)NCCCNC(=O)c1ccc(-c2c3nc(c(-c4ccccc4)c4ccc([nH]4)c(-c4ccccc4)c4nc(c(-c5ccccc5)c5ccc2[nH]5)C=C4)C=C3)cc1
REMARK SMILES IDX 23 1 22 2 1 3 2 4 3 6 4 7 17 8 21 9 18 10 20 11 19 12 5 13
REMARK SMILES IDX 6 14 7 15 8 16 9 18 10 19 15 20 11 21 14 22 16 23 12 24
REMARK SMILES IDX 13 25 24 26 25 27 26 28 27 29 28 31 29 32 30 33 76 34 31 35
REMARK SMILES IDX 75 36 32 37 33 38 34 39 69 40 35 41 74 42 68 43 70 44 36 45
REMARK SMILES IDX 73 46 67 47 66 48 37 50 59 51 44 52 58 53 45 54 48 55 57 56
REMARK SMILES IDX 71 57 46 58 47 59 56 61 72 62 49 63 38 64 39 65 43 66 40 67
REMARK SMILES IDX 42 68 41 69 60 70 61 71 65 72 62 73 64 74 63 75 50 76 51 77
REMARK SMILES IDX 55 78 52 79 54 80 53 81
REMARK H PARENT 22 5 8 17 26 30 70 49 48 60
REMARK Flexibility Score: inf
ROOT
ATOM      1  C   UNL A   1      36.134  20.878  25.048  1.00  0.00     0.117 C 
ENDROOT
BRANCH   1   2
ATOM      2  N   UNL A   1      35.313  21.867  24.380  1.00  0.00    -0.356 N 
ATOM      3  O   UNL A   1      35.647  23.504  25.948  1.00  0.00    -0.275 OA
ATOM      4  C   UNL A   1      35.206  23.153  24.858  1.00  0.00     0.220 C 
ATOM      5  H   UNL A   1      34.821  21.614  23.565  1.00  0.00     0.163 HD
BRANCH   4   6
ATOM      6  C   UNL A   1      34.533  24.130  23.904  1.00  0.00     0.107 C 
BRANCH   6   7
ATOM      7  C   UNL A   1      33.063  24.517  24.249  1.00  0.00    -0.012 C 
ATOM      8  C   UNL A   1      32.371  23.212  24.785  1.00  0.00     0.008 C 
ATOM      9  C   UNL A   1      33.003  25.480  25.453  1.00  0.00     0.008 C 
ATOM     10  C   UNL A   1      30.934  23.431  25.274  1.00  0.00     0.001 C 
ATOM     11  C   UNL A   1      31.574  25.830  25.867  1.00  0.00     0.001 C 
ATOM     12  C   UNL A   1      30.801  24.581  26.274  1.00  0.00     0.000 C 
BRANCH   7  13
ATOM     13  C   UNL A   1      32.255  24.999  23.006  1.00  0.00     0.108 C 
BRANCH  13  14
ATOM     14  C   UNL A   1      32.808  25.885  21.897  1.00  0.00     0.225 C 
ATOM     15  O   UNL A   1      33.278  25.336  20.891  1.00  0.00    -0.275 OA
ATOM     16  N   UNL A   1      32.690  27.243  21.878  1.00  0.00    -0.324 N 
ATOM     17  H   UNL A   1      32.888  27.663  21.010  1.00  0.00     0.170 HD
BRANCH  16  18
ATOM     18  C   UNL A   1      32.333  28.134  22.893  1.00  0.00     0.077 A 
ATOM     19  C   UNL A   1      30.996  28.487  23.083  1.00  0.00     0.032 A 
ATOM     20  C   UNL A   1      33.275  28.523  23.847  1.00  0.00     0.149 A 
ATOM     21  C   UNL A   1      30.639  29.352  24.122  1.00  0.00     0.041 A 
ATOM     22  C   UNL A   1      32.930  29.373  24.892  1.00  0.00     0.080 A 
ATOM     23  F   UNL A   1      34.542  28.096  23.745  1.00  0.00    -0.205 F 
ATOM     24  C   UNL A   1      31.614  29.801  25.005  1.00  0.00     0.126 A 
ATOM     25  F   UNL A   1      31.275  30.646  25.986  1.00  0.00    -0.207 F 
ENDBRANCH  16  18
ENDBRANCH  13  14
ENDBRANCH   7  13
ENDBRANCH   6   7
ENDBRANCH   4   6
ENDBRANCH   1   2
BRANCH   1  26
ATOM     26  C   UNL A   1      37.594  20.885  24.610  1.00  0.00     0.042 C 
BRANCH  26  27
ATOM     27  C   UNL A   1      38.634  20.886  25.727  1.00  0.00     0.118 C 
BRANCH  27  28
ATOM     28  N   UNL A   1      39.563  19.765  25.684  1.00  0.00    -0.352 N 
ATOM     29  C   UNL A   1      40.889  19.727  26.060  1.00  0.00     0.251 C 
ATOM     30  H   UNL A   1      39.194  18.921  25.339  1.00  0.00     0.163 HD
ATOM     31  O   UNL A   1      41.546  18.703  25.934  1.00  0.00    -0.269 OA
BRANCH  29  32
ATOM     32  C   UNL A   1      41.522  20.961  26.576  1.00  0.00     0.039 A 
ATOM     33  C   UNL A   1      42.132  21.841  25.678  1.00  0.00     0.014 A 
ATOM     34  C   UNL A   1      41.444  21.279  27.934  1.00  0.00     0.014 A 
ATOM     35  C   UNL A   1      42.567  23.091  26.125  1.00  0.00     0.010 A 
ATOM     36  C   UNL A   1      41.819  22.549  28.364  1.00  0.00     0.010 A 
ATOM     37  C   UNL A   1      42.361  23.477  27.460  1.00  0.00    -0.014 A 
BRANCH  37  38
ATOM     38  C   UNL A   1      42.658  24.854  27.935  1.00  0.00     0.031 A 
ATOM     39  C   UNL A   1      44.042  25.208  28.401  1.00  0.00     0.074 A 
ATOM     40  C   UNL A   1      41.659  25.750  28.059  1.00  0.00     0.049 A 
ATOM     41  N   UNL A   1      44.461  26.295  28.998  1.00  0.00    -0.248 NA
ATOM     42  C   UNL A   1      45.088  24.194  28.190  1.00  0.00     0.031 C 
ATOM     43  C   UNL A   1      40.264  25.528  27.672  1.00  0.00     0.029 A 
ATOM     44  N   UNL A   1      41.662  27.025  28.570  1.00  0.00    -0.354 N 
ATOM     45  C   UNL A   1      45.808  26.086  29.259  1.00  0.00     0.074 A 
ATOM     46  C   UNL A   1      46.129  24.755  28.788  1.00  0.00     0.031 C 
ATOM     47  C   UNL A   1      39.551  26.632  27.948  1.00  0.00     0.029 A 
ATOM     48  C   UNL A   1      40.422  27.619  28.577  1.00  0.00     0.049 A 
ATOM     49  H   UNL A   1      42.474  27.472  28.901  1.00  0.00     0.167 HD
ATOM     50  C   UNL A   1      46.702  26.928  29.830  1.00  0.00     0.031 A 
ATOM     51  C   UNL A   1      40.025  28.815  29.053  1.00  0.00     0.031 A 
ATOM     52  C   UNL A   1      46.389  28.254  30.289  1.00  0.00     0.049 A 
ATOM     53  C   UNL A   1      41.032  29.724  29.701  1.00  0.00     0.074 A 
ATOM     54  C   UNL A   1      47.240  29.199  30.838  1.00  0.00     0.029 A 
ATOM     55  N   UNL A   1      45.126  28.824  30.254  1.00  0.00    -0.354 N 
ATOM     56  N   UNL A   1      42.313  29.529  29.898  1.00  0.00    -0.248 NA
ATOM     57  C   UNL A   1      40.537  31.021  30.187  1.00  0.00     0.031 C 
ATOM     58  C   UNL A   1      46.483  30.326  31.174  1.00  0.00     0.029 A 
ATOM     59  C   UNL A   1      45.172  30.102  30.785  1.00  0.00     0.049 A 
ATOM     60  H   UNL A   1      44.318  28.387  29.902  1.00  0.00     0.167 HD
ATOM     61  C   UNL A   1      42.784  30.691  30.496  1.00  0.00     0.074 A 
ATOM     62  C   UNL A   1      41.654  31.587  30.626  1.00  0.00     0.031 C 
ATOM     63  C   UNL A   1      44.044  30.989  30.894  1.00  0.00     0.031 A 
BRANCH  50  64
ATOM     64  C   UNL A   1      48.109  26.428  30.002  1.00  0.00    -0.014 A 
ATOM     65  C   UNL A   1      49.075  26.614  29.000  1.00  0.00     0.009 A 
ATOM     66  C   UNL A   1      48.484  25.795  31.198  1.00  0.00     0.009 A 
ATOM     67  C   UNL A   1      50.376  26.141  29.177  1.00  0.00     0.001 A 
ATOM     68  C   UNL A   1      49.794  25.349  31.383  1.00  0.00     0.001 A 
ATOM     69  C   UNL A   1      50.736  25.514  30.369  1.00  0.00     0.000 A 
ENDBRANCH  50  64
BRANCH  51  70
ATOM     70  C   UNL A   1      38.603  29.231  28.931  1.00  0.00    -0.014 A 
ATOM     71  C   UNL A   1      37.734  29.110  30.026  1.00  0.00     0.009 A 
ATOM     72  C   UNL A   1      38.105  29.741  27.723  1.00  0.00     0.009 A 
ATOM     73  C   UNL A   1      36.388  29.467  29.905  1.00  0.00     0.001 A 
ATOM     74  C   UNL A   1      36.766  30.125  27.613  1.00  0.00     0.001 A 
ATOM     75  C   UNL A   1      35.907  29.979  28.701  1.00  0.00     0.000 A 
ENDBRANCH  51  70
BRANCH  63  76
ATOM     76  C   UNL A   1      44.287  32.361  31.456  1.00  0.00    -0.014 A 
ATOM     77  C   UNL A   1      44.604  33.447  30.626  1.00  0.00     0.009 A 
ATOM     78  C   UNL A   1      44.133  32.578  32.834  1.00  0.00     0.009 A 
ATOM     79  C   UNL A   1      44.786  34.720  31.172  1.00  0.00     0.001 A 
ATOM     80  C   UNL A   1      44.289  33.855  33.372  1.00  0.00     0.001 A 
ATOM     81  C   UNL A   1      44.621  34.924  32.541  1.00  0.00     0.000 A 
ENDBRANCH  63  76
ENDBRANCH  37  38
ENDBRANCH  29  32
ENDBRANCH  27  28
ENDBRANCH  26  27
ENDBRANCH   1  26
TORSDOF 14
ENDMDL
