MODEL 1
REMARK VINA RESULT:     -11.2      0.000      0.000
REMARK SMILES O=C(NCCCNC(=O)C(Cl)(c1ccccc1)c1ccccc1)c1ccc(-c2c3nc(c(-c4ccccc4)c4ccc([nH]4)c(-c4ccccc4)c4nc(c(-c5ccccc5)c5ccc2[nH]5)C=C4)C=C3)cc1
REMARK SMILES IDX 4 1 3 2 1 3 2 4 24 6 25 7 71 8 26 9 70 10 27 11 28 12 29 13
REMARK SMILES IDX 64 14 30 15 69 16 63 17 65 18 31 19 68 20 62 21 61 22 32 24
REMARK SMILES IDX 54 25 39 26 53 27 40 28 43 29 52 30 66 31 41 32 42 33 51 35
REMARK SMILES IDX 67 36 44 37 33 38 34 39 38 40 35 41 37 42 36 43 55 44 56 45
REMARK SMILES IDX 60 46 57 47 59 48 58 49 45 50 46 51 50 52 47 53 49 54 48 55
REMARK SMILES IDX 5 56 6 57 7 58 8 59 9 61 10 62 11 63 12 64 13 65 17 66 14 67
REMARK SMILES IDX 16 68 15 69 18 70 19 71 23 72 20 73 22 74 21 75
REMARK H PARENT 3 5 65 23 43 34 7 60
REMARK Flexibility Score: inf
ROOT
ATOM      1  C   UNL A   1      38.959  20.280  25.960  1.00  0.00     0.118 C 
ENDROOT
BRANCH   1   2
ATOM      2  N   UNL A   1      40.114  19.398  25.844  1.00  0.00    -0.352 N 
ATOM      3  O   UNL A   1      42.279  18.804  25.677  1.00  0.00    -0.269 OA
ATOM      4  C   UNL A   1      41.458  19.645  26.014  1.00  0.00     0.251 C 
ATOM      5  H   UNL A   1      39.897  18.468  25.603  1.00  0.00     0.163 HD
BRANCH   4   6
ATOM      6  C   UNL A   1      41.911  20.934  26.579  1.00  0.00     0.039 A 
ATOM      7  C   UNL A   1      41.985  21.120  27.958  1.00  0.00     0.014 A 
ATOM      8  C   UNL A   1      42.280  21.969  25.715  1.00  0.00     0.014 A 
ATOM      9  C   UNL A   1      42.223  22.388  28.470  1.00  0.00     0.010 A 
ATOM     10  C   UNL A   1      42.637  23.216  26.237  1.00  0.00     0.010 A 
ATOM     11  C   UNL A   1      42.562  23.451  27.618  1.00  0.00    -0.014 A 
BRANCH  11  12
ATOM     12  C   UNL A   1      42.852  24.782  28.210  1.00  0.00     0.031 A 
ATOM     13  C   UNL A   1      44.263  25.211  28.506  1.00  0.00     0.074 A 
ATOM     14  C   UNL A   1      41.830  25.634  28.420  1.00  0.00     0.049 A 
ATOM     15  N   UNL A   1      44.693  26.362  28.964  1.00  0.00    -0.248 NA
ATOM     16  C   UNL A   1      45.330  24.227  28.270  1.00  0.00     0.031 C 
ATOM     17  C   UNL A   1      40.417  25.336  28.169  1.00  0.00     0.029 A 
ATOM     18  N   UNL A   1      41.822  26.937  28.850  1.00  0.00    -0.354 N 
ATOM     19  C   UNL A   1      46.069  26.227  29.102  1.00  0.00     0.074 A 
ATOM     20  C   UNL A   1      46.402  24.879  28.698  1.00  0.00     0.031 C 
ATOM     21  C   UNL A   1      39.692  26.445  28.368  1.00  0.00     0.029 A 
ATOM     22  C   UNL A   1      40.575  27.509  28.831  1.00  0.00     0.049 A 
ATOM     23  H   UNL A   1      42.632  27.415  29.142  1.00  0.00     0.167 HD
ATOM     24  C   UNL A   1      46.973  27.142  29.528  1.00  0.00     0.031 A 
ATOM     25  C   UNL A   1      40.176  28.752  29.155  1.00  0.00     0.031 A 
ATOM     26  C   UNL A   1      46.643  28.490  29.914  1.00  0.00     0.049 A 
ATOM     27  C   UNL A   1      41.195  29.743  29.632  1.00  0.00     0.074 A 
ATOM     28  C   UNL A   1      47.493  29.502  30.328  1.00  0.00     0.029 A 
ATOM     29  N   UNL A   1      45.360  29.014  29.933  1.00  0.00    -0.354 N 
ATOM     30  N   UNL A   1      42.493  29.601  29.742  1.00  0.00    -0.248 NA
ATOM     31  C   UNL A   1      40.691  31.062  30.033  1.00  0.00     0.031 C 
ATOM     32  C   UNL A   1      46.717  30.624  30.640  1.00  0.00     0.029 A 
ATOM     33  C   UNL A   1      45.391  30.328  30.371  1.00  0.00     0.049 A 
ATOM     34  H   UNL A   1      44.546  28.524  29.672  1.00  0.00     0.167 HD
ATOM     35  C   UNL A   1      42.966  30.817  30.211  1.00  0.00     0.074 A 
ATOM     36  C   UNL A   1      41.816  31.691  30.346  1.00  0.00     0.031 C 
ATOM     37  C   UNL A   1      44.238  31.178  30.506  1.00  0.00     0.031 A 
BRANCH  24  38
ATOM     38  C   UNL A   1      48.407  26.700  29.636  1.00  0.00    -0.014 A 
ATOM     39  C   UNL A   1      48.894  26.060  30.786  1.00  0.00     0.009 A 
ATOM     40  C   UNL A   1      49.278  26.911  28.555  1.00  0.00     0.009 A 
ATOM     41  C   UNL A   1      50.235  25.673  30.865  1.00  0.00     0.001 A 
ATOM     42  C   UNL A   1      50.611  26.499  28.627  1.00  0.00     0.001 A 
ATOM     43  C   UNL A   1      51.091  25.890  29.786  1.00  0.00     0.000 A 
ENDBRANCH  24  38
BRANCH  25  44
ATOM     44  C   UNL A   1      38.743  29.120  29.032  1.00  0.00    -0.014 A 
ATOM     45  C   UNL A   1      37.885  29.016  30.136  1.00  0.00     0.009 A 
ATOM     46  C   UNL A   1      38.235  29.610  27.819  1.00  0.00     0.009 A 
ATOM     47  C   UNL A   1      36.542  29.385  30.024  1.00  0.00     0.001 A 
ATOM     48  C   UNL A   1      36.900  30.005  27.717  1.00  0.00     0.001 A 
ATOM     49  C   UNL A   1      36.054  29.886  28.818  1.00  0.00     0.000 A 
ENDBRANCH  25  44
BRANCH  37  50
ATOM     50  C   UNL A   1      44.449  32.589  30.974  1.00  0.00    -0.014 A 
ATOM     51  C   UNL A   1      44.422  32.916  32.337  1.00  0.00     0.009 A 
ATOM     52  C   UNL A   1      44.696  33.602  30.033  1.00  0.00     0.009 A 
ATOM     53  C   UNL A   1      44.602  34.237  32.749  1.00  0.00     0.001 A 
ATOM     54  C   UNL A   1      44.902  34.917  30.450  1.00  0.00     0.001 A 
ATOM     55  C   UNL A   1      44.845  35.235  31.806  1.00  0.00     0.000 A 
ENDBRANCH  37  50
ENDBRANCH  11  12
ENDBRANCH   4   6
ENDBRANCH   1   2
BRANCH   1  56
ATOM     56  C   UNL A   1      37.881  19.992  24.921  1.00  0.00     0.042 C 
BRANCH  56  57
ATOM     57  C   UNL A   1      37.007  21.195  24.606  1.00  0.00     0.117 C 
BRANCH  57  58
ATOM     58  N   UNL A   1      36.440  21.783  25.812  1.00  0.00    -0.354 N 
ATOM     59  C   UNL A   1      35.320  22.538  26.028  1.00  0.00     0.250 C 
ATOM     60  H   UNL A   1      36.963  21.604  26.626  1.00  0.00     0.163 HD
ATOM     61  O   UNL A   1      35.059  22.704  27.229  1.00  0.00    -0.272 OA
BRANCH  59  62
ATOM     62  C   UNL A   1      34.401  23.106  24.884  1.00  0.00     0.173 C 
ATOM     63  Cl  UNL A   1      35.530  23.767  23.570  1.00  0.00    -0.098 Cl
BRANCH  62  64
ATOM     64  C   UNL A   1      33.529  22.032  24.182  1.00  0.00    -0.013 A 
ATOM     65  C   UNL A   1      33.343  20.734  24.697  1.00  0.00     0.006 A 
ATOM     66  C   UNL A   1      32.898  22.329  22.953  1.00  0.00     0.006 A 
ATOM     67  C   UNL A   1      32.628  19.764  23.988  1.00  0.00     0.000 A 
ATOM     68  C   UNL A   1      32.141  21.374  22.272  1.00  0.00     0.000 A 
ATOM     69  C   UNL A   1      32.023  20.084  22.778  1.00  0.00     0.000 A 
ENDBRANCH  62  64
BRANCH  62  70
ATOM     70  C   UNL A   1      33.602  24.325  25.436  1.00  0.00    -0.013 A 
ATOM     71  C   UNL A   1      32.309  24.189  25.975  1.00  0.00     0.006 A 
ATOM     72  C   UNL A   1      34.183  25.614  25.476  1.00  0.00     0.006 A 
ATOM     73  C   UNL A   1      31.594  25.302  26.433  1.00  0.00     0.000 A 
ATOM     74  C   UNL A   1      33.471  26.722  25.939  1.00  0.00     0.000 A 
ATOM     75  C   UNL A   1      32.170  26.568  26.402  1.00  0.00     0.000 A 
ENDBRANCH  62  70
ENDBRANCH  59  62
ENDBRANCH  57  58
ENDBRANCH  56  57
ENDBRANCH   1  56
TORSDOF 12
ENDMDL
MODEL 2
REMARK VINA RESULT:     -11.0      4.261      9.192
REMARK SMILES O=C(NCCCNC(=O)C(Cl)(c1ccccc1)c1ccccc1)c1ccc(-c2c3nc(c(-c4ccccc4)c4ccc([nH]4)c(-c4ccccc4)c4nc(c(-c5ccccc5)c5ccc2[nH]5)C=C4)C=C3)cc1
REMARK SMILES IDX 4 1 3 2 1 3 2 4 24 6 25 7 71 8 26 9 70 10 27 11 28 12 29 13
REMARK SMILES IDX 64 14 30 15 69 16 63 17 65 18 31 19 68 20 62 21 61 22 32 24
REMARK SMILES IDX 54 25 39 26 53 27 40 28 43 29 52 30 66 31 41 32 42 33 51 35
REMARK SMILES IDX 67 36 44 37 33 38 34 39 38 40 35 41 37 42 36 43 55 44 56 45
REMARK SMILES IDX 60 46 57 47 59 48 58 49 45 50 46 51 50 52 47 53 49 54 48 55
REMARK SMILES IDX 5 56 6 57 7 58 8 59 9 61 10 62 11 63 12 64 13 65 17 66 14 67
REMARK SMILES IDX 16 68 15 69 18 70 19 71 23 72 20 73 22 74 21 75
REMARK H PARENT 3 5 65 23 43 34 7 60
REMARK Flexibility Score: inf
ROOT
ATOM      1  C   UNL A   1      32.719  32.501  27.185  1.00  0.00     0.118 C 
ENDROOT
BRANCH   1   2
ATOM      2  N   UNL A   1      32.516  33.863  27.664  1.00  0.00    -0.352 N 
ATOM      3  O   UNL A   1      32.731  35.658  29.005  1.00  0.00    -0.269 OA
ATOM      4  C   UNL A   1      33.189  34.594  28.618  1.00  0.00     0.251 C 
ATOM      5  H   UNL A   1      31.772  34.343  27.233  1.00  0.00     0.163 HD
BRANCH   4   6
ATOM      6  C   UNL A   1      34.451  34.081  29.193  1.00  0.00     0.039 A 
ATOM      7  C   UNL A   1      35.682  34.462  28.664  1.00  0.00     0.014 A 
ATOM      8  C   UNL A   1      34.402  33.213  30.288  1.00  0.00     0.014 A 
ATOM      9  C   UNL A   1      36.841  33.826  29.085  1.00  0.00     0.010 A 
ATOM     10  C   UNL A   1      35.585  32.662  30.792  1.00  0.00     0.010 A 
ATOM     11  C   UNL A   1      36.810  32.924  30.161  1.00  0.00    -0.014 A 
BRANCH  11  12
ATOM     12  C   UNL A   1      38.079  32.298  30.610  1.00  0.00     0.031 A 
ATOM     13  C   UNL A   1      38.831  32.827  31.800  1.00  0.00     0.074 A 
ATOM     14  C   UNL A   1      38.519  31.196  29.971  1.00  0.00     0.049 A 
ATOM     15  N   UNL A   1      39.920  32.359  32.360  1.00  0.00    -0.248 NA
ATOM     16  C   UNL A   1      38.306  34.043  32.442  1.00  0.00     0.031 C 
ATOM     17  C   UNL A   1      37.876  30.583  28.805  1.00  0.00     0.029 A 
ATOM     18  N   UNL A   1      39.583  30.371  30.233  1.00  0.00    -0.354 N 
ATOM     19  C   UNL A   1      40.226  33.237  33.392  1.00  0.00     0.074 A 
ATOM     20  C   UNL A   1      39.221  34.277  33.372  1.00  0.00     0.031 C 
ATOM     21  C   UNL A   1      38.506  29.439  28.507  1.00  0.00     0.029 A 
ATOM     22  C   UNL A   1      39.640  29.275  29.409  1.00  0.00     0.049 A 
ATOM     23  H   UNL A   1      40.241  30.548  30.944  1.00  0.00     0.167 HD
ATOM     24  C   UNL A   1      41.252  33.184  34.276  1.00  0.00     0.031 A 
ATOM     25  C   UNL A   1      40.509  28.250  29.373  1.00  0.00     0.031 A 
ATOM     26  C   UNL A   1      42.242  32.139  34.307  1.00  0.00     0.049 A 
ATOM     27  C   UNL A   1      41.640  28.219  30.357  1.00  0.00     0.074 A 
ATOM     28  C   UNL A   1      43.301  31.978  35.185  1.00  0.00     0.029 A 
ATOM     29  N   UNL A   1      42.296  31.075  33.419  1.00  0.00    -0.354 N 
ATOM     30  N   UNL A   1      41.905  29.050  31.334  1.00  0.00    -0.248 NA
ATOM     31  C   UNL A   1      42.593  27.110  30.227  1.00  0.00     0.031 C 
ATOM     32  C   UNL A   1      44.021  30.841  34.800  1.00  0.00     0.029 A 
ATOM     33  C   UNL A   1      43.381  30.265  33.715  1.00  0.00     0.049 A 
ATOM     34  H   UNL A   1      41.656  30.918  32.687  1.00  0.00     0.167 HD
ATOM     35  C   UNL A   1      43.047  28.559  31.948  1.00  0.00     0.074 A 
ATOM     36  C   UNL A   1      43.413  27.345  31.243  1.00  0.00     0.031 C 
ATOM     37  C   UNL A   1      43.733  29.067  32.999  1.00  0.00     0.031 A 
BRANCH  24  38
ATOM     38  C   UNL A   1      41.377  34.314  35.261  1.00  0.00    -0.014 A 
ATOM     39  C   UNL A   1      40.777  34.253  36.529  1.00  0.00     0.009 A 
ATOM     40  C   UNL A   1      42.129  35.449  34.919  1.00  0.00     0.009 A 
ATOM     41  C   UNL A   1      40.898  35.324  37.419  1.00  0.00     0.001 A 
ATOM     42  C   UNL A   1      42.269  36.506  35.821  1.00  0.00     0.001 A 
ATOM     43  C   UNL A   1      41.645  36.447  37.066  1.00  0.00     0.000 A 
ENDBRANCH  24  38
BRANCH  25  44
ATOM     44  C   UNL A   1      40.332  27.171  28.370  1.00  0.00    -0.014 A 
ATOM     45  C   UNL A   1      40.926  27.273  27.103  1.00  0.00     0.009 A 
ATOM     46  C   UNL A   1      39.596  26.018  28.685  1.00  0.00     0.009 A 
ATOM     47  C   UNL A   1      40.778  26.246  26.169  1.00  0.00     0.001 A 
ATOM     48  C   UNL A   1      39.474  24.980  27.760  1.00  0.00     0.001 A 
ATOM     49  C   UNL A   1      40.059  25.098  26.501  1.00  0.00     0.000 A 
ENDBRANCH  25  44
BRANCH  37  50
ATOM     50  C   UNL A   1      44.930  28.291  33.465  1.00  0.00    -0.014 A 
ATOM     51  C   UNL A   1      46.212  28.558  32.962  1.00  0.00     0.009 A 
ATOM     52  C   UNL A   1      44.772  27.288  34.435  1.00  0.00     0.009 A 
ATOM     53  C   UNL A   1      47.309  27.810  33.395  1.00  0.00     0.001 A 
ATOM     54  C   UNL A   1      45.874  26.561  34.885  1.00  0.00     0.001 A 
ATOM     55  C   UNL A   1      47.139  26.816  34.358  1.00  0.00     0.000 A 
ENDBRANCH  37  50
ENDBRANCH  11  12
ENDBRANCH   4   6
ENDBRANCH   1   2
BRANCH   1  56
ATOM     56  C   UNL A   1      31.486  31.918  26.503  1.00  0.00     0.042 C 
BRANCH  56  57
ATOM     57  C   UNL A   1      31.546  30.409  26.330  1.00  0.00     0.117 C 
BRANCH  57  58
ATOM     58  N   UNL A   1      32.674  30.003  25.505  1.00  0.00    -0.354 N 
ATOM     59  C   UNL A   1      32.948  28.848  24.824  1.00  0.00     0.250 C 
ATOM     60  H   UNL A   1      33.374  30.690  25.421  1.00  0.00     0.163 HD
ATOM     61  O   UNL A   1      33.931  28.936  24.073  1.00  0.00    -0.272 OA
BRANCH  59  62
ATOM     62  C   UNL A   1      32.084  27.537  24.923  1.00  0.00     0.173 C 
ATOM     63  Cl  UNL A   1      31.732  27.262  26.722  1.00  0.00    -0.098 Cl
BRANCH  62  64
ATOM     64  C   UNL A   1      30.696  27.643  24.239  1.00  0.00    -0.013 A 
ATOM     65  C   UNL A   1      30.318  28.729  23.426  1.00  0.00     0.006 A 
ATOM     66  C   UNL A   1      29.731  26.630  24.440  1.00  0.00     0.006 A 
ATOM     67  C   UNL A   1      29.025  28.835  22.905  1.00  0.00     0.000 A 
ATOM     68  C   UNL A   1      28.457  26.711  23.875  1.00  0.00     0.000 A 
ATOM     69  C   UNL A   1      28.096  27.825  23.125  1.00  0.00     0.000 A 
ENDBRANCH  62  64
BRANCH  62  70
ATOM     70  C   UNL A   1      32.945  26.327  24.451  1.00  0.00    -0.013 A 
ATOM     71  C   UNL A   1      32.897  25.847  23.128  1.00  0.00     0.006 A 
ATOM     72  C   UNL A   1      33.864  25.706  25.327  1.00  0.00     0.006 A 
ATOM     73  C   UNL A   1      33.653  24.737  22.733  1.00  0.00     0.000 A 
ATOM     74  C   UNL A   1      34.622  24.602  24.930  1.00  0.00     0.000 A 
ATOM     75  C   UNL A   1      34.503  24.107  23.637  1.00  0.00     0.000 A 
ENDBRANCH  62  70
ENDBRANCH  59  62
ENDBRANCH  57  58
ENDBRANCH  56  57
ENDBRANCH   1  56
TORSDOF 12
ENDMDL
MODEL 3
REMARK VINA RESULT:     -11.0      0.295      6.072
REMARK SMILES O=C(NCCCNC(=O)C(Cl)(c1ccccc1)c1ccccc1)c1ccc(-c2c3nc(c(-c4ccccc4)c4ccc([nH]4)c(-c4ccccc4)c4nc(c(-c5ccccc5)c5ccc2[nH]5)C=C4)C=C3)cc1
REMARK SMILES IDX 4 1 3 2 1 3 2 4 24 6 25 7 71 8 26 9 70 10 27 11 28 12 29 13
REMARK SMILES IDX 64 14 30 15 69 16 63 17 65 18 31 19 68 20 62 21 61 22 32 24
REMARK SMILES IDX 54 25 39 26 53 27 40 28 43 29 52 30 66 31 41 32 42 33 51 35
REMARK SMILES IDX 67 36 44 37 33 38 34 39 38 40 35 41 37 42 36 43 55 44 56 45
REMARK SMILES IDX 60 46 57 47 59 48 58 49 45 50 46 51 50 52 47 53 49 54 48 55
REMARK SMILES IDX 5 56 6 57 7 58 8 59 9 61 10 62 11 63 12 64 13 65 17 66 14 67
REMARK SMILES IDX 16 68 15 69 18 70 19 71 23 72 20 73 22 74 21 75
REMARK H PARENT 3 5 65 23 43 34 7 60
REMARK Flexibility Score: inf
ROOT
ATOM      1  C   UNL A   1      38.977  20.310  26.079  1.00  0.00     0.118 C 
ENDROOT
BRANCH   1   2
ATOM      2  N   UNL A   1      40.116  19.402  26.009  1.00  0.00    -0.352 N 
ATOM      3  O   UNL A   1      42.268  18.761  25.850  1.00  0.00    -0.269 OA
ATOM      4  C   UNL A   1      41.467  19.638  26.137  1.00  0.00     0.251 C 
ATOM      5  H   UNL A   1      39.880  18.460  25.843  1.00  0.00     0.163 HD
BRANCH   4   6
ATOM      6  C   UNL A   1      41.950  20.958  26.594  1.00  0.00     0.039 A 
ATOM      7  C   UNL A   1      42.042  21.251  27.954  1.00  0.00     0.014 A 
ATOM      8  C   UNL A   1      42.330  21.915  25.648  1.00  0.00     0.014 A 
ATOM      9  C   UNL A   1      42.310  22.550  28.362  1.00  0.00     0.010 A 
ATOM     10  C   UNL A   1      42.716  23.192  26.067  1.00  0.00     0.010 A 
ATOM     11  C   UNL A   1      42.660  23.536  27.426  1.00  0.00    -0.014 A 
BRANCH  11  12
ATOM     12  C   UNL A   1      42.982  24.903  27.909  1.00  0.00     0.031 A 
ATOM     13  C   UNL A   1      41.898  25.908  28.182  1.00  0.00     0.074 A 
ATOM     14  C   UNL A   1      44.269  25.212  28.164  1.00  0.00     0.049 A 
ATOM     15  N   UNL A   1      42.005  27.122  28.666  1.00  0.00    -0.248 NA
ATOM     16  C   UNL A   1      40.517  25.512  27.866  1.00  0.00     0.031 C 
ATOM     17  C   UNL A   1      45.411  24.321  27.943  1.00  0.00     0.029 A 
ATOM     18  N   UNL A   1      44.829  26.342  28.703  1.00  0.00    -0.354 N 
ATOM     19  C   UNL A   1      40.717  27.643  28.678  1.00  0.00     0.074 A 
ATOM     20  C   UNL A   1      39.845  26.622  28.139  1.00  0.00     0.031 C 
ATOM     21  C   UNL A   1      46.520  24.903  28.419  1.00  0.00     0.029 A 
ATOM     22  C   UNL A   1      46.182  26.234  28.909  1.00  0.00     0.049 A 
ATOM     23  H   UNL A   1      44.312  27.151  28.922  1.00  0.00     0.167 HD
ATOM     24  C   UNL A   1      40.298  28.860  29.100  1.00  0.00     0.031 A 
ATOM     25  C   UNL A   1      47.062  27.109  29.429  1.00  0.00     0.031 A 
ATOM     26  C   UNL A   1      41.163  29.869  29.654  1.00  0.00     0.049 A 
ATOM     27  C   UNL A   1      46.573  28.452  29.880  1.00  0.00     0.074 A 
ATOM     28  C   UNL A   1      40.828  31.122  30.141  1.00  0.00     0.029 A 
ATOM     29  N   UNL A   1      42.536  29.741  29.795  1.00  0.00    -0.354 N 
ATOM     30  N   UNL A   1      45.350  28.920  29.898  1.00  0.00    -0.248 NA
ATOM     31  C   UNL A   1      47.589  29.387  30.378  1.00  0.00     0.031 C 
ATOM     32  C   UNL A   1      42.005  31.767  30.535  1.00  0.00     0.029 A 
ATOM     33  C   UNL A   1      43.066  30.898  30.341  1.00  0.00     0.049 A 
ATOM     34  H   UNL A   1      43.057  28.944  29.544  1.00  0.00     0.167 HD
ATOM     35  C   UNL A   1      45.444  30.201  30.422  1.00  0.00     0.074 A 
ATOM     36  C   UNL A   1      46.844  30.426  30.728  1.00  0.00     0.031 C 
ATOM     37  C   UNL A   1      44.461  31.108  30.632  1.00  0.00     0.031 A 
BRANCH  24  38
ATOM     38  C   UNL A   1      38.837  29.182  28.942  1.00  0.00    -0.014 A 
ATOM     39  C   UNL A   1      38.324  29.701  27.743  1.00  0.00     0.009 A 
ATOM     40  C   UNL A   1      37.956  28.939  30.008  1.00  0.00     0.009 A 
ATOM     41  C   UNL A   1      36.964  30.005  27.628  1.00  0.00     0.001 A 
ATOM     42  C   UNL A   1      36.594  29.219  29.882  1.00  0.00     0.001 A 
ATOM     43  C   UNL A   1      36.101  29.761  28.696  1.00  0.00     0.000 A 
ENDBRANCH  24  38
BRANCH  25  44
ATOM     44  C   UNL A   1      48.492  26.729  29.550  1.00  0.00    -0.014 A 
ATOM     45  C   UNL A   1      48.967  26.112  30.716  1.00  0.00     0.009 A 
ATOM     46  C   UNL A   1      49.381  26.952  28.486  1.00  0.00     0.009 A 
ATOM     47  C   UNL A   1      50.308  25.734  30.818  1.00  0.00     0.001 A 
ATOM     48  C   UNL A   1      50.713  26.548  28.580  1.00  0.00     0.001 A 
ATOM     49  C   UNL A   1      51.177  25.946  29.748  1.00  0.00     0.000 A 
ENDBRANCH  25  44
BRANCH  37  50
ATOM     50  C   UNL A   1      44.866  32.416  31.246  1.00  0.00    -0.014 A 
ATOM     51  C   UNL A   1      44.899  32.588  32.638  1.00  0.00     0.009 A 
ATOM     52  C   UNL A   1      45.237  33.487  30.417  1.00  0.00     0.009 A 
ATOM     53  C   UNL A   1      45.260  33.819  33.188  1.00  0.00     0.001 A 
ATOM     54  C   UNL A   1      45.623  34.708  30.970  1.00  0.00     0.001 A 
ATOM     55  C   UNL A   1      45.625  34.876  32.354  1.00  0.00     0.000 A 
ENDBRANCH  37  50
ENDBRANCH  11  12
ENDBRANCH   4   6
ENDBRANCH   1   2
BRANCH   1  56
ATOM     56  C   UNL A   1      37.986  20.113  24.936  1.00  0.00     0.042 C 
BRANCH  56  57
ATOM     57  C   UNL A   1      37.150  21.348  24.641  1.00  0.00     0.117 C 
BRANCH  57  58
ATOM     58  N   UNL A   1      36.528  21.881  25.844  1.00  0.00    -0.354 N 
ATOM     59  C   UNL A   1      35.355  22.554  26.054  1.00  0.00     0.250 C 
ATOM     60  H   UNL A   1      37.051  21.729  26.664  1.00  0.00     0.163 HD
ATOM     61  O   UNL A   1      35.067  22.688  27.252  1.00  0.00    -0.272 OA
BRANCH  59  62
ATOM     62  C   UNL A   1      34.414  23.070  24.903  1.00  0.00     0.173 C 
ATOM     63  Cl  UNL A   1      35.517  23.724  23.563  1.00  0.00    -0.098 Cl
BRANCH  62  64
ATOM     64  C   UNL A   1      33.563  21.958  24.236  1.00  0.00    -0.013 A 
ATOM     65  C   UNL A   1      33.447  20.657  24.762  1.00  0.00     0.006 A 
ATOM     66  C   UNL A   1      32.879  22.222  23.028  1.00  0.00     0.006 A 
ATOM     67  C   UNL A   1      32.748  19.654  24.083  1.00  0.00     0.000 A 
ATOM     68  C   UNL A   1      32.137  21.234  22.378  1.00  0.00     0.000 A 
ATOM     69  C   UNL A   1      32.090  19.943  22.893  1.00  0.00     0.000 A 
ENDBRANCH  62  64
BRANCH  62  70
ATOM     70  C   UNL A   1      33.591  24.284  25.429  1.00  0.00    -0.013 A 
ATOM     71  C   UNL A   1      32.306  24.131  25.984  1.00  0.00     0.006 A 
ATOM     72  C   UNL A   1      34.140  25.587  25.429  1.00  0.00     0.006 A 
ATOM     73  C   UNL A   1      31.568  25.238  26.419  1.00  0.00     0.000 A 
ATOM     74  C   UNL A   1      33.405  26.690  25.869  1.00  0.00     0.000 A 
ATOM     75  C   UNL A   1      32.112  26.516  26.349  1.00  0.00     0.000 A 
ENDBRANCH  62  70
ENDBRANCH  59  62
ENDBRANCH  57  58
ENDBRANCH  56  57
ENDBRANCH   1  56
TORSDOF 12
ENDMDL
