MODEL 1
REMARK VINA RESULT:     -11.1      0.000      0.000
REMARK SMILES CCn1ncc(CNc2ccccc2C(=O)NCCCNC(=O)c2ccc(-c3c4nc(c(-c5ccccc5)c5ccc([nH]5)c(-c5ccccc5)c5nc(c(-c6ccccc6)c6ccc3[nH]6)C=C5)C=C4)cc2)c1C
REMARK SMILES IDX 18 1 17 2 15 3 16 4 14 6 9 7 10 8 11 9 13 10 12 11 8 12 7 14
REMARK SMILES IDX 6 15 3 16 4 17 72 18 5 19 73 20 2 21 1 22 19 23 20 24 21 25
REMARK SMILES IDX 22 26 23 28 24 29 25 30 71 31 26 32 70 33 27 34 28 35 29 36
REMARK SMILES IDX 64 37 30 38 69 39 63 40 65 41 31 42 68 43 62 44 61 45 32 47
REMARK SMILES IDX 54 48 39 49 53 50 40 51 43 52 52 53 66 54 41 55 42 56 51 58
REMARK SMILES IDX 67 59 44 60 33 61 34 62 38 63 35 64 37 65 36 66 55 67 56 68
REMARK SMILES IDX 60 69 57 70 59 71 58 72 45 73 46 74 50 75 47 76 49 77 48 78
REMARK H PARENT 17 5 8 13 21 27 65 46 43 57
REMARK Flexibility Score: inf
ROOT
ATOM      1  C   UNL A   1      37.326  22.741  25.264  1.00  0.00     0.118 C 
ENDROOT
BRANCH   1   2
ATOM      2  N   UNL A   1      36.390  23.032  26.343  1.00  0.00    -0.352 N 
ATOM      3  C   UNL A   1      35.028  22.802  26.376  1.00  0.00     0.253 C 
ATOM      4  O   UNL A   1      34.405  23.069  27.403  1.00  0.00    -0.269 OA
ATOM      5  H   UNL A   1      36.777  23.445  27.149  1.00  0.00     0.163 HD
BRANCH   3   6
ATOM      6  C   UNL A   1      34.291  22.330  25.174  1.00  0.00     0.062 A 
ATOM      7  C   UNL A   1      33.916  23.149  24.096  1.00  0.00     0.047 A 
ATOM      8  C   UNL A   1      33.036  22.608  23.139  1.00  0.00     0.026 A 
ATOM      9  C   UNL A   1      32.610  21.282  23.195  1.00  0.00     0.002 A 
ATOM     10  C   UNL A   1      33.902  20.977  25.199  1.00  0.00     0.016 A 
ATOM     11  C   UNL A   1      33.071  20.453  24.208  1.00  0.00     0.001 A 
BRANCH   7  12
ATOM     12  N   UNL A   1      34.393  24.420  23.838  1.00  0.00    -0.380 N 
ATOM     13  H   UNL A   1      35.365  24.570  23.899  1.00  0.00     0.160 HD
BRANCH  12  14
ATOM     14  C   UNL A   1      33.545  25.553  23.477  1.00  0.00     0.152 C 
BRANCH  14  15
ATOM     15  C   UNL A   1      33.494  26.547  24.589  1.00  0.00     0.012 A 
ATOM     16  N   UNL A   1      33.368  28.429  25.723  1.00  0.00    -0.270 N 
ATOM     17  N   UNL A   1      33.170  27.469  26.644  1.00  0.00    -0.181 NA
ATOM     18  C   UNL A   1      33.624  27.923  24.474  1.00  0.00     0.040 A 
ATOM     19  C   UNL A   1      33.221  26.331  25.954  1.00  0.00     0.141 A 
ATOM     20  C   UNL A   1      33.923  28.743  23.271  1.00  0.00     0.067 C 
BRANCH  16  21
ATOM     21  C   UNL A   1      33.319  29.828  26.111  1.00  0.00     0.141 C 
ATOM     22  C   UNL A   1      32.045  30.255  26.823  1.00  0.00     0.029 C 
ENDBRANCH  16  21
ENDBRANCH  14  15
ENDBRANCH  12  14
ENDBRANCH   7  12
ENDBRANCH   3   6
ENDBRANCH   1   2
BRANCH   1  23
ATOM     23  C   UNL A   1      37.887  21.325  25.243  1.00  0.00     0.042 C 
BRANCH  23  24
ATOM     24  C   UNL A   1      39.268  21.203  25.872  1.00  0.00     0.118 C 
BRANCH  24  25
ATOM     25  N   UNL A   1      39.908  19.889  25.771  1.00  0.00    -0.352 N 
ATOM     26  C   UNL A   1      41.264  19.617  25.938  1.00  0.00     0.251 C 
ATOM     27  H   UNL A   1      39.323  19.123  25.567  1.00  0.00     0.163 HD
ATOM     28  O   UNL A   1      41.764  18.556  25.627  1.00  0.00    -0.269 OA
BRANCH  26  29
ATOM     29  C   UNL A   1      42.087  20.705  26.503  1.00  0.00     0.039 A 
ATOM     30  C   UNL A   1      42.470  21.787  25.709  1.00  0.00     0.014 A 
ATOM     31  C   UNL A   1      42.183  20.748  27.886  1.00  0.00     0.014 A 
ATOM     32  C   UNL A   1      42.786  22.997  26.331  1.00  0.00     0.010 A 
ATOM     33  C   UNL A   1      42.338  21.980  28.480  1.00  0.00     0.010 A 
ATOM     34  C   UNL A   1      42.645  23.119  27.722  1.00  0.00    -0.014 A 
BRANCH  34  35
ATOM     35  C   UNL A   1      42.645  24.443  28.368  1.00  0.00     0.031 A 
ATOM     36  C   UNL A   1      41.492  25.363  28.091  1.00  0.00     0.074 A 
ATOM     37  C   UNL A   1      43.453  24.757  29.404  1.00  0.00     0.049 A 
ATOM     38  N   UNL A   1      41.539  26.575  27.636  1.00  0.00    -0.248 NA
ATOM     39  C   UNL A   1      40.124  24.887  28.348  1.00  0.00     0.031 C 
ATOM     40  C   UNL A   1      44.458  23.914  30.064  1.00  0.00     0.029 A 
ATOM     41  N   UNL A   1      43.420  25.863  30.203  1.00  0.00    -0.354 N 
ATOM     42  C   UNL A   1      40.236  27.077  27.680  1.00  0.00     0.074 A 
ATOM     43  C   UNL A   1      39.394  25.960  28.033  1.00  0.00     0.031 C 
ATOM     44  C   UNL A   1      44.712  24.398  31.296  1.00  0.00     0.029 A 
ATOM     45  C   UNL A   1      44.064  25.689  31.418  1.00  0.00     0.049 A 
ATOM     46  H   UNL A   1      42.982  26.704  29.940  1.00  0.00     0.167 HD
ATOM     47  C   UNL A   1      39.966  28.413  27.596  1.00  0.00     0.031 A 
ATOM     48  C   UNL A   1      44.084  26.536  32.470  1.00  0.00     0.031 A 
ATOM     49  C   UNL A   1      41.109  29.169  27.157  1.00  0.00     0.049 A 
ATOM     50  C   UNL A   1      43.771  27.886  31.959  1.00  0.00     0.074 A 
ATOM     51  C   UNL A   1      41.919  29.176  26.041  1.00  0.00     0.029 A 
ATOM     52  N   UNL A   1      41.786  29.896  28.106  1.00  0.00    -0.354 N 
ATOM     53  N   UNL A   1      44.560  28.545  31.158  1.00  0.00    -0.248 NA
ATOM     54  C   UNL A   1      42.403  28.371  32.021  1.00  0.00     0.031 C 
ATOM     55  C   UNL A   1      43.227  29.453  26.541  1.00  0.00     0.029 A 
ATOM     56  C   UNL A   1      43.118  29.645  27.920  1.00  0.00     0.049 A 
ATOM     57  H   UNL A   1      41.389  30.484  28.789  1.00  0.00     0.167 HD
ATOM     58  C   UNL A   1      43.705  29.215  30.298  1.00  0.00     0.074 A 
ATOM     59  C   UNL A   1      42.409  29.197  30.971  1.00  0.00     0.031 C 
ATOM     60  C   UNL A   1      44.062  29.459  29.001  1.00  0.00     0.031 A 
BRANCH  47  61
ATOM     61  C   UNL A   1      38.783  29.110  28.235  1.00  0.00    -0.014 A 
ATOM     62  C   UNL A   1      38.532  28.898  29.609  1.00  0.00     0.009 A 
ATOM     63  C   UNL A   1      37.757  29.728  27.500  1.00  0.00     0.009 A 
ATOM     64  C   UNL A   1      37.294  29.207  30.188  1.00  0.00     0.001 A 
ATOM     65  C   UNL A   1      36.535  30.080  28.087  1.00  0.00     0.001 A 
ATOM     66  C   UNL A   1      36.292  29.791  29.424  1.00  0.00     0.000 A 
ENDBRANCH  47  61
BRANCH  48  67
ATOM     67  C   UNL A   1      44.261  26.220  33.898  1.00  0.00    -0.014 A 
ATOM     68  C   UNL A   1      43.411  25.321  34.553  1.00  0.00     0.009 A 
ATOM     69  C   UNL A   1      45.418  26.649  34.577  1.00  0.00     0.009 A 
ATOM     70  C   UNL A   1      43.721  24.847  35.834  1.00  0.00     0.001 A 
ATOM     71  C   UNL A   1      45.725  26.181  35.858  1.00  0.00     0.001 A 
ATOM     72  C   UNL A   1      44.882  25.268  36.480  1.00  0.00     0.000 A 
ENDBRANCH  48  67
BRANCH  60  73
ATOM     73  C   UNL A   1      45.494  29.200  28.595  1.00  0.00    -0.014 A 
ATOM     74  C   UNL A   1      46.482  30.201  28.628  1.00  0.00     0.009 A 
ATOM     75  C   UNL A   1      45.899  27.882  28.342  1.00  0.00     0.009 A 
ATOM     76  C   UNL A   1      47.824  29.899  28.379  1.00  0.00     0.001 A 
ATOM     77  C   UNL A   1      47.244  27.575  28.115  1.00  0.00     0.001 A 
ATOM     78  C   UNL A   1      48.205  28.585  28.129  1.00  0.00     0.000 A 
ENDBRANCH  60  73
ENDBRANCH  34  35
ENDBRANCH  26  29
ENDBRANCH  24  25
ENDBRANCH  23  24
ENDBRANCH   1  23
TORSDOF 14
ENDMDL
MODEL 2
REMARK VINA RESULT:     -11.1      3.981      8.600
REMARK SMILES CCn1ncc(CNc2ccccc2C(=O)NCCCNC(=O)c2ccc(-c3c4nc(c(-c5ccccc5)c5ccc([nH]5)c(-c5ccccc5)c5nc(c(-c6ccccc6)c6ccc3[nH]6)C=C5)C=C4)cc2)c1C
REMARK SMILES IDX 18 1 17 2 15 3 16 4 14 6 9 7 10 8 11 9 13 10 12 11 8 12 7 14
REMARK SMILES IDX 6 15 3 16 4 17 72 18 5 19 73 20 2 21 1 22 19 23 20 24 21 25
REMARK SMILES IDX 22 26 23 28 24 29 25 30 71 31 26 32 70 33 27 34 28 35 29 36
REMARK SMILES IDX 64 37 30 38 69 39 63 40 65 41 31 42 68 43 62 44 61 45 32 47
REMARK SMILES IDX 54 48 39 49 53 50 40 51 43 52 52 53 66 54 41 55 42 56 51 58
REMARK SMILES IDX 67 59 44 60 33 61 34 62 38 63 35 64 37 65 36 66 55 67 56 68
REMARK SMILES IDX 60 69 57 70 59 71 58 72 45 73 46 74 50 75 47 76 49 77 48 78
REMARK H PARENT 17 5 8 13 21 27 65 46 43 57
REMARK Flexibility Score: inf
ROOT
ATOM      1  C   UNL A   1      33.494  29.531  26.610  1.00  0.00     0.118 C 
ENDROOT
BRANCH   1   2
ATOM      2  N   UNL A   1      33.783  29.384  25.189  1.00  0.00    -0.352 N 
ATOM      3  C   UNL A   1      33.541  28.291  24.378  1.00  0.00     0.253 C 
ATOM      4  O   UNL A   1      33.808  28.370  23.179  1.00  0.00    -0.269 OA
ATOM      5  H   UNL A   1      34.203  30.160  24.753  1.00  0.00     0.163 HD
BRANCH   3   6
ATOM      6  C   UNL A   1      33.057  27.001  24.938  1.00  0.00     0.062 A 
ATOM      7  C   UNL A   1      31.712  26.710  25.222  1.00  0.00     0.047 A 
ATOM      8  C   UNL A   1      31.437  25.536  25.949  1.00  0.00     0.026 A 
ATOM      9  C   UNL A   1      32.441  24.638  26.308  1.00  0.00     0.002 A 
ATOM     10  C   UNL A   1      34.062  26.067  25.254  1.00  0.00     0.016 A 
ATOM     11  C   UNL A   1      33.753  24.887  25.930  1.00  0.00     0.001 A 
BRANCH   7  12
ATOM     12  N   UNL A   1      30.616  27.429  24.785  1.00  0.00    -0.380 N 
ATOM     13  H   UNL A   1      30.397  28.268  25.253  1.00  0.00     0.160 HD
BRANCH  12  14
ATOM     14  C   UNL A   1      29.764  27.021  23.672  1.00  0.00     0.152 C 
BRANCH  14  15
ATOM     15  C   UNL A   1      28.927  28.165  23.203  1.00  0.00     0.012 A 
ATOM     16  N   UNL A   1      28.219  29.954  22.135  1.00  0.00    -0.270 N 
ATOM     17  N   UNL A   1      27.116  29.457  22.722  1.00  0.00    -0.181 NA
ATOM     18  C   UNL A   1      29.351  29.242  22.439  1.00  0.00     0.040 A 
ATOM     19  C   UNL A   1      27.539  28.360  23.348  1.00  0.00     0.141 A 
ATOM     20  C   UNL A   1      30.720  29.582  21.970  1.00  0.00     0.067 C 
BRANCH  16  21
ATOM     21  C   UNL A   1      28.126  31.140  21.301  1.00  0.00     0.141 C 
ATOM     22  C   UNL A   1      28.386  32.455  22.019  1.00  0.00     0.029 C 
ENDBRANCH  16  21
ENDBRANCH  14  15
ENDBRANCH  12  14
ENDBRANCH   7  12
ENDBRANCH   3   6
ENDBRANCH   1   2
BRANCH   1  23
ATOM     23  C   UNL A   1      32.634  30.731  26.987  1.00  0.00     0.042 C 
BRANCH  23  24
ATOM     24  C   UNL A   1      33.409  31.856  27.655  1.00  0.00     0.118 C 
BRANCH  24  25
ATOM     25  N   UNL A   1      32.745  33.161  27.698  1.00  0.00    -0.352 N 
ATOM     26  C   UNL A   1      33.097  34.241  28.504  1.00  0.00     0.251 C 
ATOM     27  H   UNL A   1      31.974  33.288  27.098  1.00  0.00     0.163 HD
ATOM     28  O   UNL A   1      32.381  35.209  28.656  1.00  0.00    -0.269 OA
BRANCH  26  29
ATOM     29  C   UNL A   1      34.397  34.146  29.196  1.00  0.00     0.039 A 
ATOM     30  C   UNL A   1      34.531  33.368  30.347  1.00  0.00     0.014 A 
ATOM     31  C   UNL A   1      35.504  34.594  28.489  1.00  0.00     0.014 A 
ATOM     32  C   UNL A   1      35.796  32.885  30.689  1.00  0.00     0.010 A 
ATOM     33  C   UNL A   1      36.714  33.986  28.739  1.00  0.00     0.010 A 
ATOM     34  C   UNL A   1      36.884  33.131  29.836  1.00  0.00    -0.014 A 
BRANCH  34  35
ATOM     35  C   UNL A   1      38.141  32.376  29.980  1.00  0.00     0.031 A 
ATOM     36  C   UNL A   1      38.161  30.946  29.522  1.00  0.00     0.074 A 
ATOM     37  C   UNL A   1      39.333  32.967  30.219  1.00  0.00     0.049 A 
ATOM     38  N   UNL A   1      38.497  29.900  30.209  1.00  0.00    -0.248 NA
ATOM     39  C   UNL A   1      37.763  30.636  28.140  1.00  0.00     0.031 C 
ATOM     40  C   UNL A   1      39.622  34.395  30.397  1.00  0.00     0.029 A 
ATOM     41  N   UNL A   1      40.578  32.412  30.185  1.00  0.00    -0.354 N 
ATOM     42  C   UNL A   1      38.499  28.817  29.327  1.00  0.00     0.074 A 
ATOM     43  C   UNL A   1      37.942  29.314  28.091  1.00  0.00     0.031 C 
ATOM     44  C   UNL A   1      40.929  34.622  30.158  1.00  0.00     0.029 A 
ATOM     45  C   UNL A   1      41.596  33.341  30.034  1.00  0.00     0.049 A 
ATOM     46  H   UNL A   1      40.739  31.443  30.261  1.00  0.00     0.167 HD
ATOM     47  C   UNL A   1      39.120  27.637  29.621  1.00  0.00     0.031 A 
ATOM     48  C   UNL A   1      42.909  33.101  29.825  1.00  0.00     0.031 A 
ATOM     49  C   UNL A   1      39.479  27.548  31.012  1.00  0.00     0.049 A 
ATOM     50  C   UNL A   1      43.191  31.732  30.302  1.00  0.00     0.074 A 
ATOM     51  C   UNL A   1      38.799  27.587  32.211  1.00  0.00     0.029 A 
ATOM     52  N   UNL A   1      40.803  27.725  31.334  1.00  0.00    -0.354 N 
ATOM     53  N   UNL A   1      43.123  31.386  31.556  1.00  0.00    -0.248 NA
ATOM     54  C   UNL A   1      43.182  30.632  29.353  1.00  0.00     0.031 C 
ATOM     55  C   UNL A   1      39.668  28.287  33.100  1.00  0.00     0.029 A 
ATOM     56  C   UNL A   1      40.837  28.585  32.398  1.00  0.00     0.049 A 
ATOM     57  H   UNL A   1      41.577  27.313  30.886  1.00  0.00     0.167 HD
ATOM     58  C   UNL A   1      42.614  30.097  31.537  1.00  0.00     0.074 A 
ATOM     59  C   UNL A   1      42.820  29.636  30.167  1.00  0.00     0.031 C 
ATOM     60  C   UNL A   1      41.815  29.641  32.548  1.00  0.00     0.031 A 
BRANCH  47  61
ATOM     61  C   UNL A   1      39.731  26.692  28.608  1.00  0.00    -0.014 A 
ATOM     62  C   UNL A   1      40.664  27.203  27.678  1.00  0.00     0.009 A 
ATOM     63  C   UNL A   1      39.227  25.407  28.345  1.00  0.00     0.009 A 
ATOM     64  C   UNL A   1      41.003  26.503  26.512  1.00  0.00     0.001 A 
ATOM     65  C   UNL A   1      39.599  24.685  27.204  1.00  0.00     0.001 A 
ATOM     66  C   UNL A   1      40.462  25.246  26.272  1.00  0.00     0.000 A 
ENDBRANCH  47  61
BRANCH  48  67
ATOM     67  C   UNL A   1      43.900  33.954  29.149  1.00  0.00    -0.014 A 
ATOM     68  C   UNL A   1      44.890  34.630  29.872  1.00  0.00     0.009 A 
ATOM     69  C   UNL A   1      44.006  33.936  27.744  1.00  0.00     0.009 A 
ATOM     70  C   UNL A   1      45.963  35.245  29.214  1.00  0.00     0.001 A 
ATOM     71  C   UNL A   1      45.073  34.554  27.087  1.00  0.00     0.001 A 
ATOM     72  C   UNL A   1      46.059  35.197  27.825  1.00  0.00     0.000 A 
ENDBRANCH  48  67
BRANCH  60  73
ATOM     73  C   UNL A   1      41.698  30.483  33.798  1.00  0.00    -0.014 A 
ATOM     74  C   UNL A   1      40.824  31.581  33.891  1.00  0.00     0.009 A 
ATOM     75  C   UNL A   1      42.352  30.060  34.964  1.00  0.00     0.009 A 
ATOM     76  C   UNL A   1      40.637  32.255  35.101  1.00  0.00     0.001 A 
ATOM     77  C   UNL A   1      42.148  30.719  36.179  1.00  0.00     0.001 A 
ATOM     78  C   UNL A   1      41.295  31.820  36.246  1.00  0.00     0.000 A 
ENDBRANCH  60  73
ENDBRANCH  34  35
ENDBRANCH  26  29
ENDBRANCH  24  25
ENDBRANCH  23  24
ENDBRANCH   1  23
TORSDOF 14
ENDMDL
MODEL 3
REMARK VINA RESULT:     -10.9      3.850      8.882
REMARK SMILES CCn1ncc(CNc2ccccc2C(=O)NCCCNC(=O)c2ccc(-c3c4nc(c(-c5ccccc5)c5ccc([nH]5)c(-c5ccccc5)c5nc(c(-c6ccccc6)c6ccc3[nH]6)C=C5)C=C4)cc2)c1C
REMARK SMILES IDX 18 1 17 2 15 3 16 4 14 6 9 7 10 8 11 9 13 10 12 11 8 12 7 14
REMARK SMILES IDX 6 15 3 16 4 17 72 18 5 19 73 20 2 21 1 22 19 23 20 24 21 25
REMARK SMILES IDX 22 26 23 28 24 29 25 30 71 31 26 32 70 33 27 34 28 35 29 36
REMARK SMILES IDX 64 37 30 38 69 39 63 40 65 41 31 42 68 43 62 44 61 45 32 47
REMARK SMILES IDX 54 48 39 49 53 50 40 51 43 52 52 53 66 54 41 55 42 56 51 58
REMARK SMILES IDX 67 59 44 60 33 61 34 62 38 63 35 64 37 65 36 66 55 67 56 68
REMARK SMILES IDX 60 69 57 70 59 71 58 72 45 73 46 74 50 75 47 76 49 77 48 78
REMARK H PARENT 17 5 8 13 21 27 65 46 43 57
REMARK Flexibility Score: inf
ROOT
ATOM      1  C   UNL A   1      40.178  30.317  33.211  1.00  0.00     0.118 C 
ENDROOT
BRANCH   1   2
ATOM      2  N   UNL A   1      38.913  29.740  33.647  1.00  0.00    -0.352 N 
ATOM      3  C   UNL A   1      38.004  29.015  32.901  1.00  0.00     0.253 C 
ATOM      4  O   UNL A   1      37.006  28.560  33.459  1.00  0.00    -0.269 OA
ATOM      5  H   UNL A   1      38.677  29.884  34.592  1.00  0.00     0.163 HD
BRANCH   3   6
ATOM      6  C   UNL A   1      38.158  28.857  31.430  1.00  0.00     0.062 A 
ATOM      7  C   UNL A   1      37.537  29.674  30.471  1.00  0.00     0.047 A 
ATOM      8  C   UNL A   1      37.602  29.267  29.124  1.00  0.00     0.026 A 
ATOM      9  C   UNL A   1      38.325  28.142  28.728  1.00  0.00     0.002 A 
ATOM     10  C   UNL A   1      38.931  27.753  31.021  1.00  0.00     0.016 A 
ATOM     11  C   UNL A   1      39.019  27.402  29.674  1.00  0.00     0.001 A 
BRANCH   7  12
ATOM     12  N   UNL A   1      36.931  30.893  30.712  1.00  0.00    -0.380 N 
ATOM     13  H   UNL A   1      36.778  31.155  31.648  1.00  0.00     0.160 HD
BRANCH  12  14
ATOM     14  C   UNL A   1      36.506  31.814  29.661  1.00  0.00     0.152 C 
BRANCH  14  15
ATOM     15  C   UNL A   1      35.507  32.789  30.190  1.00  0.00     0.012 A 
ATOM     16  N   UNL A   1      33.941  34.329  30.327  1.00  0.00    -0.270 N 
ATOM     17  N   UNL A   1      34.009  33.809  31.565  1.00  0.00    -0.181 NA
ATOM     18  C   UNL A   1      34.865  33.786  29.470  1.00  0.00     0.040 A 
ATOM     19  C   UNL A   1      34.939  32.860  31.476  1.00  0.00     0.141 A 
ATOM     20  C   UNL A   1      35.052  34.194  28.054  1.00  0.00     0.067 C 
BRANCH  16  21
ATOM     21  C   UNL A   1      32.973  35.371  30.029  1.00  0.00     0.141 C 
ATOM     22  C   UNL A   1      33.262  36.721  30.667  1.00  0.00     0.029 C 
ENDBRANCH  16  21
ENDBRANCH  14  15
ENDBRANCH  12  14
ENDBRANCH   7  12
ENDBRANCH   3   6
ENDBRANCH   1   2
BRANCH   1  23
ATOM     23  C   UNL A   1      40.482  31.713  33.740  1.00  0.00     0.042 C 
BRANCH  23  24
ATOM     24  C   UNL A   1      41.582  32.434  32.973  1.00  0.00     0.118 C 
BRANCH  24  25
ATOM     25  N   UNL A   1      41.191  33.674  32.298  1.00  0.00    -0.352 N 
ATOM     26  C   UNL A   1      41.300  33.942  30.936  1.00  0.00     0.251 C 
ATOM     27  H   UNL A   1      40.814  34.388  32.862  1.00  0.00     0.163 HD
ATOM     28  O   UNL A   1      41.168  35.056  30.472  1.00  0.00    -0.269 OA
BRANCH  26  29
ATOM     29  C   UNL A   1      41.608  32.792  30.063  1.00  0.00     0.039 A 
ATOM     30  C   UNL A   1      42.921  32.542  29.660  1.00  0.00     0.014 A 
ATOM     31  C   UNL A   1      40.614  31.832  29.937  1.00  0.00     0.014 A 
ATOM     32  C   UNL A   1      43.274  31.242  29.289  1.00  0.00     0.010 A 
ATOM     33  C   UNL A   1      41.003  30.529  29.726  1.00  0.00     0.010 A 
ATOM     34  C   UNL A   1      42.328  30.211  29.396  1.00  0.00    -0.014 A 
BRANCH  34  35
ATOM     35  C   UNL A   1      42.742  28.798  29.336  1.00  0.00     0.031 A 
ATOM     36  C   UNL A   1      43.298  28.172  30.582  1.00  0.00     0.074 A 
ATOM     37  C   UNL A   1      42.384  27.968  28.331  1.00  0.00     0.049 A 
ATOM     38  N   UNL A   1      44.437  27.572  30.726  1.00  0.00    -0.248 NA
ATOM     39  C   UNL A   1      42.499  28.215  31.816  1.00  0.00     0.031 C 
ATOM     40  C   UNL A   1      41.574  28.268  27.145  1.00  0.00     0.029 A 
ATOM     41  N   UNL A   1      42.538  26.614  28.253  1.00  0.00    -0.354 N 
ATOM     42  C   UNL A   1      44.453  27.031  32.013  1.00  0.00     0.074 A 
ATOM     43  C   UNL A   1      43.276  27.544  32.671  1.00  0.00     0.031 C 
ATOM     44  C   UNL A   1      41.067  27.124  26.645  1.00  0.00     0.029 A 
ATOM     45  C   UNL A   1      41.693  26.012  27.334  1.00  0.00     0.049 A 
ATOM     46  H   UNL A   1      43.187  26.113  28.797  1.00  0.00     0.167 HD
ATOM     47  C   UNL A   1      45.339  26.061  32.387  1.00  0.00     0.031 A 
ATOM     48  C   UNL A   1      41.504  24.691  27.127  1.00  0.00     0.031 A 
ATOM     49  C   UNL A   1      46.404  25.906  31.431  1.00  0.00     0.049 A 
ATOM     50  C   UNL A   1      42.697  23.987  27.642  1.00  0.00     0.074 A 
ATOM     51  C   UNL A   1      47.386  26.721  30.906  1.00  0.00     0.029 A 
ATOM     52  N   UNL A   1      46.353  24.811  30.604  1.00  0.00    -0.354 N 
ATOM     53  N   UNL A   1      43.879  24.104  27.109  1.00  0.00    -0.248 NA
ATOM     54  C   UNL A   1      42.673  23.440  28.987  1.00  0.00     0.031 C 
ATOM     55  C   UNL A   1      47.497  26.322  29.540  1.00  0.00     0.029 A 
ATOM     56  C   UNL A   1      46.612  25.262  29.337  1.00  0.00     0.049 A 
ATOM     57  H   UNL A   1      46.167  23.881  30.870  1.00  0.00     0.167 HD
ATOM     58  C   UNL A   1      44.752  24.081  28.184  1.00  0.00     0.074 A 
ATOM     59  C   UNL A   1      43.974  23.514  29.283  1.00  0.00     0.031 C 
ATOM     60  C   UNL A   1      45.922  24.789  28.157  1.00  0.00     0.031 A 
BRANCH  47  61
ATOM     61  C   UNL A   1      45.083  24.996  33.432  1.00  0.00    -0.014 A 
ATOM     62  C   UNL A   1      44.461  23.791  33.036  1.00  0.00     0.009 A 
ATOM     63  C   UNL A   1      45.165  25.232  34.815  1.00  0.00     0.009 A 
ATOM     64  C   UNL A   1      43.879  22.921  33.968  1.00  0.00     0.001 A 
ATOM     65  C   UNL A   1      44.624  24.341  35.751  1.00  0.00     0.001 A 
ATOM     66  C   UNL A   1      43.954  23.202  35.326  1.00  0.00     0.000 A 
ENDBRANCH  47  61
BRANCH  48  67
ATOM     67  C   UNL A   1      40.311  24.006  26.601  1.00  0.00    -0.014 A 
ATOM     68  C   UNL A   1      40.314  22.628  26.355  1.00  0.00     0.009 A 
ATOM     69  C   UNL A   1      39.078  24.685  26.539  1.00  0.00     0.009 A 
ATOM     70  C   UNL A   1      39.121  21.947  26.083  1.00  0.00     0.001 A 
ATOM     71  C   UNL A   1      37.888  24.008  26.261  1.00  0.00     0.001 A 
ATOM     72  C   UNL A   1      37.909  22.635  26.046  1.00  0.00     0.000 A 
ENDBRANCH  48  67
BRANCH  60  73
ATOM     73  C   UNL A   1      46.354  25.399  26.844  1.00  0.00    -0.014 A 
ATOM     74  C   UNL A   1      45.803  26.594  26.348  1.00  0.00     0.009 A 
ATOM     75  C   UNL A   1      47.460  24.855  26.176  1.00  0.00     0.009 A 
ATOM     76  C   UNL A   1      46.319  27.205  25.201  1.00  0.00     0.001 A 
ATOM     77  C   UNL A   1      47.990  25.477  25.042  1.00  0.00     0.001 A 
ATOM     78  C   UNL A   1      47.416  26.649  24.553  1.00  0.00     0.000 A 
ENDBRANCH  60  73
ENDBRANCH  34  35
ENDBRANCH  26  29
ENDBRANCH  24  25
ENDBRANCH  23  24
ENDBRANCH   1  23
TORSDOF 14
ENDMDL
