MODEL 1
REMARK VINA RESULT:     -10.5      0.000      0.000
REMARK SMILES CC(=O)N[C@@H](Cc1cc(Br)c(O)c(Br)c1)C(=O)NCCCNC(=O)c1ccc(-c2c3nc(c(-c4ccccc4)c4ccc([nH]4)c(-c4ccccc4)c4nc(c(-c5ccccc5)c5ccc2[nH]5)C=C4)C=C3)cc1
REMARK SMILES IDX 19 1 18 2 16 3 17 4 5 6 4 7 1 8 2 9 3 10 6 12 7 13 8 14
REMARK SMILES IDX 15 15 9 16 13 17 10 18 11 19 14 20 12 21 20 23 21 24 22 25
REMARK SMILES IDX 23 26 24 28 25 29 26 30 72 31 27 32 71 33 28 34 29 35 30 36
REMARK SMILES IDX 65 37 31 38 70 39 64 40 66 41 32 42 69 43 63 44 62 45 33 47
REMARK SMILES IDX 55 48 40 49 54 50 41 51 44 52 53 53 67 54 42 55 43 56 52 58
REMARK SMILES IDX 68 59 45 60 34 61 35 62 39 63 36 64 38 65 37 66 56 67 57 68
REMARK SMILES IDX 61 69 58 70 60 71 59 72 46 73 47 74 51 75 48 76 50 77 49 78
REMARK H PARENT 18 5 4 11 12 22 22 27 66 46 44 57
REMARK Flexibility Score: inf
ROOT
ATOM      1  C   UNL A   1      35.182  32.649  30.405  1.00  0.00     0.117 C 
ENDROOT
BRANCH   1   2
ATOM      2  N   UNL A   1      34.446  32.376  31.611  1.00  0.00    -0.354 N 
ATOM      3  C   UNL A   1      34.144  33.254  32.612  1.00  0.00     0.242 C 
ATOM      4  O   UNL A   1      33.242  32.925  33.392  1.00  0.00    -0.273 OA
ATOM      5  H   UNL A   1      34.124  31.453  31.727  1.00  0.00     0.163 HD
BRANCH   3   6
ATOM      6  C   UNL A   1      34.827  34.646  32.758  1.00  0.00     0.175 C 
BRANCH   6   7
ATOM      7  N   UNL A   1      33.938  35.723  33.198  1.00  0.00    -0.344 N 
ATOM      8  C   UNL A   1      33.089  36.350  30.961  1.00  0.00     0.114 C 
ATOM      9  C   UNL A   1      33.093  36.489  32.456  1.00  0.00     0.217 C 
ATOM     10  O   UNL A   1      32.356  37.283  33.039  1.00  0.00    -0.275 OA
ATOM     11  H   UNL A   1      33.954  35.919  34.162  1.00  0.00     0.164 HD
ENDBRANCH   6   7
BRANCH   6  12
ATOM     12  C   UNL A   1      36.236  34.642  33.411  1.00  0.00     0.070 C 
BRANCH  12  13
ATOM     13  C   UNL A   1      36.877  33.468  34.135  1.00  0.00    -0.043 A 
ATOM     14  C   UNL A   1      36.982  33.538  35.538  1.00  0.00     0.023 A 
ATOM     15  C   UNL A   1      37.277  32.270  33.534  1.00  0.00     0.023 A 
ATOM     16  C   UNL A   1      37.560  32.500  36.282  1.00  0.00     0.061 A 
ATOM     17  C   UNL A   1      37.947  31.272  34.260  1.00  0.00     0.061 A 
ATOM     18  Br  UNL A   1      37.598  32.638  38.172  1.00  0.00    -0.047 Br
ATOM     19  C   UNL A   1      38.086  31.381  35.639  1.00  0.00     0.143 A 
ATOM     20  Br  UNL A   1      38.692  29.814  33.299  1.00  0.00    -0.047 Br
BRANCH  19  21
ATOM     21  O   UNL A   1      38.714  30.387  36.338  1.00  0.00    -0.506 OA
ATOM     22  H   UNL A   1      39.650  30.334  36.338  1.00  0.00     0.293 HD
ENDBRANCH  19  21
ENDBRANCH  12  13
ENDBRANCH   6  12
ENDBRANCH   3   6
ENDBRANCH   1   2
BRANCH   1  23
ATOM     23  C   UNL A   1      34.411  33.332  29.296  1.00  0.00     0.042 C 
BRANCH  23  24
ATOM     24  C   UNL A   1      34.643  32.756  27.910  1.00  0.00     0.118 C 
BRANCH  24  25
ATOM     25  N   UNL A   1      34.062  31.433  27.705  1.00  0.00    -0.352 N 
ATOM     26  C   UNL A   1      34.568  30.152  27.749  1.00  0.00     0.251 C 
ATOM     27  H   UNL A   1      33.101  31.461  27.488  1.00  0.00     0.163 HD
ATOM     28  O   UNL A   1      33.834  29.220  27.444  1.00  0.00    -0.269 OA
BRANCH  26  29
ATOM     29  C   UNL A   1      35.977  29.877  28.122  1.00  0.00     0.039 A 
ATOM     30  C   UNL A   1      36.258  29.375  29.400  1.00  0.00     0.014 A 
ATOM     31  C   UNL A   1      37.029  30.129  27.250  1.00  0.00     0.014 A 
ATOM     32  C   UNL A   1      37.572  29.038  29.750  1.00  0.00     0.010 A 
ATOM     33  C   UNL A   1      38.304  29.659  27.540  1.00  0.00     0.010 A 
ATOM     34  C   UNL A   1      38.599  29.118  28.799  1.00  0.00    -0.014 A 
BRANCH  34  35
ATOM     35  C   UNL A   1      39.992  28.674  29.078  1.00  0.00     0.031 A 
ATOM     36  C   UNL A   1      40.980  29.636  29.691  1.00  0.00     0.074 A 
ATOM     37  C   UNL A   1      40.408  27.456  28.677  1.00  0.00     0.049 A 
ATOM     38  N   UNL A   1      42.275  29.516  29.835  1.00  0.00    -0.248 NA
ATOM     39  C   UNL A   1      40.446  30.929  30.155  1.00  0.00     0.031 C 
ATOM     40  C   UNL A   1      39.578  26.440  28.025  1.00  0.00     0.029 A 
ATOM     41  N   UNL A   1      41.649  26.869  28.747  1.00  0.00    -0.354 N 
ATOM     42  C   UNL A   1      42.711  30.731  30.353  1.00  0.00     0.074 A 
ATOM     43  C   UNL A   1      41.556  31.592  30.443  1.00  0.00     0.031 C 
ATOM     44  C   UNL A   1      40.320  25.347  27.788  1.00  0.00     0.029 A 
ATOM     45  C   UNL A   1      41.690  25.601  28.219  1.00  0.00     0.049 A 
ATOM     46  H   UNL A   1      42.434  27.316  29.139  1.00  0.00     0.167 HD
ATOM     47  C   UNL A   1      43.957  31.093  30.743  1.00  0.00     0.031 A 
ATOM     48  C   UNL A   1      42.718  24.742  28.085  1.00  0.00     0.031 A 
ATOM     49  C   UNL A   1      45.097  30.218  30.709  1.00  0.00     0.049 A 
ATOM     50  C   UNL A   1      44.085  25.153  28.559  1.00  0.00     0.074 A 
ATOM     51  C   UNL A   1      46.384  30.461  31.158  1.00  0.00     0.029 A 
ATOM     52  N   UNL A   1      45.082  28.924  30.213  1.00  0.00    -0.354 N 
ATOM     53  N   UNL A   1      44.468  26.286  29.095  1.00  0.00    -0.248 NA
ATOM     54  C   UNL A   1      45.158  24.159  28.417  1.00  0.00     0.031 C 
ATOM     55  C   UNL A   1      47.156  29.324  30.898  1.00  0.00     0.029 A 
ATOM     56  C   UNL A   1      46.339  28.359  30.334  1.00  0.00     0.049 A 
ATOM     57  H   UNL A   1      44.293  28.475  29.830  1.00  0.00     0.167 HD
ATOM     58  C   UNL A   1      45.818  26.130  29.381  1.00  0.00     0.074 A 
ATOM     59  C   UNL A   1      46.182  24.790  28.974  1.00  0.00     0.031 C 
ATOM     60  C   UNL A   1      46.679  27.020  29.933  1.00  0.00     0.031 A 
BRANCH  47  61
ATOM     61  C   UNL A   1      44.144  32.497  31.251  1.00  0.00    -0.014 A 
ATOM     62  C   UNL A   1      44.488  33.547  30.384  1.00  0.00     0.009 A 
ATOM     63  C   UNL A   1      43.952  32.778  32.612  1.00  0.00     0.009 A 
ATOM     64  C   UNL A   1      44.681  34.839  30.877  1.00  0.00     0.001 A 
ATOM     65  C   UNL A   1      44.114  34.078  33.098  1.00  0.00     0.001 A 
ATOM     66  C   UNL A   1      44.490  35.104  32.232  1.00  0.00     0.000 A 
ENDBRANCH  47  61
BRANCH  48  67
ATOM     67  C   UNL A   1      42.494  23.394  27.499  1.00  0.00    -0.014 A 
ATOM     68  C   UNL A   1      42.008  22.349  28.300  1.00  0.00     0.009 A 
ATOM     69  C   UNL A   1      42.773  23.141  26.148  1.00  0.00     0.009 A 
ATOM     70  C   UNL A   1      41.833  21.069  27.767  1.00  0.00     0.001 A 
ATOM     71  C   UNL A   1      42.569  21.867  25.611  1.00  0.00     0.001 A 
ATOM     72  C   UNL A   1      42.111  20.831  26.422  1.00  0.00     0.000 A 
ENDBRANCH  48  67
BRANCH  60  73
ATOM     73  C   UNL A   1      48.087  26.554  30.171  1.00  0.00    -0.014 A 
ATOM     74  C   UNL A   1      48.437  25.850  31.333  1.00  0.00     0.009 A 
ATOM     75  C   UNL A   1      49.067  26.786  29.193  1.00  0.00     0.009 A 
ATOM     76  C   UNL A   1      49.749  25.415  31.525  1.00  0.00     0.001 A 
ATOM     77  C   UNL A   1      50.371  26.325  29.374  1.00  0.00     0.001 A 
ATOM     78  C   UNL A   1      50.713  25.647  30.543  1.00  0.00     0.000 A 
ENDBRANCH  60  73
ENDBRANCH  34  35
ENDBRANCH  26  29
ENDBRANCH  24  25
ENDBRANCH  23  24
ENDBRANCH   1  23
TORSDOF 14
ENDMDL
MODEL 2
REMARK VINA RESULT:     -10.5      4.220      9.855
REMARK SMILES CC(=O)N[C@@H](Cc1cc(Br)c(O)c(Br)c1)C(=O)NCCCNC(=O)c1ccc(-c2c3nc(c(-c4ccccc4)c4ccc([nH]4)c(-c4ccccc4)c4nc(c(-c5ccccc5)c5ccc2[nH]5)C=C4)C=C3)cc1
REMARK SMILES IDX 19 1 18 2 16 3 17 4 5 6 4 7 1 8 2 9 3 10 6 12 7 13 8 14
REMARK SMILES IDX 15 15 9 16 13 17 10 18 11 19 14 20 12 21 20 23 21 24 22 25
REMARK SMILES IDX 23 26 24 28 25 29 26 30 72 31 27 32 71 33 28 34 29 35 30 36
REMARK SMILES IDX 65 37 31 38 70 39 64 40 66 41 32 42 69 43 63 44 62 45 33 47
REMARK SMILES IDX 55 48 40 49 54 50 41 51 44 52 53 53 67 54 42 55 43 56 52 58
REMARK SMILES IDX 68 59 45 60 34 61 35 62 39 63 36 64 38 65 37 66 56 67 57 68
REMARK SMILES IDX 61 69 58 70 60 71 59 72 46 73 47 74 51 75 48 76 50 77 49 78
REMARK H PARENT 18 5 4 11 12 22 22 27 66 46 44 57
REMARK Flexibility Score: inf
ROOT
ATOM      1  C   UNL A   1      35.185  21.908  24.786  1.00  0.00     0.117 C 
ENDROOT
BRANCH   1   2
ATOM      2  N   UNL A   1      35.014  22.070  26.205  1.00  0.00    -0.354 N 
ATOM      3  C   UNL A   1      34.083  22.838  26.843  1.00  0.00     0.242 C 
ATOM      4  O   UNL A   1      33.883  22.598  28.039  1.00  0.00    -0.273 OA
ATOM      5  H   UNL A   1      35.637  21.569  26.780  1.00  0.00     0.163 HD
BRANCH   3   6
ATOM      6  C   UNL A   1      33.239  23.928  26.119  1.00  0.00     0.175 C 
BRANCH   6   7
ATOM      7  N   UNL A   1      31.929  24.189  26.720  1.00  0.00    -0.344 N 
ATOM      8  C   UNL A   1      30.744  22.264  25.714  1.00  0.00     0.114 C 
ATOM      9  C   UNL A   1      30.785  23.458  26.625  1.00  0.00     0.217 C 
ATOM     10  O   UNL A   1      29.811  23.805  27.291  1.00  0.00    -0.275 OA
ATOM     11  H   UNL A   1      31.868  25.005  27.266  1.00  0.00     0.164 HD
ENDBRANCH   6   7
BRANCH   6  12
ATOM     12  C   UNL A   1      34.018  25.188  25.654  1.00  0.00     0.070 C 
BRANCH  12  13
ATOM     13  C   UNL A   1      33.429  26.578  25.468  1.00  0.00    -0.043 A 
ATOM     14  C   UNL A   1      33.866  27.600  26.334  1.00  0.00     0.023 A 
ATOM     15  C   UNL A   1      32.564  26.957  24.436  1.00  0.00     0.023 A 
ATOM     16  C   UNL A   1      33.373  28.908  26.231  1.00  0.00     0.061 A 
ATOM     17  C   UNL A   1      31.992  28.238  24.390  1.00  0.00     0.061 A 
ATOM     18  Br  UNL A   1      34.066  30.242  27.386  1.00  0.00    -0.047 Br
ATOM     19  C   UNL A   1      32.399  29.221  25.285  1.00  0.00     0.143 A 
ATOM     20  Br  UNL A   1      30.622  28.561  23.115  1.00  0.00    -0.047 Br
BRANCH  19  21
ATOM     21  O   UNL A   1      31.855  30.474  25.210  1.00  0.00    -0.506 OA
ATOM     22  H   UNL A   1      32.021  31.098  25.889  1.00  0.00     0.293 HD
ENDBRANCH  19  21
ENDBRANCH  12  13
ENDBRANCH   6  12
ENDBRANCH   3   6
ENDBRANCH   1   2
BRANCH   1  23
ATOM     23  C   UNL A   1      36.511  22.367  24.220  1.00  0.00     0.042 C 
BRANCH  23  24
ATOM     24  C   UNL A   1      37.388  23.137  25.192  1.00  0.00     0.118 C 
BRANCH  24  25
ATOM     25  N   UNL A   1      38.657  22.485  25.501  1.00  0.00    -0.352 N 
ATOM     26  C   UNL A   1      39.797  22.884  26.166  1.00  0.00     0.251 C 
ATOM     27  H   UNL A   1      38.711  21.562  25.162  1.00  0.00     0.163 HD
ATOM     28  O   UNL A   1      40.755  22.123  26.196  1.00  0.00    -0.269 OA
BRANCH  26  29
ATOM     29  C   UNL A   1      39.903  24.215  26.813  1.00  0.00     0.039 A 
ATOM     30  C   UNL A   1      39.346  24.400  28.085  1.00  0.00     0.014 A 
ATOM     31  C   UNL A   1      40.513  25.291  26.181  1.00  0.00     0.014 A 
ATOM     32  C   UNL A   1      39.497  25.625  28.748  1.00  0.00     0.010 A 
ATOM     33  C   UNL A   1      40.792  26.451  26.892  1.00  0.00     0.010 A 
ATOM     34  C   UNL A   1      40.278  26.642  28.182  1.00  0.00    -0.014 A 
BRANCH  34  35
ATOM     35  C   UNL A   1      40.564  27.924  28.884  1.00  0.00     0.031 A 
ATOM     36  C   UNL A   1      41.863  28.096  29.634  1.00  0.00     0.074 A 
ATOM     37  C   UNL A   1      39.622  28.886  28.951  1.00  0.00     0.049 A 
ATOM     38  N   UNL A   1      42.223  29.045  30.461  1.00  0.00    -0.248 NA
ATOM     39  C   UNL A   1      42.869  27.032  29.473  1.00  0.00     0.031 C 
ATOM     40  C   UNL A   1      38.301  28.834  28.318  1.00  0.00     0.029 A 
ATOM     41  N   UNL A   1      39.627  30.095  29.602  1.00  0.00    -0.354 N 
ATOM     42  C   UNL A   1      43.466  28.662  30.954  1.00  0.00     0.074 A 
ATOM     43  C   UNL A   1      43.771  27.372  30.380  1.00  0.00     0.031 C 
ATOM     44  C   UNL A   1      37.641  29.972  28.582  1.00  0.00     0.029 A 
ATOM     45  C   UNL A   1      38.464  30.810  29.446  1.00  0.00     0.049 A 
ATOM     46  H   UNL A   1      40.392  30.418  30.131  1.00  0.00     0.167 HD
ATOM     47  C   UNL A   1      44.294  29.333  31.791  1.00  0.00     0.031 A 
ATOM     48  C   UNL A   1      38.096  32.003  29.951  1.00  0.00     0.031 A 
ATOM     49  C   UNL A   1      44.019  30.642  32.317  1.00  0.00     0.049 A 
ATOM     50  C   UNL A   1      39.047  32.746  30.849  1.00  0.00     0.074 A 
ATOM     51  C   UNL A   1      44.828  31.442  33.105  1.00  0.00     0.029 A 
ATOM     52  N   UNL A   1      42.850  31.351  32.091  1.00  0.00    -0.354 N 
ATOM     53  N   UNL A   1      40.239  32.393  31.262  1.00  0.00    -0.248 NA
ATOM     54  C   UNL A   1      38.601  34.057  31.341  1.00  0.00     0.031 C 
ATOM     55  C   UNL A   1      44.131  32.621  33.387  1.00  0.00     0.029 A 
ATOM     56  C   UNL A   1      42.910  32.574  32.734  1.00  0.00     0.049 A 
ATOM     57  H   UNL A   1      42.089  31.030  31.554  1.00  0.00     0.167 HD
ATOM     58  C   UNL A   1      40.699  33.451  32.036  1.00  0.00     0.074 A 
ATOM     59  C   UNL A   1      39.663  34.462  32.023  1.00  0.00     0.031 C 
ATOM     60  C   UNL A   1      41.874  33.572  32.700  1.00  0.00     0.031 A 
BRANCH  47  61
ATOM     61  C   UNL A   1      45.582  28.659  32.178  1.00  0.00    -0.014 A 
ATOM     62  C   UNL A   1      46.818  29.107  31.683  1.00  0.00     0.009 A 
ATOM     63  C   UNL A   1      45.564  27.575  33.069  1.00  0.00     0.009 A 
ATOM     64  C   UNL A   1      48.001  28.456  32.035  1.00  0.00     0.001 A 
ATOM     65  C   UNL A   1      46.752  26.944  33.445  1.00  0.00     0.001 A 
ATOM     66  C   UNL A   1      47.968  27.378  32.918  1.00  0.00     0.000 A 
ENDBRANCH  47  61
BRANCH  48  67
ATOM     67  C   UNL A   1      36.774  32.587  29.602  1.00  0.00    -0.014 A 
ATOM     68  C   UNL A   1      36.608  33.286  28.396  1.00  0.00     0.009 A 
ATOM     69  C   UNL A   1      35.678  32.459  30.469  1.00  0.00     0.009 A 
ATOM     70  C   UNL A   1      35.380  33.873  28.080  1.00  0.00     0.001 A 
ATOM     71  C   UNL A   1      34.443  33.021  30.135  1.00  0.00     0.001 A 
ATOM     72  C   UNL A   1      34.298  33.736  28.948  1.00  0.00     0.000 A 
ENDBRANCH  48  67
BRANCH  60  73
ATOM     73  C   UNL A   1      42.121  34.864  33.426  1.00  0.00    -0.014 A 
ATOM     74  C   UNL A   1      42.926  35.871  32.872  1.00  0.00     0.009 A 
ATOM     75  C   UNL A   1      41.501  35.090  34.664  1.00  0.00     0.009 A 
ATOM     76  C   UNL A   1      43.128  37.068  33.560  1.00  0.00     0.001 A 
ATOM     77  C   UNL A   1      41.682  36.299  35.336  1.00  0.00     0.001 A 
ATOM     78  C   UNL A   1      42.502  37.284  34.788  1.00  0.00     0.000 A 
ENDBRANCH  60  73
ENDBRANCH  34  35
ENDBRANCH  26  29
ENDBRANCH  24  25
ENDBRANCH  23  24
ENDBRANCH   1  23
TORSDOF 14
ENDMDL
MODEL 3
REMARK VINA RESULT:     -10.5      4.328      7.571
REMARK SMILES CC(=O)N[C@@H](Cc1cc(Br)c(O)c(Br)c1)C(=O)NCCCNC(=O)c1ccc(-c2c3nc(c(-c4ccccc4)c4ccc([nH]4)c(-c4ccccc4)c4nc(c(-c5ccccc5)c5ccc2[nH]5)C=C4)C=C3)cc1
REMARK SMILES IDX 19 1 18 2 16 3 17 4 5 6 4 7 1 8 2 9 3 10 6 12 7 13 8 14
REMARK SMILES IDX 15 15 9 16 13 17 10 18 11 19 14 20 12 21 20 23 21 24 22 25
REMARK SMILES IDX 23 26 24 28 25 29 26 30 72 31 27 32 71 33 28 34 29 35 30 36
REMARK SMILES IDX 65 37 31 38 70 39 64 40 66 41 32 42 69 43 63 44 62 45 33 47
REMARK SMILES IDX 55 48 40 49 54 50 41 51 44 52 53 53 67 54 42 55 43 56 52 58
REMARK SMILES IDX 68 59 45 60 34 61 35 62 39 63 36 64 38 65 37 66 56 67 57 68
REMARK SMILES IDX 61 69 58 70 60 71 59 72 46 73 47 74 51 75 48 76 50 77 49 78
REMARK H PARENT 18 5 4 11 12 22 22 27 66 46 44 57
REMARK Flexibility Score: inf
ROOT
ATOM      1  C   UNL A   1      32.542  26.142  26.421  1.00  0.00     0.117 C 
ENDROOT
BRANCH   1   2
ATOM      2  N   UNL A   1      31.355  25.483  26.897  1.00  0.00    -0.354 N 
ATOM      3  C   UNL A   1      30.814  24.318  26.434  1.00  0.00     0.242 C 
ATOM      4  O   UNL A   1      29.998  23.749  27.168  1.00  0.00    -0.273 OA
ATOM      5  H   UNL A   1      30.880  25.921  27.641  1.00  0.00     0.163 HD
BRANCH   3   6
ATOM      6  C   UNL A   1      31.231  23.664  25.084  1.00  0.00     0.175 C 
BRANCH   6   7
ATOM      7  N   UNL A   1      31.215  22.200  25.080  1.00  0.00    -0.344 N 
ATOM      8  C   UNL A   1      33.527  21.874  24.261  1.00  0.00     0.114 C 
ATOM      9  C   UNL A   1      32.222  21.336  24.776  1.00  0.00     0.217 C 
ATOM     10  O   UNL A   1      32.027  20.132  24.929  1.00  0.00    -0.275 OA
ATOM     11  H   UNL A   1      30.360  21.784  25.332  1.00  0.00     0.164 HD
ENDBRANCH   6   7
BRANCH   6  12
ATOM     12  C   UNL A   1      30.663  24.336  23.804  1.00  0.00     0.070 C 
BRANCH  12  13
ATOM     13  C   UNL A   1      30.911  25.773  23.370  1.00  0.00    -0.043 A 
ATOM     14  C   UNL A   1      29.801  26.638  23.292  1.00  0.00     0.023 A 
ATOM     15  C   UNL A   1      32.168  26.342  23.143  1.00  0.00     0.023 A 
ATOM     16  C   UNL A   1      29.942  27.976  22.900  1.00  0.00     0.061 A 
ATOM     17  C   UNL A   1      32.304  27.651  22.653  1.00  0.00     0.061 A 
ATOM     18  Br  UNL A   1      28.410  29.093  22.891  1.00  0.00    -0.047 Br
ATOM     19  C   UNL A   1      31.190  28.475  22.536  1.00  0.00     0.143 A 
ATOM     20  Br  UNL A   1      34.030  28.231  22.115  1.00  0.00    -0.047 Br
BRANCH  19  21
ATOM     21  O   UNL A   1      31.341  29.758  22.085  1.00  0.00    -0.506 OA
ATOM     22  H   UNL A   1      32.140  30.018  21.671  1.00  0.00     0.293 HD
ENDBRANCH  19  21
ENDBRANCH  12  13
ENDBRANCH   6  12
ENDBRANCH   3   6
ENDBRANCH   1   2
BRANCH   1  23
ATOM     23  C   UNL A   1      32.518  27.655  26.446  1.00  0.00     0.042 C 
BRANCH  23  24
ATOM     24  C   UNL A   1      33.818  28.307  26.883  1.00  0.00     0.118 C 
BRANCH  24  25
ATOM     25  N   UNL A   1      33.669  29.672  27.379  1.00  0.00    -0.352 N 
ATOM     26  C   UNL A   1      34.504  30.541  28.047  1.00  0.00     0.251 C 
ATOM     27  H   UNL A   1      32.779  30.054  27.199  1.00  0.00     0.163 HD
ATOM     28  O   UNL A   1      34.057  31.620  28.412  1.00  0.00    -0.269 OA
BRANCH  26  29
ATOM     29  C   UNL A   1      35.911  30.191  28.362  1.00  0.00     0.039 A 
ATOM     30  C   UNL A   1      36.225  29.718  29.643  1.00  0.00     0.014 A 
ATOM     31  C   UNL A   1      36.932  30.346  27.432  1.00  0.00     0.014 A 
ATOM     32  C   UNL A   1      37.531  29.312  29.943  1.00  0.00     0.010 A 
ATOM     33  C   UNL A   1      38.188  29.808  27.678  1.00  0.00     0.010 A 
ATOM     34  C   UNL A   1      38.512  29.293  28.942  1.00  0.00    -0.014 A 
BRANCH  34  35
ATOM     35  C   UNL A   1      39.888  28.772  29.170  1.00  0.00     0.031 A 
ATOM     36  C   UNL A   1      40.954  29.683  29.730  1.00  0.00     0.074 A 
ATOM     37  C   UNL A   1      40.217  27.528  28.770  1.00  0.00     0.049 A 
ATOM     38  N   UNL A   1      42.245  29.489  29.823  1.00  0.00    -0.248 NA
ATOM     39  C   UNL A   1      40.515  31.010  30.197  1.00  0.00     0.031 C 
ATOM     40  C   UNL A   1      39.303  26.555  28.165  1.00  0.00     0.029 A 
ATOM     41  N   UNL A   1      41.423  26.871  28.798  1.00  0.00    -0.354 N 
ATOM     42  C   UNL A   1      42.771  30.683  30.306  1.00  0.00     0.074 A 
ATOM     43  C   UNL A   1      41.671  31.611  30.431  1.00  0.00     0.031 C 
ATOM     44  C   UNL A   1      39.972  25.418  27.913  1.00  0.00     0.029 A 
ATOM     45  C   UNL A   1      41.370  25.597  28.285  1.00  0.00     0.049 A 
ATOM     46  H   UNL A   1      42.248  27.277  29.151  1.00  0.00     0.167 HD
ATOM     47  C   UNL A   1      44.050  30.977  30.641  1.00  0.00     0.031 A 
ATOM     48  C   UNL A   1      42.341  24.679  28.122  1.00  0.00     0.031 A 
ATOM     49  C   UNL A   1      45.136  30.037  30.573  1.00  0.00     0.049 A 
ATOM     50  C   UNL A   1      43.747  25.015  28.535  1.00  0.00     0.074 A 
ATOM     51  C   UNL A   1      46.452  30.210  30.967  1.00  0.00     0.029 A 
ATOM     52  N   UNL A   1      45.026  28.741  30.095  1.00  0.00    -0.354 N 
ATOM     53  N   UNL A   1      44.216  26.130  29.039  1.00  0.00    -0.248 NA
ATOM     54  C   UNL A   1      44.755  23.959  28.363  1.00  0.00     0.031 C 
ATOM     55  C   UNL A   1      47.146  29.028  30.691  1.00  0.00     0.029 A 
ATOM     56  C   UNL A   1      46.252  28.105  30.174  1.00  0.00     0.049 A 
ATOM     57  H   UNL A   1      44.198  28.334  29.751  1.00  0.00     0.167 HD
ATOM     58  C   UNL A   1      45.566  25.900  29.274  1.00  0.00     0.074 A 
ATOM     59  C   UNL A   1      45.836  24.536  28.871  1.00  0.00     0.031 C 
ATOM     60  C   UNL A   1      46.499  26.744  29.778  1.00  0.00     0.031 A 
BRANCH  47  61
ATOM     61  C   UNL A   1      44.338  32.373  31.121  1.00  0.00    -0.014 A 
ATOM     62  C   UNL A   1      44.690  33.396  30.226  1.00  0.00     0.009 A 
ATOM     63  C   UNL A   1      44.234  32.677  32.488  1.00  0.00     0.009 A 
ATOM     64  C   UNL A   1      44.977  34.680  30.692  1.00  0.00     0.001 A 
ATOM     65  C   UNL A   1      44.490  33.970  32.949  1.00  0.00     0.001 A 
ATOM     66  C   UNL A   1      44.873  34.967  32.052  1.00  0.00     0.000 A 
ENDBRANCH  47  61
BRANCH  48  67
ATOM     67  C   UNL A   1      42.017  23.339  27.564  1.00  0.00    -0.014 A 
ATOM     68  C   UNL A   1      41.515  22.330  28.400  1.00  0.00     0.009 A 
ATOM     69  C   UNL A   1      42.215  23.058  26.204  1.00  0.00     0.009 A 
ATOM     70  C   UNL A   1      41.245  21.056  27.892  1.00  0.00     0.001 A 
ATOM     71  C   UNL A   1      41.917  21.792  25.693  1.00  0.00     0.001 A 
ATOM     72  C   UNL A   1      41.443  20.790  26.538  1.00  0.00     0.000 A 
ENDBRANCH  48  67
BRANCH  60  73
ATOM     73  C   UNL A   1      47.886  26.201  29.966  1.00  0.00    -0.014 A 
ATOM     74  C   UNL A   1      48.803  26.155  28.904  1.00  0.00     0.009 A 
ATOM     75  C   UNL A   1      48.294  25.771  31.238  1.00  0.00     0.009 A 
ATOM     76  C   UNL A   1      50.091  25.659  29.107  1.00  0.00     0.001 A 
ATOM     77  C   UNL A   1      49.592  25.303  31.445  1.00  0.00     0.001 A 
ATOM     78  C   UNL A   1      50.487  25.239  30.378  1.00  0.00     0.000 A 
ENDBRANCH  60  73
ENDBRANCH  34  35
ENDBRANCH  26  29
ENDBRANCH  24  25
ENDBRANCH  23  24
ENDBRANCH   1  23
TORSDOF 14
ENDMDL
