MODEL 1
REMARK VINA RESULT:     -10.5      0.000      0.000
REMARK SMILES C[NH2+][C@]1(C(=O)NCCCNC(=O)c2ccc(-c3c4nc(c(-c5ccccc5)c5ccc([nH]5)c(-c5ccccc5)c5nc(c(-c6ccccc6)c6ccc3[nH]6)C=C5)C=C4)cc2)CCC[C@H]([N@H+](C)C2CC2)C1
REMARK SMILES IDX 8 1 7 2 6 3 4 4 5 5 3 7 61 8 70 9 62 10 64 11 63 12 2 13
REMARK SMILES IDX 1 14 65 17 66 18 67 20 68 21 69 22 9 23 10 24 11 25 12 27
REMARK SMILES IDX 13 28 14 29 60 30 15 31 59 32 16 33 17 34 18 35 53 36 19 37
REMARK SMILES IDX 58 38 52 39 54 40 20 41 57 42 51 43 50 44 21 46 43 47 28 48
REMARK SMILES IDX 42 49 29 50 32 51 41 52 55 53 30 54 31 55 40 57 56 58 33 59
REMARK SMILES IDX 22 60 23 61 27 62 24 63 26 64 25 65 44 66 45 67 49 68 46 69
REMARK SMILES IDX 48 70 47 71 34 72 35 73 39 74 36 75 38 76 37 77
REMARK H PARENT 6 6 2 15 2 16 65 19 10 26 54 45 32 56
REMARK Flexibility Score: inf
ROOT
ATOM      1  C   UNL A   1      37.702  19.760  24.992  1.00  0.00     0.042 C 
ENDROOT
BRANCH   1   2
ATOM      2  C   UNL A   1      36.502  20.694  25.014  1.00  0.00     0.118 C 
BRANCH   2   3
ATOM      3  N   UNL A   1      35.247  19.967  25.005  1.00  0.00    -0.351 N 
ATOM      4  C   UNL A   1      33.945  20.359  25.030  1.00  0.00     0.281 C 
ATOM      5  O   UNL A   1      33.138  19.428  25.161  1.00  0.00    -0.268 OA
ATOM      6  H   UNL A   1      35.361  18.989  24.975  1.00  0.00     0.163 HD
BRANCH   4   7
ATOM      7  C   UNL A   1      33.488  21.878  24.947  1.00  0.00     0.181 C 
ATOM      8  C   UNL A   1      33.797  22.512  26.324  1.00  0.00     0.079 C 
ATOM      9  C   UNL A   1      34.231  22.565  23.754  1.00  0.00     0.144 C 
ATOM     10  C   UNL A   1      33.913  24.024  26.300  1.00  0.00     0.013 C 
ATOM     11  C   UNL A   1      34.477  24.113  23.813  1.00  0.00     0.190 C 
ATOM     12  C   UNL A   1      34.911  24.478  25.243  1.00  0.00     0.065 C 
BRANCH   7  13
ATOM     13  N   UNL A   1      32.014  21.794  24.780  1.00  0.00    -0.336 N 
ATOM     14  C   UNL A   1      31.115  22.346  25.755  1.00  0.00     0.331 C 
ATOM     15  H   UNL A   1      31.798  22.253  23.896  1.00  0.00     0.346 HD
ATOM     16  H   UNL A   1      31.842  20.792  24.867  1.00  0.00     0.346 HD
ENDBRANCH   7  13
BRANCH  11  17
ATOM     17  N   UNL A   1      33.335  24.889  23.273  1.00  0.00    -0.332 N 
ATOM     18  C   UNL A   1      32.830  24.258  22.033  1.00  0.00     0.333 C 
ATOM     19  H   UNL A   1      32.678  24.864  24.053  1.00  0.00     0.348 HD
BRANCH  17  20
ATOM     20  C   UNL A   1      33.532  26.333  22.987  1.00  0.00     0.184 C 
ATOM     21  C   UNL A   1      32.364  27.208  23.410  1.00  0.00     0.071 C 
ATOM     22  C   UNL A   1      33.721  27.453  23.974  1.00  0.00     0.071 C 
ENDBRANCH  17  20
ENDBRANCH  11  17
ENDBRANCH   4   7
ENDBRANCH   2   3
ENDBRANCH   1   2
BRANCH   1  23
ATOM     23  C   UNL A   1      38.959  20.357  25.604  1.00  0.00     0.118 C 
BRANCH  23  24
ATOM     24  N   UNL A   1      40.031  19.382  25.744  1.00  0.00    -0.352 N 
ATOM     25  C   UNL A   1      41.347  19.560  26.092  1.00  0.00     0.251 C 
ATOM     26  H   UNL A   1      39.772  18.450  25.559  1.00  0.00     0.163 HD
ATOM     27  O   UNL A   1      42.150  18.646  25.950  1.00  0.00    -0.269 OA
BRANCH  25  28
ATOM     28  C   UNL A   1      41.799  20.867  26.617  1.00  0.00     0.039 A 
ATOM     29  C   UNL A   1      42.304  21.816  25.726  1.00  0.00     0.014 A 
ATOM     30  C   UNL A   1      41.725  21.156  27.980  1.00  0.00     0.014 A 
ATOM     31  C   UNL A   1      42.663  23.081  26.195  1.00  0.00     0.010 A 
ATOM     32  C   UNL A   1      41.980  22.446  28.429  1.00  0.00     0.010 A 
ATOM     33  C   UNL A   1      42.461  23.421  27.543  1.00  0.00    -0.014 A 
BRANCH  33  34
ATOM     34  C   UNL A   1      42.754  24.785  28.049  1.00  0.00     0.031 A 
ATOM     35  C   UNL A   1      44.156  25.155  28.454  1.00  0.00     0.074 A 
ATOM     36  C   UNL A   1      41.749  25.669  28.206  1.00  0.00     0.049 A 
ATOM     37  N   UNL A   1      44.596  26.273  28.974  1.00  0.00    -0.248 NA
ATOM     38  C   UNL A   1      45.195  24.127  28.278  1.00  0.00     0.031 C 
ATOM     39  C   UNL A   1      40.340  25.419  27.892  1.00  0.00     0.029 A 
ATOM     40  N   UNL A   1      41.759  26.958  28.675  1.00  0.00    -0.354 N 
ATOM     41  C   UNL A   1      45.952  26.074  29.202  1.00  0.00     0.074 A 
ATOM     42  C   UNL A   1      46.252  24.712  28.818  1.00  0.00     0.031 C 
ATOM     43  C   UNL A   1      39.629  26.530  28.144  1.00  0.00     0.029 A 
ATOM     44  C   UNL A   1      40.519  27.553  28.682  1.00  0.00     0.049 A 
ATOM     45  H   UNL A   1      42.577  27.415  28.979  1.00  0.00     0.167 HD
ATOM     46  C   UNL A   1      46.873  26.951  29.666  1.00  0.00     0.031 A 
ATOM     47  C   UNL A   1      40.141  28.780  29.085  1.00  0.00     0.031 A 
ATOM     48  C   UNL A   1      46.576  28.309  30.037  1.00  0.00     0.049 A 
ATOM     49  C   UNL A   1      41.179  29.728  29.620  1.00  0.00     0.074 A 
ATOM     50  C   UNL A   1      47.448  29.294  30.467  1.00  0.00     0.029 A 
ATOM     51  N   UNL A   1      45.309  28.871  30.026  1.00  0.00    -0.354 N 
ATOM     52  N   UNL A   1      42.470  29.547  29.759  1.00  0.00    -0.248 NA
ATOM     53  C   UNL A   1      40.707  31.054  30.040  1.00  0.00     0.031 C 
ATOM     54  C   UNL A   1      46.700  30.434  30.773  1.00  0.00     0.029 A 
ATOM     55  C   UNL A   1      45.372  30.181  30.469  1.00  0.00     0.049 A 
ATOM     56  H   UNL A   1      44.487  28.407  29.746  1.00  0.00     0.167 HD
ATOM     57  C   UNL A   1      42.969  30.746  30.251  1.00  0.00     0.074 A 
ATOM     58  C   UNL A   1      41.844  31.651  30.369  1.00  0.00     0.031 C 
ATOM     59  C   UNL A   1      44.244  31.071  30.576  1.00  0.00     0.031 A 
BRANCH  46  60
ATOM     60  C   UNL A   1      48.290  26.466  29.806  1.00  0.00    -0.014 A 
ATOM     61  C   UNL A   1      49.229  26.651  28.778  1.00  0.00     0.009 A 
ATOM     62  C   UNL A   1      48.703  25.855  30.999  1.00  0.00     0.009 A 
ATOM     63  C   UNL A   1      50.542  26.200  28.928  1.00  0.00     0.001 A 
ATOM     64  C   UNL A   1      50.026  25.434  31.160  1.00  0.00     0.001 A 
ATOM     65  C   UNL A   1      50.940  25.599  30.120  1.00  0.00     0.000 A 
ENDBRANCH  46  60
BRANCH  47  66
ATOM     66  C   UNL A   1      38.714  29.192  28.995  1.00  0.00    -0.014 A 
ATOM     67  C   UNL A   1      37.858  29.047  30.097  1.00  0.00     0.009 A 
ATOM     68  C   UNL A   1      38.195  29.716  27.799  1.00  0.00     0.009 A 
ATOM     69  C   UNL A   1      36.505  29.383  29.994  1.00  0.00     0.001 A 
ATOM     70  C   UNL A   1      36.851  30.083  27.709  1.00  0.00     0.001 A 
ATOM     71  C   UNL A   1      36.004  29.905  28.803  1.00  0.00     0.000 A 
ENDBRANCH  47  66
BRANCH  59  72
ATOM     72  C   UNL A   1      44.501  32.475  31.045  1.00  0.00    -0.014 A 
ATOM     73  C   UNL A   1      44.780  33.512  30.142  1.00  0.00     0.009 A 
ATOM     74  C   UNL A   1      44.420  32.771  32.416  1.00  0.00     0.009 A 
ATOM     75  C   UNL A   1      45.007  34.809  30.605  1.00  0.00     0.001 A 
ATOM     76  C   UNL A   1      44.613  34.075  32.873  1.00  0.00     0.001 A 
ATOM     77  C   UNL A   1      44.918  35.091  31.969  1.00  0.00     0.000 A 
ENDBRANCH  59  72
ENDBRANCH  33  34
ENDBRANCH  25  28
ENDBRANCH  23  24
ENDBRANCH   1  23
TORSDOF 13
ENDMDL
MODEL 2
REMARK VINA RESULT:     -10.4      1.414      6.335
REMARK SMILES C[NH2+][C@]1(C(=O)NCCCNC(=O)c2ccc(-c3c4nc(c(-c5ccccc5)c5ccc([nH]5)c(-c5ccccc5)c5nc(c(-c6ccccc6)c6ccc3[nH]6)C=C5)C=C4)cc2)CCC[C@H]([N@H+](C)C2CC2)C1
REMARK SMILES IDX 8 1 7 2 6 3 4 4 5 5 3 7 61 8 70 9 62 10 64 11 63 12 2 13
REMARK SMILES IDX 1 14 65 17 66 18 67 20 68 21 69 22 9 23 10 24 11 25 12 27
REMARK SMILES IDX 13 28 14 29 60 30 15 31 59 32 16 33 17 34 18 35 53 36 19 37
REMARK SMILES IDX 58 38 52 39 54 40 20 41 57 42 51 43 50 44 21 46 43 47 28 48
REMARK SMILES IDX 42 49 29 50 32 51 41 52 55 53 30 54 31 55 40 57 56 58 33 59
REMARK SMILES IDX 22 60 23 61 27 62 24 63 26 64 25 65 44 66 45 67 49 68 46 69
REMARK SMILES IDX 48 70 47 71 34 72 35 73 39 74 36 75 38 76 37 77
REMARK H PARENT 6 6 2 15 2 16 65 19 10 26 54 45 32 56
REMARK Flexibility Score: inf
ROOT
ATOM      1  C   UNL A   1      37.877  19.864  24.913  1.00  0.00     0.042 C 
ENDROOT
BRANCH   1   2
ATOM      2  C   UNL A   1      36.660  20.760  25.075  1.00  0.00     0.118 C 
BRANCH   2   3
ATOM      3  N   UNL A   1      35.420  20.010  25.015  1.00  0.00    -0.351 N 
ATOM      4  C   UNL A   1      34.110  20.374  25.052  1.00  0.00     0.281 C 
ATOM      5  O   UNL A   1      33.322  19.421  25.123  1.00  0.00    -0.268 OA
ATOM      6  H   UNL A   1      35.554  19.038  24.930  1.00  0.00     0.163 HD
BRANCH   4   7
ATOM      7  C   UNL A   1      33.623  21.886  25.051  1.00  0.00     0.181 C 
ATOM      8  C   UNL A   1      34.282  22.566  23.827  1.00  0.00     0.079 C 
ATOM      9  C   UNL A   1      32.059  21.914  25.023  1.00  0.00     0.144 C 
ATOM     10  C   UNL A   1      33.575  23.823  23.360  1.00  0.00     0.013 C 
ATOM     11  C   UNL A   1      31.340  23.160  24.398  1.00  0.00     0.190 C 
ATOM     12  C   UNL A   1      32.095  23.559  23.118  1.00  0.00     0.065 C 
BRANCH   7  13
ATOM     13  N   UNL A   1      34.221  22.449  26.290  1.00  0.00    -0.336 N 
ATOM     14  C   UNL A   1      33.838  21.975  27.591  1.00  0.00     0.331 C 
ATOM     15  H   UNL A   1      35.227  22.304  26.215  1.00  0.00     0.346 HD
ATOM     16  H   UNL A   1      33.861  23.404  26.290  1.00  0.00     0.346 HD
ENDBRANCH   7  13
BRANCH  11  17
ATOM     17  N   UNL A   1      31.132  24.248  25.383  1.00  0.00    -0.332 N 
ATOM     18  C   UNL A   1      30.729  23.681  26.690  1.00  0.00     0.333 C 
ATOM     19  H   UNL A   1      32.045  24.704  25.388  1.00  0.00     0.348 HD
BRANCH  17  20
ATOM     20  C   UNL A   1      30.168  25.328  25.053  1.00  0.00     0.184 C 
ATOM     21  C   UNL A   1      30.789  26.714  25.013  1.00  0.00     0.071 C 
ATOM     22  C   UNL A   1      30.113  26.166  23.804  1.00  0.00     0.071 C 
ENDBRANCH  17  20
ENDBRANCH  11  17
ENDBRANCH   4   7
ENDBRANCH   2   3
ENDBRANCH   1   2
BRANCH   1  23
ATOM     23  C   UNL A   1      39.068  20.281  25.760  1.00  0.00     0.118 C 
BRANCH  23  24
ATOM     24  N   UNL A   1      40.073  19.232  25.870  1.00  0.00    -0.352 N 
ATOM     25  C   UNL A   1      41.424  19.324  26.095  1.00  0.00     0.251 C 
ATOM     26  H   UNL A   1      39.729  18.316  25.766  1.00  0.00     0.163 HD
ATOM     27  O   UNL A   1      42.140  18.342  25.942  1.00  0.00    -0.269 OA
BRANCH  25  28
ATOM     28  C   UNL A   1      42.017  20.617  26.497  1.00  0.00     0.039 A 
ATOM     29  C   UNL A   1      42.458  21.497  25.506  1.00  0.00     0.014 A 
ATOM     30  C   UNL A   1      42.138  20.963  27.844  1.00  0.00     0.014 A 
ATOM     31  C   UNL A   1      42.949  22.753  25.867  1.00  0.00     0.010 A 
ATOM     32  C   UNL A   1      42.525  22.249  28.196  1.00  0.00     0.010 A 
ATOM     33  C   UNL A   1      42.945  23.156  27.213  1.00  0.00    -0.014 A 
BRANCH  33  34
ATOM     34  C   UNL A   1      43.382  24.517  27.614  1.00  0.00     0.031 A 
ATOM     35  C   UNL A   1      42.358  25.568  27.955  1.00  0.00     0.074 A 
ATOM     36  C   UNL A   1      44.693  24.827  27.609  1.00  0.00     0.049 A 
ATOM     37  N   UNL A   1      42.541  26.826  28.267  1.00  0.00    -0.248 NA
ATOM     38  C   UNL A   1      40.944  25.160  27.912  1.00  0.00     0.031 C 
ATOM     39  C   UNL A   1      45.781  23.911  27.257  1.00  0.00     0.029 A 
ATOM     40  N   UNL A   1      45.334  26.003  27.905  1.00  0.00    -0.354 N 
ATOM     41  C   UNL A   1      41.270  27.359  28.439  1.00  0.00     0.074 A 
ATOM     42  C   UNL A   1      40.323  26.308  28.141  1.00  0.00     0.031 C 
ATOM     43  C   UNL A   1      46.954  24.550  27.391  1.00  0.00     0.029 A 
ATOM     44  C   UNL A   1      46.702  25.930  27.791  1.00  0.00     0.049 A 
ATOM     45  H   UNL A   1      44.859  26.822  28.175  1.00  0.00     0.167 HD
ATOM     46  C   UNL A   1      40.919  28.606  28.832  1.00  0.00     0.031 A 
ATOM     47  C   UNL A   1      47.646  26.871  27.978  1.00  0.00     0.031 A 
ATOM     48  C   UNL A   1      41.861  29.650  29.139  1.00  0.00     0.049 A 
ATOM     49  C   UNL A   1      47.229  28.255  28.391  1.00  0.00     0.074 A 
ATOM     50  C   UNL A   1      41.608  30.930  29.599  1.00  0.00     0.029 A 
ATOM     51  N   UNL A   1      43.236  29.532  29.012  1.00  0.00    -0.354 N 
ATOM     52  N   UNL A   1      46.025  28.722  28.621  1.00  0.00    -0.248 NA
ATOM     53  C   UNL A   1      48.303  29.238  28.585  1.00  0.00     0.031 C 
ATOM     54  C   UNL A   1      42.827  31.607  29.693  1.00  0.00     0.029 A 
ATOM     55  C   UNL A   1      43.843  30.727  29.359  1.00  0.00     0.049 A 
ATOM     56  H   UNL A   1      43.710  28.721  28.720  1.00  0.00     0.167 HD
ATOM     57  C   UNL A   1      46.200  30.041  29.017  1.00  0.00     0.074 A 
ATOM     58  C   UNL A   1      47.626  30.295  29.013  1.00  0.00     0.031 C 
ATOM     59  C   UNL A   1      45.265  30.962  29.355  1.00  0.00     0.031 A 
BRANCH  46  60
ATOM     60  C   UNL A   1      39.451  28.914  28.947  1.00  0.00    -0.014 A 
ATOM     61  C   UNL A   1      38.714  29.378  27.845  1.00  0.00     0.009 A 
ATOM     62  C   UNL A   1      38.785  28.695  30.162  1.00  0.00     0.009 A 
ATOM     63  C   UNL A   1      37.350  29.650  27.967  1.00  0.00     0.001 A 
ATOM     64  C   UNL A   1      37.414  28.937  30.274  1.00  0.00     0.001 A 
ATOM     65  C   UNL A   1      36.701  29.424  29.180  1.00  0.00     0.000 A 
ENDBRANCH  46  60
BRANCH  47  66
ATOM     66  C   UNL A   1      49.084  26.539  27.783  1.00  0.00    -0.014 A 
ATOM     67  C   UNL A   1      49.680  26.661  26.519  1.00  0.00     0.009 A 
ATOM     68  C   UNL A   1      49.864  26.082  28.858  1.00  0.00     0.009 A 
ATOM     69  C   UNL A   1      51.015  26.298  26.326  1.00  0.00     0.001 A 
ATOM     70  C   UNL A   1      51.207  25.752  28.670  1.00  0.00     0.001 A 
ATOM     71  C   UNL A   1      51.779  25.849  27.402  1.00  0.00     0.000 A 
ENDBRANCH  47  66
BRANCH  59  72
ATOM     72  C   UNL A   1      45.753  32.314  29.793  1.00  0.00    -0.014 A 
ATOM     73  C   UNL A   1      45.906  33.371  28.884  1.00  0.00     0.009 A 
ATOM     74  C   UNL A   1      46.025  32.542  31.152  1.00  0.00     0.009 A 
ATOM     75  C   UNL A   1      46.354  34.619  29.320  1.00  0.00     0.001 A 
ATOM     76  C   UNL A   1      46.440  33.799  31.591  1.00  0.00     0.001 A 
ATOM     77  C   UNL A   1      46.616  34.834  30.674  1.00  0.00     0.000 A 
ENDBRANCH  59  72
ENDBRANCH  33  34
ENDBRANCH  25  28
ENDBRANCH  23  24
ENDBRANCH   1  23
TORSDOF 13
ENDMDL
MODEL 3
REMARK VINA RESULT:     -10.4      1.028      1.711
REMARK SMILES C[NH2+][C@]1(C(=O)NCCCNC(=O)c2ccc(-c3c4nc(c(-c5ccccc5)c5ccc([nH]5)c(-c5ccccc5)c5nc(c(-c6ccccc6)c6ccc3[nH]6)C=C5)C=C4)cc2)CCC[C@H]([N@H+](C)C2CC2)C1
REMARK SMILES IDX 8 1 7 2 6 3 4 4 5 5 3 7 61 8 70 9 62 10 64 11 63 12 2 13
REMARK SMILES IDX 1 14 65 17 66 18 67 20 68 21 69 22 9 23 10 24 11 25 12 27
REMARK SMILES IDX 13 28 14 29 60 30 15 31 59 32 16 33 17 34 18 35 53 36 19 37
REMARK SMILES IDX 58 38 52 39 54 40 20 41 57 42 51 43 50 44 21 46 43 47 28 48
REMARK SMILES IDX 42 49 29 50 32 51 41 52 55 53 30 54 31 55 40 57 56 58 33 59
REMARK SMILES IDX 22 60 23 61 27 62 24 63 26 64 25 65 44 66 45 67 49 68 46 69
REMARK SMILES IDX 48 70 47 71 34 72 35 73 39 74 36 75 38 76 37 77
REMARK H PARENT 6 6 2 15 2 16 65 19 10 26 54 45 32 56
REMARK Flexibility Score: inf
ROOT
ATOM      1  C   UNL A   1      37.878  19.719  24.947  1.00  0.00     0.042 C 
ENDROOT
BRANCH   1   2
ATOM      2  C   UNL A   1      36.659  20.630  24.961  1.00  0.00     0.118 C 
BRANCH   2   3
ATOM      3  N   UNL A   1      35.419  19.878  24.945  1.00  0.00    -0.351 N 
ATOM      4  C   UNL A   1      34.111  20.241  25.031  1.00  0.00     0.281 C 
ATOM      5  O   UNL A   1      33.327  19.288  25.130  1.00  0.00    -0.268 OA
ATOM      6  H   UNL A   1      35.550  18.906  24.853  1.00  0.00     0.163 HD
BRANCH   4   7
ATOM      7  C   UNL A   1      33.623  21.753  25.051  1.00  0.00     0.181 C 
ATOM      8  C   UNL A   1      34.250  22.439  23.815  1.00  0.00     0.079 C 
ATOM      9  C   UNL A   1      32.059  21.780  25.064  1.00  0.00     0.144 C 
ATOM     10  C   UNL A   1      33.531  23.699  23.372  1.00  0.00     0.013 C 
ATOM     11  C   UNL A   1      31.323  23.028  24.464  1.00  0.00     0.190 C 
ATOM     12  C   UNL A   1      32.045  23.435  23.167  1.00  0.00     0.065 C 
BRANCH   7  13
ATOM     13  N   UNL A   1      34.252  22.309  26.277  1.00  0.00    -0.336 N 
ATOM     14  C   UNL A   1      33.929  21.804  27.583  1.00  0.00     0.331 C 
ATOM     15  H   UNL A   1      35.259  22.191  26.163  1.00  0.00     0.346 HD
ATOM     16  H   UNL A   1      33.869  23.255  26.308  1.00  0.00     0.346 HD
ENDBRANCH   7  13
BRANCH  11  17
ATOM     17  N   UNL A   1      31.140  24.111  25.460  1.00  0.00    -0.332 N 
ATOM     18  C   UNL A   1      30.802  23.535  26.782  1.00  0.00     0.333 C 
ATOM     19  H   UNL A   1      32.045  24.581  25.427  1.00  0.00     0.348 HD
BRANCH  17  20
ATOM     20  C   UNL A   1      30.146  25.176  25.174  1.00  0.00     0.184 C 
ATOM     21  C   UNL A   1      30.759  26.553  24.980  1.00  0.00     0.071 C 
ATOM     22  C   UNL A   1      29.952  25.937  23.890  1.00  0.00     0.071 C 
ENDBRANCH  17  20
ENDBRANCH  11  17
ENDBRANCH   4   7
ENDBRANCH   2   3
ENDBRANCH   1   2
BRANCH   1  23
ATOM     23  C   UNL A   1      39.029  20.216  25.806  1.00  0.00     0.118 C 
BRANCH  23  24
ATOM     24  N   UNL A   1      40.124  19.259  25.884  1.00  0.00    -0.352 N 
ATOM     25  C   UNL A   1      41.460  19.463  26.125  1.00  0.00     0.251 C 
ATOM     26  H   UNL A   1      39.865  18.320  25.741  1.00  0.00     0.163 HD
ATOM     27  O   UNL A   1      42.263  18.557  25.941  1.00  0.00    -0.269 OA
BRANCH  25  28
ATOM     28  C   UNL A   1      41.931  20.787  26.584  1.00  0.00     0.039 A 
ATOM     29  C   UNL A   1      42.359  21.720  25.637  1.00  0.00     0.014 A 
ATOM     30  C   UNL A   1      41.949  21.111  27.941  1.00  0.00     0.014 A 
ATOM     31  C   UNL A   1      42.734  23.000  26.048  1.00  0.00     0.010 A 
ATOM     32  C   UNL A   1      42.219  22.414  28.339  1.00  0.00     0.010 A 
ATOM     33  C   UNL A   1      42.624  23.372  27.398  1.00  0.00    -0.014 A 
BRANCH  33  34
ATOM     34  C   UNL A   1      42.934  24.752  27.848  1.00  0.00     0.031 A 
ATOM     35  C   UNL A   1      44.359  25.154  28.122  1.00  0.00     0.074 A 
ATOM     36  C   UNL A   1      41.930  25.622  28.073  1.00  0.00     0.049 A 
ATOM     37  N   UNL A   1      44.822  26.290  28.578  1.00  0.00    -0.248 NA
ATOM     38  C   UNL A   1      45.397  24.139  27.877  1.00  0.00     0.031 C 
ATOM     39  C   UNL A   1      40.504  25.342  27.887  1.00  0.00     0.029 A 
ATOM     40  N   UNL A   1      41.957  26.921  28.513  1.00  0.00    -0.354 N 
ATOM     41  C   UNL A   1      46.195  26.118  28.691  1.00  0.00     0.074 A 
ATOM     42  C   UNL A   1      46.486  24.754  28.312  1.00  0.00     0.031 C 
ATOM     43  C   UNL A   1      39.798  26.446  28.177  1.00  0.00     0.029 A 
ATOM     44  C   UNL A   1      40.712  27.495  28.615  1.00  0.00     0.049 A 
ATOM     45  H   UNL A   1      42.790  27.398  28.734  1.00  0.00     0.167 HD
ATOM     46  C   UNL A   1      47.136  27.021  29.056  1.00  0.00     0.031 A 
ATOM     47  C   UNL A   1      40.347  28.724  29.024  1.00  0.00     0.031 A 
ATOM     48  C   UNL A   1      46.848  28.382  29.423  1.00  0.00     0.049 A 
ATOM     49  C   UNL A   1      41.410  29.701  29.447  1.00  0.00     0.074 A 
ATOM     50  C   UNL A   1      47.735  29.391  29.754  1.00  0.00     0.029 A 
ATOM     51  N   UNL A   1      45.575  28.922  29.510  1.00  0.00    -0.354 N 
ATOM     52  N   UNL A   1      42.711  29.545  29.477  1.00  0.00    -0.248 NA
ATOM     53  C   UNL A   1      40.952  31.029  29.878  1.00  0.00     0.031 C 
ATOM     54  C   UNL A   1      46.995  30.525  30.101  1.00  0.00     0.029 A 
ATOM     55  C   UNL A   1      45.651  30.243  29.918  1.00  0.00     0.049 A 
ATOM     56  H   UNL A   1      44.740  28.439  29.312  1.00  0.00     0.167 HD
ATOM     57  C   UNL A   1      43.229  30.763  29.898  1.00  0.00     0.074 A 
ATOM     58  C   UNL A   1      42.102  31.652  30.095  1.00  0.00     0.031 C 
ATOM     59  C   UNL A   1      44.521  31.116  30.104  1.00  0.00     0.031 A 
BRANCH  46  60
ATOM     60  C   UNL A   1      48.569  26.563  29.082  1.00  0.00    -0.014 A 
ATOM     61  C   UNL A   1      49.150  26.050  30.253  1.00  0.00     0.009 A 
ATOM     62  C   UNL A   1      49.336  26.603  27.907  1.00  0.00     0.009 A 
ATOM     63  C   UNL A   1      50.479  25.622  30.257  1.00  0.00     0.001 A 
ATOM     64  C   UNL A   1      50.655  26.144  27.905  1.00  0.00     0.001 A 
ATOM     65  C   UNL A   1      51.228  25.664  29.082  1.00  0.00     0.000 A 
ENDBRANCH  46  60
BRANCH  47  66
ATOM     66  C   UNL A   1      38.910  29.111  29.049  1.00  0.00    -0.014 A 
ATOM     67  C   UNL A   1      38.132  28.891  30.196  1.00  0.00     0.009 A 
ATOM     68  C   UNL A   1      38.304  29.685  27.920  1.00  0.00     0.009 A 
ATOM     69  C   UNL A   1      36.770  29.204  30.200  1.00  0.00     0.001 A 
ATOM     70  C   UNL A   1      36.950  30.027  27.937  1.00  0.00     0.001 A 
ATOM     71  C   UNL A   1      36.182  29.776  29.073  1.00  0.00     0.000 A 
ENDBRANCH  47  66
BRANCH  59  72
ATOM     72  C   UNL A   1      44.791  32.534  30.520  1.00  0.00    -0.014 A 
ATOM     73  C   UNL A   1      44.878  32.900  31.872  1.00  0.00     0.009 A 
ATOM     74  C   UNL A   1      45.005  33.514  29.536  1.00  0.00     0.009 A 
ATOM     75  C   UNL A   1      45.138  34.224  32.229  1.00  0.00     0.001 A 
ATOM     76  C   UNL A   1      45.299  34.829  29.896  1.00  0.00     0.001 A 
ATOM     77  C   UNL A   1      45.354  35.186  31.242  1.00  0.00     0.000 A 
ENDBRANCH  59  72
ENDBRANCH  33  34
ENDBRANCH  25  28
ENDBRANCH  23  24
ENDBRANCH   1  23
TORSDOF 13
ENDMDL
