MODEL 1
REMARK VINA RESULT:     -11.7      0.000      0.000
REMARK SMILES O=C(NCCCNC(=O)c1cc(Cl)ncc1-c1cccc(C(F)(F)F)c1)c1ccc(-c2c3nc(c(-c4ccccc4)c4ccc([nH]4)c(-c4ccccc4)c4nc(c(-c5ccccc5)c5ccc2[nH]5)C=C4)C=C3)cc1
REMARK SMILES IDX 5 1 4 2 3 3 1 4 2 5 27 7 28 8 74 9 29 10 73 11 30 12 31 13
REMARK SMILES IDX 32 14 67 15 33 16 72 17 66 18 68 19 34 20 71 21 65 22 64 23
REMARK SMILES IDX 35 25 57 26 42 27 56 28 43 29 46 30 55 31 69 32 44 33 45 34
REMARK SMILES IDX 54 36 70 37 47 38 36 39 37 40 41 41 38 42 40 43 39 44 58 45
REMARK SMILES IDX 59 46 63 47 60 48 62 49 61 50 48 51 49 52 53 53 50 54 52 55
REMARK SMILES IDX 51 56 6 57 7 58 8 59 9 61 10 62 11 63 16 64 12 65 15 66
REMARK SMILES IDX 13 67 14 68 17 69 18 70 26 71 19 72 21 73 20 74 22 75 23 76
REMARK SMILES IDX 24 77 25 78
REMARK H PARENT 3 6 68 24 46 35 7 60
REMARK Flexibility Score: inf
ROOT
ATOM      1  C   UNL A   1      33.485  27.743  26.585  1.00  0.00     0.042 C 
ENDROOT
BRANCH   1   2
ATOM      2  C   UNL A   1      34.113  28.936  25.883  1.00  0.00     0.118 C 
BRANCH   2   3
ATOM      3  N   UNL A   1      33.840  30.203  26.551  1.00  0.00    -0.352 N 
ATOM      4  O   UNL A   1      34.014  31.825  28.103  1.00  0.00    -0.269 OA
ATOM      5  C   UNL A   1      34.507  30.830  27.577  1.00  0.00     0.251 C 
ATOM      6  H   UNL A   1      33.052  30.686  26.214  1.00  0.00     0.163 HD
BRANCH   5   7
ATOM      7  C   UNL A   1      35.799  30.305  28.066  1.00  0.00     0.039 A 
ATOM      8  C   UNL A   1      36.956  30.421  27.294  1.00  0.00     0.014 A 
ATOM      9  C   UNL A   1      35.864  29.711  29.330  1.00  0.00     0.014 A 
ATOM     10  C   UNL A   1      38.127  29.797  27.703  1.00  0.00     0.010 A 
ATOM     11  C   UNL A   1      37.074  29.181  29.791  1.00  0.00     0.010 A 
ATOM     12  C   UNL A   1      38.210  29.195  28.968  1.00  0.00    -0.014 A 
BRANCH  12  13
ATOM     13  C   UNL A   1      39.522  28.676  29.431  1.00  0.00     0.031 A 
ATOM     14  C   UNL A   1      40.072  27.369  28.932  1.00  0.00     0.074 A 
ATOM     15  C   UNL A   1      40.235  29.425  30.297  1.00  0.00     0.049 A 
ATOM     16  N   UNL A   1      41.216  26.799  29.222  1.00  0.00    -0.248 NA
ATOM     17  C   UNL A   1      39.240  26.601  27.994  1.00  0.00     0.031 C 
ATOM     18  C   UNL A   1      39.800  30.710  30.858  1.00  0.00     0.029 A 
ATOM     19  N   UNL A   1      41.478  29.234  30.839  1.00  0.00    -0.354 N 
ATOM     20  C   UNL A   1      41.231  25.599  28.521  1.00  0.00     0.074 A 
ATOM     21  C   UNL A   1      39.976  25.513  27.806  1.00  0.00     0.031 C 
ATOM     22  C   UNL A   1      40.781  31.213  31.619  1.00  0.00     0.029 A 
ATOM     23  C   UNL A   1      41.880  30.258  31.663  1.00  0.00     0.049 A 
ATOM     24  H   UNL A   1      42.031  28.440  30.657  1.00  0.00     0.167 HD
ATOM     25  C   UNL A   1      42.207  24.660  28.477  1.00  0.00     0.031 A 
ATOM     26  C   UNL A   1      42.999  30.406  32.395  1.00  0.00     0.031 A 
ATOM     27  C   UNL A   1      43.456  24.752  29.188  1.00  0.00     0.049 A 
ATOM     28  C   UNL A   1      44.039  29.327  32.355  1.00  0.00     0.074 A 
ATOM     29  C   UNL A   1      44.520  23.867  29.177  1.00  0.00     0.029 A 
ATOM     30  N   UNL A   1      43.807  25.785  30.045  1.00  0.00    -0.354 N 
ATOM     31  N   UNL A   1      44.056  28.221  31.651  1.00  0.00    -0.248 NA
ATOM     32  C   UNL A   1      45.216  29.516  33.213  1.00  0.00     0.031 C 
ATOM     33  C   UNL A   1      45.490  24.333  30.070  1.00  0.00     0.029 A 
ATOM     34  C   UNL A   1      45.056  25.541  30.590  1.00  0.00     0.049 A 
ATOM     35  H   UNL A   1      43.250  26.574  30.235  1.00  0.00     0.167 HD
ATOM     36  C   UNL A   1      45.252  27.594  31.967  1.00  0.00     0.074 A 
ATOM     37  C   UNL A   1      45.945  28.454  32.902  1.00  0.00     0.031 C 
ATOM     38  C   UNL A   1      45.731  26.406  31.522  1.00  0.00     0.031 A 
BRANCH  25  39
ATOM     39  C   UNL A   1      41.962  23.426  27.652  1.00  0.00    -0.014 A 
ATOM     40  C   UNL A   1      42.449  23.314  26.341  1.00  0.00     0.009 A 
ATOM     41  C   UNL A   1      41.306  22.325  28.229  1.00  0.00     0.009 A 
ATOM     42  C   UNL A   1      42.266  22.131  25.619  1.00  0.00     0.001 A 
ATOM     43  C   UNL A   1      41.148  21.136  27.514  1.00  0.00     0.001 A 
ATOM     44  C   UNL A   1      41.624  21.042  26.207  1.00  0.00     0.000 A 
ENDBRANCH  25  39
BRANCH  26  45
ATOM     45  C   UNL A   1      43.172  31.605  33.256  1.00  0.00    -0.014 A 
ATOM     46  C   UNL A   1      43.817  32.752  32.768  1.00  0.00     0.009 A 
ATOM     47  C   UNL A   1      42.704  31.600  34.580  1.00  0.00     0.009 A 
ATOM     48  C   UNL A   1      44.016  33.856  33.600  1.00  0.00     0.001 A 
ATOM     49  C   UNL A   1      42.873  32.719  35.397  1.00  0.00     0.001 A 
ATOM     50  C   UNL A   1      43.541  33.840  34.911  1.00  0.00     0.000 A 
ENDBRANCH  26  45
BRANCH  38  51
ATOM     51  C   UNL A   1      47.085  25.991  32.024  1.00  0.00    -0.014 A 
ATOM     52  C   UNL A   1      48.254  26.308  31.315  1.00  0.00     0.009 A 
ATOM     53  C   UNL A   1      47.191  25.289  33.235  1.00  0.00     0.009 A 
ATOM     54  C   UNL A   1      49.500  25.896  31.791  1.00  0.00     0.001 A 
ATOM     55  C   UNL A   1      48.440  24.907  33.724  1.00  0.00     0.001 A 
ATOM     56  C   UNL A   1      49.593  25.200  32.996  1.00  0.00     0.000 A 
ENDBRANCH  38  51
ENDBRANCH  12  13
ENDBRANCH   5   7
ENDBRANCH   2   3
ENDBRANCH   1   2
BRANCH   1  57
ATOM     57  C   UNL A   1      32.015  27.924  26.931  1.00  0.00     0.118 C 
BRANCH  57  58
ATOM     58  N   UNL A   1      31.284  26.665  26.955  1.00  0.00    -0.352 N 
ATOM     59  C   UNL A   1      30.639  25.978  25.957  1.00  0.00     0.252 C 
ATOM     60  H   UNL A   1      31.245  26.233  27.839  1.00  0.00     0.163 HD
ATOM     61  O   UNL A   1      30.023  24.954  26.230  1.00  0.00    -0.269 OA
BRANCH  59  62
ATOM     62  C   UNL A   1      30.711  26.452  24.559  1.00  0.00     0.052 A 
ATOM     63  C   UNL A   1      29.902  27.535  24.197  1.00  0.00     0.055 A 
ATOM     64  C   UNL A   1      31.616  25.896  23.638  1.00  0.00     0.013 A 
ATOM     65  C   UNL A   1      29.952  27.965  22.891  1.00  0.00     0.129 A 
ATOM     66  C   UNL A   1      31.577  26.440  22.352  1.00  0.00     0.122 A 
ATOM     67  Cl  UNL A   1      28.927  29.224  22.343  1.00  0.00    -0.062 Cl
ATOM     68  N   UNL A   1      30.756  27.441  21.953  1.00  0.00    -0.244 NA
BRANCH  64  69
ATOM     69  C   UNL A   1      32.579  24.826  23.939  1.00  0.00    -0.015 A 
ATOM     70  C   UNL A   1      33.904  25.145  24.280  1.00  0.00     0.009 A 
ATOM     71  C   UNL A   1      32.222  23.469  23.865  1.00  0.00     0.021 A 
ATOM     72  C   UNL A   1      34.846  24.147  24.534  1.00  0.00     0.001 A 
ATOM     73  C   UNL A   1      33.161  22.453  24.124  1.00  0.00     0.056 A 
ATOM     74  C   UNL A   1      34.477  22.808  24.454  1.00  0.00     0.013 A 
BRANCH  73  75
ATOM     75  C   UNL A   1      32.778  20.996  24.044  1.00  0.00     0.416 C 
ATOM     76  F   UNL A   1      33.841  20.170  24.253  1.00  0.00    -0.166 F 
ATOM     77  F   UNL A   1      31.844  20.644  24.969  1.00  0.00    -0.166 F 
ATOM     78  F   UNL A   1      32.260  20.636  22.835  1.00  0.00    -0.166 F 
ENDBRANCH  73  75
ENDBRANCH  64  69
ENDBRANCH  59  62
ENDBRANCH  57  58
ENDBRANCH   1  57
TORSDOF 12
ENDMDL
MODEL 2
REMARK VINA RESULT:     -11.6      0.253      5.963
REMARK SMILES O=C(NCCCNC(=O)c1cc(Cl)ncc1-c1cccc(C(F)(F)F)c1)c1ccc(-c2c3nc(c(-c4ccccc4)c4ccc([nH]4)c(-c4ccccc4)c4nc(c(-c5ccccc5)c5ccc2[nH]5)C=C4)C=C3)cc1
REMARK SMILES IDX 5 1 4 2 3 3 1 4 2 5 27 7 28 8 74 9 29 10 73 11 30 12 31 13
REMARK SMILES IDX 32 14 67 15 33 16 72 17 66 18 68 19 34 20 71 21 65 22 64 23
REMARK SMILES IDX 35 25 57 26 42 27 56 28 43 29 46 30 55 31 69 32 44 33 45 34
REMARK SMILES IDX 54 36 70 37 47 38 36 39 37 40 41 41 38 42 40 43 39 44 58 45
REMARK SMILES IDX 59 46 63 47 60 48 62 49 61 50 48 51 49 52 53 53 50 54 52 55
REMARK SMILES IDX 51 56 6 57 7 58 8 59 9 61 10 62 11 63 16 64 12 65 15 66
REMARK SMILES IDX 13 67 14 68 17 69 18 70 26 71 19 72 21 73 20 74 22 75 23 76
REMARK SMILES IDX 24 77 25 78
REMARK H PARENT 3 6 68 24 46 35 7 60
REMARK Flexibility Score: inf
ROOT
ATOM      1  C   UNL A   1      33.518  27.624  26.561  1.00  0.00     0.042 C 
ENDROOT
BRANCH   1   2
ATOM      2  C   UNL A   1      34.128  28.835  25.875  1.00  0.00     0.118 C 
BRANCH   2   3
ATOM      3  N   UNL A   1      33.800  30.094  26.534  1.00  0.00    -0.352 N 
ATOM      4  O   UNL A   1      33.907  31.735  28.072  1.00  0.00    -0.269 OA
ATOM      5  C   UNL A   1      34.442  30.759  27.552  1.00  0.00     0.251 C 
ATOM      6  H   UNL A   1      32.989  30.538  26.197  1.00  0.00     0.163 HD
BRANCH   5   7
ATOM      7  C   UNL A   1      35.759  30.297  28.039  1.00  0.00     0.039 A 
ATOM      8  C   UNL A   1      36.908  30.477  27.268  1.00  0.00     0.014 A 
ATOM      9  C   UNL A   1      35.854  29.700  29.300  1.00  0.00     0.014 A 
ATOM     10  C   UNL A   1      38.110  29.911  27.675  1.00  0.00     0.010 A 
ATOM     11  C   UNL A   1      37.088  29.230  29.759  1.00  0.00     0.010 A 
ATOM     12  C   UNL A   1      38.222  29.306  28.937  1.00  0.00    -0.014 A 
BRANCH  12  13
ATOM     13  C   UNL A   1      39.559  28.852  29.398  1.00  0.00     0.031 A 
ATOM     14  C   UNL A   1      40.371  29.661  30.371  1.00  0.00     0.074 A 
ATOM     15  C   UNL A   1      40.023  27.670  28.945  1.00  0.00     0.049 A 
ATOM     16  N   UNL A   1      41.543  29.383  30.888  1.00  0.00    -0.248 NA
ATOM     17  C   UNL A   1      39.808  30.943  30.820  1.00  0.00     0.031 C 
ATOM     18  C   UNL A   1      39.326  26.800  27.991  1.00  0.00     0.029 A 
ATOM     19  N   UNL A   1      41.172  26.984  29.238  1.00  0.00    -0.354 N 
ATOM     20  C   UNL A   1      41.865  30.460  31.705  1.00  0.00     0.074 A 
ATOM     21  C   UNL A   1      40.776  31.407  31.601  1.00  0.00     0.031 C 
ATOM     22  C   UNL A   1      40.035  25.676  27.821  1.00  0.00     0.029 A 
ATOM     23  C   UNL A   1      41.268  25.776  28.590  1.00  0.00     0.049 A 
ATOM     24  H   UNL A   1      41.862  27.323  29.852  1.00  0.00     0.167 HD
ATOM     25  C   UNL A   1      42.967  30.637  32.472  1.00  0.00     0.031 A 
ATOM     26  C   UNL A   1      42.250  24.856  28.591  1.00  0.00     0.031 A 
ATOM     27  C   UNL A   1      44.047  29.690  32.575  1.00  0.00     0.049 A 
ATOM     28  C   UNL A   1      43.475  25.105  29.420  1.00  0.00     0.074 A 
ATOM     29  C   UNL A   1      45.189  29.767  33.355  1.00  0.00     0.029 A 
ATOM     30  N   UNL A   1      44.126  28.498  31.870  1.00  0.00    -0.354 N 
ATOM     31  N   UNL A   1      43.740  26.109  30.221  1.00  0.00    -0.248 NA
ATOM     32  C   UNL A   1      44.537  24.093  29.344  1.00  0.00     0.031 C 
ATOM     33  C   UNL A   1      45.985  28.651  33.079  1.00  0.00     0.029 A 
ATOM     34  C   UNL A   1      45.311  27.848  32.174  1.00  0.00     0.049 A 
ATOM     35  H   UNL A   1      43.441  28.164  31.248  1.00  0.00     0.167 HD
ATOM     36  C   UNL A   1      44.990  25.839  30.758  1.00  0.00     0.074 A 
ATOM     37  C   UNL A   1      45.417  24.567  30.215  1.00  0.00     0.031 C 
ATOM     38  C   UNL A   1      45.722  26.584  31.623  1.00  0.00     0.031 A 
BRANCH  25  39
ATOM     39  C   UNL A   1      43.086  31.919  33.251  1.00  0.00    -0.014 A 
ATOM     40  C   UNL A   1      43.667  33.065  32.688  1.00  0.00     0.009 A 
ATOM     41  C   UNL A   1      42.529  32.003  34.538  1.00  0.00     0.009 A 
ATOM     42  C   UNL A   1      43.705  34.264  33.407  1.00  0.00     0.001 A 
ATOM     43  C   UNL A   1      42.546  33.208  35.244  1.00  0.00     0.001 A 
ATOM     44  C   UNL A   1      43.139  34.336  34.679  1.00  0.00     0.000 A 
ENDBRANCH  25  39
BRANCH  26  45
ATOM     45  C   UNL A   1      42.129  23.636  27.752  1.00  0.00    -0.014 A 
ATOM     46  C   UNL A   1      42.592  23.626  26.428  1.00  0.00     0.009 A 
ATOM     47  C   UNL A   1      41.532  22.476  28.272  1.00  0.00     0.009 A 
ATOM     48  C   UNL A   1      42.431  22.489  25.633  1.00  0.00     0.001 A 
ATOM     49  C   UNL A   1      41.406  21.329  27.486  1.00  0.00     0.001 A 
ATOM     50  C   UNL A   1      41.842  21.341  26.164  1.00  0.00     0.000 A 
ENDBRANCH  26  45
BRANCH  38  51
ATOM     51  C   UNL A   1      47.044  26.017  32.055  1.00  0.00    -0.014 A 
ATOM     52  C   UNL A   1      47.156  25.224  33.208  1.00  0.00     0.009 A 
ATOM     53  C   UNL A   1      48.191  26.266  31.284  1.00  0.00     0.009 A 
ATOM     54  C   UNL A   1      48.399  24.723  33.600  1.00  0.00     0.001 A 
ATOM     55  C   UNL A   1      49.426  25.737  31.662  1.00  0.00     0.001 A 
ATOM     56  C   UNL A   1      49.531  24.976  32.825  1.00  0.00     0.000 A 
ENDBRANCH  38  51
ENDBRANCH  12  13
ENDBRANCH   5   7
ENDBRANCH   2   3
ENDBRANCH   1   2
BRANCH   1  57
ATOM     57  C   UNL A   1      32.058  27.797  26.952  1.00  0.00     0.118 C 
BRANCH  57  58
ATOM     58  N   UNL A   1      31.328  26.537  26.969  1.00  0.00    -0.352 N 
ATOM     59  C   UNL A   1      30.681  25.857  25.968  1.00  0.00     0.252 C 
ATOM     60  H   UNL A   1      31.292  26.098  27.850  1.00  0.00     0.163 HD
ATOM     61  O   UNL A   1      30.066  24.831  26.235  1.00  0.00    -0.269 OA
BRANCH  59  62
ATOM     62  C   UNL A   1      30.749  26.342  24.573  1.00  0.00     0.052 A 
ATOM     63  C   UNL A   1      29.946  27.435  24.225  1.00  0.00     0.055 A 
ATOM     64  C   UNL A   1      31.643  25.787  23.642  1.00  0.00     0.013 A 
ATOM     65  C   UNL A   1      29.991  27.875  22.922  1.00  0.00     0.129 A 
ATOM     66  C   UNL A   1      31.601  26.342  22.361  1.00  0.00     0.122 A 
ATOM     67  Cl  UNL A   1      28.973  29.147  22.391  1.00  0.00    -0.062 Cl
ATOM     68  N   UNL A   1      30.786  27.352  21.975  1.00  0.00    -0.244 NA
BRANCH  64  69
ATOM     69  C   UNL A   1      32.599  24.706  23.929  1.00  0.00    -0.015 A 
ATOM     70  C   UNL A   1      33.932  25.012  24.253  1.00  0.00     0.009 A 
ATOM     71  C   UNL A   1      32.228  23.353  23.857  1.00  0.00     0.021 A 
ATOM     72  C   UNL A   1      34.867  24.004  24.493  1.00  0.00     0.001 A 
ATOM     73  C   UNL A   1      33.160  22.327  24.101  1.00  0.00     0.056 A 
ATOM     74  C   UNL A   1      34.484  22.669  24.415  1.00  0.00     0.013 A 
BRANCH  73  75
ATOM     75  C   UNL A   1      32.762  20.874  24.023  1.00  0.00     0.416 C 
ATOM     76  F   UNL A   1      31.827  20.542  24.956  1.00  0.00    -0.166 F 
ATOM     77  F   UNL A   1      32.224  20.539  22.818  1.00  0.00    -0.166 F 
ATOM     78  F   UNL A   1      33.803  20.015  24.218  1.00  0.00    -0.166 F 
ENDBRANCH  73  75
ENDBRANCH  64  69
ENDBRANCH  59  62
ENDBRANCH  57  58
ENDBRANCH   1  57
TORSDOF 12
ENDMDL
MODEL 3
REMARK VINA RESULT:     -11.5      3.280      7.595
REMARK SMILES O=C(NCCCNC(=O)c1cc(Cl)ncc1-c1cccc(C(F)(F)F)c1)c1ccc(-c2c3nc(c(-c4ccccc4)c4ccc([nH]4)c(-c4ccccc4)c4nc(c(-c5ccccc5)c5ccc2[nH]5)C=C4)C=C3)cc1
REMARK SMILES IDX 5 1 4 2 3 3 1 4 2 5 27 7 28 8 74 9 29 10 73 11 30 12 31 13
REMARK SMILES IDX 32 14 67 15 33 16 72 17 66 18 68 19 34 20 71 21 65 22 64 23
REMARK SMILES IDX 35 25 57 26 42 27 56 28 43 29 46 30 55 31 69 32 44 33 45 34
REMARK SMILES IDX 54 36 70 37 47 38 36 39 37 40 41 41 38 42 40 43 39 44 58 45
REMARK SMILES IDX 59 46 63 47 60 48 62 49 61 50 48 51 49 52 53 53 50 54 52 55
REMARK SMILES IDX 51 56 6 57 7 58 8 59 9 61 10 62 11 63 16 64 12 65 15 66
REMARK SMILES IDX 13 67 14 68 17 69 18 70 26 71 19 72 21 73 20 74 22 75 23 76
REMARK SMILES IDX 24 77 25 78
REMARK H PARENT 3 6 68 24 46 35 7 60
REMARK Flexibility Score: inf
ROOT
ATOM      1  C   UNL A   1      31.551  30.965  25.792  1.00  0.00     0.042 C 
ENDROOT
BRANCH   1   2
ATOM      2  C   UNL A   1      32.251  31.390  27.072  1.00  0.00     0.118 C 
BRANCH   2   3
ATOM      3  N   UNL A   1      32.183  32.826  27.312  1.00  0.00    -0.352 N 
ATOM      4  O   UNL A   1      32.703  34.818  28.226  1.00  0.00    -0.269 OA
ATOM      5  C   UNL A   1      33.031  33.654  28.009  1.00  0.00     0.251 C 
ATOM      6  H   UNL A   1      31.404  33.276  26.912  1.00  0.00     0.163 HD
BRANCH   5   7
ATOM      7  C   UNL A   1      34.324  33.149  28.518  1.00  0.00     0.039 A 
ATOM      8  C   UNL A   1      34.376  32.319  29.638  1.00  0.00     0.014 A 
ATOM      9  C   UNL A   1      35.504  33.487  27.847  1.00  0.00     0.014 A 
ATOM     10  C   UNL A   1      35.605  31.972  30.186  1.00  0.00     0.010 A 
ATOM     11  C   UNL A   1      36.737  33.042  28.336  1.00  0.00     0.010 A 
ATOM     12  C   UNL A   1      36.799  32.305  29.527  1.00  0.00    -0.014 A 
BRANCH  12  13
ATOM     13  C   UNL A   1      38.082  31.782  30.063  1.00  0.00     0.031 A 
ATOM     14  C   UNL A   1      38.804  32.472  31.186  1.00  0.00     0.074 A 
ATOM     15  C   UNL A   1      38.578  30.645  29.535  1.00  0.00     0.049 A 
ATOM     16  N   UNL A   1      39.919  32.122  31.780  1.00  0.00    -0.248 NA
ATOM     17  C   UNL A   1      38.210  33.711  31.711  1.00  0.00     0.031 C 
ATOM     18  C   UNL A   1      37.969  29.890  28.434  1.00  0.00     0.029 A 
ATOM     19  N   UNL A   1      39.688  29.912  29.862  1.00  0.00    -0.354 N 
ATOM     20  C   UNL A   1      40.170  33.103  32.731  1.00  0.00     0.074 A 
ATOM     21  C   UNL A   1      39.103  34.075  32.624  1.00  0.00     0.031 C 
ATOM     22  C   UNL A   1      38.682  28.777  28.216  1.00  0.00     0.029 A 
ATOM     23  C   UNL A   1      39.836  28.775  29.104  1.00  0.00     0.049 A 
ATOM     24  H   UNL A   1      40.319  30.174  30.571  1.00  0.00     0.167 HD
ATOM     25  C   UNL A   1      41.195  33.181  33.613  1.00  0.00     0.031 A 
ATOM     26  C   UNL A   1      40.806  27.843  29.102  1.00  0.00     0.031 A 
ATOM     27  C   UNL A   1      42.253  32.210  33.718  1.00  0.00     0.049 A 
ATOM     28  C   UNL A   1      41.948  27.984  30.064  1.00  0.00     0.074 A 
ATOM     29  C   UNL A   1      43.315  32.186  34.605  1.00  0.00     0.029 A 
ATOM     30  N   UNL A   1      42.389  31.095  32.904  1.00  0.00    -0.354 N 
ATOM     31  N   UNL A   1      42.144  28.895  30.986  1.00  0.00    -0.248 NA
ATOM     32  C   UNL A   1      43.005  26.966  29.984  1.00  0.00     0.031 C 
ATOM     33  C   UNL A   1      44.126  31.091  34.291  1.00  0.00     0.029 A 
ATOM     34  C   UNL A   1      43.534  30.397  33.249  1.00  0.00     0.049 A 
ATOM     35  H   UNL A   1      41.764  30.839  32.188  1.00  0.00     0.167 HD
ATOM     36  C   UNL A   1      43.335  28.550  31.608  1.00  0.00     0.074 A 
ATOM     37  C   UNL A   1      43.801  27.332  30.978  1.00  0.00     0.031 C 
ATOM     38  C   UNL A   1      43.986  29.188  32.610  1.00  0.00     0.031 A 
BRANCH  25  39
ATOM     39  C   UNL A   1      41.249  34.375  34.528  1.00  0.00    -0.014 A 
ATOM     40  C   UNL A   1      41.912  35.553  34.155  1.00  0.00     0.009 A 
ATOM     41  C   UNL A   1      40.551  34.346  35.747  1.00  0.00     0.009 A 
ATOM     42  C   UNL A   1      41.891  36.671  34.994  1.00  0.00     0.001 A 
ATOM     43  C   UNL A   1      40.511  35.472  36.571  1.00  0.00     0.001 A 
ATOM     44  C   UNL A   1      41.186  36.633  36.195  1.00  0.00     0.000 A 
ENDBRANCH  25  39
BRANCH  26  45
ATOM     45  C   UNL A   1      40.756  26.718  28.133  1.00  0.00    -0.014 A 
ATOM     46  C   UNL A   1      40.154  25.499  28.477  1.00  0.00     0.009 A 
ATOM     47  C   UNL A   1      41.330  26.856  26.858  1.00  0.00     0.009 A 
ATOM     48  C   UNL A   1      40.154  24.433  27.575  1.00  0.00     0.001 A 
ATOM     49  C   UNL A   1      41.296  25.800  25.946  1.00  0.00     0.001 A 
ATOM     50  C   UNL A   1      40.721  24.585  26.310  1.00  0.00     0.000 A 
ENDBRANCH  26  45
BRANCH  38  51
ATOM     51  C   UNL A   1      45.257  28.557  33.104  1.00  0.00    -0.014 A 
ATOM     52  C   UNL A   1      45.242  27.583  34.115  1.00  0.00     0.009 A 
ATOM     53  C   UNL A   1      46.484  28.929  32.533  1.00  0.00     0.009 A 
ATOM     54  C   UNL A   1      46.437  27.023  34.571  1.00  0.00     0.001 A 
ATOM     55  C   UNL A   1      47.673  28.344  32.969  1.00  0.00     0.001 A 
ATOM     56  C   UNL A   1      47.650  27.401  33.995  1.00  0.00     0.000 A 
ENDBRANCH  38  51
ENDBRANCH  12  13
ENDBRANCH   5   7
ENDBRANCH   2   3
ENDBRANCH   1   2
BRANCH   1  57
ATOM     57  C   UNL A   1      31.930  29.575  25.305  1.00  0.00     0.118 C 
BRANCH  57  58
ATOM     58  N   UNL A   1      31.434  28.519  26.177  1.00  0.00    -0.352 N 
ATOM     59  C   UNL A   1      31.242  27.179  25.949  1.00  0.00     0.252 C 
ATOM     60  H   UNL A   1      31.196  28.817  27.084  1.00  0.00     0.163 HD
ATOM     61  O   UNL A   1      30.741  26.484  26.826  1.00  0.00    -0.269 OA
BRANCH  59  62
ATOM     62  C   UNL A   1      31.661  26.572  24.668  1.00  0.00     0.052 A 
ATOM     63  C   UNL A   1      32.828  25.799  24.666  1.00  0.00     0.055 A 
ATOM     64  C   UNL A   1      30.880  26.691  23.506  1.00  0.00     0.013 A 
ATOM     65  C   UNL A   1      33.232  25.250  23.471  1.00  0.00     0.129 A 
ATOM     66  C   UNL A   1      31.396  26.068  22.367  1.00  0.00     0.122 A 
ATOM     67  Cl  UNL A   1      34.697  24.368  23.362  1.00  0.00    -0.062 Cl
ATOM     68  N   UNL A   1      32.557  25.373  22.316  1.00  0.00    -0.244 NA
BRANCH  64  69
ATOM     69  C   UNL A   1      29.591  27.394  23.421  1.00  0.00    -0.015 A 
ATOM     70  C   UNL A   1      28.413  26.758  23.848  1.00  0.00     0.009 A 
ATOM     71  C   UNL A   1      29.489  28.691  22.889  1.00  0.00     0.021 A 
ATOM     72  C   UNL A   1      27.172  27.389  23.744  1.00  0.00     0.001 A 
ATOM     73  C   UNL A   1      28.245  29.340  22.783  1.00  0.00     0.056 A 
ATOM     74  C   UNL A   1      27.088  28.672  23.212  1.00  0.00     0.013 A 
BRANCH  73  75
ATOM     75  C   UNL A   1      28.135  30.731  22.211  1.00  0.00     0.416 C 
ATOM     76  F   UNL A   1      27.313  31.530  22.946  1.00  0.00    -0.166 F 
ATOM     77  F   UNL A   1      29.333  31.375  22.158  1.00  0.00    -0.166 F 
ATOM     78  F   UNL A   1      27.641  30.759  20.941  1.00  0.00    -0.166 F 
ENDBRANCH  73  75
ENDBRANCH  64  69
ENDBRANCH  59  62
ENDBRANCH  57  58
ENDBRANCH   1  57
TORSDOF 12
ENDMDL
