MODEL 1
REMARK VINA RESULT:     -10.6      0.000      0.000
REMARK SMILES CCC[C@H]1CC[C@H](C(=O)NCCCNC(=O)c2ccc(-c3c4nc(c(-c5ccccc5)c5ccc([nH]5)c(-c5ccccc5)c5nc(c(-c6ccccc6)c6ccc3[nH]6)C=C5)C=C4)cc2)[C@H](Sc2ccncc2)C1
REMARK SMILES IDX 12 1 11 2 10 3 8 4 9 5 7 7 4 8 5 9 73 10 6 11 65 12 3 13
REMARK SMILES IDX 2 14 1 15 66 16 67 17 68 18 72 19 69 20 71 21 70 22 13 23
REMARK SMILES IDX 14 24 15 25 16 27 17 28 18 29 64 30 19 31 63 32 20 33 21 34
REMARK SMILES IDX 22 35 57 36 23 37 62 38 56 39 58 40 24 41 61 42 55 43 54 44
REMARK SMILES IDX 25 46 47 47 32 48 46 49 33 50 36 51 45 52 59 53 34 54 35 55
REMARK SMILES IDX 44 57 60 58 37 59 26 60 27 61 31 62 28 63 30 64 29 65 48 66
REMARK SMILES IDX 49 67 53 68 50 69 52 70 51 71 38 72 39 73 43 74 40 75 42 76
REMARK SMILES IDX 41 77
REMARK H PARENT 10 6 14 26 58 45 36 56
REMARK Flexibility Score: inf
ROOT
ATOM      1  C   UNL A   1      33.397  27.822  26.967  1.00  0.00     0.042 C 
ENDROOT
BRANCH   1   2
ATOM      2  C   UNL A   1      32.064  27.430  26.358  1.00  0.00     0.117 C 
BRANCH   2   3
ATOM      3  N   UNL A   1      31.615  26.156  26.858  1.00  0.00    -0.356 N 
ATOM      4  C   UNL A   1      31.961  24.883  26.565  1.00  0.00     0.224 C 
ATOM      5  O   UNL A   1      31.355  24.012  27.207  1.00  0.00    -0.275 OA
ATOM      6  H   UNL A   1      30.919  26.226  27.551  1.00  0.00     0.163 HD
BRANCH   4   7
ATOM      7  C   UNL A   1      32.949  24.441  25.483  1.00  0.00     0.092 C 
ATOM      8  C   UNL A   1      34.314  21.719  25.662  1.00  0.00    -0.010 C 
ATOM      9  C   UNL A   1      34.562  22.857  26.649  1.00  0.00     0.004 C 
ATOM     10  C   UNL A   1      33.099  21.916  24.712  1.00  0.00     0.019 C 
ATOM     11  C   UNL A   1      34.338  24.254  26.101  1.00  0.00     0.015 C 
ATOM     12  C   UNL A   1      32.672  23.367  24.419  1.00  0.00     0.064 C 
BRANCH   8  13
ATOM     13  C   UNL A   1      35.597  21.224  24.950  1.00  0.00     0.003 C 
BRANCH  13  14
ATOM     14  C   UNL A   1      36.688  22.235  24.576  1.00  0.00    -0.003 C 
ATOM     15  C   UNL A   1      36.492  22.926  23.227  1.00  0.00     0.004 C 
ENDBRANCH  13  14
ENDBRANCH   8  13
BRANCH  12  16
ATOM     16  S   UNL A   1      31.115  23.449  23.393  1.00  0.00    -0.122 SA
BRANCH  16  17
ATOM     17  C   UNL A   1      30.741  25.175  23.175  1.00  0.00     0.011 A 
ATOM     18  C   UNL A   1      29.661  25.751  23.841  1.00  0.00     0.035 A 
ATOM     19  C   UNL A   1      31.592  26.006  22.448  1.00  0.00     0.035 A 
ATOM     20  C   UNL A   1      29.389  27.093  23.636  1.00  0.00     0.112 A 
ATOM     21  C   UNL A   1      31.264  27.350  22.336  1.00  0.00     0.112 A 
ATOM     22  N   UNL A   1      30.160  27.903  22.880  1.00  0.00    -0.265 NA
ENDBRANCH  16  17
ENDBRANCH  12  16
ENDBRANCH   4   7
ENDBRANCH   2   3
ENDBRANCH   1   2
BRANCH   1  23
ATOM     23  C   UNL A   1      34.096  28.889  26.163  1.00  0.00     0.118 C 
BRANCH  23  24
ATOM     24  N   UNL A   1      33.805  30.223  26.667  1.00  0.00    -0.352 N 
ATOM     25  C   UNL A   1      34.443  30.936  27.655  1.00  0.00     0.251 C 
ATOM     26  H   UNL A   1      33.044  30.679  26.241  1.00  0.00     0.163 HD
ATOM     27  O   UNL A   1      33.925  31.941  28.121  1.00  0.00    -0.269 OA
BRANCH  25  28
ATOM     28  C   UNL A   1      35.749  30.460  28.161  1.00  0.00     0.039 A 
ATOM     29  C   UNL A   1      35.801  29.737  29.354  1.00  0.00     0.014 A 
ATOM     30  C   UNL A   1      36.920  30.713  27.445  1.00  0.00     0.014 A 
ATOM     31  C   UNL A   1      37.024  29.229  29.794  1.00  0.00     0.010 A 
ATOM     32  C   UNL A   1      38.098  30.078  27.799  1.00  0.00     0.010 A 
ATOM     33  C   UNL A   1      38.176  29.369  29.002  1.00  0.00    -0.014 A 
BRANCH  33  34
ATOM     34  C   UNL A   1      39.493  28.850  29.440  1.00  0.00     0.031 A 
ATOM     35  C   UNL A   1      40.333  29.666  30.391  1.00  0.00     0.074 A 
ATOM     36  C   UNL A   1      39.954  27.684  28.948  1.00  0.00     0.049 A 
ATOM     37  N   UNL A   1      41.530  29.419  30.855  1.00  0.00    -0.248 NA
ATOM     38  C   UNL A   1      39.771  30.950  30.849  1.00  0.00     0.031 C 
ATOM     39  C   UNL A   1      39.257  26.834  27.981  1.00  0.00     0.029 A 
ATOM     40  N   UNL A   1      41.122  27.012  29.199  1.00  0.00    -0.354 N 
ATOM     41  C   UNL A   1      41.866  30.523  31.631  1.00  0.00     0.074 A 
ATOM     42  C   UNL A   1      40.788  31.474  31.512  1.00  0.00     0.031 C 
ATOM     43  C   UNL A   1      39.987  25.728  27.761  1.00  0.00     0.029 A 
ATOM     44  C   UNL A   1      41.222  25.815  28.532  1.00  0.00     0.049 A 
ATOM     45  H   UNL A   1      41.824  27.354  29.800  1.00  0.00     0.167 HD
ATOM     46  C   UNL A   1      42.959  30.716  32.405  1.00  0.00     0.031 A 
ATOM     47  C   UNL A   1      42.201  24.892  28.546  1.00  0.00     0.031 A 
ATOM     48  C   UNL A   1      44.017  29.753  32.541  1.00  0.00     0.049 A 
ATOM     49  C   UNL A   1      43.408  25.128  29.411  1.00  0.00     0.074 A 
ATOM     50  C   UNL A   1      45.141  29.815  33.344  1.00  0.00     0.029 A 
ATOM     51  N   UNL A   1      44.075  28.550  31.855  1.00  0.00    -0.354 N 
ATOM     52  N   UNL A   1      43.676  26.144  30.197  1.00  0.00    -0.248 NA
ATOM     53  C   UNL A   1      44.441  24.085  29.400  1.00  0.00     0.031 C 
ATOM     54  C   UNL A   1      45.909  28.674  33.099  1.00  0.00     0.029 A 
ATOM     55  C   UNL A   1      45.230  27.871  32.196  1.00  0.00     0.049 A 
ATOM     56  H   UNL A   1      43.395  28.228  31.219  1.00  0.00     0.167 HD
ATOM     57  C   UNL A   1      44.893  25.846  30.798  1.00  0.00     0.074 A 
ATOM     58  C   UNL A   1      45.298  24.549  30.298  1.00  0.00     0.031 C 
ATOM     59  C   UNL A   1      45.610  26.579  31.684  1.00  0.00     0.031 A 
BRANCH  46  60
ATOM     60  C   UNL A   1      43.056  32.015  33.159  1.00  0.00    -0.014 A 
ATOM     61  C   UNL A   1      43.683  33.141  32.598  1.00  0.00     0.009 A 
ATOM     62  C   UNL A   1      42.502  32.119  34.444  1.00  0.00     0.009 A 
ATOM     63  C   UNL A   1      43.791  34.328  33.325  1.00  0.00     0.001 A 
ATOM     64  C   UNL A   1      42.580  33.319  35.154  1.00  0.00     0.001 A 
ATOM     65  C   UNL A   1      43.235  34.417  34.600  1.00  0.00     0.000 A 
ENDBRANCH  46  60
BRANCH  47  66
ATOM     66  C   UNL A   1      42.068  23.650  27.739  1.00  0.00    -0.014 A 
ATOM     67  C   UNL A   1      42.544  23.603  26.419  1.00  0.00     0.009 A 
ATOM     68  C   UNL A   1      41.463  22.505  28.280  1.00  0.00     0.009 A 
ATOM     69  C   UNL A   1      42.391  22.447  25.650  1.00  0.00     0.001 A 
ATOM     70  C   UNL A   1      41.340  21.340  27.520  1.00  0.00     0.001 A 
ATOM     71  C   UNL A   1      41.794  21.315  26.202  1.00  0.00     0.000 A 
ENDBRANCH  47  66
BRANCH  59  72
ATOM     72  C   UNL A   1      46.886  25.976  32.200  1.00  0.00    -0.014 A 
ATOM     73  C   UNL A   1      46.906  25.179  33.354  1.00  0.00     0.009 A 
ATOM     74  C   UNL A   1      48.079  26.172  31.485  1.00  0.00     0.009 A 
ATOM     75  C   UNL A   1      48.104  24.622  33.803  1.00  0.00     0.001 A 
ATOM     76  C   UNL A   1      49.267  25.584  31.918  1.00  0.00     0.001 A 
ATOM     77  C   UNL A   1      49.281  24.818  33.082  1.00  0.00     0.000 A 
ENDBRANCH  59  72
ENDBRANCH  33  34
ENDBRANCH  25  28
ENDBRANCH  23  24
ENDBRANCH   1  23
TORSDOF 14
ENDMDL
MODEL 2
REMARK VINA RESULT:     -10.6      0.918      1.648
REMARK SMILES CCC[C@H]1CC[C@H](C(=O)NCCCNC(=O)c2ccc(-c3c4nc(c(-c5ccccc5)c5ccc([nH]5)c(-c5ccccc5)c5nc(c(-c6ccccc6)c6ccc3[nH]6)C=C5)C=C4)cc2)[C@H](Sc2ccncc2)C1
REMARK SMILES IDX 12 1 11 2 10 3 8 4 9 5 7 7 4 8 5 9 73 10 6 11 65 12 3 13
REMARK SMILES IDX 2 14 1 15 66 16 67 17 68 18 72 19 69 20 71 21 70 22 13 23
REMARK SMILES IDX 14 24 15 25 16 27 17 28 18 29 64 30 19 31 63 32 20 33 21 34
REMARK SMILES IDX 22 35 57 36 23 37 62 38 56 39 58 40 24 41 61 42 55 43 54 44
REMARK SMILES IDX 25 46 47 47 32 48 46 49 33 50 36 51 45 52 59 53 34 54 35 55
REMARK SMILES IDX 44 57 60 58 37 59 26 60 27 61 31 62 28 63 30 64 29 65 48 66
REMARK SMILES IDX 49 67 53 68 50 69 52 70 51 71 38 72 39 73 43 74 40 75 42 76
REMARK SMILES IDX 41 77
REMARK H PARENT 10 6 14 26 58 45 36 56
REMARK Flexibility Score: inf
ROOT
ATOM      1  C   UNL A   1      32.232  28.135  27.320  1.00  0.00     0.042 C 
ENDROOT
BRANCH   1   2
ATOM      2  C   UNL A   1      32.087  27.063  26.258  1.00  0.00     0.117 C 
BRANCH   2   3
ATOM      3  N   UNL A   1      31.710  25.799  26.839  1.00  0.00    -0.356 N 
ATOM      4  C   UNL A   1      32.114  24.530  26.612  1.00  0.00     0.224 C 
ATOM      5  O   UNL A   1      31.563  23.669  27.313  1.00  0.00    -0.275 OA
ATOM      6  H   UNL A   1      31.022  25.875  27.539  1.00  0.00     0.163 HD
BRANCH   4   7
ATOM      7  C   UNL A   1      33.106  24.075  25.539  1.00  0.00     0.092 C 
ATOM      8  C   UNL A   1      34.385  21.310  25.696  1.00  0.00    -0.010 C 
ATOM      9  C   UNL A   1      34.651  22.424  26.705  1.00  0.00     0.004 C 
ATOM     10  C   UNL A   1      33.192  21.559  24.730  1.00  0.00     0.019 C 
ATOM     11  C   UNL A   1      34.478  23.837  26.176  1.00  0.00     0.015 C 
ATOM     12  C   UNL A   1      32.814  23.027  24.453  1.00  0.00     0.064 C 
BRANCH   8  13
ATOM     13  C   UNL A   1      35.665  20.788  24.996  1.00  0.00     0.003 C 
BRANCH  13  14
ATOM     14  C   UNL A   1      36.800  21.768  24.675  1.00  0.00    -0.003 C 
ATOM     15  C   UNL A   1      36.578  22.626  23.431  1.00  0.00     0.004 C 
ENDBRANCH  13  14
ENDBRANCH   8  13
BRANCH  12  16
ATOM     16  S   UNL A   1      31.278  23.172  23.404  1.00  0.00    -0.122 SA
BRANCH  16  17
ATOM     17  C   UNL A   1      30.938  24.911  23.240  1.00  0.00     0.011 A 
ATOM     18  C   UNL A   1      31.758  25.717  22.452  1.00  0.00     0.035 A 
ATOM     19  C   UNL A   1      29.782  25.470  23.781  1.00  0.00     0.035 A 
ATOM     20  C   UNL A   1      31.474  27.069  22.360  1.00  0.00     0.112 A 
ATOM     21  C   UNL A   1      29.556  26.826  23.597  1.00  0.00     0.112 A 
ATOM     22  N   UNL A   1      30.397  27.646  22.933  1.00  0.00    -0.265 NA
ENDBRANCH  16  17
ENDBRANCH  12  16
ENDBRANCH   4   7
ENDBRANCH   2   3
ENDBRANCH   1   2
BRANCH   1  23
ATOM     23  C   UNL A   1      33.614  28.740  27.331  1.00  0.00     0.118 C 
BRANCH  23  24
ATOM     24  N   UNL A   1      33.586  30.144  27.714  1.00  0.00    -0.352 N 
ATOM     25  C   UNL A   1      34.540  30.883  28.372  1.00  0.00     0.251 C 
ATOM     26  H   UNL A   1      32.768  30.633  27.466  1.00  0.00     0.163 HD
ATOM     27  O   UNL A   1      34.261  31.984  28.827  1.00  0.00    -0.269 OA
BRANCH  25  28
ATOM     28  C   UNL A   1      35.899  30.323  28.542  1.00  0.00     0.039 A 
ATOM     29  C   UNL A   1      36.823  30.433  27.502  1.00  0.00     0.014 A 
ATOM     30  C   UNL A   1      36.264  29.706  29.741  1.00  0.00     0.014 A 
ATOM     31  C   UNL A   1      38.124  29.966  27.690  1.00  0.00     0.010 A 
ATOM     32  C   UNL A   1      37.590  29.390  29.979  1.00  0.00     0.010 A 
ATOM     33  C   UNL A   1      38.525  29.471  28.942  1.00  0.00    -0.014 A 
BRANCH  33  34
ATOM     34  C   UNL A   1      39.897  28.959  29.177  1.00  0.00     0.031 A 
ATOM     35  C   UNL A   1      40.915  29.848  29.845  1.00  0.00     0.074 A 
ATOM     36  C   UNL A   1      40.238  27.730  28.745  1.00  0.00     0.049 A 
ATOM     37  N   UNL A   1      42.177  29.613  30.097  1.00  0.00    -0.248 NA
ATOM     38  C   UNL A   1      40.469  31.194  30.248  1.00  0.00     0.031 C 
ATOM     39  C   UNL A   1      39.356  26.801  28.038  1.00  0.00     0.029 A 
ATOM     40  N   UNL A   1      41.424  27.050  28.845  1.00  0.00    -0.354 N 
ATOM     41  C   UNL A   1      42.671  30.786  30.659  1.00  0.00     0.074 A 
ATOM     42  C   UNL A   1      41.602  31.754  30.638  1.00  0.00     0.031 C 
ATOM     43  C   UNL A   1      40.015  25.653  27.813  1.00  0.00     0.029 A 
ATOM     44  C   UNL A   1      41.378  25.783  28.317  1.00  0.00     0.049 A 
ATOM     45  H   UNL A   1      42.234  27.434  29.255  1.00  0.00     0.167 HD
ATOM     46  C   UNL A   1      43.896  31.026  31.180  1.00  0.00     0.031 A 
ATOM     47  C   UNL A   1      42.329  24.833  28.251  1.00  0.00     0.031 A 
ATOM     48  C   UNL A   1      44.948  30.049  31.223  1.00  0.00     0.049 A 
ATOM     49  C   UNL A   1      43.684  25.124  28.834  1.00  0.00     0.074 A 
ATOM     50  C   UNL A   1      46.208  30.162  31.782  1.00  0.00     0.029 A 
ATOM     51  N   UNL A   1      44.856  28.775  30.685  1.00  0.00    -0.354 N 
ATOM     52  N   UNL A   1      44.113  26.212  29.429  1.00  0.00    -0.248 NA
ATOM     53  C   UNL A   1      44.683  24.050  28.748  1.00  0.00     0.031 C 
ATOM     54  C   UNL A   1      46.900  28.975  31.530  1.00  0.00     0.029 A 
ATOM     55  C   UNL A   1      46.048  28.099  30.875  1.00  0.00     0.049 A 
ATOM     56  H   UNL A   1      44.062  28.407  30.234  1.00  0.00     0.167 HD
ATOM     57  C   UNL A   1      45.420  25.942  29.816  1.00  0.00     0.074 A 
ATOM     58  C   UNL A   1      45.705  24.583  29.404  1.00  0.00     0.031 C 
ATOM     59  C   UNL A   1      46.305  26.745  30.456  1.00  0.00     0.031 A 
BRANCH  46  60
ATOM     60  C   UNL A   1      44.153  32.398  31.743  1.00  0.00    -0.014 A 
ATOM     61  C   UNL A   1      43.886  32.698  33.090  1.00  0.00     0.009 A 
ATOM     62  C   UNL A   1      44.683  33.403  30.919  1.00  0.00     0.009 A 
ATOM     63  C   UNL A   1      44.101  33.986  33.587  1.00  0.00     0.001 A 
ATOM     64  C   UNL A   1      44.931  34.679  31.427  1.00  0.00     0.001 A 
ATOM     65  C   UNL A   1      44.629  34.973  32.756  1.00  0.00     0.000 A 
ENDBRANCH  46  60
BRANCH  47  66
ATOM     66  C   UNL A   1      42.027  23.514  27.636  1.00  0.00    -0.014 A 
ATOM     67  C   UNL A   1      41.430  22.494  28.394  1.00  0.00     0.009 A 
ATOM     68  C   UNL A   1      42.333  23.264  26.290  1.00  0.00     0.009 A 
ATOM     69  C   UNL A   1      41.175  21.243  27.826  1.00  0.00     0.001 A 
ATOM     70  C   UNL A   1      42.048  22.023  25.715  1.00  0.00     0.001 A 
ATOM     71  C   UNL A   1      41.479  21.010  26.486  1.00  0.00     0.000 A 
ENDBRANCH  47  66
BRANCH  59  72
ATOM     72  C   UNL A   1      47.650  26.159  30.784  1.00  0.00    -0.014 A 
ATOM     73  C   UNL A   1      48.683  26.122  29.836  1.00  0.00     0.009 A 
ATOM     74  C   UNL A   1      47.895  25.682  32.081  1.00  0.00     0.009 A 
ATOM     75  C   UNL A   1      49.926  25.583  30.172  1.00  0.00     0.001 A 
ATOM     76  C   UNL A   1      49.149  25.176  32.423  1.00  0.00     0.001 A 
ATOM     77  C   UNL A   1      50.160  25.117  31.466  1.00  0.00     0.000 A 
ENDBRANCH  59  72
ENDBRANCH  33  34
ENDBRANCH  25  28
ENDBRANCH  23  24
ENDBRANCH   1  23
TORSDOF 14
ENDMDL
MODEL 3
REMARK VINA RESULT:     -10.5      2.239      3.349
REMARK SMILES CCC[C@H]1CC[C@H](C(=O)NCCCNC(=O)c2ccc(-c3c4nc(c(-c5ccccc5)c5ccc([nH]5)c(-c5ccccc5)c5nc(c(-c6ccccc6)c6ccc3[nH]6)C=C5)C=C4)cc2)[C@H](Sc2ccncc2)C1
REMARK SMILES IDX 12 1 11 2 10 3 8 4 9 5 7 7 4 8 5 9 73 10 6 11 65 12 3 13
REMARK SMILES IDX 2 14 1 15 66 16 67 17 68 18 72 19 69 20 71 21 70 22 13 23
REMARK SMILES IDX 14 24 15 25 16 27 17 28 18 29 64 30 19 31 63 32 20 33 21 34
REMARK SMILES IDX 22 35 57 36 23 37 62 38 56 39 58 40 24 41 61 42 55 43 54 44
REMARK SMILES IDX 25 46 47 47 32 48 46 49 33 50 36 51 45 52 59 53 34 54 35 55
REMARK SMILES IDX 44 57 60 58 37 59 26 60 27 61 31 62 28 63 30 64 29 65 48 66
REMARK SMILES IDX 49 67 53 68 50 69 52 70 51 71 38 72 39 73 43 74 40 75 42 76
REMARK SMILES IDX 41 77
REMARK H PARENT 10 6 14 26 58 45 36 56
REMARK Flexibility Score: inf
ROOT
ATOM      1  C   UNL A   1      31.369  31.969  26.687  1.00  0.00     0.042 C 
ENDROOT
BRANCH   1   2
ATOM      2  C   UNL A   1      31.576  30.695  25.891  1.00  0.00     0.117 C 
BRANCH   2   3
ATOM      3  N   UNL A   1      31.466  29.529  26.732  1.00  0.00    -0.356 N 
ATOM      4  C   UNL A   1      31.730  28.221  26.522  1.00  0.00     0.224 C 
ATOM      5  O   UNL A   1      31.516  27.480  27.492  1.00  0.00    -0.275 OA
ATOM      6  H   UNL A   1      31.133  29.725  27.637  1.00  0.00     0.163 HD
BRANCH   4   7
ATOM      7  C   UNL A   1      32.182  27.590  25.203  1.00  0.00     0.092 C 
ATOM      8  C   UNL A   1      33.472  24.826  25.180  1.00  0.00    -0.010 C 
ATOM      9  C   UNL A   1      34.115  26.055  25.817  1.00  0.00     0.004 C 
ATOM     10  C   UNL A   1      31.976  24.986  24.788  1.00  0.00     0.019 C 
ATOM     11  C   UNL A   1      33.700  27.388  25.223  1.00  0.00     0.015 C 
ATOM     12  C   UNL A   1      31.481  26.417  24.500  1.00  0.00     0.064 C 
BRANCH   8  13
ATOM     13  C   UNL A   1      34.344  24.167  24.082  1.00  0.00     0.003 C 
BRANCH  13  14
ATOM     14  C   UNL A   1      35.742  23.649  24.442  1.00  0.00    -0.003 C 
ATOM     15  C   UNL A   1      36.481  22.946  23.305  1.00  0.00     0.004 C 
ENDBRANCH  13  14
ENDBRANCH   8  13
BRANCH  12  16
ATOM     16  S   UNL A   1      29.640  26.476  24.194  1.00  0.00    -0.122 SA
BRANCH  16  17
ATOM     17  C   UNL A   1      29.342  27.904  23.174  1.00  0.00     0.011 A 
ATOM     18  C   UNL A   1      28.062  28.448  23.083  1.00  0.00     0.035 A 
ATOM     19  C   UNL A   1      30.395  28.580  22.561  1.00  0.00     0.035 A 
ATOM     20  C   UNL A   1      27.861  29.549  22.268  1.00  0.00     0.112 A 
ATOM     21  C   UNL A   1      30.103  29.704  21.802  1.00  0.00     0.112 A 
ATOM     22  N   UNL A   1      28.856  30.180  21.609  1.00  0.00    -0.265 NA
ENDBRANCH  16  17
ENDBRANCH  12  16
ENDBRANCH   4   7
ENDBRANCH   2   3
ENDBRANCH   1   2
BRANCH   1  23
ATOM     23  C   UNL A   1      32.675  32.580  27.128  1.00  0.00     0.118 C 
BRANCH  23  24
ATOM     24  N   UNL A   1      32.481  33.890  27.733  1.00  0.00    -0.352 N 
ATOM     25  C   UNL A   1      33.194  34.493  28.743  1.00  0.00     0.251 C 
ATOM     26  H   UNL A   1      31.735  34.418  27.368  1.00  0.00     0.163 HD
ATOM     27  O   UNL A   1      32.753  35.491  29.296  1.00  0.00    -0.269 OA
BRANCH  25  28
ATOM     28  C   UNL A   1      34.485  33.908  29.167  1.00  0.00     0.039 A 
ATOM     29  C   UNL A   1      34.525  33.064  30.277  1.00  0.00     0.014 A 
ATOM     30  C   UNL A   1      35.653  34.181  28.452  1.00  0.00     0.014 A 
ATOM     31  C   UNL A   1      35.730  32.458  30.634  1.00  0.00     0.010 A 
ATOM     32  C   UNL A   1      36.806  33.459  28.711  1.00  0.00     0.010 A 
ATOM     33  C   UNL A   1      36.872  32.627  29.833  1.00  0.00    -0.014 A 
BRANCH  33  34
ATOM     34  C   UNL A   1      38.171  32.006  30.184  1.00  0.00     0.031 A 
ATOM     35  C   UNL A   1      39.102  32.718  31.133  1.00  0.00     0.074 A 
ATOM     36  C   UNL A   1      38.535  30.841  29.615  1.00  0.00     0.049 A 
ATOM     37  N   UNL A   1      40.299  32.375  31.529  1.00  0.00    -0.248 NA
ATOM     38  C   UNL A   1      38.643  34.009  31.678  1.00  0.00     0.031 C 
ATOM     39  C   UNL A   1      37.744  30.086  28.641  1.00  0.00     0.029 A 
ATOM     40  N   UNL A   1      39.667  30.086  29.778  1.00  0.00    -0.354 N 
ATOM     41  C   UNL A   1      40.738  33.415  32.341  1.00  0.00     0.074 A 
ATOM     42  C   UNL A   1      39.719  34.435  32.319  1.00  0.00     0.031 C 
ATOM     43  C   UNL A   1      38.392  28.950  28.334  1.00  0.00     0.029 A 
ATOM     44  C   UNL A   1      39.662  28.921  29.050  1.00  0.00     0.049 A 
ATOM     45  H   UNL A   1      40.415  30.353  30.362  1.00  0.00     0.167 HD
ATOM     46  C   UNL A   1      41.873  33.499  33.073  1.00  0.00     0.031 A 
ATOM     47  C   UNL A   1      40.579  27.940  28.973  1.00  0.00     0.031 A 
ATOM     48  C   UNL A   1      42.872  32.468  33.112  1.00  0.00     0.049 A 
ATOM     49  C   UNL A   1      41.835  28.056  29.792  1.00  0.00     0.074 A 
ATOM     50  C   UNL A   1      44.032  32.419  33.865  1.00  0.00     0.029 A 
ATOM     51  N   UNL A   1      42.824  31.300  32.367  1.00  0.00    -0.354 N 
ATOM     52  N   UNL A   1      42.201  29.012  30.614  1.00  0.00    -0.248 NA
ATOM     53  C   UNL A   1      42.799  26.953  29.683  1.00  0.00     0.031 C 
ATOM     54  C   UNL A   1      44.715  31.247  33.529  1.00  0.00     0.029 A 
ATOM     55  C   UNL A   1      43.947  30.535  32.620  1.00  0.00     0.049 A 
ATOM     56  H   UNL A   1      42.099  31.054  31.748  1.00  0.00     0.167 HD
ATOM     57  C   UNL A   1      43.422  28.609  31.142  1.00  0.00     0.074 A 
ATOM     58  C   UNL A   1      43.722  27.317  30.562  1.00  0.00     0.031 C 
ATOM     59  C   UNL A   1      44.222  29.250  32.030  1.00  0.00     0.031 A 
BRANCH  46  60
ATOM     60  C   UNL A   1      42.085  34.749  33.883  1.00  0.00    -0.014 A 
ATOM     61  C   UNL A   1      42.731  35.873  33.340  1.00  0.00     0.009 A 
ATOM     62  C   UNL A   1      41.623  34.810  35.207  1.00  0.00     0.009 A 
ATOM     63  C   UNL A   1      42.947  37.013  34.117  1.00  0.00     0.001 A 
ATOM     64  C   UNL A   1      41.809  35.964  35.970  1.00  0.00     0.001 A 
ATOM     65  C   UNL A   1      42.481  37.059  35.430  1.00  0.00     0.000 A 
ENDBRANCH  46  60
BRANCH  47  66
ATOM     66  C   UNL A   1      40.333  26.752  28.114  1.00  0.00    -0.014 A 
ATOM     67  C   UNL A   1      39.602  25.657  28.603  1.00  0.00     0.009 A 
ATOM     68  C   UNL A   1      40.827  26.702  26.801  1.00  0.00     0.009 A 
ATOM     69  C   UNL A   1      39.398  24.527  27.807  1.00  0.00     0.001 A 
ATOM     70  C   UNL A   1      40.594  25.585  25.996  1.00  0.00     0.001 A 
ATOM     71  C   UNL A   1      39.890  24.494  26.503  1.00  0.00     0.000 A 
ENDBRANCH  47  66
BRANCH  59  72
ATOM     72  C   UNL A   1      45.478  28.543  32.456  1.00  0.00    -0.014 A 
ATOM     73  C   UNL A   1      45.486  27.654  33.540  1.00  0.00     0.009 A 
ATOM     74  C   UNL A   1      46.660  28.738  31.723  1.00  0.00     0.009 A 
ATOM     75  C   UNL A   1      46.665  27.002  33.906  1.00  0.00     0.001 A 
ATOM     76  C   UNL A   1      47.827  28.058  32.071  1.00  0.00     0.001 A 
ATOM     77  C   UNL A   1      47.831  27.199  33.168  1.00  0.00     0.000 A 
ENDBRANCH  59  72
ENDBRANCH  33  34
ENDBRANCH  25  28
ENDBRANCH  23  24
ENDBRANCH   1  23
TORSDOF 14
ENDMDL
