MODEL 1
REMARK VINA RESULT:      -9.4      0.000      0.000
REMARK SMILES O=C(CCCc1nc(-c2cccc(Cl)c2)no1)NCCCNC(=O)c1ccc(-c2c3nc(c(-c4ccccc4)c4ccc([nH]4)c(-c4ccccc4)c4nc(c(-c5ccccc5)c5ccc2[nH]5)C=C4)C=C3)cc1
REMARK SMILES IDX 19 1 18 2 1 3 2 4 3 6 4 7 5 8 6 9 7 10 17 11 8 12 16 13 9 14
REMARK SMILES IDX 10 15 15 16 11 17 13 18 12 19 14 20 20 21 21 22 22 23 23 24
REMARK SMILES IDX 24 26 25 27 26 28 72 29 27 30 71 31 28 32 29 33 30 34 65 35
REMARK SMILES IDX 31 36 70 37 64 38 66 39 32 40 69 41 63 42 62 43 33 45 55 46
REMARK SMILES IDX 40 47 54 48 41 49 44 50 53 51 67 52 42 53 43 54 52 56 68 57
REMARK SMILES IDX 45 58 34 59 35 60 39 61 36 62 38 63 37 64 56 65 57 66 61 67
REMARK SMILES IDX 58 68 60 69 59 70 46 71 47 72 51 73 48 74 50 75 49 76
REMARK H PARENT 18 5 22 25 66 44 44 55
REMARK Flexibility Score: inf
ROOT
ATOM      1  C   UNL A   1      33.148  37.572  31.063  1.00  0.00     0.117 C 
ENDROOT
BRANCH   1   2
ATOM      2  N   UNL A   1      33.899  36.475  31.640  1.00  0.00    -0.356 N 
ATOM      3  O   UNL A   1      32.068  35.392  32.506  1.00  0.00    -0.275 OA
ATOM      4  C   UNL A   1      33.273  35.432  32.285  1.00  0.00     0.220 C 
ATOM      5  H   UNL A   1      34.880  36.475  31.568  1.00  0.00     0.163 HD
BRANCH   4   6
ATOM      6  C   UNL A   1      34.197  34.296  32.665  1.00  0.00     0.100 C 
BRANCH   6   7
ATOM      7  C   UNL A   1      35.490  34.792  33.324  1.00  0.00     0.020 C 
BRANCH   7   8
ATOM      8  C   UNL A   1      35.844  34.180  34.685  1.00  0.00     0.101 C 
BRANCH   8   9
ATOM      9  C   UNL A   1      36.852  33.099  34.587  1.00  0.00     0.226 A 
ATOM     10  N   UNL A   1      36.835  32.025  33.828  1.00  0.00    -0.191 NA
ATOM     11  O   UNL A   1      37.959  33.192  35.375  1.00  0.00    -0.339 OA
ATOM     12  C   UNL A   1      38.021  31.412  34.167  1.00  0.00     0.202 A 
ATOM     13  N   UNL A   1      38.729  32.059  35.105  1.00  0.00    -0.057 NA
BRANCH  12  14
ATOM     14  C   UNL A   1      38.441  30.167  33.550  1.00  0.00     0.024 A 
ATOM     15  C   UNL A   1      37.568  29.481  32.692  1.00  0.00     0.012 A 
ATOM     16  C   UNL A   1      39.707  29.632  33.816  1.00  0.00     0.032 A 
ATOM     17  C   UNL A   1      37.961  28.280  32.098  1.00  0.00     0.002 A 
ATOM     18  C   UNL A   1      40.083  28.421  33.238  1.00  0.00     0.041 A 
ATOM     19  C   UNL A   1      39.219  27.746  32.375  1.00  0.00     0.020 A 
ATOM     20  Cl  UNL A   1      41.620  27.740  33.608  1.00  0.00    -0.084 Cl
ENDBRANCH  12  14
ENDBRANCH   8   9
ENDBRANCH   7   8
ENDBRANCH   6   7
ENDBRANCH   4   6
ENDBRANCH   1   2
BRANCH   1  21
ATOM     21  C   UNL A   1      33.239  37.618  29.545  1.00  0.00     0.042 C 
BRANCH  21  22
ATOM     22  C   UNL A   1      33.891  36.397  28.905  1.00  0.00     0.118 C 
BRANCH  22  23
ATOM     23  N   UNL A   1      32.936  35.421  28.400  1.00  0.00    -0.352 N 
ATOM     24  C   UNL A   1      33.099  34.073  28.184  1.00  0.00     0.251 C 
ATOM     25  H   UNL A   1      32.045  35.777  28.183  1.00  0.00     0.163 HD
ATOM     26  O   UNL A   1      32.202  33.424  27.655  1.00  0.00    -0.269 OA
BRANCH  24  27
ATOM     27  C   UNL A   1      34.371  33.408  28.549  1.00  0.00     0.039 A 
ATOM     28  C   UNL A   1      35.478  33.578  27.714  1.00  0.00     0.014 A 
ATOM     29  C   UNL A   1      34.481  32.637  29.710  1.00  0.00     0.014 A 
ATOM     30  C   UNL A   1      36.716  33.045  28.085  1.00  0.00     0.010 A 
ATOM     31  C   UNL A   1      35.730  32.170  30.115  1.00  0.00     0.010 A 
ATOM     32  C   UNL A   1      36.862  32.377  29.311  1.00  0.00    -0.014 A 
BRANCH  32  33
ATOM     33  C   UNL A   1      38.195  31.912  29.779  1.00  0.00     0.031 A 
ATOM     34  C   UNL A   1      38.754  30.598  29.306  1.00  0.00     0.074 A 
ATOM     35  C   UNL A   1      38.877  32.645  30.682  1.00  0.00     0.049 A 
ATOM     36  N   UNL A   1      39.871  30.006  29.650  1.00  0.00    -0.248 NA
ATOM     37  C   UNL A   1      37.945  29.841  28.339  1.00  0.00     0.031 C 
ATOM     38  C   UNL A   1      38.434  33.920  31.251  1.00  0.00     0.029 A 
ATOM     39  N   UNL A   1      40.087  32.415  31.288  1.00  0.00    -0.354 N 
ATOM     40  C   UNL A   1      39.890  28.805  28.953  1.00  0.00     0.074 A 
ATOM     41  C   UNL A   1      38.653  28.729  28.206  1.00  0.00     0.031 C 
ATOM     42  C   UNL A   1      39.370  34.371  32.100  1.00  0.00     0.029 A 
ATOM     43  C   UNL A   1      40.457  33.400  32.172  1.00  0.00     0.049 A 
ATOM     44  H   UNL A   1      40.639  31.619  31.107  1.00  0.00     0.167 HD
ATOM     45  C   UNL A   1      40.857  27.856  28.923  1.00  0.00     0.031 A 
ATOM     46  C   UNL A   1      41.542  33.508  32.963  1.00  0.00     0.031 A 
ATOM     47  C   UNL A   1      42.089  27.927  29.664  1.00  0.00     0.049 A 
ATOM     48  C   UNL A   1      42.586  32.427  32.934  1.00  0.00     0.074 A 
ATOM     49  C   UNL A   1      43.150  27.037  29.657  1.00  0.00     0.029 A 
ATOM     50  N   UNL A   1      42.421  28.941  30.547  1.00  0.00    -0.354 N 
ATOM     51  N   UNL A   1      42.619  31.329  32.218  1.00  0.00    -0.248 NA
ATOM     52  C   UNL A   1      43.749  32.605  33.816  1.00  0.00     0.031 C 
ATOM     53  C   UNL A   1      44.100  27.485  30.581  1.00  0.00     0.029 A 
ATOM     54  C   UNL A   1      43.659  28.685  31.114  1.00  0.00     0.049 A 
ATOM     55  H   UNL A   1      41.862  29.727  30.743  1.00  0.00     0.167 HD
ATOM     56  C   UNL A   1      43.817  30.704  32.539  1.00  0.00     0.074 A 
ATOM     57  C   UNL A   1      44.488  31.551  33.503  1.00  0.00     0.031 C 
ATOM     58  C   UNL A   1      44.318  29.535  32.072  1.00  0.00     0.031 A 
BRANCH  45  59
ATOM     59  C   UNL A   1      40.613  26.647  28.062  1.00  0.00    -0.014 A 
ATOM     60  C   UNL A   1      39.821  25.579  28.513  1.00  0.00     0.009 A 
ATOM     61  C   UNL A   1      41.151  26.592  26.766  1.00  0.00     0.009 A 
ATOM     62  C   UNL A   1      39.603  24.466  27.699  1.00  0.00     0.001 A 
ATOM     63  C   UNL A   1      40.906  25.492  25.943  1.00  0.00     0.001 A 
ATOM     64  C   UNL A   1      40.142  24.425  26.414  1.00  0.00     0.000 A 
ENDBRANCH  45  59
BRANCH  46  65
ATOM     65  C   UNL A   1      41.706  34.692  33.847  1.00  0.00    -0.014 A 
ATOM     66  C   UNL A   1      42.465  35.795  33.428  1.00  0.00     0.009 A 
ATOM     67  C   UNL A   1      41.113  34.722  35.119  1.00  0.00     0.009 A 
ATOM     68  C   UNL A   1      42.652  36.890  34.274  1.00  0.00     0.001 A 
ATOM     69  C   UNL A   1      41.276  35.832  35.951  1.00  0.00     0.001 A 
ATOM     70  C   UNL A   1      42.053  36.910  35.533  1.00  0.00     0.000 A 
ENDBRANCH  46  65
BRANCH  58  71
ATOM     71  C   UNL A   1      45.677  29.120  32.565  1.00  0.00    -0.014 A 
ATOM     72  C   UNL A   1      45.830  28.332  33.716  1.00  0.00     0.009 A 
ATOM     73  C   UNL A   1      46.820  29.491  31.838  1.00  0.00     0.009 A 
ATOM     74  C   UNL A   1      47.103  27.952  34.147  1.00  0.00     0.001 A 
ATOM     75  C   UNL A   1      48.088  29.085  32.254  1.00  0.00     0.001 A 
ATOM     76  C   UNL A   1      48.229  28.324  33.413  1.00  0.00     0.000 A 
ENDBRANCH  58  71
ENDBRANCH  32  33
ENDBRANCH  24  27
ENDBRANCH  22  23
ENDBRANCH  21  22
ENDBRANCH   1  21
TORSDOF 14
ENDMDL
MODEL 2
REMARK VINA RESULT:      -8.7      2.182      6.812
REMARK SMILES O=C(CCCc1nc(-c2cccc(Cl)c2)no1)NCCCNC(=O)c1ccc(-c2c3nc(c(-c4ccccc4)c4ccc([nH]4)c(-c4ccccc4)c4nc(c(-c5ccccc5)c5ccc2[nH]5)C=C4)C=C3)cc1
REMARK SMILES IDX 19 1 18 2 1 3 2 4 3 6 4 7 5 8 6 9 7 10 17 11 8 12 16 13 9 14
REMARK SMILES IDX 10 15 15 16 11 17 13 18 12 19 14 20 20 21 21 22 22 23 23 24
REMARK SMILES IDX 24 26 25 27 26 28 72 29 27 30 71 31 28 32 29 33 30 34 65 35
REMARK SMILES IDX 31 36 70 37 64 38 66 39 32 40 69 41 63 42 62 43 33 45 55 46
REMARK SMILES IDX 40 47 54 48 41 49 44 50 53 51 67 52 42 53 43 54 52 56 68 57
REMARK SMILES IDX 45 58 34 59 35 60 39 61 36 62 38 63 37 64 56 65 57 66 61 67
REMARK SMILES IDX 58 68 60 69 59 70 46 71 47 72 51 73 48 74 50 75 49 76
REMARK H PARENT 18 5 22 25 66 44 44 55
REMARK Flexibility Score: inf
ROOT
ATOM      1  C   UNL A   1      33.564  35.315  28.716  1.00  0.00     0.117 C 
ENDROOT
BRANCH   1   2
ATOM      2  N   UNL A   1      33.949  35.262  30.112  1.00  0.00    -0.356 N 
ATOM      3  O   UNL A   1      32.304  36.686  30.847  1.00  0.00    -0.275 OA
ATOM      4  C   UNL A   1      33.240  35.930  31.084  1.00  0.00     0.220 C 
ATOM      5  H   UNL A   1      34.739  34.735  30.371  1.00  0.00     0.163 HD
BRANCH   4   6
ATOM      6  C   UNL A   1      33.681  35.619  32.497  1.00  0.00     0.100 C 
BRANCH   6   7
ATOM      7  C   UNL A   1      34.868  34.649  32.536  1.00  0.00     0.020 C 
BRANCH   7   8
ATOM      8  C   UNL A   1      34.551  33.194  32.904  1.00  0.00     0.101 C 
BRANCH   8   9
ATOM      9  C   UNL A   1      35.744  32.442  33.359  1.00  0.00     0.226 A 
ATOM     10  N   UNL A   1      36.349  31.428  32.778  1.00  0.00    -0.191 NA
ATOM     11  O   UNL A   1      36.319  32.817  34.536  1.00  0.00    -0.339 OA
ATOM     12  C   UNL A   1      37.377  31.162  33.656  1.00  0.00     0.202 A 
ATOM     13  N   UNL A   1      37.396  31.953  34.740  1.00  0.00    -0.057 NA
BRANCH  12  14
ATOM     14  C   UNL A   1      38.338  30.104  33.409  1.00  0.00     0.024 A 
ATOM     15  C   UNL A   1      37.927  28.916  32.784  1.00  0.00     0.012 A 
ATOM     16  C   UNL A   1      39.673  30.248  33.804  1.00  0.00     0.032 A 
ATOM     17  C   UNL A   1      38.844  27.890  32.546  1.00  0.00     0.002 A 
ATOM     18  C   UNL A   1      40.577  29.209  33.584  1.00  0.00     0.041 A 
ATOM     19  C   UNL A   1      40.170  28.035  32.951  1.00  0.00     0.020 A 
ATOM     20  Cl  UNL A   1      42.205  29.369  34.118  1.00  0.00    -0.084 Cl
ENDBRANCH  12  14
ENDBRANCH   8   9
ENDBRANCH   7   8
ENDBRANCH   6   7
ENDBRANCH   4   6
ENDBRANCH   1   2
BRANCH   1  21
ATOM     21  C   UNL A   1      34.134  34.164  27.900  1.00  0.00     0.042 C 
BRANCH  21  22
ATOM     22  C   UNL A   1      34.344  32.870  28.678  1.00  0.00     0.118 C 
BRANCH  22  23
ATOM     23  N   UNL A   1      33.760  31.701  28.036  1.00  0.00    -0.352 N 
ATOM     24  C   UNL A   1      34.341  30.493  27.729  1.00  0.00     0.251 C 
ATOM     25  H   UNL A   1      32.811  31.787  27.787  1.00  0.00     0.163 HD
ATOM     26  O   UNL A   1      33.711  29.654  27.092  1.00  0.00    -0.269 OA
BRANCH  24  27
ATOM     27  C   UNL A   1      35.740  30.217  28.127  1.00  0.00     0.039 A 
ATOM     28  C   UNL A   1      35.982  29.686  29.396  1.00  0.00     0.014 A 
ATOM     29  C   UNL A   1      36.805  30.460  27.254  1.00  0.00     0.014 A 
ATOM     30  C   UNL A   1      37.282  29.324  29.761  1.00  0.00     0.010 A 
ATOM     31  C   UNL A   1      38.087  30.030  27.590  1.00  0.00     0.010 A 
ATOM     32  C   UNL A   1      38.337  29.449  28.844  1.00  0.00    -0.014 A 
BRANCH  32  33
ATOM     33  C   UNL A   1      39.701  28.954  29.168  1.00  0.00     0.031 A 
ATOM     34  C   UNL A   1      40.692  29.847  29.864  1.00  0.00     0.074 A 
ATOM     35  C   UNL A   1      40.072  27.717  28.780  1.00  0.00     0.049 A 
ATOM     36  N   UNL A   1      41.941  29.606  30.176  1.00  0.00    -0.248 NA
ATOM     37  C   UNL A   1      40.227  31.191  30.236  1.00  0.00     0.031 C 
ATOM     38  C   UNL A   1      39.222  26.760  28.067  1.00  0.00     0.029 A 
ATOM     39  N   UNL A   1      41.266  27.055  28.924  1.00  0.00    -0.354 N 
ATOM     40  C   UNL A   1      42.412  30.771  30.768  1.00  0.00     0.074 A 
ATOM     41  C   UNL A   1      41.332  31.733  30.727  1.00  0.00     0.031 C 
ATOM     42  C   UNL A   1      39.913  25.628  27.861  1.00  0.00     0.029 A 
ATOM     43  C   UNL A   1      41.265  25.792  28.383  1.00  0.00     0.049 A 
ATOM     44  H   UNL A   1      42.050  27.449  29.372  1.00  0.00     0.167 HD
ATOM     45  C   UNL A   1      43.628  31.015  31.312  1.00  0.00     0.031 A 
ATOM     46  C   UNL A   1      42.243  24.869  28.305  1.00  0.00     0.031 A 
ATOM     47  C   UNL A   1      44.706  30.062  31.356  1.00  0.00     0.049 A 
ATOM     48  C   UNL A   1      43.594  25.176  28.890  1.00  0.00     0.074 A 
ATOM     49  C   UNL A   1      45.957  30.202  31.932  1.00  0.00     0.029 A 
ATOM     50  N   UNL A   1      44.662  28.796  30.796  1.00  0.00    -0.354 N 
ATOM     51  N   UNL A   1      44.001  26.259  29.506  1.00  0.00    -0.248 NA
ATOM     52  C   UNL A   1      44.618  24.127  28.777  1.00  0.00     0.031 C 
ATOM     53  C   UNL A   1      46.690  29.041  31.670  1.00  0.00     0.029 A 
ATOM     54  C   UNL A   1      45.874  28.153  30.988  1.00  0.00     0.049 A 
ATOM     55  H   UNL A   1      43.885  28.409  30.332  1.00  0.00     0.167 HD
ATOM     56  C   UNL A   1      45.315  26.009  29.882  1.00  0.00     0.074 A 
ATOM     57  C   UNL A   1      45.632  24.668  29.437  1.00  0.00     0.031 C 
ATOM     58  C   UNL A   1      46.179  26.818  30.541  1.00  0.00     0.031 A 
BRANCH  45  59
ATOM     59  C   UNL A   1      43.862  32.380  31.900  1.00  0.00    -0.014 A 
ATOM     60  C   UNL A   1      44.346  33.439  31.115  1.00  0.00     0.009 A 
ATOM     61  C   UNL A   1      43.558  32.621  33.250  1.00  0.00     0.009 A 
ATOM     62  C   UNL A   1      44.554  34.699  31.678  1.00  0.00     0.001 A 
ATOM     63  C   UNL A   1      43.738  33.890  33.802  1.00  0.00     0.001 A 
ATOM     64  C   UNL A   1      44.246  34.925  33.018  1.00  0.00     0.000 A 
ENDBRANCH  45  59
BRANCH  46  65
ATOM     65  C   UNL A   1      41.982  23.559  27.655  1.00  0.00    -0.014 A 
ATOM     66  C   UNL A   1      41.415  22.501  28.383  1.00  0.00     0.009 A 
ATOM     67  C   UNL A   1      42.309  23.353  26.305  1.00  0.00     0.009 A 
ATOM     68  C   UNL A   1      41.207  21.258  27.782  1.00  0.00     0.001 A 
ATOM     69  C   UNL A   1      42.071  22.117  25.698  1.00  0.00     0.001 A 
ATOM     70  C   UNL A   1      41.530  21.068  26.439  1.00  0.00     0.000 A 
ENDBRANCH  46  65
BRANCH  58  71
ATOM     71  C   UNL A   1      47.539  26.262  30.859  1.00  0.00    -0.014 A 
ATOM     72  C   UNL A   1      47.850  25.772  32.137  1.00  0.00     0.009 A 
ATOM     73  C   UNL A   1      48.512  26.191  29.849  1.00  0.00     0.009 A 
ATOM     74  C   UNL A   1      49.119  25.252  32.404  1.00  0.00     0.001 A 
ATOM     75  C   UNL A   1      49.768  25.643  30.110  1.00  0.00     0.001 A 
ATOM     76  C   UNL A   1      50.073  25.183  31.389  1.00  0.00     0.000 A 
ENDBRANCH  58  71
ENDBRANCH  32  33
ENDBRANCH  24  27
ENDBRANCH  22  23
ENDBRANCH  21  22
ENDBRANCH   1  21
TORSDOF 14
ENDMDL
MODEL 3
REMARK VINA RESULT:      -8.6      4.488      9.374
REMARK SMILES O=C(CCCc1nc(-c2cccc(Cl)c2)no1)NCCCNC(=O)c1ccc(-c2c3nc(c(-c4ccccc4)c4ccc([nH]4)c(-c4ccccc4)c4nc(c(-c5ccccc5)c5ccc2[nH]5)C=C4)C=C3)cc1
REMARK SMILES IDX 19 1 18 2 1 3 2 4 3 6 4 7 5 8 6 9 7 10 17 11 8 12 16 13 9 14
REMARK SMILES IDX 10 15 15 16 11 17 13 18 12 19 14 20 20 21 21 22 22 23 23 24
REMARK SMILES IDX 24 26 25 27 26 28 72 29 27 30 71 31 28 32 29 33 30 34 65 35
REMARK SMILES IDX 31 36 70 37 64 38 66 39 32 40 69 41 63 42 62 43 33 45 55 46
REMARK SMILES IDX 40 47 54 48 41 49 44 50 53 51 67 52 42 53 43 54 52 56 68 57
REMARK SMILES IDX 45 58 34 59 35 60 39 61 36 62 38 63 37 64 56 65 57 66 61 67
REMARK SMILES IDX 58 68 60 69 59 70 46 71 47 72 51 73 48 74 50 75 49 76
REMARK H PARENT 18 5 22 25 66 44 44 55
REMARK Flexibility Score: inf
ROOT
ATOM      1  C   UNL A   1      32.679  29.511  24.889  1.00  0.00     0.117 C 
ENDROOT
BRANCH   1   2
ATOM      2  N   UNL A   1      32.252  28.648  23.806  1.00  0.00    -0.356 N 
ATOM      3  O   UNL A   1      30.795  27.409  25.077  1.00  0.00    -0.275 OA
ATOM      4  C   UNL A   1      31.290  27.681  23.989  1.00  0.00     0.220 C 
ATOM      5  H   UNL A   1      32.662  28.755  22.917  1.00  0.00     0.163 HD
BRANCH   4   6
ATOM      6  C   UNL A   1      30.848  26.998  22.714  1.00  0.00     0.100 C 
BRANCH   6   7
ATOM      7  C   UNL A   1      31.520  25.633  22.520  1.00  0.00     0.020 C 
BRANCH   7   8
ATOM      8  C   UNL A   1      33.004  25.650  22.132  1.00  0.00     0.101 C 
BRANCH   8   9
ATOM      9  C   UNL A   1      33.890  25.166  23.217  1.00  0.00     0.226 A 
ATOM     10  N   UNL A   1      34.733  24.157  23.202  1.00  0.00    -0.191 NA
ATOM     11  O   UNL A   1      33.852  25.826  24.407  1.00  0.00    -0.339 OA
ATOM     12  C   UNL A   1      35.260  24.200  24.474  1.00  0.00     0.202 A 
ATOM     13  N   UNL A   1      34.753  25.172  25.248  1.00  0.00    -0.057 NA
BRANCH  12  14
ATOM     14  C   UNL A   1      36.271  23.257  24.914  1.00  0.00     0.024 A 
ATOM     15  C   UNL A   1      37.430  23.720  25.555  1.00  0.00     0.012 A 
ATOM     16  C   UNL A   1      36.109  21.884  24.691  1.00  0.00     0.032 A 
ATOM     17  C   UNL A   1      38.410  22.820  25.978  1.00  0.00     0.002 A 
ATOM     18  C   UNL A   1      37.103  20.995  25.095  1.00  0.00     0.041 A 
ATOM     19  C   UNL A   1      38.249  21.455  25.743  1.00  0.00     0.020 A 
ATOM     20  Cl  UNL A   1      36.925  19.314  24.772  1.00  0.00    -0.084 Cl
ENDBRANCH  12  14
ENDBRANCH   8   9
ENDBRANCH   7   8
ENDBRANCH   6   7
ENDBRANCH   4   6
ENDBRANCH   1   2
BRANCH   1  21
ATOM     21  C   UNL A   1      33.777  28.892  25.742  1.00  0.00     0.042 C 
BRANCH  21  22
ATOM     22  C   UNL A   1      33.539  28.971  27.247  1.00  0.00     0.118 C 
BRANCH  22  23
ATOM     23  N   UNL A   1      33.598  30.326  27.777  1.00  0.00    -0.352 N 
ATOM     24  C   UNL A   1      34.632  30.967  28.418  1.00  0.00     0.251 C 
ATOM     25  H   UNL A   1      32.780  30.860  27.660  1.00  0.00     0.163 HD
ATOM     26  O   UNL A   1      34.461  32.088  28.888  1.00  0.00    -0.269 OA
BRANCH  24  27
ATOM     27  C   UNL A   1      35.940  30.293  28.582  1.00  0.00     0.039 A 
ATOM     28  C   UNL A   1      36.837  30.305  27.511  1.00  0.00     0.014 A 
ATOM     29  C   UNL A   1      36.290  29.668  29.783  1.00  0.00     0.014 A 
ATOM     30  C   UNL A   1      38.115  29.763  27.671  1.00  0.00     0.010 A 
ATOM     31  C   UNL A   1      37.588  29.196  29.965  1.00  0.00     0.010 A 
ATOM     32  C   UNL A   1      38.517  29.246  28.913  1.00  0.00    -0.014 A 
BRANCH  32  33
ATOM     33  C   UNL A   1      39.911  28.780  29.138  1.00  0.00     0.031 A 
ATOM     34  C   UNL A   1      40.938  29.702  29.737  1.00  0.00     0.074 A 
ATOM     35  C   UNL A   1      40.272  27.542  28.744  1.00  0.00     0.049 A 
ATOM     36  N   UNL A   1      42.212  29.487  29.954  1.00  0.00    -0.248 NA
ATOM     37  C   UNL A   1      40.480  31.045  30.122  1.00  0.00     0.031 C 
ATOM     38  C   UNL A   1      39.386  26.558  28.117  1.00  0.00     0.029 A 
ATOM     39  N   UNL A   1      41.485  26.902  28.804  1.00  0.00    -0.354 N 
ATOM     40  C   UNL A   1      42.707  30.671  30.486  1.00  0.00     0.074 A 
ATOM     41  C   UNL A   1      41.610  31.614  30.514  1.00  0.00     0.031 C 
ATOM     42  C   UNL A   1      40.077  25.434  27.877  1.00  0.00     0.029 A 
ATOM     43  C   UNL A   1      41.464  25.629  28.288  1.00  0.00     0.049 A 
ATOM     44  H   UNL A   1      42.295  27.317  29.182  1.00  0.00     0.167 HD
ATOM     45  C   UNL A   1      43.958  30.945  30.928  1.00  0.00     0.031 A 
ATOM     46  C   UNL A   1      42.449  24.721  28.148  1.00  0.00     0.031 A 
ATOM     47  C   UNL A   1      45.052  30.010  30.903  1.00  0.00     0.049 A 
ATOM     48  C   UNL A   1      43.835  25.060  28.619  1.00  0.00     0.074 A 
ATOM     49  C   UNL A   1      46.342  30.181  31.375  1.00  0.00     0.029 A 
ATOM     50  N   UNL A   1      44.987  28.733  30.371  1.00  0.00    -0.354 N 
ATOM     51  N   UNL A   1      44.271  26.161  29.182  1.00  0.00    -0.248 NA
ATOM     52  C   UNL A   1      44.866  24.026  28.444  1.00  0.00     0.031 C 
ATOM     53  C   UNL A   1      47.073  29.027  31.077  1.00  0.00     0.029 A 
ATOM     54  C   UNL A   1      46.221  28.114  30.477  1.00  0.00     0.049 A 
ATOM     55  H   UNL A   1      44.182  28.325  29.976  1.00  0.00     0.167 HD
ATOM     56  C   UNL A   1      45.614  25.940  29.457  1.00  0.00     0.074 A 
ATOM     57  C   UNL A   1      45.919  24.596  29.012  1.00  0.00     0.031 C 
ATOM     58  C   UNL A   1      46.513  26.776  30.031  1.00  0.00     0.031 A 
BRANCH  45  59
ATOM     59  C   UNL A   1      44.213  32.324  31.471  1.00  0.00    -0.014 A 
ATOM     60  C   UNL A   1      44.772  33.332  30.669  1.00  0.00     0.009 A 
ATOM     61  C   UNL A   1      43.854  32.631  32.793  1.00  0.00     0.009 A 
ATOM     62  C   UNL A   1      45.000  34.607  31.190  1.00  0.00     0.001 A 
ATOM     63  C   UNL A   1      44.054  33.916  33.302  1.00  0.00     0.001 A 
ATOM     64  C   UNL A   1      44.636  34.899  32.504  1.00  0.00     0.000 A 
ENDBRANCH  45  59
BRANCH  46  65
ATOM     65  C   UNL A   1      42.160  23.394  27.544  1.00  0.00    -0.014 A 
ATOM     66  C   UNL A   1      41.593  22.367  28.315  1.00  0.00     0.009 A 
ATOM     67  C   UNL A   1      42.461  23.142  26.196  1.00  0.00     0.009 A 
ATOM     68  C   UNL A   1      41.359  21.109  27.756  1.00  0.00     0.001 A 
ATOM     69  C   UNL A   1      42.197  21.892  25.633  1.00  0.00     0.001 A 
ATOM     70  C   UNL A   1      41.656  20.873  26.415  1.00  0.00     0.000 A 
ENDBRANCH  46  65
BRANCH  58  71
ATOM     71  C   UNL A   1      47.904  26.248  30.251  1.00  0.00    -0.014 A 
ATOM     72  C   UNL A   1      48.869  26.278  29.232  1.00  0.00     0.009 A 
ATOM     73  C   UNL A   1      48.264  25.750  31.514  1.00  0.00     0.009 A 
ATOM     74  C   UNL A   1      50.157  25.789  29.465  1.00  0.00     0.001 A 
ATOM     75  C   UNL A   1      49.560  25.291  31.753  1.00  0.00     0.001 A 
ATOM     76  C   UNL A   1      50.502  25.303  30.725  1.00  0.00     0.000 A 
ENDBRANCH  58  71
ENDBRANCH  32  33
ENDBRANCH  24  27
ENDBRANCH  22  23
ENDBRANCH  21  22
ENDBRANCH   1  21
TORSDOF 14
ENDMDL
