MODEL 1
REMARK VINA RESULT:     -11.8      0.000      0.000
REMARK SMILES Cc1cccc(C(=O)NCCCNC(=O)c2ccc(-c3c4nc(c(-c5ccccc5)c5ccc([nH]5)c(-c5ccccc5)c5nc(c(-c6ccccc6)c6ccc3[nH]6)C=C5)C=C4)cc2)c1NC(=O)Cc1ccccc1
REMARK SMILES IDX 10 1 9 2 7 3 8 4 6 6 1 7 2 8 3 9 64 10 4 11 5 12 65 13 66 14
REMARK SMILES IDX 67 16 68 17 69 18 70 19 74 20 71 21 73 22 72 23 11 24 12 25
REMARK SMILES IDX 13 26 14 27 15 29 16 30 17 31 63 32 18 33 62 34 19 35 20 36
REMARK SMILES IDX 21 37 56 38 22 39 61 40 55 41 57 42 23 43 60 44 54 45 53 46
REMARK SMILES IDX 24 48 46 49 31 50 45 51 32 52 35 53 44 54 58 55 33 56 34 57
REMARK SMILES IDX 43 59 59 60 36 61 25 62 26 63 30 64 27 65 29 66 28 67 47 68
REMARK SMILES IDX 48 69 52 70 49 71 51 72 50 73 37 74 38 75 42 76 39 77 41 78
REMARK SMILES IDX 40 79
REMARK H PARENT 9 5 65 15 13 28 57 47 35 58
REMARK Flexibility Score: inf
ROOT
ATOM      1  C   UNL A   1      31.591  30.172  25.830  1.00  0.00     0.118 C 
ENDROOT
BRANCH   1   2
ATOM      2  N   UNL A   1      31.102  29.845  24.491  1.00  0.00    -0.352 N 
ATOM      3  C   UNL A   1      30.577  28.666  23.990  1.00  0.00     0.253 C 
ATOM      4  O   UNL A   1      29.773  28.719  23.061  1.00  0.00    -0.269 OA
ATOM      5  H   UNL A   1      31.152  30.583  23.842  1.00  0.00     0.163 HD
BRANCH   3   6
ATOM      6  C   UNL A   1      30.931  27.336  24.554  1.00  0.00     0.063 A 
ATOM      7  C   UNL A   1      34.045  25.826  25.954  1.00  0.00     0.046 C 
ATOM      8  C   UNL A   1      32.618  25.935  25.504  1.00  0.00    -0.027 A 
ATOM      9  C   UNL A   1      31.632  25.169  26.135  1.00  0.00     0.005 A 
ATOM     10  C   UNL A   1      32.214  26.809  24.489  1.00  0.00     0.056 A 
ATOM     11  C   UNL A   1      30.284  25.429  25.893  1.00  0.00     0.001 A 
ATOM     12  C   UNL A   1      29.936  26.576  25.180  1.00  0.00     0.016 A 
BRANCH  10  13
ATOM     13  N   UNL A   1      33.073  26.936  23.382  1.00  0.00    -0.325 N 
ATOM     14  C   UNL A   1      33.134  26.245  22.204  1.00  0.00     0.228 C 
ATOM     15  H   UNL A   1      33.747  27.647  23.471  1.00  0.00     0.169 HD
ATOM     16  O   UNL A   1      33.976  26.644  21.389  1.00  0.00    -0.274 OA
BRANCH  14  17
ATOM     17  C   UNL A   1      32.304  24.993  21.931  1.00  0.00     0.135 C 
BRANCH  17  18
ATOM     18  C   UNL A   1      32.731  23.790  22.733  1.00  0.00    -0.039 A 
ATOM     19  C   UNL A   1      31.763  22.921  23.254  1.00  0.00     0.004 A 
ATOM     20  C   UNL A   1      34.083  23.515  22.962  1.00  0.00     0.004 A 
ATOM     21  C   UNL A   1      32.138  21.866  24.075  1.00  0.00     0.000 A 
ATOM     22  C   UNL A   1      34.459  22.456  23.766  1.00  0.00     0.000 A 
ATOM     23  C   UNL A   1      33.481  21.657  24.343  1.00  0.00     0.000 A 
ENDBRANCH  17  18
ENDBRANCH  14  17
ENDBRANCH  10  13
ENDBRANCH   3   6
ENDBRANCH   1   2
BRANCH   1  24
ATOM     24  C   UNL A   1      33.101  30.082  26.065  1.00  0.00     0.042 C 
BRANCH  24  25
ATOM     25  C   UNL A   1      33.581  29.970  27.509  1.00  0.00     0.118 C 
BRANCH  25  26
ATOM     26  N   UNL A   1      34.277  31.150  28.000  1.00  0.00    -0.352 N 
ATOM     27  C   UNL A   1      35.566  31.297  28.462  1.00  0.00     0.251 C 
ATOM     28  H   UNL A   1      33.740  31.976  28.002  1.00  0.00     0.163 HD
ATOM     29  O   UNL A   1      35.923  32.407  28.865  1.00  0.00    -0.269 OA
BRANCH  27  30
ATOM     30  C   UNL A   1      36.567  30.201  28.373  1.00  0.00     0.039 A 
ATOM     31  C   UNL A   1      36.675  29.341  29.478  1.00  0.00     0.014 A 
ATOM     32  C   UNL A   1      37.458  30.058  27.311  1.00  0.00     0.014 A 
ATOM     33  C   UNL A   1      37.782  28.504  29.615  1.00  0.00     0.010 A 
ATOM     34  C   UNL A   1      38.584  29.265  27.462  1.00  0.00     0.010 A 
ATOM     35  C   UNL A   1      38.782  28.550  28.647  1.00  0.00    -0.014 A 
BRANCH  35  36
ATOM     36  C   UNL A   1      40.126  28.040  28.886  1.00  0.00     0.031 A 
ATOM     37  C   UNL A   1      40.592  26.760  28.329  1.00  0.00     0.074 A 
ATOM     38  C   UNL A   1      41.005  28.845  29.521  1.00  0.00     0.049 A 
ATOM     39  N   UNL A   1      41.613  26.110  28.780  1.00  0.00    -0.248 NA
ATOM     40  C   UNL A   1      39.921  26.088  27.226  1.00  0.00     0.031 C 
ATOM     41  C   UNL A   1      42.457  28.710  29.572  1.00  0.00     0.029 A 
ATOM     42  N   UNL A   1      40.741  29.927  30.358  1.00  0.00    -0.354 N 
ATOM     43  C   UNL A   1      41.931  25.153  27.849  1.00  0.00     0.074 A 
ATOM     44  C   UNL A   1      40.786  25.102  26.965  1.00  0.00     0.031 C 
ATOM     45  C   UNL A   1      42.940  29.510  30.538  1.00  0.00     0.029 A 
ATOM     46  C   UNL A   1      41.793  30.009  31.276  1.00  0.00     0.049 A 
ATOM     47  H   UNL A   1      39.960  30.524  30.311  1.00  0.00     0.167 HD
ATOM     48  C   UNL A   1      43.188  24.624  27.830  1.00  0.00     0.031 A 
ATOM     49  C   UNL A   1      41.621  29.873  32.622  1.00  0.00     0.031 A 
ATOM     50  C   UNL A   1      44.042  25.191  28.878  1.00  0.00     0.049 A 
ATOM     51  C   UNL A   1      42.428  28.700  33.132  1.00  0.00     0.074 A 
ATOM     52  C   UNL A   1      45.060  26.132  28.855  1.00  0.00     0.029 A 
ATOM     53  N   UNL A   1      43.704  25.015  30.219  1.00  0.00    -0.354 N 
ATOM     54  N   UNL A   1      42.766  27.686  32.380  1.00  0.00    -0.248 NA
ATOM     55  C   UNL A   1      42.952  28.586  34.488  1.00  0.00     0.031 C 
ATOM     56  C   UNL A   1      45.281  26.574  30.187  1.00  0.00     0.029 A 
ATOM     57  C   UNL A   1      44.421  25.880  31.023  1.00  0.00     0.049 A 
ATOM     58  H   UNL A   1      43.043  24.364  30.549  1.00  0.00     0.167 HD
ATOM     59  C   UNL A   1      43.630  26.883  33.064  1.00  0.00     0.074 A 
ATOM     60  C   UNL A   1      43.665  27.448  34.402  1.00  0.00     0.031 C 
ATOM     61  C   UNL A   1      44.288  25.844  32.474  1.00  0.00     0.031 A 
BRANCH  48  62
ATOM     62  C   UNL A   1      43.724  23.812  26.669  1.00  0.00    -0.014 A 
ATOM     63  C   UNL A   1      44.195  24.456  25.510  1.00  0.00     0.009 A 
ATOM     64  C   UNL A   1      43.767  22.408  26.646  1.00  0.00     0.009 A 
ATOM     65  C   UNL A   1      44.589  23.744  24.367  1.00  0.00     0.001 A 
ATOM     66  C   UNL A   1      44.118  21.687  25.495  1.00  0.00     0.001 A 
ATOM     67  C   UNL A   1      44.521  22.358  24.350  1.00  0.00     0.000 A 
ENDBRANCH  48  62
BRANCH  49  68
ATOM     68  C   UNL A   1      40.264  30.280  33.083  1.00  0.00    -0.014 A 
ATOM     69  C   UNL A   1      39.903  31.636  32.921  1.00  0.00     0.009 A 
ATOM     70  C   UNL A   1      39.243  29.328  33.217  1.00  0.00     0.009 A 
ATOM     71  C   UNL A   1      38.564  32.008  32.762  1.00  0.00     0.001 A 
ATOM     72  C   UNL A   1      37.902  29.710  33.073  1.00  0.00     0.001 A 
ATOM     73  C   UNL A   1      37.567  31.039  32.808  1.00  0.00     0.000 A 
ENDBRANCH  49  68
BRANCH  61  74
ATOM     74  C   UNL A   1      44.966  24.729  33.219  1.00  0.00    -0.014 A 
ATOM     75  C   UNL A   1      46.257  24.840  33.751  1.00  0.00     0.009 A 
ATOM     76  C   UNL A   1      44.218  23.588  33.580  1.00  0.00     0.009 A 
ATOM     77  C   UNL A   1      46.784  23.845  34.582  1.00  0.00     0.001 A 
ATOM     78  C   UNL A   1      44.725  22.616  34.442  1.00  0.00     0.001 A 
ATOM     79  C   UNL A   1      46.014  22.743  34.939  1.00  0.00     0.000 A 
ENDBRANCH  61  74
ENDBRANCH  35  36
ENDBRANCH  27  30
ENDBRANCH  25  26
ENDBRANCH  24  25
ENDBRANCH   1  24
TORSDOF 13
ENDMDL
MODEL 2
REMARK VINA RESULT:     -11.8      3.425      8.394
REMARK SMILES Cc1cccc(C(=O)NCCCNC(=O)c2ccc(-c3c4nc(c(-c5ccccc5)c5ccc([nH]5)c(-c5ccccc5)c5nc(c(-c6ccccc6)c6ccc3[nH]6)C=C5)C=C4)cc2)c1NC(=O)Cc1ccccc1
REMARK SMILES IDX 10 1 9 2 7 3 8 4 6 6 1 7 2 8 3 9 64 10 4 11 5 12 65 13 66 14
REMARK SMILES IDX 67 16 68 17 69 18 70 19 74 20 71 21 73 22 72 23 11 24 12 25
REMARK SMILES IDX 13 26 14 27 15 29 16 30 17 31 63 32 18 33 62 34 19 35 20 36
REMARK SMILES IDX 21 37 56 38 22 39 61 40 55 41 57 42 23 43 60 44 54 45 53 46
REMARK SMILES IDX 24 48 46 49 31 50 45 51 32 52 35 53 44 54 58 55 33 56 34 57
REMARK SMILES IDX 43 59 59 60 36 61 25 62 26 63 30 64 27 65 29 66 28 67 47 68
REMARK SMILES IDX 48 69 52 70 49 71 51 72 50 73 37 74 38 75 42 76 39 77 41 78
REMARK SMILES IDX 40 79
REMARK H PARENT 9 5 65 15 13 28 57 47 35 58
REMARK Flexibility Score: inf
ROOT
ATOM      1  C   UNL A   1      35.907  21.079  25.197  1.00  0.00     0.118 C 
ENDROOT
BRANCH   1   2
ATOM      2  N   UNL A   1      35.502  21.564  26.515  1.00  0.00    -0.352 N 
ATOM      3  C   UNL A   1      34.585  22.539  26.869  1.00  0.00     0.253 C 
ATOM      4  O   UNL A   1      34.013  22.451  27.954  1.00  0.00    -0.269 OA
ATOM      5  H   UNL A   1      35.953  21.127  27.272  1.00  0.00     0.163 HD
BRANCH   3   6
ATOM      6  C   UNL A   1      34.246  23.675  25.972  1.00  0.00     0.063 A 
ATOM      7  C   UNL A   1      32.895  27.116  26.495  1.00  0.00     0.046 C 
ATOM      8  C   UNL A   1      33.412  25.906  25.774  1.00  0.00    -0.027 A 
ATOM      9  C   UNL A   1      34.101  26.061  24.567  1.00  0.00     0.005 A 
ATOM     10  C   UNL A   1      33.266  24.610  26.280  1.00  0.00     0.056 A 
ATOM     11  C   UNL A   1      34.787  24.982  24.011  1.00  0.00     0.001 A 
ATOM     12  C   UNL A   1      34.940  23.819  24.765  1.00  0.00     0.016 A 
BRANCH  10  13
ATOM     13  N   UNL A   1      32.042  24.305  26.901  1.00  0.00    -0.325 N 
ATOM     14  C   UNL A   1      30.882  23.782  26.402  1.00  0.00     0.228 C 
ATOM     15  H   UNL A   1      32.016  24.502  27.865  1.00  0.00     0.169 HD
ATOM     16  O   UNL A   1      29.987  23.567  27.230  1.00  0.00    -0.274 OA
BRANCH  14  17
ATOM     17  C   UNL A   1      30.642  23.569  24.909  1.00  0.00     0.135 C 
BRANCH  17  18
ATOM     18  C   UNL A   1      30.545  24.848  24.117  1.00  0.00    -0.039 A 
ATOM     19  C   UNL A   1      31.197  24.953  22.881  1.00  0.00     0.004 A 
ATOM     20  C   UNL A   1      29.805  25.937  24.588  1.00  0.00     0.004 A 
ATOM     21  C   UNL A   1      31.197  26.157  22.189  1.00  0.00     0.000 A 
ATOM     22  C   UNL A   1      29.790  27.131  23.892  1.00  0.00     0.000 A 
ATOM     23  C   UNL A   1      30.514  27.242  22.713  1.00  0.00     0.000 A 
ENDBRANCH  17  18
ENDBRANCH  14  17
ENDBRANCH  10  13
ENDBRANCH   3   6
ENDBRANCH   1   2
BRANCH   1  24
ATOM     24  C   UNL A   1      37.310  21.453  24.712  1.00  0.00     0.042 C 
BRANCH  24  25
ATOM     25  C   UNL A   1      38.426  21.487  25.753  1.00  0.00     0.118 C 
BRANCH  25  26
ATOM     26  N   UNL A   1      39.284  20.312  25.745  1.00  0.00    -0.352 N 
ATOM     27  C   UNL A   1      40.631  20.190  26.010  1.00  0.00     0.251 C 
ATOM     28  H   UNL A   1      38.831  19.469  25.511  1.00  0.00     0.163 HD
ATOM     29  O   UNL A   1      41.153  19.078  25.901  1.00  0.00    -0.269 OA
BRANCH  27  30
ATOM     30  C   UNL A   1      41.438  21.321  26.541  1.00  0.00     0.039 A 
ATOM     31  C   UNL A   1      41.472  21.484  27.936  1.00  0.00     0.014 A 
ATOM     32  C   UNL A   1      42.059  22.269  25.731  1.00  0.00     0.014 A 
ATOM     33  C   UNL A   1      41.926  22.677  28.496  1.00  0.00     0.010 A 
ATOM     34  C   UNL A   1      42.468  23.476  26.276  1.00  0.00     0.010 A 
ATOM     35  C   UNL A   1      42.327  23.706  27.648  1.00  0.00    -0.014 A 
BRANCH  35  36
ATOM     36  C   UNL A   1      42.429  25.090  28.092  1.00  0.00     0.031 A 
ATOM     37  C   UNL A   1      41.268  25.994  28.122  1.00  0.00     0.074 A 
ATOM     38  C   UNL A   1      43.600  25.501  28.626  1.00  0.00     0.049 A 
ATOM     39  N   UNL A   1      41.360  27.281  28.167  1.00  0.00    -0.248 NA
ATOM     40  C   UNL A   1      39.894  25.515  28.074  1.00  0.00     0.031 C 
ATOM     41  C   UNL A   1      43.841  26.693  29.431  1.00  0.00     0.029 A 
ATOM     42  N   UNL A   1      44.869  24.952  28.454  1.00  0.00    -0.354 N 
ATOM     43  C   UNL A   1      40.118  27.768  28.490  1.00  0.00     0.074 A 
ATOM     44  C   UNL A   1      39.221  26.648  28.306  1.00  0.00     0.031 C 
ATOM     45  C   UNL A   1      45.164  26.912  29.509  1.00  0.00     0.029 A 
ATOM     46  C   UNL A   1      45.792  25.997  28.574  1.00  0.00     0.049 A 
ATOM     47  H   UNL A   1      45.078  24.006  28.280  1.00  0.00     0.167 HD
ATOM     48  C   UNL A   1      40.005  29.015  29.033  1.00  0.00     0.031 A 
ATOM     49  C   UNL A   1      46.626  26.375  27.563  1.00  0.00     0.031 A 
ATOM     50  C   UNL A   1      41.306  29.674  29.179  1.00  0.00     0.049 A 
ATOM     51  C   UNL A   1      46.366  27.817  27.190  1.00  0.00     0.074 A 
ATOM     52  C   UNL A   1      42.128  29.901  30.272  1.00  0.00     0.029 A 
ATOM     53  N   UNL A   1      42.076  29.948  28.049  1.00  0.00    -0.354 N 
ATOM     54  N   UNL A   1      45.219  28.409  27.388  1.00  0.00    -0.248 NA
ATOM     55  C   UNL A   1      47.364  28.714  26.617  1.00  0.00     0.031 C 
ATOM     56  C   UNL A   1      43.419  30.244  29.790  1.00  0.00     0.029 A 
ATOM     57  C   UNL A   1      43.375  30.257  28.404  1.00  0.00     0.049 A 
ATOM     58  H   UNL A   1      41.740  29.925  27.124  1.00  0.00     0.167 HD
ATOM     59  C   UNL A   1      45.343  29.740  27.116  1.00  0.00     0.074 A 
ATOM     60  C   UNL A   1      46.684  29.874  26.573  1.00  0.00     0.031 C 
ATOM     61  C   UNL A   1      44.359  30.641  27.400  1.00  0.00     0.031 A 
BRANCH  48  62
ATOM     62  C   UNL A   1      38.741  29.510  29.703  1.00  0.00    -0.014 A 
ATOM     63  C   UNL A   1      38.472  29.178  31.044  1.00  0.00     0.009 A 
ATOM     64  C   UNL A   1      37.763  30.288  29.060  1.00  0.00     0.009 A 
ATOM     65  C   UNL A   1      37.261  29.515  31.668  1.00  0.00     0.001 A 
ATOM     66  C   UNL A   1      36.533  30.592  29.661  1.00  0.00     0.001 A 
ATOM     67  C   UNL A   1      36.278  30.197  30.965  1.00  0.00     0.000 A 
ENDBRANCH  48  62
BRANCH  49  68
ATOM     68  C   UNL A   1      46.953  25.264  26.626  1.00  0.00    -0.014 A 
ATOM     69  C   UNL A   1      46.372  24.003  26.886  1.00  0.00     0.009 A 
ATOM     70  C   UNL A   1      47.398  25.540  25.325  1.00  0.00     0.009 A 
ATOM     71  C   UNL A   1      46.122  23.100  25.847  1.00  0.00     0.001 A 
ATOM     72  C   UNL A   1      47.159  24.623  24.291  1.00  0.00     0.001 A 
ATOM     73  C   UNL A   1      46.489  23.425  24.545  1.00  0.00     0.000 A 
ENDBRANCH  49  68
BRANCH  61  74
ATOM     74  C   UNL A   1      44.280  32.028  26.828  1.00  0.00    -0.014 A 
ATOM     75  C   UNL A   1      44.144  32.284  25.458  1.00  0.00     0.009 A 
ATOM     76  C   UNL A   1      44.134  33.126  27.704  1.00  0.00     0.009 A 
ATOM     77  C   UNL A   1      43.902  33.577  24.984  1.00  0.00     0.001 A 
ATOM     78  C   UNL A   1      43.850  34.409  27.237  1.00  0.00     0.001 A 
ATOM     79  C   UNL A   1      43.740  34.636  25.873  1.00  0.00     0.000 A 
ENDBRANCH  61  74
ENDBRANCH  35  36
ENDBRANCH  27  30
ENDBRANCH  25  26
ENDBRANCH  24  25
ENDBRANCH   1  24
TORSDOF 13
ENDMDL
MODEL 3
REMARK VINA RESULT:     -11.6      0.952      1.833
REMARK SMILES Cc1cccc(C(=O)NCCCNC(=O)c2ccc(-c3c4nc(c(-c5ccccc5)c5ccc([nH]5)c(-c5ccccc5)c5nc(c(-c6ccccc6)c6ccc3[nH]6)C=C5)C=C4)cc2)c1NC(=O)Cc1ccccc1
REMARK SMILES IDX 10 1 9 2 7 3 8 4 6 6 1 7 2 8 3 9 64 10 4 11 5 12 65 13 66 14
REMARK SMILES IDX 67 16 68 17 69 18 70 19 74 20 71 21 73 22 72 23 11 24 12 25
REMARK SMILES IDX 13 26 14 27 15 29 16 30 17 31 63 32 18 33 62 34 19 35 20 36
REMARK SMILES IDX 21 37 56 38 22 39 61 40 55 41 57 42 23 43 60 44 54 45 53 46
REMARK SMILES IDX 24 48 46 49 31 50 45 51 32 52 35 53 44 54 58 55 33 56 34 57
REMARK SMILES IDX 43 59 59 60 36 61 25 62 26 63 30 64 27 65 29 66 28 67 47 68
REMARK SMILES IDX 48 69 52 70 49 71 51 72 50 73 37 74 38 75 42 76 39 77 41 78
REMARK SMILES IDX 40 79
REMARK H PARENT 9 5 65 15 13 28 57 47 35 58
REMARK Flexibility Score: inf
ROOT
ATOM      1  C   UNL A   1      32.839  29.545  25.056  1.00  0.00     0.118 C 
ENDROOT
BRANCH   1   2
ATOM      2  N   UNL A   1      31.866  29.706  23.976  1.00  0.00    -0.352 N 
ATOM      3  C   UNL A   1      31.209  28.756  23.213  1.00  0.00     0.253 C 
ATOM      4  O   UNL A   1      30.102  29.027  22.750  1.00  0.00    -0.269 OA
ATOM      5  H   UNL A   1      31.643  30.638  23.757  1.00  0.00     0.163 HD
BRANCH   3   6
ATOM      6  C   UNL A   1      31.781  27.408  22.955  1.00  0.00     0.063 A 
ATOM      7  C   UNL A   1      30.531  23.912  23.342  1.00  0.00     0.046 C 
ATOM      8  C   UNL A   1      31.467  25.040  23.023  1.00  0.00    -0.027 A 
ATOM      9  C   UNL A   1      32.430  24.879  22.021  1.00  0.00     0.005 A 
ATOM     10  C   UNL A   1      31.397  26.280  23.668  1.00  0.00     0.056 A 
ATOM     11  C   UNL A   1      33.142  25.983  21.554  1.00  0.00     0.001 A 
ATOM     12  C   UNL A   1      32.746  27.259  21.952  1.00  0.00     0.016 A 
BRANCH  10  13
ATOM     13  N   UNL A   1      31.126  26.263  25.048  1.00  0.00    -0.325 N 
ATOM     14  C   UNL A   1      31.959  26.265  26.131  1.00  0.00     0.228 C 
ATOM     15  H   UNL A   1      30.168  26.248  25.273  1.00  0.00     0.169 HD
ATOM     16  O   UNL A   1      31.405  26.314  27.237  1.00  0.00    -0.274 OA
BRANCH  14  17
ATOM     17  C   UNL A   1      33.474  26.109  26.015  1.00  0.00     0.135 C 
BRANCH  17  18
ATOM     18  C   UNL A   1      33.912  24.751  25.527  1.00  0.00    -0.039 A 
ATOM     19  C   UNL A   1      33.283  23.599  26.016  1.00  0.00     0.004 A 
ATOM     20  C   UNL A   1      34.936  24.617  24.583  1.00  0.00     0.004 A 
ATOM     21  C   UNL A   1      33.743  22.341  25.650  1.00  0.00     0.000 A 
ATOM     22  C   UNL A   1      35.384  23.366  24.205  1.00  0.00     0.000 A 
ATOM     23  C   UNL A   1      34.805  22.236  24.766  1.00  0.00     0.000 A 
ENDBRANCH  17  18
ENDBRANCH  14  17
ENDBRANCH  10  13
ENDBRANCH   3   6
ENDBRANCH   1   2
BRANCH   1  24
ATOM     24  C   UNL A   1      32.596  30.341  26.342  1.00  0.00     0.042 C 
BRANCH  24  25
ATOM     25  C   UNL A   1      33.546  30.092  27.510  1.00  0.00     0.118 C 
BRANCH  25  26
ATOM     26  N   UNL A   1      34.251  31.280  27.968  1.00  0.00    -0.352 N 
ATOM     27  C   UNL A   1      35.540  31.428  28.432  1.00  0.00     0.251 C 
ATOM     28  H   UNL A   1      33.722  32.110  27.944  1.00  0.00     0.163 HD
ATOM     29  O   UNL A   1      35.906  32.546  28.803  1.00  0.00    -0.269 OA
BRANCH  27  30
ATOM     30  C   UNL A   1      36.531  30.320  28.379  1.00  0.00     0.039 A 
ATOM     31  C   UNL A   1      36.632  29.496  29.513  1.00  0.00     0.014 A 
ATOM     32  C   UNL A   1      37.420  30.133  27.322  1.00  0.00     0.014 A 
ATOM     33  C   UNL A   1      37.731  28.654  29.677  1.00  0.00     0.010 A 
ATOM     34  C   UNL A   1      38.539  29.335  27.499  1.00  0.00     0.010 A 
ATOM     35  C   UNL A   1      38.730  28.658  28.708  1.00  0.00    -0.014 A 
BRANCH  35  36
ATOM     36  C   UNL A   1      40.070  28.145  28.964  1.00  0.00     0.031 A 
ATOM     37  C   UNL A   1      40.534  26.857  28.425  1.00  0.00     0.074 A 
ATOM     38  C   UNL A   1      40.948  28.952  29.597  1.00  0.00     0.049 A 
ATOM     39  N   UNL A   1      41.548  26.206  28.891  1.00  0.00    -0.248 NA
ATOM     40  C   UNL A   1      39.869  26.176  27.323  1.00  0.00     0.031 C 
ATOM     41  C   UNL A   1      42.399  28.810  29.663  1.00  0.00     0.029 A 
ATOM     42  N   UNL A   1      40.682  30.044  30.421  1.00  0.00    -0.354 N 
ATOM     43  C   UNL A   1      41.869  25.238  27.973  1.00  0.00     0.074 A 
ATOM     44  C   UNL A   1      40.731  25.183  27.079  1.00  0.00     0.031 C 
ATOM     45  C   UNL A   1      42.877  29.618  30.624  1.00  0.00     0.029 A 
ATOM     46  C   UNL A   1      41.727  30.130  31.347  1.00  0.00     0.049 A 
ATOM     47  H   UNL A   1      39.904  30.644  30.361  1.00  0.00     0.167 HD
ATOM     48  C   UNL A   1      43.124  24.702  27.969  1.00  0.00     0.031 A 
ATOM     49  C   UNL A   1      41.542  30.009  32.693  1.00  0.00     0.031 A 
ATOM     50  C   UNL A   1      43.972  25.277  29.019  1.00  0.00     0.049 A 
ATOM     51  C   UNL A   1      42.339  28.838  33.221  1.00  0.00     0.074 A 
ATOM     52  C   UNL A   1      44.995  26.212  28.995  1.00  0.00     0.029 A 
ATOM     53  N   UNL A   1      43.621  25.117  30.359  1.00  0.00    -0.354 N 
ATOM     54  N   UNL A   1      42.678  27.815  32.483  1.00  0.00    -0.248 NA
ATOM     55  C   UNL A   1      42.852  28.737  34.584  1.00  0.00     0.031 C 
ATOM     56  C   UNL A   1      45.207  26.667  30.324  1.00  0.00     0.029 A 
ATOM     57  C   UNL A   1      44.336  25.986  31.160  1.00  0.00     0.049 A 
ATOM     58  H   UNL A   1      42.954  24.472  30.690  1.00  0.00     0.167 HD
ATOM     59  C   UNL A   1      43.532  27.015  33.184  1.00  0.00     0.074 A 
ATOM     60  C   UNL A   1      43.560  27.594  34.516  1.00  0.00     0.031 C 
ATOM     61  C   UNL A   1      44.191  25.967  32.610  1.00  0.00     0.031 A 
BRANCH  48  62
ATOM     62  C   UNL A   1      43.665  23.876  26.822  1.00  0.00    -0.014 A 
ATOM     63  C   UNL A   1      44.365  24.495  25.769  1.00  0.00     0.009 A 
ATOM     64  C   UNL A   1      43.496  22.486  26.707  1.00  0.00     0.009 A 
ATOM     65  C   UNL A   1      44.780  23.787  24.631  1.00  0.00     0.001 A 
ATOM     66  C   UNL A   1      43.868  21.778  25.555  1.00  0.00     0.001 A 
ATOM     67  C   UNL A   1      44.504  22.432  24.511  1.00  0.00     0.000 A 
ENDBRANCH  48  62
BRANCH  49  68
ATOM     68  C   UNL A   1      40.184  30.428  33.138  1.00  0.00    -0.014 A 
ATOM     69  C   UNL A   1      39.819  31.776  32.928  1.00  0.00     0.009 A 
ATOM     70  C   UNL A   1      39.166  29.478  33.305  1.00  0.00     0.009 A 
ATOM     71  C   UNL A   1      38.479  32.138  32.755  1.00  0.00     0.001 A 
ATOM     72  C   UNL A   1      37.824  29.851  33.146  1.00  0.00     0.001 A 
ATOM     73  C   UNL A   1      37.485  31.168  32.834  1.00  0.00     0.000 A 
ENDBRANCH  49  68
BRANCH  61  74
ATOM     74  C   UNL A   1      44.857  24.856  33.372  1.00  0.00    -0.014 A 
ATOM     75  C   UNL A   1      44.283  23.589  33.535  1.00  0.00     0.009 A 
ATOM     76  C   UNL A   1      46.200  25.010  33.779  1.00  0.00     0.009 A 
ATOM     77  C   UNL A   1      45.007  22.534  34.101  1.00  0.00     0.001 A 
ATOM     78  C   UNL A   1      46.938  23.949  34.303  1.00  0.00     0.001 A 
ATOM     79  C   UNL A   1      46.337  22.710  34.470  1.00  0.00     0.000 A 
ENDBRANCH  61  74
ENDBRANCH  35  36
ENDBRANCH  27  30
ENDBRANCH  25  26
ENDBRANCH  24  25
ENDBRANCH   1  24
TORSDOF 13
ENDMDL
