MODEL 1
REMARK VINA RESULT:     -11.5      0.000      0.000
REMARK SMILES Cc1cc(C(=O)Nc2c(Cl)cc(Cl)cc2C(=O)NCCCNC(=O)c2ccc(-c3c4nc(c(-c5ccccc5)c5ccc([nH]5)c(-c5ccccc5)c5nc(c(-c6ccccc6)c6ccc3[nH]6)C=C5)C=C4)cc2)c(C)s1
REMARK SMILES IDX 20 1 19 2 18 3 16 4 17 5 15 7 8 8 9 9 10 10 11 11 14 12
REMARK SMILES IDX 12 13 13 14 7 15 5 16 6 17 4 19 1 20 2 21 3 22 75 23 73 24
REMARK SMILES IDX 74 25 21 26 22 27 23 28 24 30 25 31 26 32 72 33 27 34 71 35
REMARK SMILES IDX 28 36 29 37 30 38 65 39 31 40 70 41 64 42 66 43 32 44 69 45
REMARK SMILES IDX 63 46 62 47 33 49 55 50 40 51 54 52 41 53 44 54 53 55 67 56
REMARK SMILES IDX 42 57 43 58 52 60 68 61 45 62 34 63 35 64 39 65 36 66 38 67
REMARK SMILES IDX 37 68 56 69 57 70 61 71 58 72 60 73 59 74 46 75 47 76 51 77
REMARK SMILES IDX 48 78 50 79 49 80
REMARK H PARENT 18 6 7 18 22 29 66 48 44 59
REMARK Flexibility Score: inf
ROOT
ATOM      1  C   UNL A   1      37.770  19.674  24.977  1.00  0.00     0.042 C 
ENDROOT
BRANCH   1   2
ATOM      2  C   UNL A   1      36.619  20.641  24.861  1.00  0.00     0.118 C 
BRANCH   2   3
ATOM      3  N   UNL A   1      36.793  21.804  24.040  1.00  0.00    -0.352 N 
ATOM      4  C   UNL A   1      35.959  22.874  23.839  1.00  0.00     0.253 C 
ATOM      5  O   UNL A   1      36.401  23.770  23.114  1.00  0.00    -0.269 OA
ATOM      6  H   UNL A   1      37.644  21.840  23.545  1.00  0.00     0.163 HD
BRANCH   4   7
ATOM      7  C   UNL A   1      34.555  23.027  24.362  1.00  0.00     0.066 A 
ATOM      8  C   UNL A   1      33.383  23.511  23.728  1.00  0.00     0.073 A 
ATOM      9  C   UNL A   1      32.137  23.397  24.400  1.00  0.00     0.066 A 
ATOM     10  Cl  UNL A   1      30.636  23.796  23.625  1.00  0.00    -0.082 Cl
ATOM     11  C   UNL A   1      32.059  22.954  25.719  1.00  0.00     0.043 A 
ATOM     12  C   UNL A   1      34.439  22.586  25.702  1.00  0.00     0.036 A 
ATOM     13  C   UNL A   1      33.218  22.577  26.373  1.00  0.00     0.043 A 
ATOM     14  Cl  UNL A   1      33.147  22.088  28.020  1.00  0.00    -0.084 Cl
BRANCH   8  15
ATOM     15  N   UNL A   1      33.390  24.101  22.453  1.00  0.00    -0.320 N 
ATOM     16  C   UNL A   1      33.154  25.432  22.096  1.00  0.00     0.256 C 
ATOM     17  O   UNL A   1      33.207  25.681  20.889  1.00  0.00    -0.269 OA
ATOM     18  H   UNL A   1      33.589  23.491  21.707  1.00  0.00     0.170 HD
BRANCH  16  19
ATOM     19  C   UNL A   1      32.980  26.518  23.098  1.00  0.00     0.054 A 
ATOM     20  C   UNL A   1      34.014  28.097  26.361  1.00  0.00     0.056 C 
ATOM     21  C   UNL A   1      33.377  27.743  25.063  1.00  0.00     0.003 A 
ATOM     22  C   UNL A   1      33.947  27.087  23.997  1.00  0.00     0.029 A 
ATOM     23  S   UNL A   1      31.763  28.131  24.727  1.00  0.00    -0.145 S 
ATOM     24  C   UNL A   1      31.800  27.254  23.244  1.00  0.00     0.014 A 
ATOM     25  C   UNL A   1      30.590  27.352  22.367  1.00  0.00     0.057 C 
ENDBRANCH  16  19
ENDBRANCH   8  15
ENDBRANCH   4   7
ENDBRANCH   2   3
ENDBRANCH   1   2
BRANCH   1  26
ATOM     26  C   UNL A   1      38.858  20.080  25.945  1.00  0.00     0.118 C 
BRANCH  26  27
ATOM     27  N   UNL A   1      40.077  19.284  25.855  1.00  0.00    -0.352 N 
ATOM     28  C   UNL A   1      41.399  19.585  26.088  1.00  0.00     0.251 C 
ATOM     29  H   UNL A   1      39.925  18.353  25.573  1.00  0.00     0.163 HD
ATOM     30  O   UNL A   1      42.256  18.731  25.852  1.00  0.00    -0.269 OA
BRANCH  28  31
ATOM     31  C   UNL A   1      41.822  20.915  26.585  1.00  0.00     0.039 A 
ATOM     32  C   UNL A   1      42.165  21.918  25.671  1.00  0.00     0.014 A 
ATOM     33  C   UNL A   1      41.914  21.184  27.945  1.00  0.00     0.014 A 
ATOM     34  C   UNL A   1      42.532  23.187  26.132  1.00  0.00     0.010 A 
ATOM     35  C   UNL A   1      42.093  22.483  28.394  1.00  0.00     0.010 A 
ATOM     36  C   UNL A   1      42.467  23.490  27.500  1.00  0.00    -0.014 A 
BRANCH  36  37
ATOM     37  C   UNL A   1      42.874  24.809  28.045  1.00  0.00     0.031 A 
ATOM     38  C   UNL A   1      41.825  25.861  28.323  1.00  0.00     0.074 A 
ATOM     39  C   UNL A   1      44.178  25.093  28.232  1.00  0.00     0.049 A 
ATOM     40  N   UNL A   1      41.973  27.091  28.749  1.00  0.00    -0.248 NA
ATOM     41  C   UNL A   1      40.424  25.500  28.038  1.00  0.00     0.031 C 
ATOM     42  C   UNL A   1      45.295  24.188  27.955  1.00  0.00     0.029 A 
ATOM     43  N   UNL A   1      44.781  26.229  28.707  1.00  0.00    -0.354 N 
ATOM     44  C   UNL A   1      40.700  27.648  28.740  1.00  0.00     0.074 A 
ATOM     45  C   UNL A   1      39.806  26.658  28.188  1.00  0.00     0.031 C 
ATOM     46  C   UNL A   1      46.441  24.779  28.328  1.00  0.00     0.029 A 
ATOM     47  C   UNL A   1      46.144  26.119  28.824  1.00  0.00     0.049 A 
ATOM     48  H   UNL A   1      44.284  27.046  28.944  1.00  0.00     0.167 HD
ATOM     49  C   UNL A   1      40.293  28.861  29.186  1.00  0.00     0.031 A 
ATOM     50  C   UNL A   1      47.051  26.995  29.295  1.00  0.00     0.031 A 
ATOM     51  C   UNL A   1      41.177  29.831  29.768  1.00  0.00     0.049 A 
ATOM     52  C   UNL A   1      46.582  28.335  29.791  1.00  0.00     0.074 A 
ATOM     53  C   UNL A   1      40.869  31.059  30.323  1.00  0.00     0.029 A 
ATOM     54  N   UNL A   1      42.552  29.677  29.872  1.00  0.00    -0.354 N 
ATOM     55  N   UNL A   1      45.365  28.819  29.851  1.00  0.00    -0.248 NA
ATOM     56  C   UNL A   1      47.617  29.243  30.304  1.00  0.00     0.031 C 
ATOM     57  C   UNL A   1      42.065  31.675  30.706  1.00  0.00     0.029 A 
ATOM     58  C   UNL A   1      43.110  30.800  30.457  1.00  0.00     0.049 A 
ATOM     59  H   UNL A   1      43.055  28.885  29.573  1.00  0.00     0.167 HD
ATOM     60  C   UNL A   1      45.482  30.068  30.447  1.00  0.00     0.074 A 
ATOM     61  C   UNL A   1      46.888  30.261  30.737  1.00  0.00     0.031 C 
ATOM     62  C   UNL A   1      44.513  30.971  30.737  1.00  0.00     0.031 A 
BRANCH  49  63
ATOM     63  C   UNL A   1      38.831  29.194  29.043  1.00  0.00    -0.014 A 
ATOM     64  C   UNL A   1      38.308  29.716  27.846  1.00  0.00     0.009 A 
ATOM     65  C   UNL A   1      37.963  28.999  30.128  1.00  0.00     0.009 A 
ATOM     66  C   UNL A   1      36.966  30.094  27.762  1.00  0.00     0.001 A 
ATOM     67  C   UNL A   1      36.612  29.340  30.028  1.00  0.00     0.001 A 
ATOM     68  C   UNL A   1      36.119  29.903  28.853  1.00  0.00     0.000 A 
ENDBRANCH  49  63
BRANCH  50  69
ATOM     69  C   UNL A   1      48.485  26.609  29.383  1.00  0.00    -0.014 A 
ATOM     70  C   UNL A   1      49.362  26.917  28.331  1.00  0.00     0.009 A 
ATOM     71  C   UNL A   1      48.987  25.943  30.510  1.00  0.00     0.009 A 
ATOM     72  C   UNL A   1      50.706  26.541  28.394  1.00  0.00     0.001 A 
ATOM     73  C   UNL A   1      50.338  25.595  30.584  1.00  0.00     0.001 A 
ATOM     74  C   UNL A   1      51.194  25.886  29.523  1.00  0.00     0.000 A 
ENDBRANCH  50  69
BRANCH  62  75
ATOM     75  C   UNL A   1      44.935  32.224  31.455  1.00  0.00    -0.014 A 
ATOM     76  C   UNL A   1      44.987  32.291  32.855  1.00  0.00     0.009 A 
ATOM     77  C   UNL A   1      45.314  33.350  30.706  1.00  0.00     0.009 A 
ATOM     78  C   UNL A   1      45.364  33.477  33.490  1.00  0.00     0.001 A 
ATOM     79  C   UNL A   1      45.726  34.520  31.341  1.00  0.00     0.001 A 
ATOM     80  C   UNL A   1      45.738  34.587  32.733  1.00  0.00     0.000 A 
ENDBRANCH  62  75
ENDBRANCH  36  37
ENDBRANCH  28  31
ENDBRANCH  26  27
ENDBRANCH   1  26
TORSDOF 12
ENDMDL
MODEL 2
REMARK VINA RESULT:     -11.5      3.811      8.701
REMARK SMILES Cc1cc(C(=O)Nc2c(Cl)cc(Cl)cc2C(=O)NCCCNC(=O)c2ccc(-c3c4nc(c(-c5ccccc5)c5ccc([nH]5)c(-c5ccccc5)c5nc(c(-c6ccccc6)c6ccc3[nH]6)C=C5)C=C4)cc2)c(C)s1
REMARK SMILES IDX 20 1 19 2 18 3 16 4 17 5 15 7 8 8 9 9 10 10 11 11 14 12
REMARK SMILES IDX 12 13 13 14 7 15 5 16 6 17 4 19 1 20 2 21 3 22 75 23 73 24
REMARK SMILES IDX 74 25 21 26 22 27 23 28 24 30 25 31 26 32 72 33 27 34 71 35
REMARK SMILES IDX 28 36 29 37 30 38 65 39 31 40 70 41 64 42 66 43 32 44 69 45
REMARK SMILES IDX 63 46 62 47 33 49 55 50 40 51 54 52 41 53 44 54 53 55 67 56
REMARK SMILES IDX 42 57 43 58 52 60 68 61 45 62 34 63 35 64 39 65 36 66 38 67
REMARK SMILES IDX 37 68 56 69 57 70 61 71 58 72 60 73 59 74 46 75 47 76 51 77
REMARK SMILES IDX 48 78 50 79 49 80
REMARK H PARENT 18 6 7 18 22 29 66 48 44 59
REMARK Flexibility Score: inf
ROOT
ATOM      1  C   UNL A   1      31.423  31.926  26.888  1.00  0.00     0.042 C 
ENDROOT
BRANCH   1   2
ATOM      2  C   UNL A   1      31.763  30.550  26.375  1.00  0.00     0.118 C 
BRANCH   2   3
ATOM      3  N   UNL A   1      31.730  29.456  27.303  1.00  0.00    -0.352 N 
ATOM      4  C   UNL A   1      31.835  28.107  27.079  1.00  0.00     0.253 C 
ATOM      5  O   UNL A   1      31.832  27.394  28.086  1.00  0.00    -0.269 OA
ATOM      6  H   UNL A   1      31.615  29.714  28.246  1.00  0.00     0.163 HD
BRANCH   4   7
ATOM      7  C   UNL A   1      31.892  27.423  25.738  1.00  0.00     0.066 A 
ATOM      8  C   UNL A   1      31.345  26.187  25.311  1.00  0.00     0.073 A 
ATOM      9  C   UNL A   1      31.405  25.844  23.933  1.00  0.00     0.066 A 
ATOM     10  Cl  UNL A   1      30.602  24.442  23.300  1.00  0.00    -0.082 Cl
ATOM     11  C   UNL A   1      32.113  26.624  23.020  1.00  0.00     0.043 A 
ATOM     12  C   UNL A   1      32.605  28.188  24.784  1.00  0.00     0.036 A 
ATOM     13  C   UNL A   1      32.734  27.780  23.458  1.00  0.00     0.043 A 
ATOM     14  Cl  UNL A   1      33.662  28.718  22.357  1.00  0.00    -0.084 Cl
BRANCH   8  15
ATOM     15  N   UNL A   1      30.735  25.275  26.188  1.00  0.00    -0.320 N 
ATOM     16  C   UNL A   1      31.173  24.008  26.587  1.00  0.00     0.256 C 
ATOM     17  O   UNL A   1      30.428  23.404  27.364  1.00  0.00    -0.269 OA
ATOM     18  H   UNL A   1      29.880  25.569  26.576  1.00  0.00     0.170 HD
BRANCH  16  19
ATOM     19  C   UNL A   1      32.506  23.461  26.216  1.00  0.00     0.054 A 
ATOM     20  C   UNL A   1      36.186  24.038  25.638  1.00  0.00     0.056 C 
ATOM     21  C   UNL A   1      34.814  23.477  25.780  1.00  0.00     0.003 A 
ATOM     22  C   UNL A   1      33.813  23.904  26.620  1.00  0.00     0.029 A 
ATOM     23  S   UNL A   1      34.291  22.158  24.854  1.00  0.00    -0.145 S 
ATOM     24  C   UNL A   1      32.682  22.301  25.455  1.00  0.00     0.014 A 
ATOM     25  C   UNL A   1      31.711  21.232  25.058  1.00  0.00     0.057 C 
ENDBRANCH  16  19
ENDBRANCH   8  15
ENDBRANCH   4   7
ENDBRANCH   2   3
ENDBRANCH   1   2
BRANCH   1  26
ATOM     26  C   UNL A   1      32.554  32.928  26.845  1.00  0.00     0.118 C 
BRANCH  26  27
ATOM     27  N   UNL A   1      32.390  34.066  27.741  1.00  0.00    -0.352 N 
ATOM     28  C   UNL A   1      33.145  34.533  28.793  1.00  0.00     0.251 C 
ATOM     29  H   UNL A   1      31.586  34.604  27.561  1.00  0.00     0.163 HD
ATOM     30  O   UNL A   1      32.727  35.490  29.449  1.00  0.00    -0.269 OA
BRANCH  28  31
ATOM     31  C   UNL A   1      34.427  33.900  29.176  1.00  0.00     0.039 A 
ATOM     32  C   UNL A   1      34.456  32.976  30.227  1.00  0.00     0.014 A 
ATOM     33  C   UNL A   1      35.616  34.223  28.531  1.00  0.00     0.014 A 
ATOM     34  C   UNL A   1      35.658  32.348  30.573  1.00  0.00     0.010 A 
ATOM     35  C   UNL A   1      36.759  33.469  28.746  1.00  0.00     0.010 A 
ATOM     36  C   UNL A   1      36.815  32.565  29.811  1.00  0.00    -0.014 A 
BRANCH  36  37
ATOM     37  C   UNL A   1      38.123  31.949  30.151  1.00  0.00     0.031 A 
ATOM     38  C   UNL A   1      39.053  32.650  31.114  1.00  0.00     0.074 A 
ATOM     39  C   UNL A   1      38.507  30.803  29.557  1.00  0.00     0.049 A 
ATOM     40  N   UNL A   1      40.257  32.309  31.503  1.00  0.00    -0.248 NA
ATOM     41  C   UNL A   1      38.590  33.931  31.678  1.00  0.00     0.031 C 
ATOM     42  C   UNL A   1      37.728  30.051  28.571  1.00  0.00     0.029 A 
ATOM     43  N   UNL A   1      39.655  30.066  29.705  1.00  0.00    -0.354 N 
ATOM     44  C   UNL A   1      40.697  33.348  32.315  1.00  0.00     0.074 A 
ATOM     45  C   UNL A   1      39.675  34.366  32.295  1.00  0.00     0.031 C 
ATOM     46  C   UNL A   1      38.390  28.926  28.254  1.00  0.00     0.029 A 
ATOM     47  C   UNL A   1      39.658  28.903  28.976  1.00  0.00     0.049 A 
ATOM     48  H   UNL A   1      40.404  30.344  30.281  1.00  0.00     0.167 HD
ATOM     49  C   UNL A   1      41.833  33.439  33.048  1.00  0.00     0.031 A 
ATOM     50  C   UNL A   1      40.575  27.920  28.910  1.00  0.00     0.031 A 
ATOM     51  C   UNL A   1      42.833  32.410  33.095  1.00  0.00     0.049 A 
ATOM     52  C   UNL A   1      41.828  28.034  29.734  1.00  0.00     0.074 A 
ATOM     53  C   UNL A   1      43.985  32.357  33.858  1.00  0.00     0.029 A 
ATOM     54  N   UNL A   1      42.794  31.244  32.344  1.00  0.00    -0.354 N 
ATOM     55  N   UNL A   1      42.195  28.985  30.560  1.00  0.00    -0.248 NA
ATOM     56  C   UNL A   1      42.784  26.923  29.630  1.00  0.00     0.031 C 
ATOM     57  C   UNL A   1      44.675  31.188  33.522  1.00  0.00     0.029 A 
ATOM     58  C   UNL A   1      43.917  30.478  32.604  1.00  0.00     0.049 A 
ATOM     59  H   UNL A   1      42.075  31.000  31.717  1.00  0.00     0.167 HD
ATOM     60  C   UNL A   1      43.403  28.568  31.105  1.00  0.00     0.074 A 
ATOM     61  C   UNL A   1      43.698  27.274  30.522  1.00  0.00     0.031 C 
ATOM     62  C   UNL A   1      44.192  29.193  32.013  1.00  0.00     0.031 A 
BRANCH  49  63
ATOM     63  C   UNL A   1      42.044  34.703  33.839  1.00  0.00    -0.014 A 
ATOM     64  C   UNL A   1      41.582  34.831  35.162  1.00  0.00     0.009 A 
ATOM     65  C   UNL A   1      42.702  35.793  33.248  1.00  0.00     0.009 A 
ATOM     66  C   UNL A   1      41.716  36.041  35.848  1.00  0.00     0.001 A 
ATOM     67  C   UNL A   1      42.871  36.988  33.951  1.00  0.00     0.001 A 
ATOM     68  C   UNL A   1      42.363  37.117  35.242  1.00  0.00     0.000 A 
ENDBRANCH  49  63
BRANCH  50  69
ATOM     69  C   UNL A   1      40.313  26.711  28.085  1.00  0.00    -0.014 A 
ATOM     70  C   UNL A   1      40.825  26.624  26.781  1.00  0.00     0.009 A 
ATOM     71  C   UNL A   1      39.563  25.639  28.591  1.00  0.00     0.009 A 
ATOM     72  C   UNL A   1      40.568  25.502  25.991  1.00  0.00     0.001 A 
ATOM     73  C   UNL A   1      39.333  24.504  27.808  1.00  0.00     0.001 A 
ATOM     74  C   UNL A   1      39.828  24.440  26.507  1.00  0.00     0.000 A 
ENDBRANCH  50  69
BRANCH  62  75
ATOM     75  C   UNL A   1      45.422  28.460  32.474  1.00  0.00    -0.014 A 
ATOM     76  C   UNL A   1      45.398  27.606  33.587  1.00  0.00     0.009 A 
ATOM     77  C   UNL A   1      46.620  28.609  31.758  1.00  0.00     0.009 A 
ATOM     78  C   UNL A   1      46.563  26.956  34.001  1.00  0.00     0.001 A 
ATOM     79  C   UNL A   1      47.772  27.930  32.150  1.00  0.00     0.001 A 
ATOM     80  C   UNL A   1      47.746  27.114  33.280  1.00  0.00     0.000 A 
ENDBRANCH  62  75
ENDBRANCH  36  37
ENDBRANCH  28  31
ENDBRANCH  26  27
ENDBRANCH   1  26
TORSDOF 12
ENDMDL
MODEL 3
REMARK VINA RESULT:     -11.5      1.255      6.183
REMARK SMILES Cc1cc(C(=O)Nc2c(Cl)cc(Cl)cc2C(=O)NCCCNC(=O)c2ccc(-c3c4nc(c(-c5ccccc5)c5ccc([nH]5)c(-c5ccccc5)c5nc(c(-c6ccccc6)c6ccc3[nH]6)C=C5)C=C4)cc2)c(C)s1
REMARK SMILES IDX 20 1 19 2 18 3 16 4 17 5 15 7 8 8 9 9 10 10 11 11 14 12
REMARK SMILES IDX 12 13 13 14 7 15 5 16 6 17 4 19 1 20 2 21 3 22 75 23 73 24
REMARK SMILES IDX 74 25 21 26 22 27 23 28 24 30 25 31 26 32 72 33 27 34 71 35
REMARK SMILES IDX 28 36 29 37 30 38 65 39 31 40 70 41 64 42 66 43 32 44 69 45
REMARK SMILES IDX 63 46 62 47 33 49 55 50 40 51 54 52 41 53 44 54 53 55 67 56
REMARK SMILES IDX 42 57 43 58 52 60 68 61 45 62 34 63 35 64 39 65 36 66 38 67
REMARK SMILES IDX 37 68 56 69 57 70 61 71 58 72 60 73 59 74 46 75 47 76 51 77
REMARK SMILES IDX 48 78 50 79 49 80
REMARK H PARENT 18 6 7 18 22 29 66 48 44 59
REMARK Flexibility Score: inf
ROOT
ATOM      1  C   UNL A   1      38.329  20.146  24.982  1.00  0.00     0.042 C 
ENDROOT
BRANCH   1   2
ATOM      2  C   UNL A   1      37.765  21.524  25.219  1.00  0.00     0.118 C 
BRANCH   2   3
ATOM      3  N   UNL A   1      37.279  22.259  24.087  1.00  0.00    -0.352 N 
ATOM      4  C   UNL A   1      36.007  22.671  23.783  1.00  0.00     0.253 C 
ATOM      5  O   UNL A   1      35.892  23.347  22.756  1.00  0.00    -0.269 OA
ATOM      6  H   UNL A   1      37.966  22.507  23.426  1.00  0.00     0.163 HD
BRANCH   4   7
ATOM      7  C   UNL A   1      34.750  22.330  24.539  1.00  0.00     0.066 A 
ATOM      8  C   UNL A   1      33.925  23.134  25.366  1.00  0.00     0.073 A 
ATOM      9  C   UNL A   1      32.692  22.605  25.835  1.00  0.00     0.066 A 
ATOM     10  Cl  UNL A   1      31.544  23.580  26.696  1.00  0.00    -0.082 Cl
ATOM     11  C   UNL A   1      32.344  21.273  25.621  1.00  0.00     0.043 A 
ATOM     12  C   UNL A   1      34.366  20.981  24.345  1.00  0.00     0.036 A 
ATOM     13  C   UNL A   1      33.199  20.459  24.900  1.00  0.00     0.043 A 
ATOM     14  Cl  UNL A   1      32.813  18.798  24.681  1.00  0.00    -0.084 Cl
BRANCH   8  15
ATOM     15  N   UNL A   1      34.265  24.442  25.746  1.00  0.00    -0.320 N 
ATOM     16  C   UNL A   1      33.943  25.654  25.125  1.00  0.00     0.256 C 
ATOM     17  O   UNL A   1      34.388  26.669  25.668  1.00  0.00    -0.269 OA
ATOM     18  H   UNL A   1      34.807  24.517  26.565  1.00  0.00     0.170 HD
BRANCH  16  19
ATOM     19  C   UNL A   1      33.018  25.744  23.964  1.00  0.00     0.054 A 
ATOM     20  C   UNL A   1      32.499  25.632  20.232  1.00  0.00     0.056 C 
ATOM     21  C   UNL A   1      32.354  25.733  21.710  1.00  0.00     0.003 A 
ATOM     22  C   UNL A   1      33.117  25.116  22.674  1.00  0.00     0.029 A 
ATOM     23  S   UNL A   1      31.154  26.691  22.425  1.00  0.00    -0.145 S 
ATOM     24  C   UNL A   1      31.790  26.413  24.003  1.00  0.00     0.014 A 
ATOM     25  C   UNL A   1      31.001  26.947  25.157  1.00  0.00     0.057 C 
ENDBRANCH  16  19
ENDBRANCH   8  15
ENDBRANCH   4   7
ENDBRANCH   2   3
ENDBRANCH   1   2
BRANCH   1  26
ATOM     26  C   UNL A   1      39.133  19.573  26.127  1.00  0.00     0.118 C 
BRANCH  26  27
ATOM     27  N   UNL A   1      40.454  19.080  25.753  1.00  0.00    -0.352 N 
ATOM     28  C   UNL A   1      41.707  19.642  25.826  1.00  0.00     0.251 C 
ATOM     29  H   UNL A   1      40.447  18.171  25.375  1.00  0.00     0.163 HD
ATOM     30  O   UNL A   1      42.666  19.027  25.354  1.00  0.00    -0.269 OA
BRANCH  28  31
ATOM     31  C   UNL A   1      41.931  20.977  26.428  1.00  0.00     0.039 A 
ATOM     32  C   UNL A   1      41.890  21.124  27.819  1.00  0.00     0.014 A 
ATOM     33  C   UNL A   1      42.153  22.099  25.639  1.00  0.00     0.014 A 
ATOM     34  C   UNL A   1      42.134  22.374  28.397  1.00  0.00     0.010 A 
ATOM     35  C   UNL A   1      42.577  23.288  26.212  1.00  0.00     0.010 A 
ATOM     36  C   UNL A   1      42.513  23.462  27.597  1.00  0.00    -0.014 A 
BRANCH  36  37
ATOM     37  C   UNL A   1      42.753  24.817  28.155  1.00  0.00     0.031 A 
ATOM     38  C   UNL A   1      44.150  25.220  28.568  1.00  0.00     0.074 A 
ATOM     39  C   UNL A   1      41.723  25.662  28.352  1.00  0.00     0.049 A 
ATOM     40  N   UNL A   1      44.565  26.332  29.123  1.00  0.00    -0.248 NA
ATOM     41  C   UNL A   1      45.218  24.221  28.379  1.00  0.00     0.031 C 
ATOM     42  C   UNL A   1      40.319  25.380  28.046  1.00  0.00     0.029 A 
ATOM     43  N   UNL A   1      41.703  26.939  28.854  1.00  0.00    -0.354 N 
ATOM     44  C   UNL A   1      45.918  26.143  29.379  1.00  0.00     0.074 A 
ATOM     45  C   UNL A   1      46.236  24.787  29.002  1.00  0.00     0.031 C 
ATOM     46  C   UNL A   1      39.585  26.475  28.302  1.00  0.00     0.029 A 
ATOM     47  C   UNL A   1      40.458  27.516  28.836  1.00  0.00     0.049 A 
ATOM     48  H   UNL A   1      42.506  27.397  29.193  1.00  0.00     0.167 HD
ATOM     49  C   UNL A   1      46.831  27.026  29.850  1.00  0.00     0.031 A 
ATOM     50  C   UNL A   1      40.067  28.753  29.195  1.00  0.00     0.031 A 
ATOM     51  C   UNL A   1      46.520  28.386  30.191  1.00  0.00     0.049 A 
ATOM     52  C   UNL A   1      41.095  29.722  29.711  1.00  0.00     0.074 A 
ATOM     53  C   UNL A   1      47.375  29.391  30.604  1.00  0.00     0.029 A 
ATOM     54  N   UNL A   1      45.245  28.932  30.154  1.00  0.00    -0.354 N 
ATOM     55  N   UNL A   1      42.386  29.556  29.873  1.00  0.00    -0.248 NA
ATOM     56  C   UNL A   1      40.609  31.060  30.074  1.00  0.00     0.031 C 
ATOM     57  C   UNL A   1      46.608  30.528  30.877  1.00  0.00     0.029 A 
ATOM     58  C   UNL A   1      45.286  30.252  30.563  1.00  0.00     0.049 A 
ATOM     59  H   UNL A   1      44.433  28.449  29.877  1.00  0.00     0.167 HD
ATOM     60  C   UNL A   1      42.873  30.779  30.315  1.00  0.00     0.074 A 
ATOM     61  C   UNL A   1      41.739  31.678  30.386  1.00  0.00     0.031 C 
ATOM     62  C   UNL A   1      44.145  31.130  30.626  1.00  0.00     0.031 A 
BRANCH  49  63
ATOM     63  C   UNL A   1      48.242  26.529  30.030  1.00  0.00    -0.014 A 
ATOM     64  C   UNL A   1      49.194  26.626  28.999  1.00  0.00     0.009 A 
ATOM     65  C   UNL A   1      48.622  25.939  31.245  1.00  0.00     0.009 A 
ATOM     66  C   UNL A   1      50.472  26.084  29.160  1.00  0.00     0.001 A 
ATOM     67  C   UNL A   1      49.914  25.435  31.417  1.00  0.00     0.001 A 
ATOM     68  C   UNL A   1      50.831  25.492  30.369  1.00  0.00     0.000 A 
ENDBRANCH  49  63
BRANCH  50  69
ATOM     69  C   UNL A   1      38.650  29.168  29.016  1.00  0.00    -0.014 A 
ATOM     70  C   UNL A   1      37.739  29.033  30.075  1.00  0.00     0.009 A 
ATOM     71  C   UNL A   1      38.201  29.704  27.800  1.00  0.00     0.009 A 
ATOM     72  C   UNL A   1      36.401  29.402  29.912  1.00  0.00     0.001 A 
ATOM     73  C   UNL A   1      36.870  30.099  27.649  1.00  0.00     0.001 A 
ATOM     74  C   UNL A   1      35.970  29.939  28.701  1.00  0.00     0.000 A 
ENDBRANCH  50  69
BRANCH  62  75
ATOM     75  C   UNL A   1      44.386  32.563  31.016  1.00  0.00    -0.014 A 
ATOM     76  C   UNL A   1      44.664  33.552  30.060  1.00  0.00     0.009 A 
ATOM     77  C   UNL A   1      44.302  32.930  32.369  1.00  0.00     0.009 A 
ATOM     78  C   UNL A   1      44.902  34.869  30.458  1.00  0.00     0.001 A 
ATOM     79  C   UNL A   1      44.503  34.253  32.759  1.00  0.00     0.001 A 
ATOM     80  C   UNL A   1      44.816  35.219  31.805  1.00  0.00     0.000 A 
ENDBRANCH  62  75
ENDBRANCH  36  37
ENDBRANCH  28  31
ENDBRANCH  26  27
ENDBRANCH   1  26
TORSDOF 12
ENDMDL
