MODEL 1
REMARK VINA RESULT:     -12.4      0.000      0.000
REMARK SMILES CCC(=O)N1CCc2cc(C(=O)NC3(C(=O)NCCCNC(=O)c4ccc(-c5c6nc(c(-c7ccccc7)c7ccc([nH]7)c(-c7ccccc7)c7nc(c(-c8ccccc8)c8ccc5[nH]8)C=C7)C=C6)cc4)CCCC3)ccc21
REMARK SMILES IDX 18 1 17 2 15 3 16 4 14 6 72 7 75 8 73 9 74 10 13 11 11 12
REMARK SMILES IDX 12 13 10 15 5 16 6 17 78 18 7 19 8 20 77 21 9 22 76 23 3 24
REMARK SMILES IDX 4 25 2 26 1 27 19 28 20 29 21 30 22 31 23 33 24 34 25 35
REMARK SMILES IDX 71 36 26 37 70 38 27 39 28 40 29 41 64 42 30 43 69 44 63 45
REMARK SMILES IDX 65 46 31 47 68 48 62 49 61 50 32 52 54 53 39 54 53 55 40 56
REMARK SMILES IDX 43 57 52 58 66 59 41 60 42 61 51 63 67 64 44 65 33 66 34 67
REMARK SMILES IDX 38 68 35 69 37 70 36 71 55 72 56 73 60 74 57 75 59 76 58 77
REMARK SMILES IDX 45 78 46 79 50 80 47 81 49 82 48 83
REMARK H PARENT 17 5 13 14 21 32 65 51 43 62
REMARK Flexibility Score: inf
ROOT
ATOM      1  C   UNL A   1      35.907  21.051  24.806  1.00  0.00     0.117 C 
ENDROOT
BRANCH   1   2
ATOM      2  N   UNL A   1      35.280  21.014  26.118  1.00  0.00    -0.354 N 
ATOM      3  C   UNL A   1      34.159  21.613  26.626  1.00  0.00     0.245 C 
ATOM      4  O   UNL A   1      33.808  21.247  27.755  1.00  0.00    -0.272 OA
ATOM      5  H   UNL A   1      35.757  20.450  26.768  1.00  0.00     0.163 HD
BRANCH   3   6
ATOM      6  C   UNL A   1      33.378  22.765  25.889  1.00  0.00     0.119 C 
ATOM      7  C   UNL A   1      33.172  22.443  24.410  1.00  0.00     0.038 C 
ATOM      8  C   UNL A   1      34.248  24.022  26.005  1.00  0.00     0.038 C 
ATOM      9  C   UNL A   1      33.913  23.511  23.618  1.00  0.00     0.003 C 
ATOM     10  C   UNL A   1      34.608  24.455  24.588  1.00  0.00     0.003 C 
BRANCH   6  11
ATOM     11  N   UNL A   1      32.066  22.911  26.603  1.00  0.00    -0.338 N 
ATOM     12  C   UNL A   1      30.982  23.768  26.583  1.00  0.00     0.252 C 
ATOM     13  O   UNL A   1      29.993  23.473  27.253  1.00  0.00    -0.269 OA
ATOM     14  H   UNL A   1      31.944  22.199  27.272  1.00  0.00     0.164 HD
BRANCH  12  15
ATOM     15  C   UNL A   1      30.907  24.997  25.741  1.00  0.00     0.040 A 
ATOM     16  N   UNL A   1      30.171  28.576  23.751  1.00  0.00    -0.312 N 
ATOM     17  C   UNL A   1      31.047  29.518  24.453  1.00  0.00     0.130 C 
ATOM     18  C   UNL A   1      30.412  27.302  24.260  1.00  0.00     0.047 A 
ATOM     19  C   UNL A   1      31.722  28.743  25.601  1.00  0.00     0.059 C 
ATOM     20  C   UNL A   1      31.137  27.371  25.446  1.00  0.00    -0.022 A 
ATOM     21  C   UNL A   1      30.184  26.085  23.675  1.00  0.00     0.027 A 
ATOM     22  C   UNL A   1      31.334  26.237  26.237  1.00  0.00     0.019 A 
ATOM     23  C   UNL A   1      30.518  24.943  24.405  1.00  0.00     0.016 A 
BRANCH  16  24
ATOM     24  C   UNL A   1      29.390  28.968  22.689  1.00  0.00     0.226 C 
ATOM     25  O   UNL A   1      29.900  29.277  21.607  1.00  0.00    -0.275 OA
BRANCH  24  26
ATOM     26  C   UNL A   1      27.944  29.398  22.966  1.00  0.00     0.097 C 
ATOM     27  C   UNL A   1      27.624  30.816  23.368  1.00  0.00     0.014 C 
ENDBRANCH  24  26
ENDBRANCH  16  24
ENDBRANCH  12  15
ENDBRANCH   6  11
ENDBRANCH   3   6
ENDBRANCH   1   2
BRANCH   1  28
ATOM     28  C   UNL A   1      37.157  20.189  24.681  1.00  0.00     0.042 C 
BRANCH  28  29
ATOM     29  C   UNL A   1      38.359  20.756  25.404  1.00  0.00     0.118 C 
BRANCH  29  30
ATOM     30  N   UNL A   1      39.417  19.765  25.559  1.00  0.00    -0.352 N 
ATOM     31  C   UNL A   1      40.714  19.912  25.986  1.00  0.00     0.251 C 
ATOM     32  H   UNL A   1      39.161  18.845  25.320  1.00  0.00     0.163 HD
ATOM     33  O   UNL A   1      41.497  18.980  25.866  1.00  0.00    -0.269 OA
BRANCH  31  34
ATOM     34  C   UNL A   1      41.170  21.193  26.570  1.00  0.00     0.039 A 
ATOM     35  C   UNL A   1      41.153  21.349  27.960  1.00  0.00     0.014 A 
ATOM     36  C   UNL A   1      41.593  22.247  25.759  1.00  0.00     0.014 A 
ATOM     37  C   UNL A   1      41.596  22.545  28.527  1.00  0.00     0.010 A 
ATOM     38  C   UNL A   1      42.156  23.380  26.326  1.00  0.00     0.010 A 
ATOM     39  C   UNL A   1      42.125  23.559  27.715  1.00  0.00    -0.014 A 
BRANCH  39  40
ATOM     40  C   UNL A   1      42.583  24.851  28.276  1.00  0.00     0.031 A 
ATOM     41  C   UNL A   1      41.580  25.947  28.527  1.00  0.00     0.074 A 
ATOM     42  C   UNL A   1      43.894  25.062  28.495  1.00  0.00     0.049 A 
ATOM     43  N   UNL A   1      41.779  27.174  28.934  1.00  0.00    -0.248 NA
ATOM     44  C   UNL A   1      40.168  25.634  28.243  1.00  0.00     0.031 C 
ATOM     45  C   UNL A   1      44.966  24.095  28.247  1.00  0.00     0.029 A 
ATOM     46  N   UNL A   1      44.548  26.167  28.976  1.00  0.00    -0.354 N 
ATOM     47  C   UNL A   1      40.528  27.780  28.923  1.00  0.00     0.074 A 
ATOM     48  C   UNL A   1      39.590  26.814  28.403  1.00  0.00     0.031 C 
ATOM     49  C   UNL A   1      46.139  24.635  28.615  1.00  0.00     0.029 A 
ATOM     50  C   UNL A   1      45.907  25.999  29.081  1.00  0.00     0.049 A 
ATOM     51  H   UNL A   1      44.088  27.002  29.222  1.00  0.00     0.167 HD
ATOM     52  C   UNL A   1      40.183  29.022  29.337  1.00  0.00     0.031 A 
ATOM     53  C   UNL A   1      46.858  26.850  29.507  1.00  0.00     0.031 A 
ATOM     54  C   UNL A   1      41.116  29.970  29.880  1.00  0.00     0.049 A 
ATOM     55  C   UNL A   1      46.450  28.221  29.972  1.00  0.00     0.074 A 
ATOM     56  C   UNL A   1      40.868  31.232  30.385  1.00  0.00     0.029 A 
ATOM     57  N   UNL A   1      42.480  29.750  29.993  1.00  0.00    -0.354 N 
ATOM     58  N   UNL A   1      45.255  28.758  30.015  1.00  0.00    -0.248 NA
ATOM     59  C   UNL A   1      47.523  29.094  30.466  1.00  0.00     0.031 C 
ATOM     60  C   UNL A   1      42.091  31.799  30.757  1.00  0.00     0.029 A 
ATOM     61  C   UNL A   1      43.092  30.862  30.544  1.00  0.00     0.049 A 
ATOM     62  H   UNL A   1      42.945  28.926  29.720  1.00  0.00     0.167 HD
ATOM     63  C   UNL A   1      45.426  30.018  30.575  1.00  0.00     0.074 A 
ATOM     64  C   UNL A   1      46.839  30.156  30.866  1.00  0.00     0.031 C 
ATOM     65  C   UNL A   1      44.498  30.974  30.831  1.00  0.00     0.031 A 
BRANCH  52  66
ATOM     66  C   UNL A   1      38.735  29.415  29.211  1.00  0.00    -0.014 A 
ATOM     67  C   UNL A   1      38.227  29.967  28.023  1.00  0.00     0.009 A 
ATOM     68  C   UNL A   1      37.863  29.222  30.294  1.00  0.00     0.009 A 
ATOM     69  C   UNL A   1      36.891  30.363  27.939  1.00  0.00     0.001 A 
ATOM     70  C   UNL A   1      36.519  29.586  30.195  1.00  0.00     0.001 A 
ATOM     71  C   UNL A   1      36.036  30.168  29.023  1.00  0.00     0.000 A 
ENDBRANCH  52  66
BRANCH  53  72
ATOM     72  C   UNL A   1      48.281  26.420  29.547  1.00  0.00    -0.014 A 
ATOM     73  C   UNL A   1      48.795  25.769  30.679  1.00  0.00     0.009 A 
ATOM     74  C   UNL A   1      49.132  26.658  28.457  1.00  0.00     0.009 A 
ATOM     75  C   UNL A   1      50.139  25.393  30.732  1.00  0.00     0.001 A 
ATOM     76  C   UNL A   1      50.468  26.253  28.500  1.00  0.00     0.001 A 
ATOM     77  C   UNL A   1      50.973  25.632  29.641  1.00  0.00     0.000 A 
ENDBRANCH  53  72
BRANCH  65  78
ATOM     78  C   UNL A   1      44.976  32.227  31.509  1.00  0.00    -0.014 A 
ATOM     79  C   UNL A   1      45.028  32.334  32.907  1.00  0.00     0.009 A 
ATOM     80  C   UNL A   1      45.416  33.307  30.727  1.00  0.00     0.009 A 
ATOM     81  C   UNL A   1      45.472  33.513  33.508  1.00  0.00     0.001 A 
ATOM     82  C   UNL A   1      45.892  34.471  31.330  1.00  0.00     0.001 A 
ATOM     83  C   UNL A   1      45.907  34.578  32.718  1.00  0.00     0.000 A 
ENDBRANCH  65  78
ENDBRANCH  39  40
ENDBRANCH  31  34
ENDBRANCH  29  30
ENDBRANCH  28  29
ENDBRANCH   1  28
TORSDOF 14
ENDMDL
MODEL 2
REMARK VINA RESULT:     -12.2      3.045      8.794
REMARK SMILES CCC(=O)N1CCc2cc(C(=O)NC3(C(=O)NCCCNC(=O)c4ccc(-c5c6nc(c(-c7ccccc7)c7ccc([nH]7)c(-c7ccccc7)c7nc(c(-c8ccccc8)c8ccc5[nH]8)C=C7)C=C6)cc4)CCCC3)ccc21
REMARK SMILES IDX 18 1 17 2 15 3 16 4 14 6 72 7 75 8 73 9 74 10 13 11 11 12
REMARK SMILES IDX 12 13 10 15 5 16 6 17 78 18 7 19 8 20 77 21 9 22 76 23 3 24
REMARK SMILES IDX 4 25 2 26 1 27 19 28 20 29 21 30 22 31 23 33 24 34 25 35
REMARK SMILES IDX 71 36 26 37 70 38 27 39 28 40 29 41 64 42 30 43 69 44 63 45
REMARK SMILES IDX 65 46 31 47 68 48 62 49 61 50 32 52 54 53 39 54 53 55 40 56
REMARK SMILES IDX 43 57 52 58 66 59 41 60 42 61 51 63 67 64 44 65 33 66 34 67
REMARK SMILES IDX 38 68 35 69 37 70 36 71 55 72 56 73 60 74 57 75 59 76 58 77
REMARK SMILES IDX 45 78 46 79 50 80 47 81 49 82 48 83
REMARK H PARENT 17 5 13 14 21 32 65 51 43 62
REMARK Flexibility Score: inf
ROOT
ATOM      1  C   UNL A   1      31.468  29.688  25.508  1.00  0.00     0.117 C 
ENDROOT
BRANCH   1   2
ATOM      2  N   UNL A   1      32.490  29.717  24.473  1.00  0.00    -0.354 N 
ATOM      3  C   UNL A   1      32.969  28.762  23.617  1.00  0.00     0.245 C 
ATOM      4  O   UNL A   1      33.745  29.158  22.738  1.00  0.00    -0.272 OA
ATOM      5  H   UNL A   1      32.921  30.596  24.368  1.00  0.00     0.163 HD
BRANCH   3   6
ATOM      6  C   UNL A   1      32.649  27.227  23.760  1.00  0.00     0.119 C 
ATOM      7  C   UNL A   1      31.205  26.996  24.200  1.00  0.00     0.038 C 
ATOM      8  C   UNL A   1      33.589  26.685  24.843  1.00  0.00     0.038 C 
ATOM      9  C   UNL A   1      31.261  26.305  25.555  1.00  0.00     0.003 C 
ATOM     10  C   UNL A   1      32.716  26.150  25.972  1.00  0.00     0.003 C 
BRANCH   6  11
ATOM     11  N   UNL A   1      32.914  26.613  22.415  1.00  0.00    -0.338 N 
ATOM     12  C   UNL A   1      33.112  25.350  21.890  1.00  0.00     0.252 C 
ATOM     13  O   UNL A   1      33.169  25.230  20.667  1.00  0.00    -0.269 OA
ATOM     14  H   UNL A   1      32.960  27.302  21.713  1.00  0.00     0.164 HD
BRANCH  12  15
ATOM     15  C   UNL A   1      33.188  24.109  22.713  1.00  0.00     0.040 A 
ATOM     16  N   UNL A   1      33.610  20.356  24.458  1.00  0.00    -0.312 N 
ATOM     17  C   UNL A   1      34.950  20.426  25.048  1.00  0.00     0.130 C 
ATOM     18  C   UNL A   1      33.304  21.608  23.932  1.00  0.00     0.047 A 
ATOM     19  C   UNL A   1      35.546  21.794  24.662  1.00  0.00     0.059 C 
ATOM     20  C   UNL A   1      34.445  22.402  23.846  1.00  0.00    -0.022 A 
ATOM     21  C   UNL A   1      32.077  22.157  23.677  1.00  0.00     0.027 A 
ATOM     22  C   UNL A   1      34.421  23.626  23.176  1.00  0.00     0.019 A 
ATOM     23  C   UNL A   1      32.041  23.447  23.143  1.00  0.00     0.016 A 
BRANCH  16  24
ATOM     24  C   UNL A   1      32.821  19.236  24.586  1.00  0.00     0.226 C 
ATOM     25  O   UNL A   1      32.279  18.963  25.663  1.00  0.00    -0.275 OA
BRANCH  24  26
ATOM     26  C   UNL A   1      32.937  18.136  23.524  1.00  0.00     0.097 C 
ATOM     27  C   UNL A   1      32.343  18.324  22.151  1.00  0.00     0.014 C 
ENDBRANCH  24  26
ENDBRANCH  16  24
ENDBRANCH  12  15
ENDBRANCH   6  11
ENDBRANCH   3   6
ENDBRANCH   1   2
BRANCH   1  28
ATOM     28  C   UNL A   1      31.223  31.028  26.190  1.00  0.00     0.042 C 
BRANCH  28  29
ATOM     29  C   UNL A   1      32.420  31.543  26.960  1.00  0.00     0.118 C 
BRANCH  29  30
ATOM     30  N   UNL A   1      32.280  32.953  27.302  1.00  0.00    -0.352 N 
ATOM     31  C   UNL A   1      33.071  33.759  28.084  1.00  0.00     0.251 C 
ATOM     32  H   UNL A   1      31.494  33.398  26.910  1.00  0.00     0.163 HD
ATOM     33  O   UNL A   1      32.673  34.873  28.396  1.00  0.00    -0.269 OA
BRANCH  31  34
ATOM     34  C   UNL A   1      34.386  33.279  28.563  1.00  0.00     0.039 A 
ATOM     35  C   UNL A   1      35.541  33.679  27.885  1.00  0.00     0.014 A 
ATOM     36  C   UNL A   1      34.487  32.424  29.661  1.00  0.00     0.014 A 
ATOM     37  C   UNL A   1      36.792  33.250  28.335  1.00  0.00     0.010 A 
ATOM     38  C   UNL A   1      35.731  32.107  30.185  1.00  0.00     0.010 A 
ATOM     39  C   UNL A   1      36.895  32.481  29.504  1.00  0.00    -0.014 A 
BRANCH  39  40
ATOM     40  C   UNL A   1      38.201  31.987  30.000  1.00  0.00     0.031 A 
ATOM     41  C   UNL A   1      38.741  30.677  29.486  1.00  0.00     0.074 A 
ATOM     42  C   UNL A   1      38.862  32.671  30.952  1.00  0.00     0.049 A 
ATOM     43  N   UNL A   1      39.817  30.026  29.847  1.00  0.00    -0.248 NA
ATOM     44  C   UNL A   1      37.942  29.986  28.458  1.00  0.00     0.031 C 
ATOM     45  C   UNL A   1      38.418  33.927  31.562  1.00  0.00     0.029 A 
ATOM     46  N   UNL A   1      40.053  32.402  31.576  1.00  0.00    -0.354 N 
ATOM     47  C   UNL A   1      39.803  28.845  29.116  1.00  0.00     0.074 A 
ATOM     48  C   UNL A   1      38.581  28.833  28.346  1.00  0.00     0.031 C 
ATOM     49  C   UNL A   1      39.344  34.339  32.442  1.00  0.00     0.029 A 
ATOM     50  C   UNL A   1      40.422  33.356  32.492  1.00  0.00     0.049 A 
ATOM     51  H   UNL A   1      40.593  31.600  31.385  1.00  0.00     0.167 HD
ATOM     52  C   UNL A   1      40.738  27.868  29.064  1.00  0.00     0.031 A 
ATOM     53  C   UNL A   1      41.509  33.428  33.282  1.00  0.00     0.031 A 
ATOM     54  C   UNL A   1      41.965  27.898  29.811  1.00  0.00     0.049 A 
ATOM     55  C   UNL A   1      42.539  32.337  33.200  1.00  0.00     0.074 A 
ATOM     56  C   UNL A   1      43.010  26.993  29.791  1.00  0.00     0.029 A 
ATOM     57  N   UNL A   1      42.312  28.896  30.709  1.00  0.00    -0.354 N 
ATOM     58  N   UNL A   1      42.544  31.256  32.457  1.00  0.00    -0.248 NA
ATOM     59  C   UNL A   1      43.725  32.487  34.053  1.00  0.00     0.031 C 
ATOM     60  C   UNL A   1      43.969  27.416  30.717  1.00  0.00     0.029 A 
ATOM     61  C   UNL A   1      43.549  28.620  31.264  1.00  0.00     0.049 A 
ATOM     62  H   UNL A   1      41.760  29.683  30.921  1.00  0.00     0.167 HD
ATOM     63  C   UNL A   1      43.748  30.617  32.725  1.00  0.00     0.074 A 
ATOM     64  C   UNL A   1      44.451  31.440  33.689  1.00  0.00     0.031 C 
ATOM     65  C   UNL A   1      44.231  29.457  32.216  1.00  0.00     0.031 A 
BRANCH  52  66
ATOM     66  C   UNL A   1      40.458  26.689  28.171  1.00  0.00    -0.014 A 
ATOM     67  C   UNL A   1      40.932  26.644  26.848  1.00  0.00     0.009 A 
ATOM     68  C   UNL A   1      39.718  25.602  28.660  1.00  0.00     0.009 A 
ATOM     69  C   UNL A   1      40.628  25.560  26.022  1.00  0.00     0.001 A 
ATOM     70  C   UNL A   1      39.446  24.503  27.844  1.00  0.00     0.001 A 
ATOM     71  C   UNL A   1      39.890  24.488  26.521  1.00  0.00     0.000 A 
ENDBRANCH  52  66
BRANCH  53  72
ATOM     72  C   UNL A   1      41.695  34.590  34.190  1.00  0.00    -0.014 A 
ATOM     73  C   UNL A   1      42.340  35.751  33.736  1.00  0.00     0.009 A 
ATOM     74  C   UNL A   1      41.231  34.547  35.514  1.00  0.00     0.009 A 
ATOM     75  C   UNL A   1      42.545  36.831  34.597  1.00  0.00     0.001 A 
ATOM     76  C   UNL A   1      41.409  35.641  36.363  1.00  0.00     0.001 A 
ATOM     77  C   UNL A   1      42.076  36.777  35.909  1.00  0.00     0.000 A 
ENDBRANCH  53  72
BRANCH  65  78
ATOM     78  C   UNL A   1      45.609  29.041  32.650  1.00  0.00    -0.014 A 
ATOM     79  C   UNL A   1      46.757  29.469  31.965  1.00  0.00     0.009 A 
ATOM     80  C   UNL A   1      45.757  28.235  33.790  1.00  0.00     0.009 A 
ATOM     81  C   UNL A   1      48.023  29.062  32.390  1.00  0.00     0.001 A 
ATOM     82  C   UNL A   1      47.025  27.859  34.232  1.00  0.00     0.001 A 
ATOM     83  C   UNL A   1      48.155  28.262  33.525  1.00  0.00     0.000 A 
ENDBRANCH  65  78
ENDBRANCH  39  40
ENDBRANCH  31  34
ENDBRANCH  29  30
ENDBRANCH  28  29
ENDBRANCH   1  28
TORSDOF 14
ENDMDL
MODEL 3
REMARK VINA RESULT:     -12.1      2.835      8.670
REMARK SMILES CCC(=O)N1CCc2cc(C(=O)NC3(C(=O)NCCCNC(=O)c4ccc(-c5c6nc(c(-c7ccccc7)c7ccc([nH]7)c(-c7ccccc7)c7nc(c(-c8ccccc8)c8ccc5[nH]8)C=C7)C=C6)cc4)CCCC3)ccc21
REMARK SMILES IDX 18 1 17 2 15 3 16 4 14 6 72 7 75 8 73 9 74 10 13 11 11 12
REMARK SMILES IDX 12 13 10 15 5 16 6 17 78 18 7 19 8 20 77 21 9 22 76 23 3 24
REMARK SMILES IDX 4 25 2 26 1 27 19 28 20 29 21 30 22 31 23 33 24 34 25 35
REMARK SMILES IDX 71 36 26 37 70 38 27 39 28 40 29 41 64 42 30 43 69 44 63 45
REMARK SMILES IDX 65 46 31 47 68 48 62 49 61 50 32 52 54 53 39 54 53 55 40 56
REMARK SMILES IDX 43 57 52 58 66 59 41 60 42 61 51 63 67 64 44 65 33 66 34 67
REMARK SMILES IDX 38 68 35 69 37 70 36 71 55 72 56 73 60 74 57 75 59 76 58 77
REMARK SMILES IDX 45 78 46 79 50 80 47 81 49 82 48 83
REMARK H PARENT 17 5 13 14 21 32 65 51 43 62
REMARK Flexibility Score: inf
ROOT
ATOM      1  C   UNL A   1      31.507  29.898  25.477  1.00  0.00     0.117 C 
ENDROOT
BRANCH   1   2
ATOM      2  N   UNL A   1      31.074  29.741  24.097  1.00  0.00    -0.354 N 
ATOM      3  C   UNL A   1      30.852  28.640  23.315  1.00  0.00     0.245 C 
ATOM      4  O   UNL A   1      30.332  28.850  22.212  1.00  0.00    -0.272 OA
ATOM      5  H   UNL A   1      30.911  30.595  23.635  1.00  0.00     0.163 HD
BRANCH   3   6
ATOM      6  C   UNL A   1      31.296  27.184  23.718  1.00  0.00     0.119 C 
ATOM      7  C   UNL A   1      32.686  27.178  24.351  1.00  0.00     0.038 C 
ATOM      8  C   UNL A   1      31.340  26.368  22.421  1.00  0.00     0.038 C 
ATOM      9  C   UNL A   1      33.583  26.351  23.441  1.00  0.00     0.003 C 
ATOM     10  C   UNL A   1      32.775  25.888  22.238  1.00  0.00     0.003 C 
BRANCH   6  11
ATOM     11  N   UNL A   1      30.258  26.675  24.677  1.00  0.00    -0.338 N 
ATOM     12  C   UNL A   1      30.086  25.591  25.516  1.00  0.00     0.252 C 
ATOM     13  O   UNL A   1      29.120  25.590  26.277  1.00  0.00    -0.269 OA
ATOM     14  H   UNL A   1      29.485  27.283  24.718  1.00  0.00     0.164 HD
BRANCH  12  15
ATOM     15  C   UNL A   1      31.043  24.450  25.608  1.00  0.00     0.040 A 
ATOM     16  N   UNL A   1      34.180  21.724  25.799  1.00  0.00    -0.312 N 
ATOM     17  C   UNL A   1      34.389  21.578  27.242  1.00  0.00     0.130 C 
ATOM     18  C   UNL A   1      33.067  22.539  25.605  1.00  0.00     0.047 A 
ATOM     19  C   UNL A   1      33.418  22.547  27.943  1.00  0.00     0.059 C 
ATOM     20  C   UNL A   1      32.720  23.192  26.784  1.00  0.00    -0.022 A 
ATOM     21  C   UNL A   1      32.243  22.622  24.516  1.00  0.00     0.027 A 
ATOM     22  C   UNL A   1      31.757  24.203  26.790  1.00  0.00     0.019 A 
ATOM     23  C   UNL A   1      31.183  23.529  24.573  1.00  0.00     0.016 A 
BRANCH  16  24
ATOM     24  C   UNL A   1      34.927  21.018  24.884  1.00  0.00     0.226 C 
ATOM     25  O   UNL A   1      34.678  19.832  24.644  1.00  0.00    -0.275 OA
BRANCH  24  26
ATOM     26  C   UNL A   1      36.292  21.579  24.468  1.00  0.00     0.097 C 
ATOM     27  C   UNL A   1      36.401  22.923  23.793  1.00  0.00     0.014 C 
ENDBRANCH  24  26
ENDBRANCH  16  24
ENDBRANCH  12  15
ENDBRANCH   6  11
ENDBRANCH   3   6
ENDBRANCH   1   2
BRANCH   1  28
ATOM     28  C   UNL A   1      31.294  31.294  26.049  1.00  0.00     0.042 C 
BRANCH  28  29
ATOM     29  C   UNL A   1      32.363  31.714  27.034  1.00  0.00     0.118 C 
BRANCH  29  30
ATOM     30  N   UNL A   1      32.231  33.114  27.415  1.00  0.00    -0.352 N 
ATOM     31  C   UNL A   1      33.029  33.896  28.213  1.00  0.00     0.251 C 
ATOM     32  H   UNL A   1      31.444  33.573  27.040  1.00  0.00     0.163 HD
ATOM     33  O   UNL A   1      32.638  35.003  28.558  1.00  0.00    -0.269 OA
BRANCH  31  34
ATOM     34  C   UNL A   1      34.346  33.399  28.671  1.00  0.00     0.039 A 
ATOM     35  C   UNL A   1      35.481  33.682  27.905  1.00  0.00     0.014 A 
ATOM     36  C   UNL A   1      34.466  32.640  29.836  1.00  0.00     0.014 A 
ATOM     37  C   UNL A   1      36.733  33.235  28.333  1.00  0.00     0.010 A 
ATOM     38  C   UNL A   1      35.721  32.312  30.327  1.00  0.00     0.010 A 
ATOM     39  C   UNL A   1      36.864  32.569  29.560  1.00  0.00    -0.014 A 
BRANCH  39  40
ATOM     40  C   UNL A   1      38.170  32.059  30.037  1.00  0.00     0.031 A 
ATOM     41  C   UNL A   1      38.686  30.742  29.515  1.00  0.00     0.074 A 
ATOM     42  C   UNL A   1      38.855  32.735  30.978  1.00  0.00     0.049 A 
ATOM     43  N   UNL A   1      39.760  30.079  29.860  1.00  0.00    -0.248 NA
ATOM     44  C   UNL A   1      37.864  30.061  28.500  1.00  0.00     0.031 C 
ATOM     45  C   UNL A   1      38.435  33.997  31.593  1.00  0.00     0.029 A 
ATOM     46  N   UNL A   1      40.051  32.452  31.583  1.00  0.00    -0.354 N 
ATOM     47  C   UNL A   1      39.721  28.897  29.129  1.00  0.00     0.074 A 
ATOM     48  C   UNL A   1      38.487  28.900  28.379  1.00  0.00     0.031 C 
ATOM     49  C   UNL A   1      39.380  34.398  32.460  1.00  0.00     0.029 A 
ATOM     50  C   UNL A   1      40.446  33.402  32.493  1.00  0.00     0.049 A 
ATOM     51  H   UNL A   1      40.578  31.644  31.385  1.00  0.00     0.167 HD
ATOM     52  C   UNL A   1      40.643  27.909  29.064  1.00  0.00     0.031 A 
ATOM     53  C   UNL A   1      41.545  33.461  33.267  1.00  0.00     0.031 A 
ATOM     54  C   UNL A   1      41.882  27.924  29.792  1.00  0.00     0.049 A 
ATOM     55  C   UNL A   1      42.561  32.357  33.170  1.00  0.00     0.074 A 
ATOM     56  C   UNL A   1      42.915  27.007  29.756  1.00  0.00     0.029 A 
ATOM     57  N   UNL A   1      42.254  28.918  30.684  1.00  0.00    -0.354 N 
ATOM     58  N   UNL A   1      42.541  31.276  32.427  1.00  0.00    -0.248 NA
ATOM     59  C   UNL A   1      43.762  32.494  34.005  1.00  0.00     0.031 C 
ATOM     60  C   UNL A   1      43.893  27.419  30.667  1.00  0.00     0.029 A 
ATOM     61  C   UNL A   1      43.496  28.627  31.220  1.00  0.00     0.049 A 
ATOM     62  H   UNL A   1      41.715  29.712  30.904  1.00  0.00     0.167 HD
ATOM     63  C   UNL A   1      43.741  30.623  32.677  1.00  0.00     0.074 A 
ATOM     64  C   UNL A   1      44.469  31.437  33.629  1.00  0.00     0.031 C 
ATOM     65  C   UNL A   1      44.203  29.456  32.161  1.00  0.00     0.031 A 
BRANCH  52  66
ATOM     66  C   UNL A   1      40.335  26.733  28.175  1.00  0.00    -0.014 A 
ATOM     67  C   UNL A   1      39.574  25.646  28.637  1.00  0.00     0.009 A 
ATOM     68  C   UNL A   1      40.804  26.716  26.853  1.00  0.00     0.009 A 
ATOM     69  C   UNL A   1      39.333  24.547  27.811  1.00  0.00     0.001 A 
ATOM     70  C   UNL A   1      40.531  25.632  26.017  1.00  0.00     0.001 A 
ATOM     71  C   UNL A   1      39.807  24.542  26.501  1.00  0.00     0.000 A 
ENDBRANCH  52  66
BRANCH  53  72
ATOM     72  C   UNL A   1      41.759  34.621  34.171  1.00  0.00    -0.014 A 
ATOM     73  C   UNL A   1      42.418  35.771  33.709  1.00  0.00     0.009 A 
ATOM     74  C   UNL A   1      41.309  34.586  35.500  1.00  0.00     0.009 A 
ATOM     75  C   UNL A   1      42.649  36.849  34.566  1.00  0.00     0.001 A 
ATOM     76  C   UNL A   1      41.513  35.679  36.346  1.00  0.00     0.001 A 
ATOM     77  C   UNL A   1      42.193  36.804  35.883  1.00  0.00     0.000 A 
ENDBRANCH  53  72
BRANCH  65  78
ATOM     78  C   UNL A   1      45.582  29.024  32.574  1.00  0.00    -0.014 A 
ATOM     79  C   UNL A   1      46.724  29.435  31.870  1.00  0.00     0.009 A 
ATOM     80  C   UNL A   1      45.738  28.220  33.715  1.00  0.00     0.009 A 
ATOM     81  C   UNL A   1      47.992  29.013  32.275  1.00  0.00     0.001 A 
ATOM     82  C   UNL A   1      47.008  27.829  34.137  1.00  0.00     0.001 A 
ATOM     83  C   UNL A   1      48.132  28.215  33.410  1.00  0.00     0.000 A 
ENDBRANCH  65  78
ENDBRANCH  39  40
ENDBRANCH  31  34
ENDBRANCH  29  30
ENDBRANCH  28  29
ENDBRANCH   1  28
TORSDOF 14
ENDMDL
