MODEL 1
REMARK VINA RESULT:     -10.6      0.000      0.000
REMARK SMILES Cc1ccc(/C=C/C(=O)N[C@@H](CO)C(=O)NCCCNC(=O)c2ccc(-c3c4nc(c(-c5ccccc5)c5ccc([nH]5)c(-c5ccccc5)c5nc(c(-c6ccccc6)c6ccc3[nH]6)C=C5)C=C4)cc2)o1
REMARK SMILES IDX 17 1 16 2 14 3 15 4 11 6 10 7 8 8 9 9 7 11 6 12 5 13 1 14
REMARK SMILES IDX 2 15 3 16 71 17 4 18 12 19 13 20 18 22 19 23 20 24 21 25
REMARK SMILES IDX 22 27 23 28 24 29 70 30 25 31 69 32 26 33 27 34 28 35 63 36
REMARK SMILES IDX 29 37 68 38 62 39 64 40 30 41 67 42 61 43 60 44 31 46 53 47
REMARK SMILES IDX 38 48 52 49 39 50 42 51 51 52 65 53 40 54 41 55 50 57 66 58
REMARK SMILES IDX 43 59 32 60 33 61 37 62 34 63 36 64 35 65 54 66 55 67 59 68
REMARK SMILES IDX 56 69 58 70 57 71 44 72 45 73 49 74 46 75 48 76 47 77
REMARK H PARENT 16 5 10 10 13 21 20 26 64 45 42 56
REMARK Flexibility Score: inf
ROOT
ATOM      1  C   UNL A   1      36.228  20.345  25.089  1.00  0.00     0.117 C 
ENDROOT
BRANCH   1   2
ATOM      2  N   UNL A   1      36.073  21.479  25.980  1.00  0.00    -0.354 N 
ATOM      3  C   UNL A   1      35.292  22.589  25.872  1.00  0.00     0.244 C 
ATOM      4  O   UNL A   1      35.316  23.389  26.813  1.00  0.00    -0.273 OA
ATOM      5  H   UNL A   1      36.622  21.441  26.796  1.00  0.00     0.163 HD
BRANCH   3   6
ATOM      6  C   UNL A   1      34.430  22.882  24.631  1.00  0.00     0.197 C 
BRANCH   6   7
ATOM      7  N   UNL A   1      33.010  22.886  24.992  1.00  0.00    -0.339 N 
ATOM      8  C   UNL A   1      32.173  21.898  25.408  1.00  0.00     0.244 C 
ATOM      9  O   UNL A   1      31.033  22.206  25.750  1.00  0.00    -0.270 OA
ATOM     10  H   UNL A   1      32.581  23.770  24.921  1.00  0.00     0.164 HD
BRANCH   8  11
ATOM     11  C   UNL A   1      32.540  20.465  25.333  1.00  0.00     0.075 C 
ATOM     12  C   UNL A   1      32.539  19.714  24.224  1.00  0.00     0.053 C 
BRANCH  12  13
ATOM     13  C   UNL A   1      32.824  18.323  24.271  1.00  0.00     0.127 A 
ATOM     14  C   UNL A   1      32.328  15.099  25.786  1.00  0.00     0.087 C 
ATOM     15  C   UNL A   1      32.789  16.198  24.915  1.00  0.00     0.101 A 
ATOM     16  C   UNL A   1      33.734  16.275  23.921  1.00  0.00     0.046 A 
ATOM     17  O   UNL A   1      32.209  17.417  25.106  1.00  0.00    -0.462 OA
ATOM     18  C   UNL A   1      33.760  17.627  23.515  1.00  0.00     0.050 A 
ENDBRANCH  12  13
ENDBRANCH   8  11
ENDBRANCH   6   7
BRANCH   6  19
ATOM     19  C   UNL A   1      34.905  24.069  23.782  1.00  0.00     0.191 C 
BRANCH  19  20
ATOM     20  O   UNL A   1      34.200  24.268  22.564  1.00  0.00    -0.394 OA
ATOM     21  H   UNL A   1      34.822  24.229  21.821  1.00  0.00     0.210 HD
ENDBRANCH  19  20
ENDBRANCH   6  19
ENDBRANCH   3   6
ENDBRANCH   1   2
BRANCH   1  22
ATOM     22  C   UNL A   1      37.670  20.116  24.671  1.00  0.00     0.042 C 
BRANCH  22  23
ATOM     23  C   UNL A   1      38.689  20.408  25.759  1.00  0.00     0.118 C 
BRANCH  23  24
ATOM     24  N   UNL A   1      39.767  19.428  25.805  1.00  0.00    -0.352 N 
ATOM     25  C   UNL A   1      41.105  19.597  26.075  1.00  0.00     0.251 C 
ATOM     26  H   UNL A   1      39.494  18.502  25.612  1.00  0.00     0.163 HD
ATOM     27  O   UNL A   1      41.893  18.682  25.882  1.00  0.00    -0.269 OA
BRANCH  25  28
ATOM     28  C   UNL A   1      41.591  20.900  26.576  1.00  0.00     0.039 A 
ATOM     29  C   UNL A   1      42.114  21.828  25.672  1.00  0.00     0.014 A 
ATOM     30  C   UNL A   1      41.513  21.210  27.934  1.00  0.00     0.014 A 
ATOM     31  C   UNL A   1      42.480  23.098  26.122  1.00  0.00     0.010 A 
ATOM     32  C   UNL A   1      41.774  22.506  28.360  1.00  0.00     0.010 A 
ATOM     33  C   UNL A   1      42.269  23.462  27.462  1.00  0.00    -0.014 A 
BRANCH  33  34
ATOM     34  C   UNL A   1      42.573  24.825  27.964  1.00  0.00     0.031 A 
ATOM     35  C   UNL A   1      43.973  25.160  28.403  1.00  0.00     0.074 A 
ATOM     36  C   UNL A   1      41.580  25.725  28.114  1.00  0.00     0.049 A 
ATOM     37  N   UNL A   1      44.418  26.241  28.991  1.00  0.00    -0.248 NA
ATOM     38  C   UNL A   1      45.005  24.130  28.185  1.00  0.00     0.031 C 
ATOM     39  C   UNL A   1      40.174  25.509  27.763  1.00  0.00     0.029 A 
ATOM     40  N   UNL A   1      41.602  27.001  28.619  1.00  0.00    -0.354 N 
ATOM     41  C   UNL A   1      45.765  26.006  29.239  1.00  0.00     0.074 A 
ATOM     42  C   UNL A   1      46.057  24.667  28.784  1.00  0.00     0.031 C 
ATOM     43  C   UNL A   1      39.474  26.620  28.046  1.00  0.00     0.029 A 
ATOM     44  C   UNL A   1      40.367  27.607  28.643  1.00  0.00     0.049 A 
ATOM     45  H   UNL A   1      42.423  27.442  28.933  1.00  0.00     0.167 HD
ATOM     46  C   UNL A   1      46.682  26.840  29.782  1.00  0.00     0.031 A 
ATOM     47  C   UNL A   1      39.995  28.813  29.111  1.00  0.00     0.031 A 
ATOM     48  C   UNL A   1      46.397  28.183  30.206  1.00  0.00     0.049 A 
ATOM     49  C   UNL A   1      41.036  29.717  29.713  1.00  0.00     0.074 A 
ATOM     50  C   UNL A   1      47.273  29.132  30.702  1.00  0.00     0.029 A 
ATOM     51  N   UNL A   1      45.141  28.768  30.181  1.00  0.00    -0.354 N 
ATOM     52  N   UNL A   1      42.321  29.508  29.872  1.00  0.00    -0.248 NA
ATOM     53  C   UNL A   1      40.579  31.031  30.189  1.00  0.00     0.031 C 
ATOM     54  C   UNL A   1      46.537  30.273  31.031  1.00  0.00     0.029 A 
ATOM     55  C   UNL A   1      45.215  30.057  30.674  1.00  0.00     0.049 A 
ATOM     56  H   UNL A   1      44.319  28.330  29.859  1.00  0.00     0.167 HD
ATOM     57  C   UNL A   1      42.829  30.676  30.426  1.00  0.00     0.074 A 
ATOM     58  C   UNL A   1      41.719  31.593  30.568  1.00  0.00     0.031 C 
ATOM     59  C   UNL A   1      44.103  30.964  30.784  1.00  0.00     0.031 A 
BRANCH  46  60
ATOM     60  C   UNL A   1      48.085  26.328  29.952  1.00  0.00    -0.014 A 
ATOM     61  C   UNL A   1      49.037  26.451  28.927  1.00  0.00     0.009 A 
ATOM     62  C   UNL A   1      48.480  25.778  31.182  1.00  0.00     0.009 A 
ATOM     63  C   UNL A   1      50.347  26.010  29.123  1.00  0.00     0.001 A 
ATOM     64  C   UNL A   1      49.797  25.365  31.384  1.00  0.00     0.001 A 
ATOM     65  C   UNL A   1      50.728  25.476  30.353  1.00  0.00     0.000 A 
ENDBRANCH  46  60
BRANCH  47  66
ATOM     66  C   UNL A   1      38.572  29.244  29.040  1.00  0.00    -0.014 A 
ATOM     67  C   UNL A   1      38.056  29.822  27.870  1.00  0.00     0.009 A 
ATOM     68  C   UNL A   1      37.730  29.113  30.156  1.00  0.00     0.009 A 
ATOM     69  C   UNL A   1      36.743  30.299  27.831  1.00  0.00     0.001 A 
ATOM     70  C   UNL A   1      36.406  29.558  30.103  1.00  0.00     0.001 A 
ATOM     71  C   UNL A   1      35.920  30.164  28.947  1.00  0.00     0.000 A 
ENDBRANCH  47  66
BRANCH  59  72
ATOM     72  C   UNL A   1      44.385  32.345  31.300  1.00  0.00    -0.014 A 
ATOM     73  C   UNL A   1      44.336  32.644  32.670  1.00  0.00     0.009 A 
ATOM     74  C   UNL A   1      44.775  33.348  30.396  1.00  0.00     0.009 A 
ATOM     75  C   UNL A   1      44.646  33.928  33.121  1.00  0.00     0.001 A 
ATOM     76  C   UNL A   1      45.115  34.621  30.855  1.00  0.00     0.001 A 
ATOM     77  C   UNL A   1      45.042  34.912  32.215  1.00  0.00     0.000 A 
ENDBRANCH  59  72
ENDBRANCH  33  34
ENDBRANCH  25  28
ENDBRANCH  23  24
ENDBRANCH  22  23
ENDBRANCH   1  22
TORSDOF 15
ENDMDL
MODEL 2
REMARK VINA RESULT:     -10.5      0.565      6.146
REMARK SMILES Cc1ccc(/C=C/C(=O)N[C@@H](CO)C(=O)NCCCNC(=O)c2ccc(-c3c4nc(c(-c5ccccc5)c5ccc([nH]5)c(-c5ccccc5)c5nc(c(-c6ccccc6)c6ccc3[nH]6)C=C5)C=C4)cc2)o1
REMARK SMILES IDX 17 1 16 2 14 3 15 4 11 6 10 7 8 8 9 9 7 11 6 12 5 13 1 14
REMARK SMILES IDX 2 15 3 16 71 17 4 18 12 19 13 20 18 22 19 23 20 24 21 25
REMARK SMILES IDX 22 27 23 28 24 29 70 30 25 31 69 32 26 33 27 34 28 35 63 36
REMARK SMILES IDX 29 37 68 38 62 39 64 40 30 41 67 42 61 43 60 44 31 46 53 47
REMARK SMILES IDX 38 48 52 49 39 50 42 51 51 52 65 53 40 54 41 55 50 57 66 58
REMARK SMILES IDX 43 59 32 60 33 61 37 62 34 63 36 64 35 65 54 66 55 67 59 68
REMARK SMILES IDX 56 69 58 70 57 71 44 72 45 73 49 74 46 75 48 76 47 77
REMARK H PARENT 16 5 10 10 13 21 20 26 64 45 42 56
REMARK Flexibility Score: inf
ROOT
ATOM      1  C   UNL A   1      36.034  20.915  25.178  1.00  0.00     0.117 C 
ENDROOT
BRANCH   1   2
ATOM      2  N   UNL A   1      35.891  22.352  25.313  1.00  0.00    -0.354 N 
ATOM      3  C   UNL A   1      34.970  23.203  24.785  1.00  0.00     0.244 C 
ATOM      4  O   UNL A   1      35.053  24.394  25.106  1.00  0.00    -0.273 OA
ATOM      5  H   UNL A   1      36.572  22.782  25.880  1.00  0.00     0.163 HD
BRANCH   3   6
ATOM      6  C   UNL A   1      33.881  22.743  23.800  1.00  0.00     0.197 C 
BRANCH   6   7
ATOM      7  N   UNL A   1      32.594  22.621  24.491  1.00  0.00    -0.339 N 
ATOM      8  C   UNL A   1      32.046  21.615  25.224  1.00  0.00     0.244 C 
ATOM      9  O   UNL A   1      30.974  21.824  25.790  1.00  0.00    -0.270 OA
ATOM     10  H   UNL A   1      32.019  23.417  24.411  1.00  0.00     0.164 HD
BRANCH   8  11
ATOM     11  C   UNL A   1      32.621  20.250  25.251  1.00  0.00     0.075 C 
ATOM     12  C   UNL A   1      32.560  19.356  24.257  1.00  0.00     0.053 C 
BRANCH  12  13
ATOM     13  C   UNL A   1      33.069  18.038  24.412  1.00  0.00     0.127 A 
ATOM     14  C   UNL A   1      32.641  14.661  25.572  1.00  0.00     0.087 C 
ATOM     15  C   UNL A   1      33.191  15.894  24.975  1.00  0.00     0.101 A 
ATOM     16  C   UNL A   1      34.424  16.220  24.464  1.00  0.00     0.046 A 
ATOM     17  O   UNL A   1      32.357  16.970  24.912  1.00  0.00    -0.462 OA
ATOM     18  C   UNL A   1      34.348  17.585  24.110  1.00  0.00     0.050 A 
ENDBRANCH  12  13
ENDBRANCH   8  11
ENDBRANCH   6   7
BRANCH   6  19
ATOM     19  C   UNL A   1      33.852  23.505  22.467  1.00  0.00     0.191 C 
BRANCH  19  20
ATOM     20  O   UNL A   1      33.942  24.919  22.573  1.00  0.00    -0.394 OA
ATOM     21  H   UNL A   1      33.820  25.317  21.698  1.00  0.00     0.210 HD
ENDBRANCH  19  20
ENDBRANCH   6  19
ENDBRANCH   3   6
ENDBRANCH   1   2
BRANCH   1  22
ATOM     22  C   UNL A   1      37.411  20.502  24.686  1.00  0.00     0.042 C 
BRANCH  22  23
ATOM     23  C   UNL A   1      38.530  20.757  25.681  1.00  0.00     0.118 C 
BRANCH  23  24
ATOM     24  N   UNL A   1      39.531  19.698  25.691  1.00  0.00    -0.352 N 
ATOM     25  C   UNL A   1      40.872  19.751  25.993  1.00  0.00     0.251 C 
ATOM     26  H   UNL A   1      39.194  18.806  25.445  1.00  0.00     0.163 HD
ATOM     27  O   UNL A   1      41.593  18.790  25.764  1.00  0.00    -0.269 OA
BRANCH  25  28
ATOM     28  C   UNL A   1      41.443  20.985  26.571  1.00  0.00     0.039 A 
ATOM     29  C   UNL A   1      41.972  21.958  25.719  1.00  0.00     0.014 A 
ATOM     30  C   UNL A   1      41.440  21.188  27.951  1.00  0.00     0.014 A 
ATOM     31  C   UNL A   1      42.420  23.169  26.250  1.00  0.00     0.010 A 
ATOM     32  C   UNL A   1      41.783  22.431  28.465  1.00  0.00     0.010 A 
ATOM     33  C   UNL A   1      42.285  23.433  27.622  1.00  0.00    -0.014 A 
BRANCH  33  34
ATOM     34  C   UNL A   1      42.678  24.735  28.215  1.00  0.00     0.031 A 
ATOM     35  C   UNL A   1      41.633  25.796  28.437  1.00  0.00     0.074 A 
ATOM     36  C   UNL A   1      43.977  24.999  28.464  1.00  0.00     0.049 A 
ATOM     37  N   UNL A   1      41.785  27.040  28.817  1.00  0.00    -0.248 NA
ATOM     38  C   UNL A   1      40.234  25.422  28.162  1.00  0.00     0.031 C 
ATOM     39  C   UNL A   1      45.090  24.069  28.254  1.00  0.00     0.029 A 
ATOM     40  N   UNL A   1      44.582  26.138  28.935  1.00  0.00    -0.354 N 
ATOM     41  C   UNL A   1      40.513  27.597  28.794  1.00  0.00     0.074 A 
ATOM     42  C   UNL A   1      39.607  26.578  28.319  1.00  0.00     0.031 C 
ATOM     43  C   UNL A   1      46.237  24.669  28.612  1.00  0.00     0.029 A 
ATOM     44  C   UNL A   1      45.951  26.038  29.027  1.00  0.00     0.049 A 
ATOM     45  H   UNL A   1      44.084  26.949  29.182  1.00  0.00     0.167 HD
ATOM     46  C   UNL A   1      40.131  28.844  29.154  1.00  0.00     0.031 A 
ATOM     47  C   UNL A   1      46.871  26.952  29.388  1.00  0.00     0.031 A 
ATOM     48  C   UNL A   1      41.029  29.848  29.656  1.00  0.00     0.049 A 
ATOM     49  C   UNL A   1      46.416  28.332  29.779  1.00  0.00     0.074 A 
ATOM     50  C   UNL A   1      40.729  31.117  30.115  1.00  0.00     0.029 A 
ATOM     51  N   UNL A   1      42.401  29.693  29.766  1.00  0.00    -0.354 N 
ATOM     52  N   UNL A   1      45.200  28.820  29.823  1.00  0.00    -0.248 NA
ATOM     53  C   UNL A   1      47.460  29.284  30.185  1.00  0.00     0.031 C 
ATOM     54  C   UNL A   1      41.926  31.753  30.450  1.00  0.00     0.029 A 
ATOM     55  C   UNL A   1      42.964  30.853  30.265  1.00  0.00     0.049 A 
ATOM     56  H   UNL A   1      42.900  28.878  29.525  1.00  0.00     0.167 HD
ATOM     57  C   UNL A   1      45.331  30.119  30.299  1.00  0.00     0.074 A 
ATOM     58  C   UNL A   1      46.740  30.341  30.538  1.00  0.00     0.031 C 
ATOM     59  C   UNL A   1      44.367  31.046  30.520  1.00  0.00     0.031 A 
BRANCH  46  60
ATOM     60  C   UNL A   1      38.676  29.201  29.020  1.00  0.00    -0.014 A 
ATOM     61  C   UNL A   1      37.788  29.064  30.099  1.00  0.00     0.009 A 
ATOM     62  C   UNL A   1      38.203  29.748  27.817  1.00  0.00     0.009 A 
ATOM     63  C   UNL A   1      36.452  29.444  29.966  1.00  0.00     0.001 A 
ATOM     64  C   UNL A   1      36.874  30.154  27.697  1.00  0.00     0.001 A 
ATOM     65  C   UNL A   1      35.998  29.997  28.769  1.00  0.00     0.000 A 
ENDBRANCH  46  60
BRANCH  47  66
ATOM     66  C   UNL A   1      48.318  26.605  29.392  1.00  0.00    -0.014 A 
ATOM     67  C   UNL A   1      48.915  26.040  30.530  1.00  0.00     0.009 A 
ATOM     68  C   UNL A   1      49.120  26.872  28.271  1.00  0.00     0.009 A 
ATOM     69  C   UNL A   1      50.290  25.789  30.562  1.00  0.00     0.001 A 
ATOM     70  C   UNL A   1      50.488  26.587  28.292  1.00  0.00     0.001 A 
ATOM     71  C   UNL A   1      51.073  26.061  29.442  1.00  0.00     0.000 A 
ENDBRANCH  47  66
BRANCH  59  72
ATOM     72  C   UNL A   1      44.789  32.360  31.110  1.00  0.00    -0.014 A 
ATOM     73  C   UNL A   1      45.115  33.460  30.302  1.00  0.00     0.009 A 
ATOM     74  C   UNL A   1      44.792  32.515  32.507  1.00  0.00     0.009 A 
ATOM     75  C   UNL A   1      45.462  34.681  30.882  1.00  0.00     0.001 A 
ATOM     76  C   UNL A   1      45.108  33.746  33.082  1.00  0.00     0.001 A 
ATOM     77  C   UNL A   1      45.450  34.825  32.270  1.00  0.00     0.000 A 
ENDBRANCH  59  72
ENDBRANCH  33  34
ENDBRANCH  25  28
ENDBRANCH  23  24
ENDBRANCH  22  23
ENDBRANCH   1  22
TORSDOF 15
ENDMDL
MODEL 3
REMARK VINA RESULT:     -10.5      5.135     11.336
REMARK SMILES Cc1ccc(/C=C/C(=O)N[C@@H](CO)C(=O)NCCCNC(=O)c2ccc(-c3c4nc(c(-c5ccccc5)c5ccc([nH]5)c(-c5ccccc5)c5nc(c(-c6ccccc6)c6ccc3[nH]6)C=C5)C=C4)cc2)o1
REMARK SMILES IDX 17 1 16 2 14 3 15 4 11 6 10 7 8 8 9 9 7 11 6 12 5 13 1 14
REMARK SMILES IDX 2 15 3 16 71 17 4 18 12 19 13 20 18 22 19 23 20 24 21 25
REMARK SMILES IDX 22 27 23 28 24 29 70 30 25 31 69 32 26 33 27 34 28 35 63 36
REMARK SMILES IDX 29 37 68 38 62 39 64 40 30 41 67 42 61 43 60 44 31 46 53 47
REMARK SMILES IDX 38 48 52 49 39 50 42 51 51 52 65 53 40 54 41 55 50 57 66 58
REMARK SMILES IDX 43 59 32 60 33 61 37 62 34 63 36 64 35 65 54 66 55 67 59 68
REMARK SMILES IDX 56 69 58 70 57 71 44 72 45 73 49 74 46 75 48 76 47 77
REMARK H PARENT 16 5 10 10 13 21 20 26 64 45 42 56
REMARK Flexibility Score: inf
ROOT
ATOM      1  C   UNL A   1      33.215  35.237  29.214  1.00  0.00     0.117 C 
ENDROOT
BRANCH   1   2
ATOM      2  N   UNL A   1      33.547  36.384  30.036  1.00  0.00    -0.354 N 
ATOM      3  C   UNL A   1      33.405  36.585  31.375  1.00  0.00     0.244 C 
ATOM      4  O   UNL A   1      33.821  37.655  31.833  1.00  0.00    -0.273 OA
ATOM      5  H   UNL A   1      33.939  37.143  29.546  1.00  0.00     0.163 HD
BRANCH   3   6
ATOM      6  C   UNL A   1      32.728  35.559  32.303  1.00  0.00     0.197 C 
BRANCH   6   7
ATOM      7  N   UNL A   1      33.566  35.316  33.481  1.00  0.00    -0.339 N 
ATOM      8  C   UNL A   1      34.895  35.065  33.617  1.00  0.00     0.244 C 
ATOM      9  O   UNL A   1      35.362  35.003  34.753  1.00  0.00    -0.270 OA
ATOM     10  H   UNL A   1      33.073  35.339  34.334  1.00  0.00     0.164 HD
BRANCH   8  11
ATOM     11  C   UNL A   1      35.761  34.731  32.463  1.00  0.00     0.075 C 
ATOM     12  C   UNL A   1      37.087  34.552  32.505  1.00  0.00     0.053 C 
BRANCH  12  13
ATOM     13  C   UNL A   1      37.842  34.319  31.325  1.00  0.00     0.127 A 
ATOM     14  C   UNL A   1      40.785  34.928  29.349  1.00  0.00     0.087 C 
ATOM     15  C   UNL A   1      39.481  34.431  29.831  1.00  0.00     0.101 A 
ATOM     16  C   UNL A   1      38.501  33.658  29.257  1.00  0.00     0.046 A 
ATOM     17  O   UNL A   1      39.111  34.801  31.089  1.00  0.00    -0.462 OA
ATOM     18  C   UNL A   1      37.457  33.591  30.205  1.00  0.00     0.050 A 
ENDBRANCH  12  13
ENDBRANCH   8  11
ENDBRANCH   6   7
BRANCH   6  19
ATOM     19  C   UNL A   1      31.243  35.825  32.583  1.00  0.00     0.191 C 
BRANCH  19  20
ATOM     20  O   UNL A   1      30.976  36.688  33.680  1.00  0.00    -0.394 OA
ATOM     21  H   UNL A   1      31.615  37.417  33.681  1.00  0.00     0.210 HD
ENDBRANCH  19  20
ENDBRANCH   6  19
ENDBRANCH   3   6
ENDBRANCH   1   2
BRANCH   1  22
ATOM     22  C   UNL A   1      34.107  34.038  29.484  1.00  0.00     0.042 C 
BRANCH  22  23
ATOM     23  C   UNL A   1      34.655  33.375  28.233  1.00  0.00     0.118 C 
BRANCH  23  24
ATOM     24  N   UNL A   1      33.908  32.184  27.848  1.00  0.00    -0.352 N 
ATOM     25  C   UNL A   1      34.311  30.870  27.781  1.00  0.00     0.251 C 
ATOM     26  H   UNL A   1      32.970  32.345  27.599  1.00  0.00     0.163 HD
ATOM     27  O   UNL A   1      33.594  30.032  27.255  1.00  0.00    -0.269 OA
BRANCH  25  28
ATOM     28  C   UNL A   1      35.630  30.481  28.325  1.00  0.00     0.039 A 
ATOM     29  C   UNL A   1      35.711  29.976  29.625  1.00  0.00     0.014 A 
ATOM     30  C   UNL A   1      36.780  30.599  27.544  1.00  0.00     0.014 A 
ATOM     31  C   UNL A   1      36.936  29.511  30.108  1.00  0.00     0.010 A 
ATOM     32  C   UNL A   1      37.971  30.037  27.984  1.00  0.00     0.010 A 
ATOM     33  C   UNL A   1      38.065  29.496  29.274  1.00  0.00    -0.014 A 
BRANCH  33  34
ATOM     34  C   UNL A   1      39.366  28.940  29.723  1.00  0.00     0.031 A 
ATOM     35  C   UNL A   1      40.222  29.731  30.677  1.00  0.00     0.074 A 
ATOM     36  C   UNL A   1      39.819  27.781  29.205  1.00  0.00     0.049 A 
ATOM     37  N   UNL A   1      41.442  29.489  31.086  1.00  0.00    -0.248 NA
ATOM     38  C   UNL A   1      39.646  30.976  31.215  1.00  0.00     0.031 C 
ATOM     39  C   UNL A   1      39.103  26.940  28.242  1.00  0.00     0.029 A 
ATOM     40  N   UNL A   1      41.003  27.116  29.406  1.00  0.00    -0.354 N 
ATOM     41  C   UNL A   1      41.785  30.564  31.898  1.00  0.00     0.074 A 
ATOM     42  C   UNL A   1      40.669  31.481  31.888  1.00  0.00     0.031 C 
ATOM     43  C   UNL A   1      39.854  25.865  27.952  1.00  0.00     0.029 A 
ATOM     44  C   UNL A   1      41.122  25.963  28.666  1.00  0.00     0.049 A 
ATOM     45  H   UNL A   1      41.701  27.433  30.022  1.00  0.00     0.167 HD
ATOM     46  C   UNL A   1      42.922  30.759  32.605  1.00  0.00     0.031 A 
ATOM     47  C   UNL A   1      42.145  25.094  28.560  1.00  0.00     0.031 A 
ATOM     48  C   UNL A   1      44.018  29.831  32.638  1.00  0.00     0.049 A 
ATOM     49  C   UNL A   1      43.399  25.340  29.355  1.00  0.00     0.074 A 
ATOM     50  C   UNL A   1      45.183  29.904  33.380  1.00  0.00     0.029 A 
ATOM     51  N   UNL A   1      44.082  28.660  31.901  1.00  0.00    -0.354 N 
ATOM     52  N   UNL A   1      43.677  26.324  30.176  1.00  0.00    -0.248 NA
ATOM     53  C   UNL A   1      44.476  24.349  29.219  1.00  0.00     0.031 C 
ATOM     54  C   UNL A   1      45.979  28.806  33.048  1.00  0.00     0.029 A 
ATOM     55  C   UNL A   1      45.278  28.013  32.153  1.00  0.00     0.049 A 
ATOM     56  H   UNL A   1      43.380  28.337  31.290  1.00  0.00     0.167 HD
ATOM     57  C   UNL A   1      44.940  26.047  30.683  1.00  0.00     0.074 A 
ATOM     58  C   UNL A   1      45.371  24.801  30.086  1.00  0.00     0.031 C 
ATOM     59  C   UNL A   1      45.678  26.761  31.568  1.00  0.00     0.031 A 
BRANCH  46  60
ATOM     60  C   UNL A   1      43.044  32.028  33.403  1.00  0.00    -0.014 A 
ATOM     61  C   UNL A   1      43.580  33.196  32.839  1.00  0.00     0.009 A 
ATOM     62  C   UNL A   1      42.552  32.072  34.717  1.00  0.00     0.009 A 
ATOM     63  C   UNL A   1      43.642  34.376  33.583  1.00  0.00     0.001 A 
ATOM     64  C   UNL A   1      42.589  33.260  35.448  1.00  0.00     0.001 A 
ATOM     65  C   UNL A   1      43.139  34.409  34.883  1.00  0.00     0.000 A 
ENDBRANCH  46  60
BRANCH  47  66
ATOM     66  C   UNL A   1      42.040  23.910  27.665  1.00  0.00    -0.014 A 
ATOM     67  C   UNL A   1      41.497  22.703  28.134  1.00  0.00     0.009 A 
ATOM     68  C   UNL A   1      42.516  23.967  26.345  1.00  0.00     0.009 A 
ATOM     69  C   UNL A   1      41.473  21.569  27.317  1.00  0.00     0.001 A 
ATOM     70  C   UNL A   1      42.458  22.842  25.519  1.00  0.00     0.001 A 
ATOM     71  C   UNL A   1      41.951  21.641  26.011  1.00  0.00     0.000 A 
ENDBRANCH  47  66
BRANCH  59  72
ATOM     72  C   UNL A   1      46.996  26.185  31.999  1.00  0.00    -0.014 A 
ATOM     73  C   UNL A   1      48.182  26.457  31.301  1.00  0.00     0.009 A 
ATOM     74  C   UNL A   1      47.055  25.411  33.170  1.00  0.00     0.009 A 
ATOM     75  C   UNL A   1      49.398  25.941  31.752  1.00  0.00     0.001 A 
ATOM     76  C   UNL A   1      48.277  24.924  33.636  1.00  0.00     0.001 A 
ATOM     77  C   UNL A   1      49.445  25.183  32.922  1.00  0.00     0.000 A 
ENDBRANCH  59  72
ENDBRANCH  33  34
ENDBRANCH  25  28
ENDBRANCH  23  24
ENDBRANCH  22  23
ENDBRANCH   1  22
TORSDOF 15
ENDMDL
