MODEL 1
REMARK VINA RESULT:     -12.6      0.000      0.000
REMARK SMILES Cc1cc2nc(NC(=O)[C@H]3[C@@H](C(=O)NCCCNC(=O)c4ccc(-c5c6nc(c(-c7ccccc7)c7ccc([nH]7)c(-c7ccccc7)c7nc(c(-c8ccccc8)c8ccc5[nH]8)C=C7)C=C6)cc4)[C@@H]4C=C[C@H]3C4)sc2cc1C
REMARK SMILES IDX 16 1 15 2 14 3 12 4 13 5 11 7 10 8 72 9 69 10 71 11 73 12
REMARK SMILES IDX 70 13 8 14 7 15 9 17 6 18 1 19 2 20 3 21 77 22 4 23 76 24
REMARK SMILES IDX 78 25 5 26 75 27 74 28 17 29 18 30 19 31 20 33 21 34 22 35
REMARK SMILES IDX 68 36 23 37 67 38 24 39 25 40 26 41 61 42 27 43 66 44 60 45
REMARK SMILES IDX 62 46 28 47 65 48 59 49 58 50 29 52 51 53 36 54 50 55 37 56
REMARK SMILES IDX 40 57 49 58 63 59 38 60 39 61 48 63 64 64 41 65 30 66 31 67
REMARK SMILES IDX 35 68 32 69 34 70 33 71 52 72 53 73 57 74 54 75 56 76 55 77
REMARK SMILES IDX 42 78 43 79 47 80 44 81 46 82 45 83
REMARK H PARENT 14 6 7 16 18 32 62 51 40 62
REMARK Flexibility Score: inf
ROOT
ATOM      1  C   UNL A   1      35.973  23.134  25.944  1.00  0.00     0.042 C 
ENDROOT
BRANCH   1   2
ATOM      2  C   UNL A   1      35.005  24.287  25.725  1.00  0.00     0.117 C 
BRANCH   2   3
ATOM      3  N   UNL A   1      33.609  23.908  25.781  1.00  0.00    -0.356 N 
ATOM      4  C   UNL A   1      32.527  24.374  25.106  1.00  0.00     0.224 C 
ATOM      5  O   UNL A   1      31.524  23.662  25.164  1.00  0.00    -0.275 OA
ATOM      6  H   UNL A   1      33.410  23.185  26.419  1.00  0.00     0.163 HD
BRANCH   4   7
ATOM      7  C   UNL A   1      32.548  25.714  24.356  1.00  0.00     0.098 C 
ATOM      8  C   UNL A   1      31.441  26.708  24.883  1.00  0.00     0.099 C 
ATOM      9  C   UNL A   1      30.368  26.610  23.751  1.00  0.00     0.025 C 
ATOM     10  C   UNL A   1      32.176  25.626  22.860  1.00  0.00     0.025 C 
ATOM     11  C   UNL A   1      30.917  27.571  22.708  1.00  0.00    -0.027 C 
ATOM     12  C   UNL A   1      30.685  25.321  22.975  1.00  0.00     0.017 C 
ATOM     13  C   UNL A   1      32.059  27.023  22.249  1.00  0.00    -0.027 C 
BRANCH   8  14
ATOM     14  C   UNL A   1      31.040  26.603  26.356  1.00  0.00     0.230 C 
ATOM     15  N   UNL A   1      31.764  27.336  27.284  1.00  0.00    -0.302 N 
ATOM     16  H   UNL A   1      31.605  27.155  28.239  1.00  0.00     0.172 HD
ATOM     17  O   UNL A   1      30.095  25.907  26.731  1.00  0.00    -0.274 OA
BRANCH  15  18
ATOM     18  C   UNL A   1      32.691  28.294  26.959  1.00  0.00     0.190 A 
ATOM     19  C   UNL A   1      37.912  30.372  28.546  1.00  0.00     0.044 C 
ATOM     20  C   UNL A   1      36.561  30.494  27.886  1.00  0.00    -0.046 A 
ATOM     21  C   UNL A   1      36.020  29.326  27.329  1.00  0.00     0.033 A 
ATOM     22  C   UNL A   1      35.778  31.662  27.920  1.00  0.00    -0.047 A 
ATOM     23  C   UNL A   1      34.647  29.266  27.023  1.00  0.00     0.084 A 
ATOM     24  C   UNL A   1      34.414  31.631  27.538  1.00  0.00     0.025 A 
ATOM     25  C   UNL A   1      36.324  32.932  28.507  1.00  0.00     0.044 C 
ATOM     26  N   UNL A   1      33.964  28.110  26.739  1.00  0.00    -0.220 NA
ATOM     27  C   UNL A   1      33.850  30.397  27.177  1.00  0.00     0.057 A 
ATOM     28  S   UNL A   1      32.188  29.924  26.960  1.00  0.00    -0.097 S 
ENDBRANCH  15  18
ENDBRANCH   8  14
ENDBRANCH   4   7
ENDBRANCH   2   3
ENDBRANCH   1   2
BRANCH   1  29
ATOM     29  C   UNL A   1      37.301  23.215  25.200  1.00  0.00     0.118 C 
BRANCH  29  30
ATOM     30  N   UNL A   1      38.354  22.348  25.699  1.00  0.00    -0.352 N 
ATOM     31  C   UNL A   1      39.425  22.498  26.546  1.00  0.00     0.251 C 
ATOM     32  H   UNL A   1      38.283  21.432  25.344  1.00  0.00     0.163 HD
ATOM     33  O   UNL A   1      40.097  21.507  26.782  1.00  0.00    -0.269 OA
BRANCH  31  34
ATOM     34  C   UNL A   1      39.858  23.801  27.115  1.00  0.00     0.039 A 
ATOM     35  C   UNL A   1      41.094  24.048  27.700  1.00  0.00     0.014 A 
ATOM     36  C   UNL A   1      38.937  24.857  27.019  1.00  0.00     0.014 A 
ATOM     37  C   UNL A   1      41.331  25.261  28.349  1.00  0.00     0.010 A 
ATOM     38  C   UNL A   1      39.198  26.090  27.609  1.00  0.00     0.010 A 
ATOM     39  C   UNL A   1      40.358  26.267  28.358  1.00  0.00    -0.014 A 
BRANCH  39  40
ATOM     40  C   UNL A   1      40.626  27.504  29.107  1.00  0.00     0.031 A 
ATOM     41  C   UNL A   1      41.599  28.454  28.483  1.00  0.00     0.074 A 
ATOM     42  C   UNL A   1      39.973  27.845  30.242  1.00  0.00     0.049 A 
ATOM     43  N   UNL A   1      42.694  28.927  28.987  1.00  0.00    -0.248 NA
ATOM     44  C   UNL A   1      41.364  28.857  27.088  1.00  0.00     0.031 C 
ATOM     45  C   UNL A   1      38.829  27.168  30.865  1.00  0.00     0.029 A 
ATOM     46  N   UNL A   1      40.122  28.957  31.024  1.00  0.00    -0.354 N 
ATOM     47  C   UNL A   1      43.215  29.808  28.038  1.00  0.00     0.074 A 
ATOM     48  C   UNL A   1      42.419  29.637  26.850  1.00  0.00     0.031 C 
ATOM     49  C   UNL A   1      38.227  28.009  31.735  1.00  0.00     0.029 A 
ATOM     50  C   UNL A   1      39.035  29.207  31.857  1.00  0.00     0.049 A 
ATOM     51  H   UNL A   1      40.923  29.527  31.000  1.00  0.00     0.167 HD
ATOM     52  C   UNL A   1      44.158  30.744  28.347  1.00  0.00     0.031 A 
ATOM     53  C   UNL A   1      38.782  30.342  32.555  1.00  0.00     0.031 A 
ATOM     54  C   UNL A   1      44.820  30.450  29.587  1.00  0.00     0.049 A 
ATOM     55  C   UNL A   1      40.054  31.077  32.698  1.00  0.00     0.074 A 
ATOM     56  C   UNL A   1      45.642  29.443  30.044  1.00  0.00     0.029 A 
ATOM     57  N   UNL A   1      44.406  31.138  30.700  1.00  0.00    -0.354 N 
ATOM     58  N   UNL A   1      41.053  30.662  33.420  1.00  0.00    -0.248 NA
ATOM     59  C   UNL A   1      40.370  32.097  31.712  1.00  0.00     0.031 C 
ATOM     60  C   UNL A   1      45.297  29.284  31.417  1.00  0.00     0.029 A 
ATOM     61  C   UNL A   1      44.329  30.240  31.730  1.00  0.00     0.049 A 
ATOM     62  H   UNL A   1      44.203  32.100  30.750  1.00  0.00     0.167 HD
ATOM     63  C   UNL A   1      42.177  31.022  32.694  1.00  0.00     0.074 A 
ATOM     64  C   UNL A   1      41.701  31.998  31.716  1.00  0.00     0.031 C 
ATOM     65  C   UNL A   1      43.327  30.289  32.770  1.00  0.00     0.031 A 
BRANCH  52  66
ATOM     66  C   UNL A   1      44.232  32.117  27.717  1.00  0.00    -0.014 A 
ATOM     67  C   UNL A   1      44.545  32.332  26.364  1.00  0.00     0.009 A 
ATOM     68  C   UNL A   1      43.697  33.216  28.420  1.00  0.00     0.009 A 
ATOM     69  C   UNL A   1      44.301  33.555  25.730  1.00  0.00     0.001 A 
ATOM     70  C   UNL A   1      43.412  34.429  27.779  1.00  0.00     0.001 A 
ATOM     71  C   UNL A   1      43.706  34.594  26.431  1.00  0.00     0.000 A 
ENDBRANCH  52  66
BRANCH  53  72
ATOM     72  C   UNL A   1      37.477  31.005  32.772  1.00  0.00    -0.014 A 
ATOM     73  C   UNL A   1      36.502  30.987  31.758  1.00  0.00     0.009 A 
ATOM     74  C   UNL A   1      37.303  31.912  33.831  1.00  0.00     0.009 A 
ATOM     75  C   UNL A   1      35.422  31.877  31.772  1.00  0.00     0.001 A 
ATOM     76  C   UNL A   1      36.222  32.804  33.844  1.00  0.00     0.001 A 
ATOM     77  C   UNL A   1      35.294  32.798  32.806  1.00  0.00     0.000 A 
ENDBRANCH  53  72
BRANCH  65  78
ATOM     78  C   UNL A   1      43.447  29.242  33.852  1.00  0.00    -0.014 A 
ATOM     79  C   UNL A   1      44.192  29.564  34.998  1.00  0.00     0.009 A 
ATOM     80  C   UNL A   1      43.023  27.912  33.688  1.00  0.00     0.009 A 
ATOM     81  C   UNL A   1      44.521  28.588  35.940  1.00  0.00     0.001 A 
ATOM     82  C   UNL A   1      43.328  26.939  34.646  1.00  0.00     0.001 A 
ATOM     83  C   UNL A   1      44.089  27.275  35.763  1.00  0.00     0.000 A 
ENDBRANCH  65  78
ENDBRANCH  39  40
ENDBRANCH  31  34
ENDBRANCH  29  30
ENDBRANCH   1  29
TORSDOF 12
ENDMDL
MODEL 2
REMARK VINA RESULT:     -12.5      2.595      7.662
REMARK SMILES Cc1cc2nc(NC(=O)[C@H]3[C@@H](C(=O)NCCCNC(=O)c4ccc(-c5c6nc(c(-c7ccccc7)c7ccc([nH]7)c(-c7ccccc7)c7nc(c(-c8ccccc8)c8ccc5[nH]8)C=C7)C=C6)cc4)[C@@H]4C=C[C@H]3C4)sc2cc1C
REMARK SMILES IDX 16 1 15 2 14 3 12 4 13 5 11 7 10 8 72 9 69 10 71 11 73 12
REMARK SMILES IDX 70 13 8 14 7 15 9 17 6 18 1 19 2 20 3 21 77 22 4 23 76 24
REMARK SMILES IDX 78 25 5 26 75 27 74 28 17 29 18 30 19 31 20 33 21 34 22 35
REMARK SMILES IDX 68 36 23 37 67 38 24 39 25 40 26 41 61 42 27 43 66 44 60 45
REMARK SMILES IDX 62 46 28 47 65 48 59 49 58 50 29 52 51 53 36 54 50 55 37 56
REMARK SMILES IDX 40 57 49 58 63 59 38 60 39 61 48 63 64 64 41 65 30 66 31 67
REMARK SMILES IDX 35 68 32 69 34 70 33 71 52 72 53 73 57 74 54 75 56 76 55 77
REMARK SMILES IDX 42 78 43 79 47 80 44 81 46 82 45 83
REMARK H PARENT 14 6 7 16 18 32 62 51 40 62
REMARK Flexibility Score: inf
ROOT
ATOM      1  C   UNL A   1      33.691  28.741  25.788  1.00  0.00     0.042 C 
ENDROOT
BRANCH   1   2
ATOM      2  C   UNL A   1      33.837  27.230  25.680  1.00  0.00     0.117 C 
BRANCH   2   3
ATOM      3  N   UNL A   1      33.396  26.681  24.416  1.00  0.00    -0.356 N 
ATOM      4  C   UNL A   1      32.927  25.449  24.090  1.00  0.00     0.224 C 
ATOM      5  O   UNL A   1      32.370  25.371  22.994  1.00  0.00    -0.275 OA
ATOM      6  H   UNL A   1      33.445  27.311  23.661  1.00  0.00     0.163 HD
BRANCH   4   7
ATOM      7  C   UNL A   1      33.116  24.234  25.011  1.00  0.00     0.098 C 
ATOM      8  C   UNL A   1      33.691  22.984  24.236  1.00  0.00     0.099 C 
ATOM      9  C   UNL A   1      32.412  22.097  24.082  1.00  0.00     0.025 C 
ATOM     10  C   UNL A   1      31.808  23.647  25.586  1.00  0.00     0.025 C 
ATOM     11  C   UNL A   1      32.348  21.395  25.430  1.00  0.00    -0.027 C 
ATOM     12  C   UNL A   1      31.215  23.031  24.322  1.00  0.00     0.017 C 
ATOM     13  C   UNL A   1      32.086  22.348  26.343  1.00  0.00    -0.027 C 
BRANCH   8  14
ATOM     14  C   UNL A   1      34.608  23.253  23.042  1.00  0.00     0.230 C 
ATOM     15  N   UNL A   1      35.966  23.398  23.281  1.00  0.00    -0.302 N 
ATOM     16  H   UNL A   1      36.533  23.716  22.541  1.00  0.00     0.172 HD
ATOM     17  O   UNL A   1      34.180  23.328  21.889  1.00  0.00    -0.274 OA
BRANCH  15  18
ATOM     18  C   UNL A   1      36.572  23.129  24.482  1.00  0.00     0.190 A 
ATOM     19  C   UNL A   1      40.572  25.221  28.188  1.00  0.00     0.044 C 
ATOM     20  C   UNL A   1      39.741  24.110  27.593  1.00  0.00    -0.046 A 
ATOM     21  C   UNL A   1      38.469  24.457  27.113  1.00  0.00     0.033 A 
ATOM     22  C   UNL A   1      40.220  22.805  27.378  1.00  0.00    -0.047 A 
ATOM     23  C   UNL A   1      37.789  23.590  26.239  1.00  0.00     0.084 A 
ATOM     24  C   UNL A   1      39.503  21.896  26.562  1.00  0.00     0.025 A 
ATOM     25  C   UNL A   1      41.576  22.398  27.878  1.00  0.00     0.044 C 
ATOM     26  N   UNL A   1      36.685  23.937  25.501  1.00  0.00    -0.220 NA
ATOM     27  C   UNL A   1      38.332  22.344  25.932  1.00  0.00     0.057 A 
ATOM     28  S   UNL A   1      37.386  21.639  24.652  1.00  0.00    -0.097 S 
ENDBRANCH  15  18
ENDBRANCH   8  14
ENDBRANCH   4   7
ENDBRANCH   2   3
ENDBRANCH   1   2
BRANCH   1  29
ATOM     29  C   UNL A   1      33.610  29.314  27.198  1.00  0.00     0.118 C 
BRANCH  29  30
ATOM     30  N   UNL A   1      33.885  30.735  27.315  1.00  0.00    -0.352 N 
ATOM     31  C   UNL A   1      34.982  31.496  27.638  1.00  0.00     0.251 C 
ATOM     32  H   UNL A   1      33.094  31.286  27.115  1.00  0.00     0.163 HD
ATOM     33  O   UNL A   1      34.858  32.708  27.590  1.00  0.00    -0.269 OA
BRANCH  31  34
ATOM     34  C   UNL A   1      36.269  30.933  28.122  1.00  0.00     0.039 A 
ATOM     35  C   UNL A   1      37.235  31.636  28.832  1.00  0.00     0.014 A 
ATOM     36  C   UNL A   1      36.494  29.573  27.850  1.00  0.00     0.014 A 
ATOM     37  C   UNL A   1      38.476  31.053  29.092  1.00  0.00     0.010 A 
ATOM     38  C   UNL A   1      37.708  28.970  28.167  1.00  0.00     0.010 A 
ATOM     39  C   UNL A   1      38.739  29.734  28.705  1.00  0.00    -0.014 A 
BRANCH  39  40
ATOM     40  C   UNL A   1      40.082  29.182  28.942  1.00  0.00     0.031 A 
ATOM     41  C   UNL A   1      40.395  28.794  30.353  1.00  0.00     0.074 A 
ATOM     42  C   UNL A   1      40.969  28.927  27.953  1.00  0.00     0.049 A 
ATOM     43  N   UNL A   1      41.368  29.207  31.101  1.00  0.00    -0.248 NA
ATOM     44  C   UNL A   1      39.452  27.902  31.044  1.00  0.00     0.031 C 
ATOM     45  C   UNL A   1      40.755  29.010  26.503  1.00  0.00     0.029 A 
ATOM     46  N   UNL A   1      42.234  28.414  28.037  1.00  0.00    -0.354 N 
ATOM     47  C   UNL A   1      41.257  28.515  32.308  1.00  0.00     0.074 A 
ATOM     48  C   UNL A   1      39.998  27.816  32.257  1.00  0.00     0.031 C 
ATOM     49  C   UNL A   1      41.722  28.314  25.864  1.00  0.00     0.029 A 
ATOM     50  C   UNL A   1      42.708  27.889  26.838  1.00  0.00     0.049 A 
ATOM     51  H   UNL A   1      42.761  28.417  28.869  1.00  0.00     0.167 HD
ATOM     52  C   UNL A   1      42.285  28.426  33.199  1.00  0.00     0.031 A 
ATOM     53  C   UNL A   1      43.802  27.108  26.662  1.00  0.00     0.031 A 
ATOM     54  C   UNL A   1      43.292  29.422  32.960  1.00  0.00     0.049 A 
ATOM     55  C   UNL A   1      44.687  27.300  27.828  1.00  0.00     0.074 A 
ATOM     56  C   UNL A   1      43.340  30.798  33.013  1.00  0.00     0.029 A 
ATOM     57  N   UNL A   1      44.420  29.028  32.286  1.00  0.00    -0.354 N 
ATOM     58  N   UNL A   1      45.318  28.409  28.083  1.00  0.00    -0.248 NA
ATOM     59  C   UNL A   1      44.562  26.377  28.943  1.00  0.00     0.031 C 
ATOM     60  C   UNL A   1      44.230  31.175  31.967  1.00  0.00     0.029 A 
ATOM     61  C   UNL A   1      44.716  30.006  31.377  1.00  0.00     0.049 A 
ATOM     62  H   UNL A   1      44.926  28.196  32.432  1.00  0.00     0.167 HD
ATOM     63  C   UNL A   1      45.273  28.524  29.462  1.00  0.00     0.074 A 
ATOM     64  C   UNL A   1      44.899  27.195  29.942  1.00  0.00     0.031 C 
ATOM     65  C   UNL A   1      45.267  29.749  30.065  1.00  0.00     0.031 A 
BRANCH  52  66
ATOM     66  C   UNL A   1      42.563  27.213  34.059  1.00  0.00    -0.014 A 
ATOM     67  C   UNL A   1      41.708  26.781  35.088  1.00  0.00     0.009 A 
ATOM     68  C   UNL A   1      43.561  26.305  33.650  1.00  0.00     0.009 A 
ATOM     69  C   UNL A   1      41.809  25.504  35.650  1.00  0.00     0.001 A 
ATOM     70  C   UNL A   1      43.639  25.010  34.182  1.00  0.00     0.001 A 
ATOM     71  C   UNL A   1      42.755  24.608  35.176  1.00  0.00     0.000 A 
ENDBRANCH  52  66
BRANCH  53  72
ATOM     72  C   UNL A   1      43.955  25.945  25.759  1.00  0.00    -0.014 A 
ATOM     73  C   UNL A   1      42.868  25.078  25.540  1.00  0.00     0.009 A 
ATOM     74  C   UNL A   1      45.231  25.507  25.366  1.00  0.00     0.009 A 
ATOM     75  C   UNL A   1      43.055  23.802  24.998  1.00  0.00     0.001 A 
ATOM     76  C   UNL A   1      45.417  24.228  24.825  1.00  0.00     0.001 A 
ATOM     77  C   UNL A   1      44.333  23.370  24.658  1.00  0.00     0.000 A 
ENDBRANCH  53  72
BRANCH  65  78
ATOM     78  C   UNL A   1      45.580  30.968  29.230  1.00  0.00    -0.014 A 
ATOM     79  C   UNL A   1      44.567  31.470  28.397  1.00  0.00     0.009 A 
ATOM     80  C   UNL A   1      46.874  31.500  29.098  1.00  0.00     0.009 A 
ATOM     81  C   UNL A   1      44.840  32.457  27.448  1.00  0.00     0.001 A 
ATOM     82  C   UNL A   1      47.141  32.510  28.166  1.00  0.00     0.001 A 
ATOM     83  C   UNL A   1      46.127  32.977  27.334  1.00  0.00     0.000 A 
ENDBRANCH  65  78
ENDBRANCH  39  40
ENDBRANCH  31  34
ENDBRANCH  29  30
ENDBRANCH   1  29
TORSDOF 12
ENDMDL
MODEL 3
REMARK VINA RESULT:     -11.9      3.007      7.376
REMARK SMILES Cc1cc2nc(NC(=O)[C@H]3[C@@H](C(=O)NCCCNC(=O)c4ccc(-c5c6nc(c(-c7ccccc7)c7ccc([nH]7)c(-c7ccccc7)c7nc(c(-c8ccccc8)c8ccc5[nH]8)C=C7)C=C6)cc4)[C@@H]4C=C[C@H]3C4)sc2cc1C
REMARK SMILES IDX 16 1 15 2 14 3 12 4 13 5 11 7 10 8 72 9 69 10 71 11 73 12
REMARK SMILES IDX 70 13 8 14 7 15 9 17 6 18 1 19 2 20 3 21 77 22 4 23 76 24
REMARK SMILES IDX 78 25 5 26 75 27 74 28 17 29 18 30 19 31 20 33 21 34 22 35
REMARK SMILES IDX 68 36 23 37 67 38 24 39 25 40 26 41 61 42 27 43 66 44 60 45
REMARK SMILES IDX 62 46 28 47 65 48 59 49 58 50 29 52 51 53 36 54 50 55 37 56
REMARK SMILES IDX 40 57 49 58 63 59 38 60 39 61 48 63 64 64 41 65 30 66 31 67
REMARK SMILES IDX 35 68 32 69 34 70 33 71 52 72 53 73 57 74 54 75 56 76 55 77
REMARK SMILES IDX 42 78 43 79 47 80 44 81 46 82 45 83
REMARK H PARENT 14 6 7 16 18 32 62 51 40 62
REMARK Flexibility Score: inf
ROOT
ATOM      1  C   UNL A   1      33.514  29.434  26.336  1.00  0.00     0.042 C 
ENDROOT
BRANCH   1   2
ATOM      2  C   UNL A   1      33.617  28.947  24.898  1.00  0.00     0.117 C 
BRANCH   2   3
ATOM      3  N   UNL A   1      32.349  28.874  24.205  1.00  0.00    -0.356 N 
ATOM      4  C   UNL A   1      31.296  28.030  24.351  1.00  0.00     0.224 C 
ATOM      5  O   UNL A   1      30.249  28.394  23.813  1.00  0.00    -0.275 OA
ATOM      6  H   UNL A   1      32.228  29.557  23.506  1.00  0.00     0.163 HD
BRANCH   4   7
ATOM      7  C   UNL A   1      31.417  26.696  25.105  1.00  0.00     0.098 C 
ATOM      8  C   UNL A   1      31.912  25.527  24.168  1.00  0.00     0.099 C 
ATOM      9  C   UNL A   1      30.582  24.743  23.918  1.00  0.00     0.025 C 
ATOM     10  C   UNL A   1      30.081  26.117  25.618  1.00  0.00     0.025 C 
ATOM     11  C   UNL A   1      30.485  23.876  25.165  1.00  0.00    -0.027 C 
ATOM     12  C   UNL A   1      29.444  25.705  24.293  1.00  0.00     0.017 C 
ATOM     13  C   UNL A   1      30.286  24.717  26.198  1.00  0.00    -0.027 C 
BRANCH   8  14
ATOM     14  C   UNL A   1      32.836  25.895  23.005  1.00  0.00     0.230 C 
ATOM     15  N   UNL A   1      34.117  25.365  22.996  1.00  0.00    -0.302 N 
ATOM     16  H   UNL A   1      34.756  25.716  22.334  1.00  0.00     0.172 HD
ATOM     17  O   UNL A   1      32.471  26.625  22.083  1.00  0.00    -0.274 OA
BRANCH  15  18
ATOM     18  C   UNL A   1      34.554  24.385  23.852  1.00  0.00     0.190 A 
ATOM     19  C   UNL A   1      39.422  22.099  26.129  1.00  0.00     0.044 C 
ATOM     20  C   UNL A   1      37.969  22.038  25.724  1.00  0.00    -0.046 A 
ATOM     21  C   UNL A   1      37.242  23.235  25.784  1.00  0.00     0.033 A 
ATOM     22  C   UNL A   1      37.360  20.895  25.174  1.00  0.00    -0.047 A 
ATOM     23  C   UNL A   1      36.018  23.348  25.101  1.00  0.00     0.084 A 
ATOM     24  C   UNL A   1      36.089  20.980  24.552  1.00  0.00     0.025 A 
ATOM     25  C   UNL A   1      38.107  19.595  25.093  1.00  0.00     0.044 C 
ATOM     26  N   UNL A   1      35.365  24.532  24.863  1.00  0.00    -0.220 NA
ATOM     27  C   UNL A   1      35.479  22.240  24.451  1.00  0.00     0.057 A 
ATOM     28  S   UNL A   1      34.113  22.772  23.511  1.00  0.00    -0.097 S 
ENDBRANCH  15  18
ENDBRANCH   8  14
ENDBRANCH   4   7
ENDBRANCH   2   3
ENDBRANCH   1   2
BRANCH   1  29
ATOM     29  C   UNL A   1      34.618  28.980  27.285  1.00  0.00     0.118 C 
BRANCH  29  30
ATOM     30  N   UNL A   1      34.911  29.884  28.383  1.00  0.00    -0.352 N 
ATOM     31  C   UNL A   1      36.028  30.199  29.119  1.00  0.00     0.251 C 
ATOM     32  H   UNL A   1      34.118  30.392  28.671  1.00  0.00     0.163 HD
ATOM     33  O   UNL A   1      35.915  31.068  29.967  1.00  0.00    -0.269 OA
BRANCH  31  34
ATOM     34  C   UNL A   1      37.328  29.488  29.001  1.00  0.00     0.039 A 
ATOM     35  C   UNL A   1      37.820  28.562  29.914  1.00  0.00     0.014 A 
ATOM     36  C   UNL A   1      38.090  29.772  27.856  1.00  0.00     0.014 A 
ATOM     37  C   UNL A   1      39.124  28.081  29.788  1.00  0.00     0.010 A 
ATOM     38  C   UNL A   1      39.366  29.241  27.695  1.00  0.00     0.010 A 
ATOM     39  C   UNL A   1      39.926  28.467  28.708  1.00  0.00    -0.014 A 
BRANCH  39  40
ATOM     40  C   UNL A   1      41.315  27.986  28.650  1.00  0.00     0.031 A 
ATOM     41  C   UNL A   1      41.539  26.713  27.896  1.00  0.00     0.074 A 
ATOM     42  C   UNL A   1      42.366  28.678  29.145  1.00  0.00     0.049 A 
ATOM     43  N   UNL A   1      42.081  25.615  28.319  1.00  0.00    -0.248 NA
ATOM     44  C   UNL A   1      41.012  26.626  26.525  1.00  0.00     0.031 C 
ATOM     45  C   UNL A   1      42.373  30.040  29.693  1.00  0.00     0.029 A 
ATOM     46  N   UNL A   1      43.693  28.350  29.150  1.00  0.00    -0.354 N 
ATOM     47  C   UNL A   1      42.106  24.744  27.228  1.00  0.00     0.074 A 
ATOM     48  C   UNL A   1      41.334  25.377  26.189  1.00  0.00     0.031 C 
ATOM     49  C   UNL A   1      43.640  30.512  29.711  1.00  0.00     0.029 A 
ATOM     50  C   UNL A   1      44.540  29.436  29.344  1.00  0.00     0.049 A 
ATOM     51  H   UNL A   1      44.018  27.429  29.028  1.00  0.00     0.167 HD
ATOM     52  C   UNL A   1      42.903  23.639  27.192  1.00  0.00     0.031 A 
ATOM     53  C   UNL A   1      45.883  29.471  29.159  1.00  0.00     0.031 A 
ATOM     54  C   UNL A   1      43.365  23.266  28.500  1.00  0.00     0.049 A 
ATOM     55  C   UNL A   1      46.381  28.082  29.202  1.00  0.00     0.074 A 
ATOM     56  C   UNL A   1      42.768  22.822  29.660  1.00  0.00     0.029 A 
ATOM     57  N   UNL A   1      44.641  23.635  28.847  1.00  0.00    -0.354 N 
ATOM     58  N   UNL A   1      46.384  27.347  30.276  1.00  0.00    -0.248 NA
ATOM     59  C   UNL A   1      46.516  27.364  27.946  1.00  0.00     0.031 C 
ATOM     60  C   UNL A   1      43.542  23.391  30.712  1.00  0.00     0.029 A 
ATOM     61  C   UNL A   1      44.597  24.100  30.133  1.00  0.00     0.049 A 
ATOM     62  H   UNL A   1      45.441  23.576  28.276  1.00  0.00     0.167 HD
ATOM     63  C   UNL A   1      46.070  26.075  29.825  1.00  0.00     0.074 A 
ATOM     64  C   UNL A   1      46.276  26.124  28.379  1.00  0.00     0.031 C 
ATOM     65  C   UNL A   1      45.407  25.190  30.625  1.00  0.00     0.031 A 
BRANCH  52  66
ATOM     66  C   UNL A   1      43.564  23.106  25.940  1.00  0.00    -0.014 A 
ATOM     67  C   UNL A   1      44.330  23.903  25.071  1.00  0.00     0.009 A 
ATOM     68  C   UNL A   1      43.668  21.711  25.767  1.00  0.00     0.009 A 
ATOM     69  C   UNL A   1      45.184  23.347  24.113  1.00  0.00     0.001 A 
ATOM     70  C   UNL A   1      44.552  21.149  24.837  1.00  0.00     0.001 A 
ATOM     71  C   UNL A   1      45.318  21.969  24.016  1.00  0.00     0.000 A 
ENDBRANCH  52  66
BRANCH  53  72
ATOM     72  C   UNL A   1      46.694  30.566  28.581  1.00  0.00    -0.014 A 
ATOM     73  C   UNL A   1      46.200  31.308  27.492  1.00  0.00     0.009 A 
ATOM     74  C   UNL A   1      48.062  30.678  28.882  1.00  0.00     0.009 A 
ATOM     75  C   UNL A   1      47.048  32.090  26.701  1.00  0.00     0.001 A 
ATOM     76  C   UNL A   1      48.911  31.462  28.089  1.00  0.00     0.001 A 
ATOM     77  C   UNL A   1      48.408  32.152  26.989  1.00  0.00     0.000 A 
ENDBRANCH  53  72
BRANCH  65  78
ATOM     78  C   UNL A   1      45.256  25.515  32.093  1.00  0.00    -0.014 A 
ATOM     79  C   UNL A   1      46.149  24.914  32.994  1.00  0.00     0.009 A 
ATOM     80  C   UNL A   1      44.159  26.222  32.616  1.00  0.00     0.009 A 
ATOM     81  C   UNL A   1      45.945  24.998  34.372  1.00  0.00     0.001 A 
ATOM     82  C   UNL A   1      43.971  26.331  33.998  1.00  0.00     0.001 A 
ATOM     83  C   UNL A   1      44.857  25.707  34.874  1.00  0.00     0.000 A 
ENDBRANCH  65  78
ENDBRANCH  39  40
ENDBRANCH  31  34
ENDBRANCH  29  30
ENDBRANCH   1  29
TORSDOF 12
ENDMDL
