MODEL 1
REMARK VINA RESULT:     -11.3      0.000      0.000
REMARK SMILES O=C(COc1ccc(F)cc1)Nc1sccc1C(=O)NCCCNC(=O)c1ccc(-c2c3nc(c(-c4ccccc4)c4ccc([nH]4)c(-c4ccccc4)c4nc(c(-c5ccccc5)c5ccc2[nH]5)C=C4)C=C3)cc1
REMARK SMILES IDX 21 1 20 2 18 3 19 4 17 6 13 7 14 8 15 9 16 10 12 11 1 12
REMARK SMILES IDX 2 13 3 15 4 16 5 17 6 18 11 19 7 20 10 21 8 22 9 23 22 24
REMARK SMILES IDX 23 25 24 26 25 27 26 29 27 30 28 31 74 32 29 33 73 34 30 35
REMARK SMILES IDX 31 36 32 37 67 38 33 39 72 40 66 41 68 42 34 43 71 44 65 45
REMARK SMILES IDX 64 46 35 48 57 49 42 50 56 51 43 52 46 53 55 54 69 55 44 56
REMARK SMILES IDX 45 57 54 59 70 60 47 61 36 62 37 63 41 64 38 65 40 66 39 67
REMARK SMILES IDX 58 68 59 69 63 70 60 71 62 72 61 73 48 74 49 75 53 76 50 77
REMARK SMILES IDX 52 78 51 79
REMARK H PARENT 20 5 12 14 24 28 68 47 46 58
REMARK Flexibility Score: inf
ROOT
ATOM      1  C   UNL A   1      36.411  21.182  24.878  1.00  0.00     0.118 C 
ENDROOT
BRANCH   1   2
ATOM      2  N   UNL A   1      35.928  21.683  26.144  1.00  0.00    -0.352 N 
ATOM      3  C   UNL A   1      34.970  22.639  26.397  1.00  0.00     0.254 C 
ATOM      4  O   UNL A   1      34.720  22.880  27.581  1.00  0.00    -0.269 OA
ATOM      5  H   UNL A   1      36.343  21.282  26.942  1.00  0.00     0.163 HD
BRANCH   3   6
ATOM      6  C   UNL A   1      34.409  23.465  25.326  1.00  0.00     0.074 A 
ATOM      7  C   UNL A   1      33.753  23.105  24.161  1.00  0.00     0.108 A 
ATOM      8  S   UNL A   1      33.505  24.420  23.098  1.00  0.00    -0.126 S 
ATOM      9  C   UNL A   1      34.031  25.543  24.264  1.00  0.00     0.068 A 
ATOM     10  C   UNL A   1      34.483  24.911  25.398  1.00  0.00     0.028 A 
BRANCH   7  11
ATOM     11  N   UNL A   1      33.260  21.943  23.614  1.00  0.00    -0.314 N 
ATOM     12  O   UNL A   1      31.750  21.346  25.277  1.00  0.00    -0.271 OA
ATOM     13  C   UNL A   1      32.352  21.107  24.235  1.00  0.00     0.262 C 
ATOM     14  H   UNL A   1      33.576  21.690  22.717  1.00  0.00     0.170 HD
BRANCH  13  15
ATOM     15  C   UNL A   1      32.261  19.745  23.539  1.00  0.00     0.329 C 
BRANCH  15  16
ATOM     16  O   UNL A   1      31.813  18.709  24.416  1.00  0.00    -0.484 OA
BRANCH  16  17
ATOM     17  C   UNL A   1      32.848  17.850  24.661  1.00  0.00     0.120 A 
ATOM     18  C   UNL A   1      34.150  18.219  24.320  1.00  0.00     0.049 A 
ATOM     19  C   UNL A   1      32.575  16.620  25.256  1.00  0.00     0.049 A 
ATOM     20  C   UNL A   1      35.188  17.317  24.529  1.00  0.00     0.043 A 
ATOM     21  C   UNL A   1      33.619  15.722  25.467  1.00  0.00     0.043 A 
ATOM     22  C   UNL A   1      34.913  16.075  25.095  1.00  0.00     0.123 A 
ATOM     23  F   UNL A   1      35.913  15.206  25.285  1.00  0.00    -0.207 F 
ENDBRANCH  16  17
ENDBRANCH  15  16
ENDBRANCH  13  15
ENDBRANCH   7  11
ENDBRANCH   3   6
ENDBRANCH   1   2
BRANCH   1  24
ATOM     24  C   UNL A   1      37.509  20.142  24.964  1.00  0.00     0.042 C 
BRANCH  24  25
ATOM     25  C   UNL A   1      38.746  20.597  25.734  1.00  0.00     0.118 C 
BRANCH  25  26
ATOM     26  N   UNL A   1      39.843  19.629  25.765  1.00  0.00    -0.352 N 
ATOM     27  C   UNL A   1      41.179  19.723  26.090  1.00  0.00     0.251 C 
ATOM     28  H   UNL A   1      39.570  18.721  25.500  1.00  0.00     0.163 HD
ATOM     29  O   UNL A   1      41.903  18.747  25.905  1.00  0.00    -0.269 OA
BRANCH  27  30
ATOM     30  C   UNL A   1      41.777  20.983  26.595  1.00  0.00     0.039 A 
ATOM     31  C   UNL A   1      42.300  21.907  25.682  1.00  0.00     0.014 A 
ATOM     32  C   UNL A   1      41.833  21.276  27.953  1.00  0.00     0.014 A 
ATOM     33  C   UNL A   1      42.740  23.162  26.122  1.00  0.00     0.010 A 
ATOM     34  C   UNL A   1      42.132  22.566  28.375  1.00  0.00     0.010 A 
ATOM     35  C   UNL A   1      42.582  23.534  27.466  1.00  0.00    -0.014 A 
BRANCH  35  36
ATOM     36  C   UNL A   1      42.856  24.911  27.958  1.00  0.00     0.031 A 
ATOM     37  C   UNL A   1      44.243  25.291  28.415  1.00  0.00     0.074 A 
ATOM     38  C   UNL A   1      41.838  25.780  28.130  1.00  0.00     0.049 A 
ATOM     39  N   UNL A   1      44.638  26.356  29.066  1.00  0.00    -0.248 NA
ATOM     40  C   UNL A   1      45.317  24.318  28.157  1.00  0.00     0.031 C 
ATOM     41  C   UNL A   1      40.433  25.528  27.800  1.00  0.00     0.029 A 
ATOM     42  N   UNL A   1      41.828  27.051  28.652  1.00  0.00    -0.354 N 
ATOM     43  C   UNL A   1      45.983  26.148  29.349  1.00  0.00     0.074 A 
ATOM     44  C   UNL A   1      46.326  24.841  28.837  1.00  0.00     0.031 C 
ATOM     45  C   UNL A   1      39.706  26.617  28.097  1.00  0.00     0.029 A 
ATOM     46  C   UNL A   1      40.579  27.625  28.684  1.00  0.00     0.049 A 
ATOM     47  H   UNL A   1      42.639  27.508  28.972  1.00  0.00     0.167 HD
ATOM     48  C   UNL A   1      46.861  26.976  29.963  1.00  0.00     0.031 A 
ATOM     49  C   UNL A   1      40.175  28.823  29.148  1.00  0.00     0.031 A 
ATOM     50  C   UNL A   1      46.544  28.306  30.406  1.00  0.00     0.049 A 
ATOM     51  C   UNL A   1      41.185  29.756  29.752  1.00  0.00     0.074 A 
ATOM     52  C   UNL A   1      47.390  29.263  30.940  1.00  0.00     0.029 A 
ATOM     53  N   UNL A   1      45.282  28.874  30.345  1.00  0.00    -0.354 N 
ATOM     54  N   UNL A   1      42.466  29.567  29.954  1.00  0.00    -0.248 NA
ATOM     55  C   UNL A   1      40.693  31.072  30.186  1.00  0.00     0.031 C 
ATOM     56  C   UNL A   1      46.632  30.401  31.231  1.00  0.00     0.029 A 
ATOM     57  C   UNL A   1      45.323  30.166  30.841  1.00  0.00     0.049 A 
ATOM     58  H   UNL A   1      44.475  28.426  30.002  1.00  0.00     0.167 HD
ATOM     59  C   UNL A   1      42.938  30.747  30.513  1.00  0.00     0.074 A 
ATOM     60  C   UNL A   1      41.809  31.650  30.605  1.00  0.00     0.031 C 
ATOM     61  C   UNL A   1      44.194  31.054  30.917  1.00  0.00     0.031 A 
BRANCH  48  62
ATOM     62  C   UNL A   1      48.260  26.468  30.182  1.00  0.00    -0.014 A 
ATOM     63  C   UNL A   1      49.266  26.659  29.222  1.00  0.00     0.009 A 
ATOM     64  C   UNL A   1      48.582  25.812  31.381  1.00  0.00     0.009 A 
ATOM     65  C   UNL A   1      50.555  26.168  29.440  1.00  0.00     0.001 A 
ATOM     66  C   UNL A   1      49.879  25.348  31.609  1.00  0.00     0.001 A 
ATOM     67  C   UNL A   1      50.861  25.516  30.634  1.00  0.00     0.000 A 
ENDBRANCH  48  62
BRANCH  49  68
ATOM     68  C   UNL A   1      38.749  29.222  29.037  1.00  0.00    -0.014 A 
ATOM     69  C   UNL A   1      37.880  29.054  30.127  1.00  0.00     0.009 A 
ATOM     70  C   UNL A   1      38.245  29.767  27.846  1.00  0.00     0.009 A 
ATOM     71  C   UNL A   1      36.531  29.398  30.018  1.00  0.00     0.001 A 
ATOM     72  C   UNL A   1      36.901  30.135  27.748  1.00  0.00     0.001 A 
ATOM     73  C   UNL A   1      36.044  29.942  28.831  1.00  0.00     0.000 A 
ENDBRANCH  49  68
BRANCH  61  74
ATOM     74  C   UNL A   1      44.422  32.433  31.457  1.00  0.00    -0.014 A 
ATOM     75  C   UNL A   1      44.753  33.501  30.609  1.00  0.00     0.009 A 
ATOM     76  C   UNL A   1      44.258  32.677  32.830  1.00  0.00     0.009 A 
ATOM     77  C   UNL A   1      44.942  34.782  31.130  1.00  0.00     0.001 A 
ATOM     78  C   UNL A   1      44.424  33.962  33.345  1.00  0.00     0.001 A 
ATOM     79  C   UNL A   1      44.773  35.012  32.495  1.00  0.00     0.000 A 
ENDBRANCH  61  74
ENDBRANCH  35  36
ENDBRANCH  27  30
ENDBRANCH  25  26
ENDBRANCH  24  25
ENDBRANCH   1  24
TORSDOF 14
ENDMDL
MODEL 2
REMARK VINA RESULT:     -11.3      2.671      7.535
REMARK SMILES O=C(COc1ccc(F)cc1)Nc1sccc1C(=O)NCCCNC(=O)c1ccc(-c2c3nc(c(-c4ccccc4)c4ccc([nH]4)c(-c4ccccc4)c4nc(c(-c5ccccc5)c5ccc2[nH]5)C=C4)C=C3)cc1
REMARK SMILES IDX 21 1 20 2 18 3 19 4 17 6 13 7 14 8 15 9 16 10 12 11 1 12
REMARK SMILES IDX 2 13 3 15 4 16 5 17 6 18 11 19 7 20 10 21 8 22 9 23 22 24
REMARK SMILES IDX 23 25 24 26 25 27 26 29 27 30 28 31 74 32 29 33 73 34 30 35
REMARK SMILES IDX 31 36 32 37 67 38 33 39 72 40 66 41 68 42 34 43 71 44 65 45
REMARK SMILES IDX 64 46 35 48 57 49 42 50 56 51 43 52 46 53 55 54 69 55 44 56
REMARK SMILES IDX 45 57 54 59 70 60 47 61 36 62 37 63 41 64 38 65 40 66 39 67
REMARK SMILES IDX 58 68 59 69 63 70 60 71 62 72 61 73 48 74 49 75 53 76 50 77
REMARK SMILES IDX 52 78 51 79
REMARK H PARENT 20 5 12 14 24 28 68 47 46 58
REMARK Flexibility Score: inf
ROOT
ATOM      1  C   UNL A   1      33.686  29.197  25.064  1.00  0.00     0.118 C 
ENDROOT
BRANCH   1   2
ATOM      2  N   UNL A   1      34.061  28.606  23.801  1.00  0.00    -0.352 N 
ATOM      3  C   UNL A   1      33.303  27.858  22.927  1.00  0.00     0.254 C 
ATOM      4  O   UNL A   1      33.856  27.478  21.891  1.00  0.00    -0.269 OA
ATOM      5  H   UNL A   1      34.993  28.759  23.524  1.00  0.00     0.163 HD
BRANCH   3   6
ATOM      6  C   UNL A   1      31.969  27.377  23.287  1.00  0.00     0.074 A 
ATOM      7  C   UNL A   1      31.570  26.200  23.898  1.00  0.00     0.108 A 
ATOM      8  S   UNL A   1      29.875  25.977  23.881  1.00  0.00    -0.126 S 
ATOM      9  C   UNL A   1      29.611  27.553  23.293  1.00  0.00     0.068 A 
ATOM     10  C   UNL A   1      30.798  28.189  23.019  1.00  0.00     0.028 A 
BRANCH   7  11
ATOM     11  N   UNL A   1      32.191  25.133  24.504  1.00  0.00    -0.314 N 
ATOM     12  O   UNL A   1      31.668  25.593  26.721  1.00  0.00    -0.271 OA
ATOM     13  C   UNL A   1      32.262  24.939  25.870  1.00  0.00     0.262 C 
ATOM     14  H   UNL A   1      32.613  24.460  23.924  1.00  0.00     0.170 HD
BRANCH  13  15
ATOM     15  C   UNL A   1      33.294  23.869  26.242  1.00  0.00     0.329 C 
BRANCH  15  16
ATOM     16  O   UNL A   1      33.800  23.175  25.099  1.00  0.00    -0.484 OA
BRANCH  16  17
ATOM     17  C   UNL A   1      35.138  22.948  25.268  1.00  0.00     0.120 A 
ATOM     18  C   UNL A   1      35.662  21.678  25.025  1.00  0.00     0.049 A 
ATOM     19  C   UNL A   1      35.952  24.003  25.676  1.00  0.00     0.049 A 
ATOM     20  C   UNL A   1      37.015  21.448  25.247  1.00  0.00     0.043 A 
ATOM     21  C   UNL A   1      37.308  23.768  25.893  1.00  0.00     0.043 A 
ATOM     22  C   UNL A   1      37.824  22.492  25.684  1.00  0.00     0.123 A 
ATOM     23  F   UNL A   1      39.125  22.264  25.906  1.00  0.00    -0.207 F 
ENDBRANCH  16  17
ENDBRANCH  15  16
ENDBRANCH  13  15
ENDBRANCH   7  11
ENDBRANCH   3   6
ENDBRANCH   1   2
BRANCH   1  24
ATOM     24  C   UNL A   1      33.850  28.305  26.277  1.00  0.00     0.042 C 
BRANCH  24  25
ATOM     25  C   UNL A   1      33.263  28.880  27.563  1.00  0.00     0.118 C 
BRANCH  25  26
ATOM     26  N   UNL A   1      33.612  30.276  27.829  1.00  0.00    -0.352 N 
ATOM     27  C   UNL A   1      34.777  30.903  28.215  1.00  0.00     0.251 C 
ATOM     28  H   UNL A   1      32.858  30.897  27.706  1.00  0.00     0.163 HD
ATOM     29  O   UNL A   1      34.743  32.102  28.483  1.00  0.00    -0.269 OA
BRANCH  27  30
ATOM     30  C   UNL A   1      36.051  30.161  28.376  1.00  0.00     0.039 A 
ATOM     31  C   UNL A   1      36.965  30.130  27.316  1.00  0.00     0.014 A 
ATOM     32  C   UNL A   1      36.368  29.494  29.554  1.00  0.00     0.014 A 
ATOM     33  C   UNL A   1      38.232  29.560  27.493  1.00  0.00     0.010 A 
ATOM     34  C   UNL A   1      37.668  29.057  29.779  1.00  0.00     0.010 A 
ATOM     35  C   UNL A   1      38.624  29.090  28.755  1.00  0.00    -0.014 A 
BRANCH  35  36
ATOM     36  C   UNL A   1      40.013  28.644  29.053  1.00  0.00     0.031 A 
ATOM     37  C   UNL A   1      41.010  29.609  29.645  1.00  0.00     0.074 A 
ATOM     38  C   UNL A   1      40.424  27.419  28.664  1.00  0.00     0.049 A 
ATOM     39  N   UNL A   1      42.306  29.483  29.780  1.00  0.00    -0.248 NA
ATOM     40  C   UNL A   1      40.488  30.912  30.091  1.00  0.00     0.031 C 
ATOM     41  C   UNL A   1      39.592  26.403  28.014  1.00  0.00     0.029 A 
ATOM     42  N   UNL A   1      41.662  26.827  28.738  1.00  0.00    -0.354 N 
ATOM     43  C   UNL A   1      42.756  30.707  30.261  1.00  0.00     0.074 A 
ATOM     44  C   UNL A   1      41.604  31.574  30.356  1.00  0.00     0.031 C 
ATOM     45  C   UNL A   1      40.331  25.307  27.780  1.00  0.00     0.029 A 
ATOM     46  C   UNL A   1      41.700  25.557  28.213  1.00  0.00     0.049 A 
ATOM     47  H   UNL A   1      42.448  27.271  29.132  1.00  0.00     0.167 HD
ATOM     48  C   UNL A   1      44.011  31.073  30.612  1.00  0.00     0.031 A 
ATOM     49  C   UNL A   1      42.724  24.693  28.079  1.00  0.00     0.031 A 
ATOM     50  C   UNL A   1      45.146  30.191  30.592  1.00  0.00     0.049 A 
ATOM     51  C   UNL A   1      44.092  25.095  28.550  1.00  0.00     0.074 A 
ATOM     52  C   UNL A   1      46.436  30.435  31.030  1.00  0.00     0.029 A 
ATOM     53  N   UNL A   1      45.120  28.887  30.125  1.00  0.00    -0.354 N 
ATOM     54  N   UNL A   1      44.486  26.235  29.063  1.00  0.00    -0.248 NA
ATOM     55  C   UNL A   1      45.156  24.086  28.433  1.00  0.00     0.031 C 
ATOM     56  C   UNL A   1      47.199  29.286  30.799  1.00  0.00     0.029 A 
ATOM     57  C   UNL A   1      46.373  28.315  30.256  1.00  0.00     0.049 A 
ATOM     58  H   UNL A   1      44.327  28.434  29.755  1.00  0.00     0.167 HD
ATOM     59  C   UNL A   1      45.834  26.073  29.351  1.00  0.00     0.074 A 
ATOM     60  C   UNL A   1      46.187  24.720  28.971  1.00  0.00     0.031 C 
ATOM     61  C   UNL A   1      46.704  26.966  29.882  1.00  0.00     0.031 A 
BRANCH  48  62
ATOM     62  C   UNL A   1      44.222  32.493  31.061  1.00  0.00    -0.014 A 
ATOM     63  C   UNL A   1      44.536  33.510  30.146  1.00  0.00     0.009 A 
ATOM     64  C   UNL A   1      44.076  32.822  32.418  1.00  0.00     0.009 A 
ATOM     65  C   UNL A   1      44.741  34.820  30.586  1.00  0.00     0.001 A 
ATOM     66  C   UNL A   1      44.251  34.138  32.851  1.00  0.00     0.001 A 
ATOM     67  C   UNL A   1      44.595  35.133  31.937  1.00  0.00     0.000 A 
ENDBRANCH  48  62
BRANCH  49  68
ATOM     68  C   UNL A   1      42.491  23.347  27.495  1.00  0.00    -0.014 A 
ATOM     69  C   UNL A   1      42.742  23.115  26.133  1.00  0.00     0.009 A 
ATOM     70  C   UNL A   1      42.015  22.291  28.287  1.00  0.00     0.009 A 
ATOM     71  C   UNL A   1      42.494  21.860  25.572  1.00  0.00     0.001 A 
ATOM     72  C   UNL A   1      41.794  21.031  27.728  1.00  0.00     0.001 A 
ATOM     73  C   UNL A   1      42.025  20.819  26.369  1.00  0.00     0.000 A 
ENDBRANCH  49  68
BRANCH  61  74
ATOM     74  C   UNL A   1      48.109  26.498  30.118  1.00  0.00    -0.014 A 
ATOM     75  C   UNL A   1      48.469  25.852  31.310  1.00  0.00     0.009 A 
ATOM     76  C   UNL A   1      49.074  26.664  29.112  1.00  0.00     0.009 A 
ATOM     77  C   UNL A   1      49.777  25.406  31.502  1.00  0.00     0.001 A 
ATOM     78  C   UNL A   1      50.375  26.196  29.297  1.00  0.00     0.001 A 
ATOM     79  C   UNL A   1      50.727  25.574  30.494  1.00  0.00     0.000 A 
ENDBRANCH  61  74
ENDBRANCH  35  36
ENDBRANCH  27  30
ENDBRANCH  25  26
ENDBRANCH  24  25
ENDBRANCH   1  24
TORSDOF 14
ENDMDL
MODEL 3
REMARK VINA RESULT:     -11.2      2.360      7.208
REMARK SMILES O=C(COc1ccc(F)cc1)Nc1sccc1C(=O)NCCCNC(=O)c1ccc(-c2c3nc(c(-c4ccccc4)c4ccc([nH]4)c(-c4ccccc4)c4nc(c(-c5ccccc5)c5ccc2[nH]5)C=C4)C=C3)cc1
REMARK SMILES IDX 21 1 20 2 18 3 19 4 17 6 13 7 14 8 15 9 16 10 12 11 1 12
REMARK SMILES IDX 2 13 3 15 4 16 5 17 6 18 11 19 7 20 10 21 8 22 9 23 22 24
REMARK SMILES IDX 23 25 24 26 25 27 26 29 27 30 28 31 74 32 29 33 73 34 30 35
REMARK SMILES IDX 31 36 32 37 67 38 33 39 72 40 66 41 68 42 34 43 71 44 65 45
REMARK SMILES IDX 64 46 35 48 57 49 42 50 56 51 43 52 46 53 55 54 69 55 44 56
REMARK SMILES IDX 45 57 54 59 70 60 47 61 36 62 37 63 41 64 38 65 40 66 39 67
REMARK SMILES IDX 58 68 59 69 63 70 60 71 62 72 61 73 48 74 49 75 53 76 50 77
REMARK SMILES IDX 52 78 51 79
REMARK H PARENT 20 5 12 14 24 28 68 47 46 58
REMARK Flexibility Score: inf
ROOT
ATOM      1  C   UNL A   1      32.345  27.495  26.797  1.00  0.00     0.118 C 
ENDROOT
BRANCH   1   2
ATOM      2  N   UNL A   1      31.157  26.692  26.967  1.00  0.00    -0.352 N 
ATOM      3  C   UNL A   1      30.425  26.004  26.026  1.00  0.00     0.254 C 
ATOM      4  O   UNL A   1      29.448  25.368  26.432  1.00  0.00    -0.269 OA
ATOM      5  H   UNL A   1      30.822  26.625  27.891  1.00  0.00     0.163 HD
BRANCH   3   6
ATOM      6  C   UNL A   1      30.674  26.166  24.593  1.00  0.00     0.074 A 
ATOM      7  C   UNL A   1      31.217  25.290  23.668  1.00  0.00     0.108 A 
ATOM      8  S   UNL A   1      31.541  26.023  22.159  1.00  0.00    -0.126 S 
ATOM      9  C   UNL A   1      30.733  27.453  22.610  1.00  0.00     0.068 A 
ATOM     10  C   UNL A   1      30.322  27.401  23.921  1.00  0.00     0.028 A 
BRANCH   7  11
ATOM     11  N   UNL A   1      31.594  23.967  23.652  1.00  0.00    -0.314 N 
ATOM     12  O   UNL A   1      33.369  24.054  25.149  1.00  0.00    -0.271 OA
ATOM     13  C   UNL A   1      32.682  23.452  24.331  1.00  0.00     0.262 C 
ATOM     14  H   UNL A   1      31.050  23.343  23.120  1.00  0.00     0.170 HD
BRANCH  13  15
ATOM     15  C   UNL A   1      33.040  22.042  23.850  1.00  0.00     0.329 C 
BRANCH  15  16
ATOM     16  O   UNL A   1      33.168  21.111  24.926  1.00  0.00    -0.484 OA
BRANCH  16  17
ATOM     17  C   UNL A   1      33.392  19.863  24.416  1.00  0.00     0.120 A 
ATOM     18  C   UNL A   1      32.479  19.305  23.520  1.00  0.00     0.049 A 
ATOM     19  C   UNL A   1      34.542  19.176  24.801  1.00  0.00     0.049 A 
ATOM     20  C   UNL A   1      32.694  18.016  23.045  1.00  0.00     0.043 A 
ATOM     21  C   UNL A   1      34.755  17.886  24.320  1.00  0.00     0.043 A 
ATOM     22  C   UNL A   1      33.825  17.316  23.453  1.00  0.00     0.123 A 
ATOM     23  F   UNL A   1      34.024  16.071  23.002  1.00  0.00    -0.207 F 
ENDBRANCH  16  17
ENDBRANCH  15  16
ENDBRANCH  13  15
ENDBRANCH   7  11
ENDBRANCH   3   6
ENDBRANCH   1   2
BRANCH   1  24
ATOM     24  C   UNL A   1      32.232  28.934  27.258  1.00  0.00     0.042 C 
BRANCH  24  25
ATOM     25  C   UNL A   1      33.466  29.785  26.970  1.00  0.00     0.118 C 
BRANCH  25  26
ATOM     26  N   UNL A   1      33.688  30.885  27.909  1.00  0.00    -0.352 N 
ATOM     27  C   UNL A   1      34.722  31.207  28.761  1.00  0.00     0.251 C 
ATOM     28  H   UNL A   1      32.945  31.530  27.937  1.00  0.00     0.163 HD
ATOM     29  O   UNL A   1      34.578  32.150  29.537  1.00  0.00    -0.269 OA
BRANCH  27  30
ATOM     30  C   UNL A   1      35.972  30.411  28.814  1.00  0.00     0.039 A 
ATOM     31  C   UNL A   1      36.813  30.380  27.695  1.00  0.00     0.014 A 
ATOM     32  C   UNL A   1      36.338  29.695  29.948  1.00  0.00     0.014 A 
ATOM     33  C   UNL A   1      38.063  29.755  27.769  1.00  0.00     0.010 A 
ATOM     34  C   UNL A   1      37.632  29.201  30.072  1.00  0.00     0.010 A 
ATOM     35  C   UNL A   1      38.519  29.230  28.988  1.00  0.00    -0.014 A 
BRANCH  35  36
ATOM     36  C   UNL A   1      39.905  28.721  29.178  1.00  0.00     0.031 A 
ATOM     37  C   UNL A   1      40.994  29.647  29.658  1.00  0.00     0.074 A 
ATOM     38  C   UNL A   1      40.222  27.468  28.787  1.00  0.00     0.049 A 
ATOM     39  N   UNL A   1      42.290  29.459  29.686  1.00  0.00    -0.248 NA
ATOM     40  C   UNL A   1      40.577  30.984  30.113  1.00  0.00     0.031 C 
ATOM     41  C   UNL A   1      39.288  26.482  28.237  1.00  0.00     0.029 A 
ATOM     42  N   UNL A   1      41.431  26.817  28.771  1.00  0.00    -0.354 N 
ATOM     43  C   UNL A   1      42.839  30.668  30.095  1.00  0.00     0.074 A 
ATOM     44  C   UNL A   1      41.742  31.594  30.265  1.00  0.00     0.031 C 
ATOM     45  C   UNL A   1      39.950  25.345  27.969  1.00  0.00     0.029 A 
ATOM     46  C   UNL A   1      41.362  25.536  28.278  1.00  0.00     0.049 A 
ATOM     47  H   UNL A   1      42.268  27.229  29.085  1.00  0.00     0.167 HD
ATOM     48  C   UNL A   1      44.136  30.979  30.328  1.00  0.00     0.031 A 
ATOM     49  C   UNL A   1      42.328  24.618  28.080  1.00  0.00     0.031 A 
ATOM     50  C   UNL A   1      45.221  30.040  30.235  1.00  0.00     0.049 A 
ATOM     51  C   UNL A   1      43.749  24.961  28.423  1.00  0.00     0.074 A 
ATOM     52  C   UNL A   1      46.554  30.227  30.555  1.00  0.00     0.029 A 
ATOM     53  N   UNL A   1      45.091  28.729  29.806  1.00  0.00    -0.354 N 
ATOM     54  N   UNL A   1      44.241  26.090  28.871  1.00  0.00    -0.248 NA
ATOM     55  C   UNL A   1      44.748  23.897  28.241  1.00  0.00     0.031 C 
ATOM     56  C   UNL A   1      47.237  29.037  30.291  1.00  0.00     0.029 A 
ATOM     57  C   UNL A   1      46.321  28.098  29.844  1.00  0.00     0.049 A 
ATOM     58  H   UNL A   1      44.248  28.309  29.516  1.00  0.00     0.167 HD
ATOM     59  C   UNL A   1      45.599  25.867  29.047  1.00  0.00     0.074 A 
ATOM     60  C   UNL A   1      45.852  24.490  28.673  1.00  0.00     0.031 C 
ATOM     61  C   UNL A   1      46.553  26.726  29.478  1.00  0.00     0.031 A 
BRANCH  48  62
ATOM     62  C   UNL A   1      44.452  32.395  30.721  1.00  0.00    -0.014 A 
ATOM     63  C   UNL A   1      44.480  32.791  32.068  1.00  0.00     0.009 A 
ATOM     64  C   UNL A   1      44.756  33.341  29.729  1.00  0.00     0.009 A 
ATOM     65  C   UNL A   1      44.763  34.115  32.411  1.00  0.00     0.001 A 
ATOM     66  C   UNL A   1      45.068  34.657  30.077  1.00  0.00     0.001 A 
ATOM     67  C   UNL A   1      45.061  35.046  31.416  1.00  0.00     0.000 A 
ENDBRANCH  48  62
BRANCH  49  68
ATOM     68  C   UNL A   1      41.980  23.273  27.553  1.00  0.00    -0.014 A 
ATOM     69  C   UNL A   1      41.547  22.262  28.426  1.00  0.00     0.009 A 
ATOM     70  C   UNL A   1      42.083  22.989  26.183  1.00  0.00     0.009 A 
ATOM     71  C   UNL A   1      41.250  20.987  27.940  1.00  0.00     0.001 A 
ATOM     72  C   UNL A   1      41.759  21.720  25.697  1.00  0.00     0.001 A 
ATOM     73  C   UNL A   1      41.352  20.718  26.577  1.00  0.00     0.000 A 
ENDBRANCH  49  68
BRANCH  61  74
ATOM     74  C   UNL A   1      47.949  26.193  29.607  1.00  0.00    -0.014 A 
ATOM     75  C   UNL A   1      48.794  26.091  28.491  1.00  0.00     0.009 A 
ATOM     76  C   UNL A   1      48.440  25.830  30.871  1.00  0.00     0.009 A 
ATOM     77  C   UNL A   1      50.096  25.610  28.636  1.00  0.00     0.001 A 
ATOM     78  C   UNL A   1      49.749  25.373  31.016  1.00  0.00     0.001 A 
ATOM     79  C   UNL A   1      50.574  25.256  29.897  1.00  0.00     0.000 A 
ENDBRANCH  61  74
ENDBRANCH  35  36
ENDBRANCH  27  30
ENDBRANCH  25  26
ENDBRANCH  24  25
ENDBRANCH   1  24
TORSDOF 14
ENDMDL
