MODEL 1
REMARK VINA RESULT:     -13.0      0.000      0.000
REMARK SMILES CC1(C)S[C@@H]2[C@H]([NH2+]Cn3nnc4ccccc43)C(=O)N2[C@@H]1C(=O)NCCCNC(=O)c1ccc(-c2c3nc(c(-c4ccccc4)c4ccc([nH]4)c(-c4ccccc4)c4nc(c(-c5ccccc5)c5ccc2[nH]5)C=C4)C=C3)cc1
REMARK SMILES IDX 25 1 24 2 22 3 23 4 21 6 1 7 2 8 3 9 4 10 5 11 20 12 6 13
REMARK SMILES IDX 18 14 19 15 7 16 8 19 9 20 10 21 17 22 11 23 12 24 16 25
REMARK SMILES IDX 13 26 15 27 14 28 26 29 27 30 28 31 29 32 30 34 31 35 32 36
REMARK SMILES IDX 78 37 33 38 77 39 34 40 35 41 36 42 71 43 37 44 76 45 70 46
REMARK SMILES IDX 72 47 38 48 75 49 69 50 68 51 39 53 61 54 46 55 60 56 47 57
REMARK SMILES IDX 50 58 59 59 73 60 48 61 49 62 58 64 74 65 51 66 40 67 41 68
REMARK SMILES IDX 45 69 42 70 44 71 43 72 62 73 63 74 67 75 64 76 66 77 65 78
REMARK SMILES IDX 52 79 53 80 57 81 54 82 56 83 55 84
REMARK H PARENT 24 5 7 17 7 18 28 33 72 52 50 63
REMARK Flexibility Score: inf
ROOT
ATOM      1  C   UNL A   1      34.054  24.672  24.027  1.00  0.00     0.117 C 
ENDROOT
BRANCH   1   2
ATOM      2  N   UNL A   1      33.794  24.883  22.606  1.00  0.00    -0.354 N 
ATOM      3  C   UNL A   1      33.010  25.792  21.946  1.00  0.00     0.244 C 
ATOM      4  O   UNL A   1      33.292  25.986  20.755  1.00  0.00    -0.273 OA
ATOM      5  H   UNL A   1      34.267  24.257  22.013  1.00  0.00     0.163 HD
BRANCH   3   6
ATOM      6  C   UNL A   1      31.915  26.678  22.598  1.00  0.00     0.191 C 
ATOM      7  C   UNL A   1      33.940  28.158  23.365  1.00  0.00     0.026 C 
ATOM      8  C   UNL A   1      32.421  27.984  23.299  1.00  0.00     0.042 C 
ATOM      9  C   UNL A   1      31.791  29.255  22.706  1.00  0.00     0.026 C 
ATOM     10  S   UNL A   1      31.748  27.975  25.052  1.00  0.00    -0.121 SA
ATOM     11  C   UNL A   1      30.510  26.723  24.676  1.00  0.00     0.213 C 
ATOM     12  N   UNL A   1      31.144  25.993  23.602  1.00  0.00    -0.306 N 
ATOM     13  C   UNL A   1      30.281  25.333  25.353  1.00  0.00     0.307 C 
ATOM     14  C   UNL A   1      30.462  24.871  23.801  1.00  0.00     0.285 C 
ATOM     15  O   UNL A   1      30.268  23.901  23.079  1.00  0.00    -0.268 OA
BRANCH  13  16
ATOM     16  N   UNL A   1      31.341  24.726  26.202  1.00  0.00    -0.315 N 
ATOM     17  H   UNL A   1      31.619  25.413  26.903  1.00  0.00     0.348 HD
ATOM     18  H   UNL A   1      32.101  24.466  25.573  1.00  0.00     0.348 HD
BRANCH  16  19
ATOM     19  C   UNL A   1      30.945  23.508  26.893  1.00  0.00     0.415 C 
BRANCH  19  20
ATOM     20  N   UNL A   1      32.056  22.568  26.930  1.00  0.00    -0.194 N 
ATOM     21  N   UNL A   1      32.913  22.580  27.961  1.00  0.00    -0.061 NA
ATOM     22  C   UNL A   1      32.464  21.721  25.926  1.00  0.00     0.095 A 
ATOM     23  N   UNL A   1      33.887  21.734  27.659  1.00  0.00    -0.130 NA
ATOM     24  C   UNL A   1      33.614  21.156  26.451  1.00  0.00     0.113 A 
ATOM     25  C   UNL A   1      31.992  21.408  24.644  1.00  0.00     0.030 A 
ATOM     26  C   UNL A   1      34.298  20.173  25.722  1.00  0.00     0.032 A 
ATOM     27  C   UNL A   1      32.732  20.477  23.903  1.00  0.00     0.002 A 
ATOM     28  C   UNL A   1      33.857  19.852  24.439  1.00  0.00     0.002 A 
ENDBRANCH  19  20
ENDBRANCH  16  19
ENDBRANCH  13  16
ENDBRANCH   3   6
ENDBRANCH   1   2
BRANCH   1  29
ATOM     29  C   UNL A   1      35.104  23.596  24.353  1.00  0.00     0.042 C 
BRANCH  29  30
ATOM     30  C   UNL A   1      36.224  23.371  23.337  1.00  0.00     0.118 C 
BRANCH  30  31
ATOM     31  N   UNL A   1      37.042  22.197  23.588  1.00  0.00    -0.352 N 
ATOM     32  C   UNL A   1      37.614  21.647  24.706  1.00  0.00     0.251 C 
ATOM     33  H   UNL A   1      37.228  21.681  22.770  1.00  0.00     0.163 HD
ATOM     34  O   UNL A   1      37.730  20.417  24.681  1.00  0.00    -0.269 OA
BRANCH  32  35
ATOM     35  C   UNL A   1      38.237  22.388  25.844  1.00  0.00     0.039 A 
ATOM     36  C   UNL A   1      37.944  23.687  26.246  1.00  0.00     0.014 A 
ATOM     37  C   UNL A   1      39.358  21.748  26.425  1.00  0.00     0.014 A 
ATOM     38  C   UNL A   1      38.842  24.369  27.085  1.00  0.00     0.010 A 
ATOM     39  C   UNL A   1      40.272  22.437  27.220  1.00  0.00     0.010 A 
ATOM     40  C   UNL A   1      40.062  23.783  27.477  1.00  0.00    -0.014 A 
BRANCH  40  41
ATOM     41  C   UNL A   1      41.045  24.591  28.223  1.00  0.00     0.031 A 
ATOM     42  C   UNL A   1      40.617  25.999  28.423  1.00  0.00     0.074 A 
ATOM     43  C   UNL A   1      42.177  24.152  28.826  1.00  0.00     0.049 A 
ATOM     44  N   UNL A   1      41.235  27.083  28.086  1.00  0.00    -0.248 NA
ATOM     45  C   UNL A   1      39.275  26.213  28.988  1.00  0.00     0.031 C 
ATOM     46  C   UNL A   1      42.648  22.778  28.991  1.00  0.00     0.029 A 
ATOM     47  N   UNL A   1      43.118  24.861  29.528  1.00  0.00    -0.354 N 
ATOM     48  C   UNL A   1      40.421  28.128  28.506  1.00  0.00     0.074 A 
ATOM     49  C   UNL A   1      39.178  27.539  28.935  1.00  0.00     0.031 C 
ATOM     50  C   UNL A   1      43.620  22.729  29.930  1.00  0.00     0.029 A 
ATOM     51  C   UNL A   1      43.929  24.081  30.350  1.00  0.00     0.049 A 
ATOM     52  H   UNL A   1      43.212  25.838  29.458  1.00  0.00     0.167 HD
ATOM     53  C   UNL A   1      40.876  29.401  28.646  1.00  0.00     0.031 A 
ATOM     54  C   UNL A   1      44.735  24.503  31.360  1.00  0.00     0.031 A 
ATOM     55  C   UNL A   1      42.087  29.636  27.909  1.00  0.00     0.049 A 
ATOM     56  C   UNL A   1      45.006  25.941  31.148  1.00  0.00     0.074 A 
ATOM     57  C   UNL A   1      42.420  29.551  26.570  1.00  0.00     0.029 A 
ATOM     58  N   UNL A   1      43.281  29.647  28.589  1.00  0.00    -0.354 N 
ATOM     59  N   UNL A   1      45.738  26.409  30.179  1.00  0.00    -0.248 NA
ATOM     60  C   UNL A   1      44.095  26.890  31.767  1.00  0.00     0.031 C 
ATOM     61  C   UNL A   1      43.731  28.998  26.555  1.00  0.00     0.029 A 
ATOM     62  C   UNL A   1      44.147  28.854  27.878  1.00  0.00     0.049 A 
ATOM     63  H   UNL A   1      43.476  30.130  29.425  1.00  0.00     0.167 HD
ATOM     64  C   UNL A   1      45.072  27.552  29.767  1.00  0.00     0.074 A 
ATOM     65  C   UNL A   1      44.114  27.842  30.832  1.00  0.00     0.031 C 
ATOM     66  C   UNL A   1      45.147  28.000  28.480  1.00  0.00     0.031 A 
BRANCH  53  67
ATOM     67  C   UNL A   1      40.356  30.329  29.706  1.00  0.00    -0.014 A 
ATOM     68  C   UNL A   1      39.221  31.143  29.510  1.00  0.00     0.009 A 
ATOM     69  C   UNL A   1      40.849  30.236  31.016  1.00  0.00     0.009 A 
ATOM     70  C   UNL A   1      38.623  31.850  30.552  1.00  0.00     0.001 A 
ATOM     71  C   UNL A   1      40.224  30.908  32.074  1.00  0.00     0.001 A 
ATOM     72  C   UNL A   1      39.114  31.717  31.841  1.00  0.00     0.000 A 
ENDBRANCH  53  67
BRANCH  54  73
ATOM     73  C   UNL A   1      44.916  23.875  32.697  1.00  0.00    -0.014 A 
ATOM     74  C   UNL A   1      43.866  23.151  33.292  1.00  0.00     0.009 A 
ATOM     75  C   UNL A   1      45.994  24.243  33.523  1.00  0.00     0.009 A 
ATOM     76  C   UNL A   1      43.862  22.858  34.660  1.00  0.00     0.001 A 
ATOM     77  C   UNL A   1      45.987  23.955  34.897  1.00  0.00     0.001 A 
ATOM     78  C   UNL A   1      44.911  23.279  35.468  1.00  0.00     0.000 A 
ENDBRANCH  54  73
BRANCH  66  79
ATOM     79  C   UNL A   1      46.138  27.360  27.531  1.00  0.00    -0.014 A 
ATOM     80  C   UNL A   1      45.796  26.125  26.952  1.00  0.00     0.009 A 
ATOM     81  C   UNL A   1      47.454  27.824  27.358  1.00  0.00     0.009 A 
ATOM     82  C   UNL A   1      46.738  25.370  26.248  1.00  0.00     0.001 A 
ATOM     83  C   UNL A   1      48.390  27.083  26.627  1.00  0.00     0.001 A 
ATOM     84  C   UNL A   1      48.035  25.850  26.084  1.00  0.00     0.000 A 
ENDBRANCH  66  79
ENDBRANCH  40  41
ENDBRANCH  32  35
ENDBRANCH  30  31
ENDBRANCH  29  30
ENDBRANCH   1  29
TORSDOF 13
ENDMDL
MODEL 2
REMARK VINA RESULT:     -12.8      2.966      5.689
REMARK SMILES CC1(C)S[C@@H]2[C@H]([NH2+]Cn3nnc4ccccc43)C(=O)N2[C@@H]1C(=O)NCCCNC(=O)c1ccc(-c2c3nc(c(-c4ccccc4)c4ccc([nH]4)c(-c4ccccc4)c4nc(c(-c5ccccc5)c5ccc2[nH]5)C=C4)C=C3)cc1
REMARK SMILES IDX 25 1 24 2 22 3 23 4 21 6 1 7 2 8 3 9 4 10 5 11 20 12 6 13
REMARK SMILES IDX 18 14 19 15 7 16 8 19 9 20 10 21 17 22 11 23 12 24 16 25
REMARK SMILES IDX 13 26 15 27 14 28 26 29 27 30 28 31 29 32 30 34 31 35 32 36
REMARK SMILES IDX 78 37 33 38 77 39 34 40 35 41 36 42 71 43 37 44 76 45 70 46
REMARK SMILES IDX 72 47 38 48 75 49 69 50 68 51 39 53 61 54 46 55 60 56 47 57
REMARK SMILES IDX 50 58 59 59 73 60 48 61 49 62 58 64 74 65 51 66 40 67 41 68
REMARK SMILES IDX 45 69 42 70 44 71 43 72 62 73 63 74 67 75 64 76 66 77 65 78
REMARK SMILES IDX 52 79 53 80 57 81 54 82 56 83 55 84
REMARK H PARENT 24 5 7 17 7 18 28 33 72 52 50 63
REMARK Flexibility Score: inf
ROOT
ATOM      1  C   UNL A   1      32.048  28.125  27.627  1.00  0.00     0.117 C 
ENDROOT
BRANCH   1   2
ATOM      2  N   UNL A   1      31.065  27.194  27.082  1.00  0.00    -0.354 N 
ATOM      3  C   UNL A   1      31.079  26.401  25.965  1.00  0.00     0.244 C 
ATOM      4  O   UNL A   1      30.296  25.441  25.972  1.00  0.00    -0.273 OA
ATOM      5  H   UNL A   1      30.240  27.123  27.613  1.00  0.00     0.163 HD
BRANCH   3   6
ATOM      6  C   UNL A   1      32.075  26.531  24.782  1.00  0.00     0.191 C 
ATOM      7  C   UNL A   1      30.009  27.504  23.492  1.00  0.00     0.026 C 
ATOM      8  C   UNL A   1      31.506  27.189  23.479  1.00  0.00     0.042 C 
ATOM      9  C   UNL A   1      32.285  28.448  23.064  1.00  0.00     0.026 C 
ATOM     10  S   UNL A   1      31.852  26.010  22.059  1.00  0.00    -0.121 SA
ATOM     11  C   UNL A   1      33.085  25.088  22.994  1.00  0.00     0.213 C 
ATOM     12  N   UNL A   1      32.623  25.271  24.351  1.00  0.00    -0.306 N 
ATOM     13  C   UNL A   1      33.130  23.560  23.321  1.00  0.00     0.307 C 
ATOM     14  C   UNL A   1      33.212  24.179  24.826  1.00  0.00     0.285 C 
ATOM     15  O   UNL A   1      33.491  23.840  25.969  1.00  0.00    -0.268 OA
BRANCH  13  16
ATOM     16  N   UNL A   1      31.910  22.722  23.169  1.00  0.00    -0.315 N 
ATOM     17  H   UNL A   1      31.276  23.197  22.527  1.00  0.00     0.348 HD
ATOM     18  H   UNL A   1      31.520  22.608  24.106  1.00  0.00     0.348 HD
BRANCH  16  19
ATOM     19  C   UNL A   1      32.153  21.381  22.659  1.00  0.00     0.415 C 
BRANCH  19  20
ATOM     20  N   UNL A   1      32.185  20.425  23.758  1.00  0.00    -0.194 N 
ATOM     21  N   UNL A   1      31.949  20.834  25.012  1.00  0.00    -0.061 NA
ATOM     22  C   UNL A   1      32.598  19.113  23.708  1.00  0.00     0.095 A 
ATOM     23  N   UNL A   1      32.187  19.798  25.803  1.00  0.00    -0.130 NA
ATOM     24  C   UNL A   1      32.532  18.723  25.034  1.00  0.00     0.113 A 
ATOM     25  C   UNL A   1      33.035  18.252  22.692  1.00  0.00     0.030 A 
ATOM     26  C   UNL A   1      32.830  17.397  25.381  1.00  0.00     0.032 A 
ATOM     27  C   UNL A   1      33.397  16.953  23.072  1.00  0.00     0.002 A 
ATOM     28  C   UNL A   1      33.278  16.522  24.392  1.00  0.00     0.002 A 
ENDBRANCH  19  20
ENDBRANCH  16  19
ENDBRANCH  13  16
ENDBRANCH   3   6
ENDBRANCH   1   2
BRANCH   1  29
ATOM     29  C   UNL A   1      32.185  29.458  26.870  1.00  0.00     0.042 C 
BRANCH  29  30
ATOM     30  C   UNL A   1      33.597  29.968  26.585  1.00  0.00     0.118 C 
BRANCH  30  31
ATOM     31  N   UNL A   1      33.927  31.230  27.222  1.00  0.00    -0.352 N 
ATOM     32  C   UNL A   1      35.086  31.798  27.685  1.00  0.00     0.251 C 
ATOM     33  H   UNL A   1      33.141  31.809  27.351  1.00  0.00     0.163 HD
ATOM     34  O   UNL A   1      35.122  33.032  27.626  1.00  0.00    -0.269 OA
BRANCH  32  35
ATOM     35  C   UNL A   1      36.205  31.095  28.381  1.00  0.00     0.039 A 
ATOM     36  C   UNL A   1      37.271  31.693  29.048  1.00  0.00     0.014 A 
ATOM     37  C   UNL A   1      36.256  29.698  28.162  1.00  0.00     0.014 A 
ATOM     38  C   UNL A   1      38.416  30.933  29.339  1.00  0.00     0.010 A 
ATOM     39  C   UNL A   1      37.409  28.954  28.409  1.00  0.00     0.010 A 
ATOM     40  C   UNL A   1      38.529  29.593  28.916  1.00  0.00    -0.014 A 
BRANCH  40  41
ATOM     41  C   UNL A   1      39.808  28.882  29.100  1.00  0.00     0.031 A 
ATOM     42  C   UNL A   1      40.152  28.652  30.527  1.00  0.00     0.074 A 
ATOM     43  C   UNL A   1      40.585  28.330  28.136  1.00  0.00     0.049 A 
ATOM     44  N   UNL A   1      41.219  29.006  31.164  1.00  0.00    -0.248 NA
ATOM     45  C   UNL A   1      39.117  28.030  31.369  1.00  0.00     0.031 C 
ATOM     46  C   UNL A   1      40.308  28.196  26.707  1.00  0.00     0.029 A 
ATOM     47  N   UNL A   1      41.776  27.662  28.258  1.00  0.00    -0.354 N 
ATOM     48  C   UNL A   1      41.053  28.544  32.464  1.00  0.00     0.074 A 
ATOM     49  C   UNL A   1      39.697  28.068  32.566  1.00  0.00     0.031 C 
ATOM     50  C   UNL A   1      41.153  27.300  26.151  1.00  0.00     0.029 A 
ATOM     51  C   UNL A   1      42.113  26.881  27.154  1.00  0.00     0.049 A 
ATOM     52  H   UNL A   1      42.346  27.728  29.058  1.00  0.00     0.167 HD
ATOM     53  C   UNL A   1      42.091  28.412  33.333  1.00  0.00     0.031 A 
ATOM     54  C   UNL A   1      43.053  25.902  27.086  1.00  0.00     0.031 A 
ATOM     55  C   UNL A   1      43.232  29.196  32.950  1.00  0.00     0.049 A 
ATOM     56  C   UNL A   1      44.002  26.113  28.200  1.00  0.00     0.074 A 
ATOM     57  C   UNL A   1      43.434  30.549  32.747  1.00  0.00     0.029 A 
ATOM     58  N   UNL A   1      44.291  28.567  32.342  1.00  0.00    -0.354 N 
ATOM     59  N   UNL A   1      44.839  27.108  28.264  1.00  0.00    -0.248 NA
ATOM     60  C   UNL A   1      43.711  25.449  29.460  1.00  0.00     0.031 C 
ATOM     61  C   UNL A   1      44.290  30.623  31.612  1.00  0.00     0.029 A 
ATOM     62  C   UNL A   1      44.619  29.319  31.242  1.00  0.00     0.049 A 
ATOM     63  H   UNL A   1      44.728  27.735  32.638  1.00  0.00     0.167 HD
ATOM     64  C   UNL A   1      44.824  27.482  29.598  1.00  0.00     0.074 A 
ATOM     65  C   UNL A   1      44.176  26.376  30.299  1.00  0.00     0.031 C 
ATOM     66  C   UNL A   1      45.074  28.768  29.985  1.00  0.00     0.031 A 
BRANCH  53  67
ATOM     67  C   UNL A   1      42.141  27.323  34.366  1.00  0.00    -0.014 A 
ATOM     68  C   UNL A   1      42.784  26.089  34.136  1.00  0.00     0.009 A 
ATOM     69  C   UNL A   1      41.751  27.596  35.686  1.00  0.00     0.009 A 
ATOM     70  C   UNL A   1      43.004  25.162  35.154  1.00  0.00     0.001 A 
ATOM     71  C   UNL A   1      42.010  26.688  36.720  1.00  0.00     0.001 A 
ATOM     72  C   UNL A   1      42.632  25.471  36.453  1.00  0.00     0.000 A 
ENDBRANCH  53  67
BRANCH  54  73
ATOM     73  C   UNL A   1      42.937  24.579  26.415  1.00  0.00    -0.014 A 
ATOM     74  C   UNL A   1      41.886  23.702  26.745  1.00  0.00     0.009 A 
ATOM     75  C   UNL A   1      44.017  24.045  25.687  1.00  0.00     0.009 A 
ATOM     76  C   UNL A   1      41.936  22.343  26.417  1.00  0.00     0.001 A 
ATOM     77  C   UNL A   1      44.070  22.681  25.365  1.00  0.00     0.001 A 
ATOM     78  C   UNL A   1      43.038  21.827  25.746  1.00  0.00     0.000 A 
ENDBRANCH  54  73
BRANCH  66  79
ATOM     79  C   UNL A   1      45.578  29.762  28.961  1.00  0.00    -0.014 A 
ATOM     80  C   UNL A   1      44.645  30.331  28.077  1.00  0.00     0.009 A 
ATOM     81  C   UNL A   1      46.943  29.990  28.712  1.00  0.00     0.009 A 
ATOM     82  C   UNL A   1      45.059  31.080  26.971  1.00  0.00     0.001 A 
ATOM     83  C   UNL A   1      47.357  30.765  27.623  1.00  0.00     0.001 A 
ATOM     84  C   UNL A   1      46.415  31.298  26.745  1.00  0.00     0.000 A 
ENDBRANCH  66  79
ENDBRANCH  40  41
ENDBRANCH  32  35
ENDBRANCH  30  31
ENDBRANCH  29  30
ENDBRANCH   1  29
TORSDOF 13
ENDMDL
MODEL 3
REMARK VINA RESULT:     -12.7      2.704      5.322
REMARK SMILES CC1(C)S[C@@H]2[C@H]([NH2+]Cn3nnc4ccccc43)C(=O)N2[C@@H]1C(=O)NCCCNC(=O)c1ccc(-c2c3nc(c(-c4ccccc4)c4ccc([nH]4)c(-c4ccccc4)c4nc(c(-c5ccccc5)c5ccc2[nH]5)C=C4)C=C3)cc1
REMARK SMILES IDX 25 1 24 2 22 3 23 4 21 6 1 7 2 8 3 9 4 10 5 11 20 12 6 13
REMARK SMILES IDX 18 14 19 15 7 16 8 19 9 20 10 21 17 22 11 23 12 24 16 25
REMARK SMILES IDX 13 26 15 27 14 28 26 29 27 30 28 31 29 32 30 34 31 35 32 36
REMARK SMILES IDX 78 37 33 38 77 39 34 40 35 41 36 42 71 43 37 44 76 45 70 46
REMARK SMILES IDX 72 47 38 48 75 49 69 50 68 51 39 53 61 54 46 55 60 56 47 57
REMARK SMILES IDX 50 58 59 59 73 60 48 61 49 62 58 64 74 65 51 66 40 67 41 68
REMARK SMILES IDX 45 69 42 70 44 71 43 72 62 73 63 74 67 75 64 76 66 77 65 78
REMARK SMILES IDX 52 79 53 80 57 81 54 82 56 83 55 84
REMARK H PARENT 24 5 7 17 7 18 28 33 72 52 50 63
REMARK Flexibility Score: inf
ROOT
ATOM      1  C   UNL A   1      33.572  27.804  26.091  1.00  0.00     0.117 C 
ENDROOT
BRANCH   1   2
ATOM      2  N   UNL A   1      34.051  28.393  24.845  1.00  0.00    -0.354 N 
ATOM      3  C   UNL A   1      33.505  28.445  23.589  1.00  0.00     0.244 C 
ATOM      4  O   UNL A   1      33.939  29.336  22.846  1.00  0.00    -0.273 OA
ATOM      5  H   UNL A   1      34.928  28.834  24.918  1.00  0.00     0.163 HD
BRANCH   3   6
ATOM      6  C   UNL A   1      32.315  27.583  23.090  1.00  0.00     0.191 C 
ATOM      7  C   UNL A   1      30.886  29.113  24.670  1.00  0.00     0.026 C 
ATOM      8  C   UNL A   1      30.901  27.996  23.624  1.00  0.00     0.042 C 
ATOM      9  C   UNL A   1      29.921  28.347  22.493  1.00  0.00     0.026 C 
ATOM     10  S   UNL A   1      30.120  26.465  24.380  1.00  0.00    -0.121 SA
ATOM     11  C   UNL A   1      31.270  25.350  23.558  1.00  0.00     0.213 C 
ATOM     12  N   UNL A   1      32.440  26.186  23.415  1.00  0.00    -0.306 N 
ATOM     13  C   UNL A   1      32.228  24.287  24.187  1.00  0.00     0.307 C 
ATOM     14  C   UNL A   1      33.300  25.177  23.341  1.00  0.00     0.285 C 
ATOM     15  O   UNL A   1      34.452  25.121  22.929  1.00  0.00    -0.268 OA
BRANCH  13  16
ATOM     16  N   UNL A   1      32.550  24.330  25.639  1.00  0.00    -0.315 N 
ATOM     17  H   UNL A   1      31.829  24.880  26.108  1.00  0.00     0.348 HD
ATOM     18  H   UNL A   1      33.481  24.741  25.717  1.00  0.00     0.348 HD
BRANCH  16  19
ATOM     19  C   UNL A   1      32.619  23.028  26.286  1.00  0.00     0.415 C 
BRANCH  19  20
ATOM     20  N   UNL A   1      33.663  22.218  25.672  1.00  0.00    -0.194 N 
ATOM     21  N   UNL A   1      33.376  20.996  25.202  1.00  0.00    -0.061 NA
ATOM     22  C   UNL A   1      35.013  22.483  25.640  1.00  0.00     0.095 A 
ATOM     23  N   UNL A   1      34.526  20.446  24.842  1.00  0.00    -0.130 NA
ATOM     24  C   UNL A   1      35.532  21.346  25.047  1.00  0.00     0.113 A 
ATOM     25  C   UNL A   1      35.822  23.542  26.072  1.00  0.00     0.030 A 
ATOM     26  C   UNL A   1      36.908  21.269  24.785  1.00  0.00     0.032 A 
ATOM     27  C   UNL A   1      37.202  23.413  25.866  1.00  0.00     0.002 A 
ATOM     28  C   UNL A   1      37.738  22.304  25.215  1.00  0.00     0.002 A 
ENDBRANCH  19  20
ENDBRANCH  16  19
ENDBRANCH  13  16
ENDBRANCH   3   6
ENDBRANCH   1   2
BRANCH   1  29
ATOM     29  C   UNL A   1      33.590  28.739  27.313  1.00  0.00     0.042 C 
BRANCH  29  30
ATOM     30  C   UNL A   1      33.811  30.230  27.059  1.00  0.00     0.118 C 
BRANCH  30  31
ATOM     31  N   UNL A   1      34.363  30.962  28.185  1.00  0.00    -0.352 N 
ATOM     32  C   UNL A   1      35.625  31.357  28.547  1.00  0.00     0.251 C 
ATOM     33  H   UNL A   1      33.676  31.236  28.835  1.00  0.00     0.163 HD
ATOM     34  O   UNL A   1      35.676  32.403  29.203  1.00  0.00    -0.269 OA
BRANCH  32  35
ATOM     35  C   UNL A   1      36.887  30.578  28.369  1.00  0.00     0.039 A 
ATOM     36  C   UNL A   1      37.006  29.312  27.804  1.00  0.00     0.014 A 
ATOM     37  C   UNL A   1      38.020  31.128  29.014  1.00  0.00     0.014 A 
ATOM     38  C   UNL A   1      38.176  28.566  28.024  1.00  0.00     0.010 A 
ATOM     39  C   UNL A   1      39.163  30.373  29.272  1.00  0.00     0.010 A 
ATOM     40  C   UNL A   1      39.206  29.052  28.854  1.00  0.00    -0.014 A 
BRANCH  40  41
ATOM     41  C   UNL A   1      40.343  28.172  29.187  1.00  0.00     0.031 A 
ATOM     42  C   UNL A   1      40.686  28.179  30.631  1.00  0.00     0.074 A 
ATOM     43  C   UNL A   1      40.975  27.304  28.361  1.00  0.00     0.049 A 
ATOM     44  N   UNL A   1      41.821  28.454  31.188  1.00  0.00    -0.248 NA
ATOM     45  C   UNL A   1      39.586  27.940  31.579  1.00  0.00     0.031 C 
ATOM     46  C   UNL A   1      40.632  26.935  26.988  1.00  0.00     0.029 A 
ATOM     47  N   UNL A   1      42.031  26.468  28.623  1.00  0.00    -0.354 N 
ATOM     48  C   UNL A   1      41.618  28.304  32.554  1.00  0.00     0.074 A 
ATOM     49  C   UNL A   1      40.203  28.114  32.745  1.00  0.00     0.031 C 
ATOM     50  C   UNL A   1      41.284  25.805  26.633  1.00  0.00     0.029 A 
ATOM     51  C   UNL A   1      42.186  25.432  27.705  1.00  0.00     0.049 A 
ATOM     52  H   UNL A   1      42.630  26.591  29.395  1.00  0.00     0.167 HD
ATOM     53  C   UNL A   1      42.643  28.165  33.436  1.00  0.00     0.031 A 
ATOM     54  C   UNL A   1      42.933  24.305  27.845  1.00  0.00     0.031 A 
ATOM     55  C   UNL A   1      43.893  28.634  32.905  1.00  0.00     0.049 A 
ATOM     56  C   UNL A   1      43.941  24.562  28.896  1.00  0.00     0.074 A 
ATOM     57  C   UNL A   1      44.327  29.857  32.429  1.00  0.00     0.029 A 
ATOM     58  N   UNL A   1      44.801  27.712  32.444  1.00  0.00    -0.354 N 
ATOM     59  N   UNL A   1      44.944  25.379  28.757  1.00  0.00    -0.248 NA
ATOM     60  C   UNL A   1      43.577  24.231  30.264  1.00  0.00     0.031 C 
ATOM     61  C   UNL A   1      45.144  29.542  31.307  1.00  0.00     0.029 A 
ATOM     62  C   UNL A   1      45.222  28.152  31.214  1.00  0.00     0.049 A 
ATOM     63  H   UNL A   1      45.092  26.892  32.907  1.00  0.00     0.167 HD
ATOM     64  C   UNL A   1      45.040  26.013  29.985  1.00  0.00     0.074 A 
ATOM     65  C   UNL A   1      44.228  25.209  30.896  1.00  0.00     0.031 C 
ATOM     66  C   UNL A   1      45.529  27.283  30.100  1.00  0.00     0.031 A 
BRANCH  53  67
ATOM     67  C   UNL A   1      42.532  27.319  34.671  1.00  0.00    -0.014 A 
ATOM     68  C   UNL A   1      41.963  27.798  35.869  1.00  0.00     0.009 A 
ATOM     69  C   UNL A   1      42.776  25.939  34.596  1.00  0.00     0.009 A 
ATOM     70  C   UNL A   1      41.678  26.960  36.947  1.00  0.00     0.001 A 
ATOM     71  C   UNL A   1      42.449  25.087  35.658  1.00  0.00     0.001 A 
ATOM     72  C   UNL A   1      41.904  25.598  36.833  1.00  0.00     0.000 A 
ENDBRANCH  53  67
BRANCH  54  73
ATOM     73  C   UNL A   1      42.559  22.916  27.460  1.00  0.00    -0.014 A 
ATOM     74  C   UNL A   1      43.247  22.254  26.425  1.00  0.00     0.009 A 
ATOM     75  C   UNL A   1      41.339  22.358  27.883  1.00  0.00     0.009 A 
ATOM     76  C   UNL A   1      42.715  21.121  25.801  1.00  0.00     0.001 A 
ATOM     77  C   UNL A   1      40.802  21.226  27.252  1.00  0.00     0.001 A 
ATOM     78  C   UNL A   1      41.481  20.619  26.198  1.00  0.00     0.000 A 
ENDBRANCH  54  73
BRANCH  66  79
ATOM     79  C   UNL A   1      46.169  27.940  28.896  1.00  0.00    -0.014 A 
ATOM     80  C   UNL A   1      45.325  28.430  27.883  1.00  0.00     0.009 A 
ATOM     81  C   UNL A   1      47.551  27.903  28.639  1.00  0.00     0.009 A 
ATOM     82  C   UNL A   1      45.839  28.845  26.651  1.00  0.00     0.001 A 
ATOM     83  C   UNL A   1      48.069  28.347  27.416  1.00  0.00     0.001 A 
ATOM     84  C   UNL A   1      47.211  28.804  26.418  1.00  0.00     0.000 A 
ENDBRANCH  66  79
ENDBRANCH  40  41
ENDBRANCH  32  35
ENDBRANCH  30  31
ENDBRANCH  29  30
ENDBRANCH   1  29
TORSDOF 13
ENDMDL
