MODEL 1
REMARK VINA RESULT:     -11.9      0.000      0.000
REMARK SMILES Cc1c(Br)c(C)c2c(c1Br)O[C@H](C(F)(F)F)C(C(=O)NCCCNC(=O)c1ccc(-c3c4nc(c(-c5ccccc5)c5ccc([nH]5)c(-c5ccccc5)c5nc(c(-c6ccccc6)c6ccc3[nH]6)C=C5)C=C4)cc1)=C2
REMARK SMILES IDX 22 1 21 2 20 3 18 4 19 5 17 7 1 8 2 9 3 10 9 11 4 12 5 13
REMARK SMILES IDX 8 14 10 15 6 16 7 17 11 18 75 19 12 20 13 21 14 22 15 23
REMARK SMILES IDX 16 24 23 25 24 26 25 27 26 29 27 30 28 31 74 32 29 33 73 34
REMARK SMILES IDX 30 35 31 36 32 37 67 38 33 39 72 40 66 41 68 42 34 43 71 44
REMARK SMILES IDX 65 45 64 46 35 48 57 49 42 50 56 51 43 52 46 53 55 54 69 55
REMARK SMILES IDX 44 56 45 57 54 59 70 60 47 61 36 62 37 63 41 64 38 65 40 66
REMARK SMILES IDX 39 67 58 68 59 69 63 70 60 71 62 72 61 73 48 74 49 75 53 76
REMARK SMILES IDX 50 77 52 78 51 79
REMARK H PARENT 20 6 24 28 68 47 46 58
REMARK Flexibility Score: inf
ROOT
ATOM      1  C   UNL A   1      33.985  28.232  24.848  1.00  0.00     0.042 C 
ENDROOT
BRANCH   1   2
ATOM      2  C   UNL A   1      32.851  27.388  24.288  1.00  0.00     0.118 C 
BRANCH   2   3
ATOM      3  N   UNL A   1      31.948  26.933  25.334  1.00  0.00    -0.352 N 
ATOM      4  C   UNL A   1      31.636  25.761  25.934  1.00  0.00     0.251 C 
ATOM      5  O   UNL A   1      30.767  25.833  26.809  1.00  0.00    -0.270 OA
ATOM      6  H   UNL A   1      31.425  27.679  25.706  1.00  0.00     0.163 HD
BRANCH   4   7
ATOM      7  C   UNL A   1      32.256  24.444  25.611  1.00  0.00     0.067 C 
ATOM      8  C   UNL A   1      36.069  19.183  24.739  1.00  0.00     0.047 C 
ATOM      9  C   UNL A   1      35.449  20.526  25.046  1.00  0.00    -0.019 A 
ATOM     10  C   UNL A   1      36.245  21.657  25.366  1.00  0.00     0.025 A 
ATOM     11  C   UNL A   1      34.057  20.702  24.959  1.00  0.00     0.064 A 
ATOM     12  Br  UNL A   1      38.157  21.464  25.371  1.00  0.00    -0.050 Br
ATOM     13  C   UNL A   1      35.666  22.920  25.657  1.00  0.00    -0.026 A 
ATOM     14  C   UNL A   1      33.475  21.946  25.240  1.00  0.00     0.142 A 
ATOM     15  Br  UNL A   1      32.900  19.277  24.406  1.00  0.00    -0.046 Br
ATOM     16  C   UNL A   1      36.495  24.132  26.026  1.00  0.00     0.046 C 
ATOM     17  C   UNL A   1      34.258  23.052  25.596  1.00  0.00     0.022 A 
ATOM     18  O   UNL A   1      32.107  22.017  25.203  1.00  0.00    -0.474 OA
ATOM     19  C   UNL A   1      33.561  24.307  25.914  1.00  0.00     0.026 C 
ATOM     20  C   UNL A   1      31.522  23.316  24.965  1.00  0.00     0.314 C 
BRANCH  20  21
ATOM     21  C   UNL A   1      31.300  23.526  23.454  1.00  0.00     0.429 C 
ATOM     22  F   UNL A   1      31.382  22.343  22.796  1.00  0.00    -0.167 F 
ATOM     23  F   UNL A   1      30.075  24.034  23.176  1.00  0.00    -0.167 F 
ATOM     24  F   UNL A   1      32.205  24.364  22.905  1.00  0.00    -0.167 F 
ENDBRANCH  20  21
ENDBRANCH   4   7
ENDBRANCH   2   3
ENDBRANCH   1   2
BRANCH   1  25
ATOM     25  C   UNL A   1      33.864  28.415  26.354  1.00  0.00     0.118 C 
BRANCH  25  26
ATOM     26  N   UNL A   1      33.696  29.821  26.715  1.00  0.00    -0.352 N 
ATOM     27  C   UNL A   1      34.400  30.596  27.598  1.00  0.00     0.251 C 
ATOM     28  H   UNL A   1      32.963  30.283  26.250  1.00  0.00     0.163 HD
ATOM     29  O   UNL A   1      33.934  31.665  27.986  1.00  0.00    -0.269 OA
BRANCH  27  30
ATOM     30  C   UNL A   1      35.718  30.147  28.082  1.00  0.00     0.039 A 
ATOM     31  C   UNL A   1      35.840  29.637  29.376  1.00  0.00     0.014 A 
ATOM     32  C   UNL A   1      36.839  30.256  27.256  1.00  0.00     0.014 A 
ATOM     33  C   UNL A   1      37.082  29.180  29.817  1.00  0.00     0.010 A 
ATOM     34  C   UNL A   1      38.045  29.702  27.655  1.00  0.00     0.010 A 
ATOM     35  C   UNL A   1      38.184  29.181  28.947  1.00  0.00    -0.014 A 
BRANCH  35  36
ATOM     36  C   UNL A   1      39.508  28.678  29.375  1.00  0.00     0.031 A 
ATOM     37  C   UNL A   1      40.358  29.509  30.296  1.00  0.00     0.074 A 
ATOM     38  C   UNL A   1      39.965  27.507  28.892  1.00  0.00     0.049 A 
ATOM     39  N   UNL A   1      41.564  29.270  30.742  1.00  0.00    -0.248 NA
ATOM     40  C   UNL A   1      39.791  30.789  30.752  1.00  0.00     0.031 C 
ATOM     41  C   UNL A   1      39.242  26.632  27.966  1.00  0.00     0.029 A 
ATOM     42  N   UNL A   1      41.146  26.850  29.117  1.00  0.00    -0.354 N 
ATOM     43  C   UNL A   1      41.900  30.372  31.517  1.00  0.00     0.074 A 
ATOM     44  C   UNL A   1      40.805  31.310  31.426  1.00  0.00     0.031 C 
ATOM     45  C   UNL A   1      39.977  25.532  27.739  1.00  0.00     0.029 A 
ATOM     46  C   UNL A   1      41.238  25.644  28.466  1.00  0.00     0.049 A 
ATOM     47  H   UNL A   1      41.862  27.208  29.691  1.00  0.00     0.167 HD
ATOM     48  C   UNL A   1      43.009  30.573  32.266  1.00  0.00     0.031 A 
ATOM     49  C   UNL A   1      42.226  24.732  28.457  1.00  0.00     0.031 A 
ATOM     50  C   UNL A   1      44.089  29.630  32.364  1.00  0.00     0.049 A 
ATOM     51  C   UNL A   1      43.463  24.989  29.271  1.00  0.00     0.074 A 
ATOM     52  C   UNL A   1      45.238  29.715  33.129  1.00  0.00     0.029 A 
ATOM     53  N   UNL A   1      44.152  28.431  31.672  1.00  0.00    -0.354 N 
ATOM     54  N   UNL A   1      43.743  26.010  30.043  1.00  0.00    -0.248 NA
ATOM     55  C   UNL A   1      44.517  23.967  29.214  1.00  0.00     0.031 C 
ATOM     56  C   UNL A   1      46.023  28.591  32.856  1.00  0.00     0.029 A 
ATOM     57  C   UNL A   1      45.334  27.778  31.970  1.00  0.00     0.049 A 
ATOM     58  H   UNL A   1      43.458  28.094  31.059  1.00  0.00     0.167 HD
ATOM     59  C   UNL A   1      44.995  25.746  30.583  1.00  0.00     0.074 A 
ATOM     60  C   UNL A   1      45.411  24.459  30.062  1.00  0.00     0.031 C 
ATOM     61  C   UNL A   1      45.733  26.502  31.432  1.00  0.00     0.031 A 
BRANCH  48  62
ATOM     62  C   UNL A   1      43.100  31.858  33.042  1.00  0.00    -0.014 A 
ATOM     63  C   UNL A   1      43.681  33.006  32.477  1.00  0.00     0.009 A 
ATOM     64  C   UNL A   1      42.570  31.934  34.338  1.00  0.00     0.009 A 
ATOM     65  C   UNL A   1      43.760  34.193  33.208  1.00  0.00     0.001 A 
ATOM     66  C   UNL A   1      42.622  33.131  35.056  1.00  0.00     0.001 A 
ATOM     67  C   UNL A   1      43.225  34.256  34.494  1.00  0.00     0.000 A 
ENDBRANCH  48  62
BRANCH  49  68
ATOM     68  C   UNL A   1      42.059  23.475  27.681  1.00  0.00    -0.014 A 
ATOM     69  C   UNL A   1      42.495  23.403  26.349  1.00  0.00     0.009 A 
ATOM     70  C   UNL A   1      41.507  22.330  28.277  1.00  0.00     0.009 A 
ATOM     71  C   UNL A   1      42.372  22.213  25.628  1.00  0.00     0.001 A 
ATOM     72  C   UNL A   1      41.411  21.134  27.561  1.00  0.00     0.001 A 
ATOM     73  C   UNL A   1      41.839  21.078  26.236  1.00  0.00     0.000 A 
ENDBRANCH  49  68
BRANCH  61  74
ATOM     74  C   UNL A   1      47.067  25.958  31.864  1.00  0.00    -0.014 A 
ATOM     75  C   UNL A   1      48.220  26.179  31.097  1.00  0.00     0.009 A 
ATOM     76  C   UNL A   1      47.182  25.294  33.095  1.00  0.00     0.009 A 
ATOM     77  C   UNL A   1      49.462  25.727  31.548  1.00  0.00     0.001 A 
ATOM     78  C   UNL A   1      48.429  24.870  33.556  1.00  0.00     0.001 A 
ATOM     79  C   UNL A   1      49.566  25.082  32.779  1.00  0.00     0.000 A 
ENDBRANCH  61  74
ENDBRANCH  35  36
ENDBRANCH  27  30
ENDBRANCH  25  26
ENDBRANCH   1  25
TORSDOF 11
ENDMDL
MODEL 2
REMARK VINA RESULT:     -11.6      3.111      7.803
REMARK SMILES Cc1c(Br)c(C)c2c(c1Br)O[C@H](C(F)(F)F)C(C(=O)NCCCNC(=O)c1ccc(-c3c4nc(c(-c5ccccc5)c5ccc([nH]5)c(-c5ccccc5)c5nc(c(-c6ccccc6)c6ccc3[nH]6)C=C5)C=C4)cc1)=C2
REMARK SMILES IDX 22 1 21 2 20 3 18 4 19 5 17 7 1 8 2 9 3 10 9 11 4 12 5 13
REMARK SMILES IDX 8 14 10 15 6 16 7 17 11 18 75 19 12 20 13 21 14 22 15 23
REMARK SMILES IDX 16 24 23 25 24 26 25 27 26 29 27 30 28 31 74 32 29 33 73 34
REMARK SMILES IDX 30 35 31 36 32 37 67 38 33 39 72 40 66 41 68 42 34 43 71 44
REMARK SMILES IDX 65 45 64 46 35 48 57 49 42 50 56 51 43 52 46 53 55 54 69 55
REMARK SMILES IDX 44 56 45 57 54 59 70 60 47 61 36 62 37 63 41 64 38 65 40 66
REMARK SMILES IDX 39 67 58 68 59 69 63 70 60 71 62 72 61 73 48 74 49 75 53 76
REMARK SMILES IDX 50 77 52 78 51 79
REMARK H PARENT 20 6 24 28 68 47 46 58
REMARK Flexibility Score: inf
ROOT
ATOM      1  C   UNL A   1      35.890  23.795  26.062  1.00  0.00     0.042 C 
ENDROOT
BRANCH   1   2
ATOM      2  C   UNL A   1      34.553  23.272  25.562  1.00  0.00     0.118 C 
BRANCH   2   3
ATOM      3  N   UNL A   1      34.476  23.285  24.109  1.00  0.00    -0.352 N 
ATOM      4  C   UNL A   1      33.912  24.058  23.152  1.00  0.00     0.251 C 
ATOM      5  O   UNL A   1      34.101  23.680  21.992  1.00  0.00    -0.270 OA
ATOM      6  H   UNL A   1      34.968  22.528  23.717  1.00  0.00     0.163 HD
BRANCH   4   7
ATOM      7  C   UNL A   1      33.110  25.288  23.411  1.00  0.00     0.067 C 
ATOM      8  C   UNL A   1      30.642  31.078  25.245  1.00  0.00     0.047 C 
ATOM      9  C   UNL A   1      31.448  29.823  25.004  1.00  0.00    -0.019 A 
ATOM     10  C   UNL A   1      32.588  29.508  25.789  1.00  0.00     0.025 A 
ATOM     11  C   UNL A   1      31.044  28.896  24.027  1.00  0.00     0.064 A 
ATOM     12  Br  UNL A   1      33.085  30.703  27.209  1.00  0.00    -0.050 Br
ATOM     13  C   UNL A   1      33.349  28.330  25.564  1.00  0.00    -0.026 A 
ATOM     14  C   UNL A   1      31.784  27.728  23.800  1.00  0.00     0.142 A 
ATOM     15  Br  UNL A   1      29.444  29.155  23.002  1.00  0.00    -0.046 Br
ATOM     16  C   UNL A   1      34.583  27.990  26.371  1.00  0.00     0.046 C 
ATOM     17  C   UNL A   1      32.934  27.438  24.546  1.00  0.00     0.022 A 
ATOM     18  O   UNL A   1      31.365  26.912  22.781  1.00  0.00    -0.474 OA
ATOM     19  C   UNL A   1      33.672  26.211  24.212  1.00  0.00     0.026 C 
ATOM     20  C   UNL A   1      31.743  25.520  22.855  1.00  0.00     0.314 C 
BRANCH  20  21
ATOM     21  C   UNL A   1      30.650  24.714  23.583  1.00  0.00     0.429 C 
ATOM     22  F   UNL A   1      30.990  24.525  24.883  1.00  0.00    -0.167 F 
ATOM     23  F   UNL A   1      29.454  25.351  23.589  1.00  0.00    -0.167 F 
ATOM     24  F   UNL A   1      30.444  23.498  23.032  1.00  0.00    -0.167 F 
ENDBRANCH  20  21
ENDBRANCH   4   7
ENDBRANCH   2   3
ENDBRANCH   1   2
BRANCH   1  25
ATOM     25  C   UNL A   1      36.996  23.595  25.035  1.00  0.00     0.118 C 
BRANCH  25  26
ATOM     26  N   UNL A   1      37.992  22.630  25.496  1.00  0.00    -0.352 N 
ATOM     27  C   UNL A   1      39.195  22.832  26.120  1.00  0.00     0.251 C 
ATOM     28  H   UNL A   1      37.762  21.687  25.334  1.00  0.00     0.163 HD
ATOM     29  O   UNL A   1      40.024  21.925  26.166  1.00  0.00    -0.269 OA
BRANCH  27  30
ATOM     30  C   UNL A   1      39.492  24.136  26.737  1.00  0.00     0.039 A 
ATOM     31  C   UNL A   1      39.101  24.380  28.056  1.00  0.00     0.014 A 
ATOM     32  C   UNL A   1      40.140  25.128  25.998  1.00  0.00     0.014 A 
ATOM     33  C   UNL A   1      39.416  25.602  28.648  1.00  0.00     0.010 A 
ATOM     34  C   UNL A   1      40.548  26.296  26.621  1.00  0.00     0.010 A 
ATOM     35  C   UNL A   1      40.170  26.555  27.944  1.00  0.00    -0.014 A 
BRANCH  35  36
ATOM     36  C   UNL A   1      40.545  27.850  28.554  1.00  0.00     0.031 A 
ATOM     37  C   UNL A   1      41.952  28.066  29.038  1.00  0.00     0.074 A 
ATOM     38  C   UNL A   1      39.608  28.803  28.723  1.00  0.00     0.049 A 
ATOM     39  N   UNL A   1      42.462  29.105  29.646  1.00  0.00    -0.248 NA
ATOM     40  C   UNL A   1      42.902  26.958  28.839  1.00  0.00     0.031 C 
ATOM     41  C   UNL A   1      38.204  28.692  28.322  1.00  0.00     0.029 A 
ATOM     42  N   UNL A   1      39.700  30.056  29.271  1.00  0.00    -0.354 N 
ATOM     43  C   UNL A   1      43.784  28.770  29.910  1.00  0.00     0.074 A 
ATOM     44  C   UNL A   1      43.979  27.411  29.462  1.00  0.00     0.031 C 
ATOM     45  C   UNL A   1      37.578  29.847  28.598  1.00  0.00     0.029 A 
ATOM     46  C   UNL A   1      38.522  30.760  29.232  1.00  0.00     0.049 A 
ATOM     47  H   UNL A   1      40.532  30.416  29.656  1.00  0.00     0.167 HD
ATOM     48  C   UNL A   1      44.759  29.538  30.449  1.00  0.00     0.031 A 
ATOM     49  C   UNL A   1      38.237  32.004  29.659  1.00  0.00     0.031 A 
ATOM     50  C   UNL A   1      44.562  30.894  30.880  1.00  0.00     0.049 A 
ATOM     51  C   UNL A   1      39.327  32.829  30.284  1.00  0.00     0.074 A 
ATOM     52  C   UNL A   1      45.494  31.776  31.398  1.00  0.00     0.029 A 
ATOM     53  N   UNL A   1      43.349  31.564  30.843  1.00  0.00    -0.354 N 
ATOM     54  N   UNL A   1      40.586  32.518  30.476  1.00  0.00    -0.248 NA
ATOM     55  C   UNL A   1      38.958  34.174  30.745  1.00  0.00     0.031 C 
ATOM     56  C   UNL A   1      44.830  32.962  31.727  1.00  0.00     0.029 A 
ATOM     57  C   UNL A   1      43.500  32.839  31.356  1.00  0.00     0.049 A 
ATOM     58  H   UNL A   1      42.505  31.187  30.502  1.00  0.00     0.167 HD
ATOM     59  C   UNL A   1      41.167  33.636  31.061  1.00  0.00     0.074 A 
ATOM     60  C   UNL A   1      40.124  34.637  31.175  1.00  0.00     0.031 C 
ATOM     61  C   UNL A   1      42.447  33.816  31.469  1.00  0.00     0.031 A 
BRANCH  48  62
ATOM     62  C   UNL A   1      46.125  28.926  30.593  1.00  0.00    -0.014 A 
ATOM     63  C   UNL A   1      46.503  28.267  31.774  1.00  0.00     0.009 A 
ATOM     64  C   UNL A   1      47.033  28.978  29.525  1.00  0.00     0.009 A 
ATOM     65  C   UNL A   1      47.775  27.703  31.896  1.00  0.00     0.001 A 
ATOM     66  C   UNL A   1      48.293  28.386  29.637  1.00  0.00     0.001 A 
ATOM     67  C   UNL A   1      48.666  27.758  30.825  1.00  0.00     0.000 A 
ENDBRANCH  48  62
BRANCH  49  68
ATOM     68  C   UNL A   1      36.868  32.551  29.468  1.00  0.00    -0.014 A 
ATOM     69  C   UNL A   1      35.917  32.452  30.494  1.00  0.00     0.009 A 
ATOM     70  C   UNL A   1      36.518  33.212  28.280  1.00  0.00     0.009 A 
ATOM     71  C   UNL A   1      34.641  32.996  30.332  1.00  0.00     0.001 A 
ATOM     72  C   UNL A   1      35.249  33.778  28.131  1.00  0.00     0.001 A 
ATOM     73  C   UNL A   1      34.311  33.666  29.155  1.00  0.00     0.000 A 
ENDBRANCH  49  68
BRANCH  61  74
ATOM     74  C   UNL A   1      42.804  35.148  32.069  1.00  0.00    -0.014 A 
ATOM     75  C   UNL A   1      42.538  35.427  33.418  1.00  0.00     0.009 A 
ATOM     76  C   UNL A   1      43.491  36.098  31.297  1.00  0.00     0.009 A 
ATOM     77  C   UNL A   1      42.937  36.643  33.976  1.00  0.00     0.001 A 
ATOM     78  C   UNL A   1      43.915  37.299  31.867  1.00  0.00     0.001 A 
ATOM     79  C   UNL A   1      43.633  37.572  33.204  1.00  0.00     0.000 A 
ENDBRANCH  61  74
ENDBRANCH  35  36
ENDBRANCH  27  30
ENDBRANCH  25  26
ENDBRANCH   1  25
TORSDOF 11
ENDMDL
MODEL 3
REMARK VINA RESULT:     -11.5      2.915      7.592
REMARK SMILES Cc1c(Br)c(C)c2c(c1Br)O[C@H](C(F)(F)F)C(C(=O)NCCCNC(=O)c1ccc(-c3c4nc(c(-c5ccccc5)c5ccc([nH]5)c(-c5ccccc5)c5nc(c(-c6ccccc6)c6ccc3[nH]6)C=C5)C=C4)cc1)=C2
REMARK SMILES IDX 22 1 21 2 20 3 18 4 19 5 17 7 1 8 2 9 3 10 9 11 4 12 5 13
REMARK SMILES IDX 8 14 10 15 6 16 7 17 11 18 75 19 12 20 13 21 14 22 15 23
REMARK SMILES IDX 16 24 23 25 24 26 25 27 26 29 27 30 28 31 74 32 29 33 73 34
REMARK SMILES IDX 30 35 31 36 32 37 67 38 33 39 72 40 66 41 68 42 34 43 71 44
REMARK SMILES IDX 65 45 64 46 35 48 57 49 42 50 56 51 43 52 46 53 55 54 69 55
REMARK SMILES IDX 44 56 45 57 54 59 70 60 47 61 36 62 37 63 41 64 38 65 40 66
REMARK SMILES IDX 39 67 58 68 59 69 63 70 60 71 62 72 61 73 48 74 49 75 53 76
REMARK SMILES IDX 50 77 52 78 51 79
REMARK H PARENT 20 6 24 28 68 47 46 58
REMARK Flexibility Score: inf
ROOT
ATOM      1  C   UNL A   1      37.607  19.540  24.864  1.00  0.00     0.042 C 
ENDROOT
BRANCH   1   2
ATOM      2  C   UNL A   1      36.319  20.333  25.014  1.00  0.00     0.118 C 
BRANCH   2   3
ATOM      3  N   UNL A   1      35.149  19.468  25.021  1.00  0.00    -0.352 N 
ATOM      4  C   UNL A   1      33.804  19.618  25.032  1.00  0.00     0.251 C 
ATOM      5  O   UNL A   1      33.157  18.566  25.044  1.00  0.00    -0.270 OA
ATOM      6  H   UNL A   1      35.405  18.518  25.017  1.00  0.00     0.163 HD
BRANCH   4   7
ATOM      7  C   UNL A   1      33.091  20.927  25.030  1.00  0.00     0.067 C 
ATOM      8  C   UNL A   1      30.227  26.678  23.725  1.00  0.00     0.047 C 
ATOM      9  C   UNL A   1      30.970  25.363  23.729  1.00  0.00    -0.019 A 
ATOM     10  C   UNL A   1      31.796  24.973  22.643  1.00  0.00     0.025 A 
ATOM     11  C   UNL A   1      30.909  24.516  24.849  1.00  0.00     0.064 A 
ATOM     12  Br  UNL A   1      31.988  26.173  21.155  1.00  0.00    -0.050 Br
ATOM     13  C   UNL A   1      32.495  23.736  22.642  1.00  0.00    -0.026 A 
ATOM     14  C   UNL A   1      31.599  23.295  24.861  1.00  0.00     0.142 A 
ATOM     15  Br  UNL A   1      29.931  25.007  26.424  1.00  0.00    -0.046 Br
ATOM     16  C   UNL A   1      33.360  23.289  21.482  1.00  0.00     0.046 C 
ATOM     17  C   UNL A   1      32.381  22.891  23.771  1.00  0.00     0.022 A 
ATOM     18  O   UNL A   1      31.430  22.494  25.960  1.00  0.00    -0.474 OA
ATOM     19  C   UNL A   1      33.036  21.577  23.853  1.00  0.00     0.026 C 
ATOM     20  C   UNL A   1      32.475  21.540  26.246  1.00  0.00     0.314 C 
BRANCH  20  21
ATOM     21  C   UNL A   1      33.513  22.163  27.200  1.00  0.00     0.429 C 
ATOM     22  F   UNL A   1      32.900  22.670  28.298  1.00  0.00    -0.167 F 
ATOM     23  F   UNL A   1      34.414  21.256  27.648  1.00  0.00    -0.167 F 
ATOM     24  F   UNL A   1      34.217  23.163  26.625  1.00  0.00    -0.167 F 
ENDBRANCH  20  21
ENDBRANCH   4   7
ENDBRANCH   2   3
ENDBRANCH   1   2
BRANCH   1  25
ATOM     25  C   UNL A   1      38.781  20.232  25.541  1.00  0.00     0.118 C 
BRANCH  25  26
ATOM     26  N   UNL A   1      39.892  19.311  25.769  1.00  0.00    -0.352 N 
ATOM     27  C   UNL A   1      41.200  19.566  26.088  1.00  0.00     0.251 C 
ATOM     28  H   UNL A   1      39.665  18.357  25.681  1.00  0.00     0.163 HD
ATOM     29  O   UNL A   1      42.049  18.687  25.951  1.00  0.00    -0.269 OA
BRANCH  27  30
ATOM     30  C   UNL A   1      41.587  20.893  26.596  1.00  0.00     0.039 A 
ATOM     31  C   UNL A   1      42.090  21.850  25.711  1.00  0.00     0.014 A 
ATOM     32  C   UNL A   1      41.473  21.181  27.958  1.00  0.00     0.014 A 
ATOM     33  C   UNL A   1      42.422  23.117  26.190  1.00  0.00     0.010 A 
ATOM     34  C   UNL A   1      41.698  22.471  28.411  1.00  0.00     0.010 A 
ATOM     35  C   UNL A   1      42.197  23.444  27.537  1.00  0.00    -0.014 A 
BRANCH  35  36
ATOM     36  C   UNL A   1      42.512  24.788  28.069  1.00  0.00     0.031 A 
ATOM     37  C   UNL A   1      43.925  25.121  28.461  1.00  0.00     0.074 A 
ATOM     38  C   UNL A   1      41.522  25.682  28.253  1.00  0.00     0.049 A 
ATOM     39  N   UNL A   1      44.394  26.219  28.994  1.00  0.00    -0.248 NA
ATOM     40  C   UNL A   1      44.939  24.073  28.253  1.00  0.00     0.031 C 
ATOM     41  C   UNL A   1      40.109  25.458  27.941  1.00  0.00     0.029 A 
ATOM     42  N   UNL A   1      41.556  26.962  28.743  1.00  0.00    -0.354 N 
ATOM     43  C   UNL A   1      45.749  25.988  29.195  1.00  0.00     0.074 A 
ATOM     44  C   UNL A   1      46.014  24.625  28.793  1.00  0.00     0.031 C 
ATOM     45  C   UNL A   1      39.419  26.579  28.204  1.00  0.00     0.029 A 
ATOM     46  C   UNL A   1      40.330  27.582  28.744  1.00  0.00     0.049 A 
ATOM     47  H   UNL A   1      42.380  27.395  29.064  1.00  0.00     0.167 HD
ATOM     48  C   UNL A   1      46.696  26.844  29.643  1.00  0.00     0.031 A 
ATOM     49  C   UNL A   1      39.982  28.821  29.135  1.00  0.00     0.031 A 
ATOM     50  C   UNL A   1      46.428  28.202  30.028  1.00  0.00     0.049 A 
ATOM     51  C   UNL A   1      41.045  29.746  29.660  1.00  0.00     0.074 A 
ATOM     52  C   UNL A   1      47.322  29.167  30.453  1.00  0.00     0.029 A 
ATOM     53  N   UNL A   1      45.171  28.785  30.034  1.00  0.00    -0.354 N 
ATOM     54  N   UNL A   1      42.331  29.531  29.791  1.00  0.00    -0.248 NA
ATOM     55  C   UNL A   1      40.608  31.082  30.086  1.00  0.00     0.031 C 
ATOM     56  C   UNL A   1      46.596  30.319  30.772  1.00  0.00     0.029 A 
ATOM     57  C   UNL A   1      45.259  30.089  30.484  1.00  0.00     0.049 A 
ATOM     58  H   UNL A   1      44.338  28.336  29.760  1.00  0.00     0.167 HD
ATOM     59  C   UNL A   1      42.863  30.712  30.294  1.00  0.00     0.074 A 
ATOM     60  C   UNL A   1      41.761  31.643  30.427  1.00  0.00     0.031 C 
ATOM     61  C   UNL A   1      44.148  30.997  30.618  1.00  0.00     0.031 A 
BRANCH  48  62
ATOM     62  C   UNL A   1      48.107  26.333  29.732  1.00  0.00    -0.014 A 
ATOM     63  C   UNL A   1      48.985  26.433  28.640  1.00  0.00     0.009 A 
ATOM     64  C   UNL A   1      48.577  25.776  30.931  1.00  0.00     0.009 A 
ATOM     65  C   UNL A   1      50.293  25.954  28.735  1.00  0.00     0.001 A 
ATOM     66  C   UNL A   1      49.895  25.326  31.034  1.00  0.00     0.001 A 
ATOM     67  C   UNL A   1      50.749  25.407  29.934  1.00  0.00     0.000 A 
ENDBRANCH  48  62
BRANCH  49  68
ATOM     68  C   UNL A   1      38.570  29.264  29.001  1.00  0.00    -0.014 A 
ATOM     69  C   UNL A   1      38.082  29.711  27.764  1.00  0.00     0.009 A 
ATOM     70  C   UNL A   1      37.690  29.201  30.094  1.00  0.00     0.009 A 
ATOM     71  C   UNL A   1      36.746  30.094  27.626  1.00  0.00     0.001 A 
ATOM     72  C   UNL A   1      36.348  29.560  29.945  1.00  0.00     0.001 A 
ATOM     73  C   UNL A   1      35.879  30.010  28.713  1.00  0.00     0.000 A 
ENDBRANCH  49  68
BRANCH  61  74
ATOM     74  C   UNL A   1      44.442  32.375  31.141  1.00  0.00    -0.014 A 
ATOM     75  C   UNL A   1      44.496  32.630  32.520  1.00  0.00     0.009 A 
ATOM     76  C   UNL A   1      44.754  33.408  30.243  1.00  0.00     0.009 A 
ATOM     77  C   UNL A   1      44.838  33.899  32.988  1.00  0.00     0.001 A 
ATOM     78  C   UNL A   1      45.126  34.668  30.715  1.00  0.00     0.001 A 
ATOM     79  C   UNL A   1      45.162  34.913  32.087  1.00  0.00     0.000 A 
ENDBRANCH  61  74
ENDBRANCH  35  36
ENDBRANCH  27  30
ENDBRANCH  25  26
ENDBRANCH   1  25
TORSDOF 11
ENDMDL
