MODEL 1
REMARK VINA RESULT:     -11.6      0.000      0.000
REMARK SMILES O=C(NCCCNC(=O)[C@H]1C=C[C@H](NS(=O)(=O)c2ccc(F)c(F)c2F)C1)c1ccc(-c2c3nc(c(-c4ccccc4)c4ccc([nH]4)c(-c4ccccc4)c4nc(c(-c5ccccc5)c5ccc2[nH]5)C=C4)C=C3)cc1
REMARK SMILES IDX 5 1 4 2 3 3 1 4 2 5 28 7 29 8 75 9 30 10 74 11 31 12 32 13
REMARK SMILES IDX 33 14 68 15 34 16 73 17 67 18 69 19 35 20 72 21 66 22 65 23
REMARK SMILES IDX 36 25 58 26 43 27 57 28 44 29 47 30 56 31 70 32 45 33 46 34
REMARK SMILES IDX 55 36 71 37 48 38 37 39 38 40 42 41 39 42 41 43 40 44 59 45
REMARK SMILES IDX 60 46 64 47 61 48 63 49 62 50 49 51 50 52 54 53 51 54 53 55
REMARK SMILES IDX 52 56 6 57 7 58 8 59 9 61 10 62 11 63 27 64 12 65 13 66
REMARK SMILES IDX 14 67 15 69 16 70 17 71 18 72 19 73 25 74 20 75 23 76 26 77
REMARK SMILES IDX 21 78 24 79 22 80
REMARK H PARENT 3 6 69 24 47 35 7 60 14 68
REMARK Flexibility Score: inf
ROOT
ATOM      1  C   UNL A   1      37.484  19.736  24.966  1.00  0.00     0.042 C 
ENDROOT
BRANCH   1   2
ATOM      2  C   UNL A   1      38.704  20.346  25.644  1.00  0.00     0.118 C 
BRANCH   2   3
ATOM      3  N   UNL A   1      39.815  19.409  25.720  1.00  0.00    -0.352 N 
ATOM      4  O   UNL A   1      41.949  18.724  25.875  1.00  0.00    -0.269 OA
ATOM      5  C   UNL A   1      41.131  19.623  26.044  1.00  0.00     0.251 C 
ATOM      6  H   UNL A   1      39.586  18.475  25.505  1.00  0.00     0.163 HD
BRANCH   5   7
ATOM      7  C   UNL A   1      41.574  20.927  26.585  1.00  0.00     0.039 A 
ATOM      8  C   UNL A   1      42.020  21.946  25.740  1.00  0.00     0.014 A 
ATOM      9  C   UNL A   1      41.476  21.154  27.962  1.00  0.00     0.014 A 
ATOM     10  C   UNL A   1      42.466  23.148  26.277  1.00  0.00     0.010 A 
ATOM     11  C   UNL A   1      41.853  22.390  28.495  1.00  0.00     0.010 A 
ATOM     12  C   UNL A   1      42.364  23.392  27.657  1.00  0.00    -0.014 A 
BRANCH  12  13
ATOM     13  C   UNL A   1      42.703  24.738  28.181  1.00  0.00     0.031 A 
ATOM     14  C   UNL A   1      44.120  25.116  28.504  1.00  0.00     0.074 A 
ATOM     15  C   UNL A   1      41.708  25.631  28.343  1.00  0.00     0.049 A 
ATOM     16  N   UNL A   1      44.583  26.262  28.934  1.00  0.00    -0.248 NA
ATOM     17  C   UNL A   1      45.149  24.079  28.329  1.00  0.00     0.031 C 
ATOM     18  C   UNL A   1      40.289  25.371  28.080  1.00  0.00     0.029 A 
ATOM     19  N   UNL A   1      41.734  26.939  28.749  1.00  0.00    -0.354 N 
ATOM     20  C   UNL A   1      45.951  26.083  29.098  1.00  0.00     0.074 A 
ATOM     21  C   UNL A   1      46.242  24.711  28.737  1.00  0.00     0.031 C 
ATOM     22  C   UNL A   1      39.590  26.496  28.284  1.00  0.00     0.029 A 
ATOM     23  C   UNL A   1      40.497  27.538  28.747  1.00  0.00     0.049 A 
ATOM     24  H   UNL A   1      42.558  27.406  29.016  1.00  0.00     0.167 HD
ATOM     25  C   UNL A   1      46.876  26.982  29.508  1.00  0.00     0.031 A 
ATOM     26  C   UNL A   1      40.130  28.785  29.092  1.00  0.00     0.031 A 
ATOM     27  C   UNL A   1      46.584  28.347  29.858  1.00  0.00     0.049 A 
ATOM     28  C   UNL A   1      41.176  29.750  29.560  1.00  0.00     0.074 A 
ATOM     29  C   UNL A   1      47.465  29.345  30.243  1.00  0.00     0.029 A 
ATOM     30  N   UNL A   1      45.316  28.906  29.875  1.00  0.00    -0.354 N 
ATOM     31  N   UNL A   1      42.472  29.576  29.661  1.00  0.00    -0.248 NA
ATOM     32  C   UNL A   1      40.710  31.083  29.964  1.00  0.00     0.031 C 
ATOM     33  C   UNL A   1      46.723  30.494  30.536  1.00  0.00     0.029 A 
ATOM     34  C   UNL A   1      45.387  30.225  30.289  1.00  0.00     0.049 A 
ATOM     35  H   UNL A   1      44.487  28.435  29.627  1.00  0.00     0.167 HD
ATOM     36  C   UNL A   1      42.976  30.779  30.132  1.00  0.00     0.074 A 
ATOM     37  C   UNL A   1      41.852  31.682  30.270  1.00  0.00     0.031 C 
ATOM     38  C   UNL A   1      44.257  31.105  30.429  1.00  0.00     0.031 A 
BRANCH  25  39
ATOM     39  C   UNL A   1      48.301  26.519  29.624  1.00  0.00    -0.014 A 
ATOM     40  C   UNL A   1      49.213  26.705  28.574  1.00  0.00     0.009 A 
ATOM     41  C   UNL A   1      48.753  25.959  30.829  1.00  0.00     0.009 A 
ATOM     42  C   UNL A   1      50.549  26.324  28.726  1.00  0.00     0.001 A 
ATOM     43  C   UNL A   1      50.092  25.598  30.984  1.00  0.00     0.001 A 
ATOM     44  C   UNL A   1      50.988  25.777  29.931  1.00  0.00     0.000 A 
ENDBRANCH  25  39
BRANCH  26  45
ATOM     45  C   UNL A   1      38.699  29.180  29.028  1.00  0.00    -0.014 A 
ATOM     46  C   UNL A   1      37.880  29.095  30.163  1.00  0.00     0.009 A 
ATOM     47  C   UNL A   1      38.148  29.647  27.824  1.00  0.00     0.009 A 
ATOM     48  C   UNL A   1      36.531  29.448  30.087  1.00  0.00     0.001 A 
ATOM     49  C   UNL A   1      36.806  30.026  27.759  1.00  0.00     0.001 A 
ATOM     50  C   UNL A   1      35.997  29.917  28.887  1.00  0.00     0.000 A 
ENDBRANCH  26  45
BRANCH  38  51
ATOM     51  C   UNL A   1      44.503  32.501  30.921  1.00  0.00    -0.014 A 
ATOM     52  C   UNL A   1      44.480  32.798  32.293  1.00  0.00     0.009 A 
ATOM     53  C   UNL A   1      44.777  33.526  30.003  1.00  0.00     0.009 A 
ATOM     54  C   UNL A   1      44.696  34.105  32.733  1.00  0.00     0.001 A 
ATOM     55  C   UNL A   1      45.017  34.826  30.449  1.00  0.00     0.001 A 
ATOM     56  C   UNL A   1      44.966  35.116  31.812  1.00  0.00     0.000 A 
ENDBRANCH  38  51
ENDBRANCH  12  13
ENDBRANCH   5   7
ENDBRANCH   2   3
ENDBRANCH   1   2
BRANCH   1  57
ATOM     57  C   UNL A   1      36.257  20.643  24.998  1.00  0.00     0.117 C 
BRANCH  57  58
ATOM     58  N   UNL A   1      35.024  19.877  24.978  1.00  0.00    -0.356 N 
ATOM     59  C   UNL A   1      33.743  20.325  24.786  1.00  0.00     0.226 C 
ATOM     60  H   UNL A   1      35.120  18.907  25.120  1.00  0.00     0.163 HD
ATOM     61  O   UNL A   1      32.819  19.516  24.848  1.00  0.00    -0.274 OA
BRANCH  59  62
ATOM     62  C   UNL A   1      33.549  21.801  24.449  1.00  0.00     0.103 C 
ATOM     63  C   UNL A   1      32.653  21.920  23.247  1.00  0.00    -0.016 C 
ATOM     64  C   UNL A   1      32.778  22.608  25.500  1.00  0.00     0.042 C 
ATOM     65  C   UNL A   1      31.742  22.885  23.409  1.00  0.00    -0.011 C 
ATOM     66  C   UNL A   1      31.901  23.585  24.720  1.00  0.00     0.093 C 
BRANCH  66  67
ATOM     67  N   UNL A   1      32.396  24.921  24.424  1.00  0.00    -0.204 NA
ATOM     68  H   UNL A   1      33.094  24.769  23.695  1.00  0.00     0.142 HD
BRANCH  67  69
ATOM     69  S   UNL A   1      31.594  26.282  23.930  1.00  0.00     0.244 S 
ATOM     70  O   UNL A   1      32.213  26.692  22.688  1.00  0.00    -0.207 OA
ATOM     71  O   UNL A   1      30.173  26.032  24.002  1.00  0.00    -0.207 OA
BRANCH  69  72
ATOM     72  C   UNL A   1      31.962  27.556  25.090  1.00  0.00     0.121 A 
ATOM     73  C   UNL A   1      32.826  27.278  26.161  1.00  0.00     0.028 A 
ATOM     74  C   UNL A   1      31.404  28.819  24.947  1.00  0.00     0.181 A 
ATOM     75  C   UNL A   1      33.148  28.288  27.068  1.00  0.00     0.044 A 
ATOM     76  C   UNL A   1      31.760  29.832  25.831  1.00  0.00     0.195 A 
ATOM     77  F   UNL A   1      30.534  29.092  23.964  1.00  0.00    -0.202 F 
ATOM     78  C   UNL A   1      32.628  29.566  26.884  1.00  0.00     0.161 A 
ATOM     79  F   UNL A   1      31.280  31.071  25.659  1.00  0.00    -0.200 F 
ATOM     80  F   UNL A   1      32.993  30.545  27.722  1.00  0.00    -0.204 F 
ENDBRANCH  69  72
ENDBRANCH  67  69
ENDBRANCH  66  67
ENDBRANCH  59  62
ENDBRANCH  57  58
ENDBRANCH   1  57
TORSDOF 13
ENDMDL
MODEL 2
REMARK VINA RESULT:     -11.5      4.743     10.108
REMARK SMILES O=C(NCCCNC(=O)[C@H]1C=C[C@H](NS(=O)(=O)c2ccc(F)c(F)c2F)C1)c1ccc(-c2c3nc(c(-c4ccccc4)c4ccc([nH]4)c(-c4ccccc4)c4nc(c(-c5ccccc5)c5ccc2[nH]5)C=C4)C=C3)cc1
REMARK SMILES IDX 5 1 4 2 3 3 1 4 2 5 28 7 29 8 75 9 30 10 74 11 31 12 32 13
REMARK SMILES IDX 33 14 68 15 34 16 73 17 67 18 69 19 35 20 72 21 66 22 65 23
REMARK SMILES IDX 36 25 58 26 43 27 57 28 44 29 47 30 56 31 70 32 45 33 46 34
REMARK SMILES IDX 55 36 71 37 48 38 37 39 38 40 42 41 39 42 41 43 40 44 59 45
REMARK SMILES IDX 60 46 64 47 61 48 63 49 62 50 49 51 50 52 54 53 51 54 53 55
REMARK SMILES IDX 52 56 6 57 7 58 8 59 9 61 10 62 11 63 27 64 12 65 13 66
REMARK SMILES IDX 14 67 15 69 16 70 17 71 18 72 19 73 25 74 20 75 23 76 26 77
REMARK SMILES IDX 21 78 24 79 22 80
REMARK H PARENT 3 6 69 24 47 35 7 60 14 68
REMARK Flexibility Score: inf
ROOT
ATOM      1  C   UNL A   1      33.673  33.966  28.086  1.00  0.00     0.042 C 
ENDROOT
BRANCH   1   2
ATOM      2  C   UNL A   1      34.452  32.727  28.506  1.00  0.00     0.118 C 
BRANCH   2   3
ATOM      3  N   UNL A   1      33.794  31.497  28.089  1.00  0.00    -0.352 N 
ATOM      4  O   UNL A   1      33.613  29.394  27.321  1.00  0.00    -0.269 OA
ATOM      5  C   UNL A   1      34.319  30.256  27.837  1.00  0.00     0.251 C 
ATOM      6  H   UNL A   1      32.819  31.569  27.970  1.00  0.00     0.163 HD
BRANCH   5   7
ATOM      7  C   UNL A   1      35.727  29.948  28.170  1.00  0.00     0.039 A 
ATOM      8  C   UNL A   1      36.080  29.442  29.423  1.00  0.00     0.014 A 
ATOM      9  C   UNL A   1      36.705  30.110  27.182  1.00  0.00     0.014 A 
ATOM     10  C   UNL A   1      37.416  29.197  29.722  1.00  0.00     0.010 A 
ATOM     11  C   UNL A   1      38.037  29.792  27.458  1.00  0.00     0.010 A 
ATOM     12  C   UNL A   1      38.405  29.346  28.736  1.00  0.00    -0.014 A 
BRANCH  12  13
ATOM     13  C   UNL A   1      39.796  28.931  29.039  1.00  0.00     0.031 A 
ATOM     14  C   UNL A   1      40.740  29.840  29.774  1.00  0.00     0.074 A 
ATOM     15  C   UNL A   1      40.196  27.703  28.655  1.00  0.00     0.049 A 
ATOM     16  N   UNL A   1      41.974  29.609  30.146  1.00  0.00    -0.248 NA
ATOM     17  C   UNL A   1      40.242  31.176  30.134  1.00  0.00     0.031 C 
ATOM     18  C   UNL A   1      39.372  26.740  27.918  1.00  0.00     0.029 A 
ATOM     19  N   UNL A   1      41.383  27.046  28.846  1.00  0.00    -0.354 N 
ATOM     20  C   UNL A   1      42.407  30.773  30.767  1.00  0.00     0.074 A 
ATOM     21  C   UNL A   1      41.310  31.716  30.708  1.00  0.00     0.031 C 
ATOM     22  C   UNL A   1      40.062  25.601  27.762  1.00  0.00     0.029 A 
ATOM     23  C   UNL A   1      41.391  25.770  28.334  1.00  0.00     0.049 A 
ATOM     24  H   UNL A   1      42.155  27.448  29.305  1.00  0.00     0.167 HD
ATOM     25  C   UNL A   1      43.609  31.028  31.337  1.00  0.00     0.031 A 
ATOM     26  C   UNL A   1      42.365  24.843  28.315  1.00  0.00     0.031 A 
ATOM     27  C   UNL A   1      44.695  30.086  31.400  1.00  0.00     0.049 A 
ATOM     28  C   UNL A   1      43.690  25.164  28.938  1.00  0.00     0.074 A 
ATOM     29  C   UNL A   1      45.936  30.240  31.998  1.00  0.00     0.029 A 
ATOM     30  N   UNL A   1      44.675  28.818  30.843  1.00  0.00    -0.354 N 
ATOM     31  N   UNL A   1      44.063  26.253  29.564  1.00  0.00    -0.248 NA
ATOM     32  C   UNL A   1      44.728  24.129  28.849  1.00  0.00     0.031 C 
ATOM     33  C   UNL A   1      46.682  29.082  31.761  1.00  0.00     0.029 A 
ATOM     34  C   UNL A   1      45.891  28.189  31.058  1.00  0.00     0.049 A 
ATOM     35  H   UNL A   1      43.910  28.421  30.366  1.00  0.00     0.167 HD
ATOM     36  C   UNL A   1      45.376  26.031  29.952  1.00  0.00     0.074 A 
ATOM     37  C   UNL A   1      45.724  24.695  29.514  1.00  0.00     0.031 C 
ATOM     38  C   UNL A   1      46.221  26.863  30.606  1.00  0.00     0.031 A 
BRANCH  25  39
ATOM     39  C   UNL A   1      43.830  32.393  31.925  1.00  0.00    -0.014 A 
ATOM     40  C   UNL A   1      44.291  33.458  31.138  1.00  0.00     0.009 A 
ATOM     41  C   UNL A   1      43.499  32.632  33.268  1.00  0.00     0.009 A 
ATOM     42  C   UNL A   1      44.429  34.734  31.690  1.00  0.00     0.001 A 
ATOM     43  C   UNL A   1      43.619  33.911  33.812  1.00  0.00     0.001 A 
ATOM     44  C   UNL A   1      44.088  34.961  33.023  1.00  0.00     0.000 A 
ENDBRANCH  25  39
BRANCH  26  45
ATOM     45  C   UNL A   1      42.125  23.531  27.662  1.00  0.00    -0.014 A 
ATOM     46  C   UNL A   1      41.494  22.489  28.357  1.00  0.00     0.009 A 
ATOM     47  C   UNL A   1      42.528  23.317  26.334  1.00  0.00     0.009 A 
ATOM     48  C   UNL A   1      41.292  21.252  27.742  1.00  0.00     0.001 A 
ATOM     49  C   UNL A   1      42.299  22.088  25.713  1.00  0.00     0.001 A 
ATOM     50  C   UNL A   1      41.690  21.054  26.421  1.00  0.00     0.000 A 
ENDBRANCH  26  45
BRANCH  38  51
ATOM     51  C   UNL A   1      47.597  26.340  30.895  1.00  0.00    -0.014 A 
ATOM     52  C   UNL A   1      48.611  26.401  29.926  1.00  0.00     0.009 A 
ATOM     53  C   UNL A   1      47.887  25.796  32.156  1.00  0.00     0.009 A 
ATOM     54  C   UNL A   1      49.882  25.896  30.206  1.00  0.00     0.001 A 
ATOM     55  C   UNL A   1      49.165  25.315  32.440  1.00  0.00     0.001 A 
ATOM     56  C   UNL A   1      50.158  25.356  31.462  1.00  0.00     0.000 A 
ENDBRANCH  38  51
ENDBRANCH  12  13
ENDBRANCH   5   7
ENDBRANCH   2   3
ENDBRANCH   1   2
BRANCH   1  57
ATOM     57  C   UNL A   1      34.060  35.218  28.868  1.00  0.00     0.117 C 
BRANCH  57  58
ATOM     58  N   UNL A   1      33.094  35.518  29.910  1.00  0.00    -0.356 N 
ATOM     59  C   UNL A   1      33.171  35.245  31.251  1.00  0.00     0.226 C 
ATOM     60  H   UNL A   1      32.276  35.980  29.615  1.00  0.00     0.163 HD
ATOM     61  O   UNL A   1      32.220  35.544  31.970  1.00  0.00    -0.274 OA
BRANCH  59  62
ATOM     62  C   UNL A   1      34.466  34.632  31.779  1.00  0.00     0.103 C 
ATOM     63  C   UNL A   1      34.861  35.331  33.049  1.00  0.00    -0.016 C 
ATOM     64  C   UNL A   1      34.351  33.175  32.240  1.00  0.00     0.042 C 
ATOM     65  C   UNL A   1      35.265  34.461  33.982  1.00  0.00    -0.011 C 
ATOM     66  C   UNL A   1      35.237  33.054  33.478  1.00  0.00     0.093 C 
BRANCH  66  67
ATOM     67  N   UNL A   1      36.623  32.634  33.334  1.00  0.00    -0.204 NA
ATOM     68  H   UNL A   1      37.000  33.267  32.629  1.00  0.00     0.142 HD
BRANCH  67  69
ATOM     69  S   UNL A   1      37.836  32.519  34.455  1.00  0.00     0.244 S 
ATOM     70  O   UNL A   1      38.665  33.691  34.279  1.00  0.00    -0.207 OA
ATOM     71  O   UNL A   1      37.249  32.212  35.739  1.00  0.00    -0.207 OA
BRANCH  69  72
ATOM     72  C   UNL A   1      38.842  31.148  33.997  1.00  0.00     0.121 A 
ATOM     73  C   UNL A   1      40.207  31.159  34.328  1.00  0.00     0.028 A 
ATOM     74  C   UNL A   1      38.293  30.069  33.317  1.00  0.00     0.181 A 
ATOM     75  C   UNL A   1      41.006  30.064  33.997  1.00  0.00     0.044 A 
ATOM     76  C   UNL A   1      39.086  28.964  33.026  1.00  0.00     0.195 A 
ATOM     77  F   UNL A   1      37.006  30.060  32.944  1.00  0.00    -0.202 F 
ATOM     78  C   UNL A   1      40.434  28.963  33.366  1.00  0.00     0.161 A 
ATOM     79  F   UNL A   1      38.548  27.890  32.433  1.00  0.00    -0.200 F 
ATOM     80  F   UNL A   1      41.194  27.891  33.110  1.00  0.00    -0.204 F 
ENDBRANCH  69  72
ENDBRANCH  67  69
ENDBRANCH  66  67
ENDBRANCH  59  62
ENDBRANCH  57  58
ENDBRANCH   1  57
TORSDOF 13
ENDMDL
MODEL 3
REMARK VINA RESULT:     -11.5      0.256      5.932
REMARK SMILES O=C(NCCCNC(=O)[C@H]1C=C[C@H](NS(=O)(=O)c2ccc(F)c(F)c2F)C1)c1ccc(-c2c3nc(c(-c4ccccc4)c4ccc([nH]4)c(-c4ccccc4)c4nc(c(-c5ccccc5)c5ccc2[nH]5)C=C4)C=C3)cc1
REMARK SMILES IDX 5 1 4 2 3 3 1 4 2 5 28 7 29 8 75 9 30 10 74 11 31 12 32 13
REMARK SMILES IDX 33 14 68 15 34 16 73 17 67 18 69 19 35 20 72 21 66 22 65 23
REMARK SMILES IDX 36 25 58 26 43 27 57 28 44 29 47 30 56 31 70 32 45 33 46 34
REMARK SMILES IDX 55 36 71 37 48 38 37 39 38 40 42 41 39 42 41 43 40 44 59 45
REMARK SMILES IDX 60 46 64 47 61 48 63 49 62 50 49 51 50 52 54 53 51 54 53 55
REMARK SMILES IDX 52 56 6 57 7 58 8 59 9 61 10 62 11 63 27 64 12 65 13 66
REMARK SMILES IDX 14 67 15 69 16 70 17 71 18 72 19 73 25 74 20 75 23 76 26 77
REMARK SMILES IDX 21 78 24 79 22 80
REMARK H PARENT 3 6 69 24 47 35 7 60 14 68
REMARK Flexibility Score: inf
ROOT
ATOM      1  C   UNL A   1      37.538  19.695  24.971  1.00  0.00     0.042 C 
ENDROOT
BRANCH   1   2
ATOM      2  C   UNL A   1      38.753  20.311  25.652  1.00  0.00     0.118 C 
BRANCH   2   3
ATOM      3  N   UNL A   1      39.863  19.374  25.748  1.00  0.00    -0.352 N 
ATOM      4  O   UNL A   1      41.996  18.688  25.910  1.00  0.00    -0.269 OA
ATOM      5  C   UNL A   1      41.181  19.594  26.060  1.00  0.00     0.251 C 
ATOM      6  H   UNL A   1      39.631  18.435  25.560  1.00  0.00     0.163 HD
BRANCH   5   7
ATOM      7  C   UNL A   1      41.629  20.911  26.562  1.00  0.00     0.039 A 
ATOM      8  C   UNL A   1      42.050  21.914  25.687  1.00  0.00     0.014 A 
ATOM      9  C   UNL A   1      41.563  21.166  27.936  1.00  0.00     0.014 A 
ATOM     10  C   UNL A   1      42.502  23.129  26.188  1.00  0.00     0.010 A 
ATOM     11  C   UNL A   1      41.946  22.415  28.434  1.00  0.00     0.010 A 
ATOM     12  C   UNL A   1      42.431  23.402  27.565  1.00  0.00    -0.014 A 
BRANCH  12  13
ATOM     13  C   UNL A   1      42.776  24.759  28.052  1.00  0.00     0.031 A 
ATOM     14  C   UNL A   1      41.716  25.796  28.291  1.00  0.00     0.074 A 
ATOM     15  C   UNL A   1      44.070  25.041  28.298  1.00  0.00     0.049 A 
ATOM     16  N   UNL A   1      41.854  27.015  28.749  1.00  0.00    -0.248 NA
ATOM     17  C   UNL A   1      40.329  25.425  27.972  1.00  0.00     0.031 C 
ATOM     18  C   UNL A   1      45.190  24.118  28.085  1.00  0.00     0.029 A 
ATOM     19  N   UNL A   1      44.663  26.171  28.796  1.00  0.00    -0.354 N 
ATOM     20  C   UNL A   1      40.577  27.563  28.759  1.00  0.00     0.074 A 
ATOM     21  C   UNL A   1      39.680  26.550  28.244  1.00  0.00     0.031 C 
ATOM     22  C   UNL A   1      46.325  24.702  28.495  1.00  0.00     0.029 A 
ATOM     23  C   UNL A   1      46.025  26.056  28.943  1.00  0.00     0.049 A 
ATOM     24  H   UNL A   1      44.163  26.987  29.026  1.00  0.00     0.167 HD
ATOM     25  C   UNL A   1      40.192  28.797  29.163  1.00  0.00     0.031 A 
ATOM     26  C   UNL A   1      46.935  26.945  29.379  1.00  0.00     0.031 A 
ATOM     27  C   UNL A   1      41.086  29.798  29.682  1.00  0.00     0.049 A 
ATOM     28  C   UNL A   1      46.478  28.308  29.802  1.00  0.00     0.074 A 
ATOM     29  C   UNL A   1      40.780  31.063  30.159  1.00  0.00     0.029 A 
ATOM     30  N   UNL A   1      42.460  29.655  29.785  1.00  0.00    -0.354 N 
ATOM     31  N   UNL A   1      45.259  28.790  29.850  1.00  0.00    -0.248 NA
ATOM     32  C   UNL A   1      47.520  29.250  30.228  1.00  0.00     0.031 C 
ATOM     33  C   UNL A   1      41.975  31.700  30.507  1.00  0.00     0.029 A 
ATOM     34  C   UNL A   1      43.019  30.817  30.291  1.00  0.00     0.049 A 
ATOM     35  H   UNL A   1      42.965  28.846  29.536  1.00  0.00     0.167 HD
ATOM     36  C   UNL A   1      45.389  30.089  30.320  1.00  0.00     0.074 A 
ATOM     37  C   UNL A   1      46.799  30.309  30.567  1.00  0.00     0.031 C 
ATOM     38  C   UNL A   1      44.425  31.019  30.522  1.00  0.00     0.031 A 
BRANCH  25  39
ATOM     39  C   UNL A   1      38.737  29.150  29.046  1.00  0.00    -0.014 A 
ATOM     40  C   UNL A   1      37.870  29.040  30.143  1.00  0.00     0.009 A 
ATOM     41  C   UNL A   1      38.245  29.674  27.840  1.00  0.00     0.009 A 
ATOM     42  C   UNL A   1      36.535  29.434  30.030  1.00  0.00     0.001 A 
ATOM     43  C   UNL A   1      36.915  30.086  27.735  1.00  0.00     0.001 A 
ATOM     44  C   UNL A   1      36.060  29.961  28.829  1.00  0.00     0.000 A 
ENDBRANCH  25  39
BRANCH  26  45
ATOM     45  C   UNL A   1      48.373  26.576  29.415  1.00  0.00    -0.014 A 
ATOM     46  C   UNL A   1      49.208  26.841  28.321  1.00  0.00     0.009 A 
ATOM     47  C   UNL A   1      48.916  25.954  30.551  1.00  0.00     0.009 A 
ATOM     48  C   UNL A   1      50.554  26.471  28.355  1.00  0.00     0.001 A 
ATOM     49  C   UNL A   1      50.268  25.611  30.593  1.00  0.00     0.001 A 
ATOM     50  C   UNL A   1      51.084  25.860  29.491  1.00  0.00     0.000 A 
ENDBRANCH  26  45
BRANCH  38  51
ATOM     51  C   UNL A   1      44.871  32.352  31.047  1.00  0.00    -0.014 A 
ATOM     52  C   UNL A   1      44.975  32.587  32.428  1.00  0.00     0.009 A 
ATOM     53  C   UNL A   1      45.209  33.378  30.152  1.00  0.00     0.009 A 
ATOM     54  C   UNL A   1      45.377  33.837  32.900  1.00  0.00     0.001 A 
ATOM     55  C   UNL A   1      45.634  34.618  30.628  1.00  0.00     0.001 A 
ATOM     56  C   UNL A   1      45.708  34.850  32.001  1.00  0.00     0.000 A 
ENDBRANCH  38  51
ENDBRANCH  12  13
ENDBRANCH   5   7
ENDBRANCH   2   3
ENDBRANCH   1   2
BRANCH   1  57
ATOM     57  C   UNL A   1      36.318  20.610  24.967  1.00  0.00     0.117 C 
BRANCH  57  58
ATOM     58  N   UNL A   1      35.080  19.853  25.024  1.00  0.00    -0.356 N 
ATOM     59  C   UNL A   1      33.795  20.303  24.871  1.00  0.00     0.226 C 
ATOM     60  H   UNL A   1      35.177  18.887  25.193  1.00  0.00     0.163 HD
ATOM     61  O   UNL A   1      32.870  19.503  24.998  1.00  0.00    -0.274 OA
BRANCH  59  62
ATOM     62  C   UNL A   1      33.595  21.769  24.495  1.00  0.00     0.103 C 
ATOM     63  C   UNL A   1      32.672  21.854  23.312  1.00  0.00    -0.016 C 
ATOM     64  C   UNL A   1      32.851  22.609  25.539  1.00  0.00     0.042 C 
ATOM     65  C   UNL A   1      31.766  22.826  23.466  1.00  0.00    -0.011 C 
ATOM     66  C   UNL A   1      31.957  23.564  24.751  1.00  0.00     0.093 C 
BRANCH  66  67
ATOM     67  N   UNL A   1      32.446  24.889  24.404  1.00  0.00    -0.204 NA
ATOM     68  H   UNL A   1      33.120  24.715  23.659  1.00  0.00     0.142 HD
BRANCH  67  69
ATOM     69  S   UNL A   1      31.634  26.240  23.899  1.00  0.00     0.244 S 
ATOM     70  O   UNL A   1      32.192  26.594  22.612  1.00  0.00    -0.207 OA
ATOM     71  O   UNL A   1      30.216  26.010  24.054  1.00  0.00    -0.207 OA
BRANCH  69  72
ATOM     72  C   UNL A   1      32.074  27.552  24.988  1.00  0.00     0.121 A 
ATOM     73  C   UNL A   1      33.116  27.359  25.909  1.00  0.00     0.028 A 
ATOM     74  C   UNL A   1      31.398  28.765  24.937  1.00  0.00     0.181 A 
ATOM     75  C   UNL A   1      33.493  28.402  26.755  1.00  0.00     0.044 A 
ATOM     76  C   UNL A   1      31.805  29.813  25.755  1.00  0.00     0.195 A 
ATOM     77  F   UNL A   1      30.366  28.954  24.104  1.00  0.00    -0.202 F 
ATOM     78  C   UNL A   1      32.847  29.631  26.657  1.00  0.00     0.161 A 
ATOM     79  F   UNL A   1      31.205  31.008  25.662  1.00  0.00    -0.200 F 
ATOM     80  F   UNL A   1      33.258  30.647  27.428  1.00  0.00    -0.204 F 
ENDBRANCH  69  72
ENDBRANCH  67  69
ENDBRANCH  66  67
ENDBRANCH  59  62
ENDBRANCH  57  58
ENDBRANCH   1  57
TORSDOF 13
ENDMDL
