MODEL 1
REMARK VINA RESULT:     -11.1      0.000      0.000
REMARK SMILES C[C@@H]1[C@H](C(=O)NCCCNC(=O)c2ccc(-c3c4nc(c(-c5ccccc5)c5ccc([nH]5)c(-c5ccccc5)c5nc(c(-c6ccccc6)c6ccc3[nH]6)C=C5)C=C4)cc2)CCN1C(=O)N1CCc2ccccc21
REMARK SMILES IDX 8 1 7 2 6 3 4 4 5 5 3 7 1 8 2 9 63 10 61 11 62 12 64 13
REMARK SMILES IDX 65 14 66 15 67 16 74 17 68 18 69 19 73 20 70 21 72 22 71 23
REMARK SMILES IDX 9 24 10 25 11 26 12 28 13 29 14 30 60 31 15 32 59 33 16 34
REMARK SMILES IDX 17 35 18 36 53 37 19 38 58 39 52 40 54 41 20 42 57 43 51 44
REMARK SMILES IDX 50 45 21 47 43 48 28 49 42 50 29 51 32 52 41 53 55 54 30 55
REMARK SMILES IDX 31 56 40 58 56 59 33 60 22 61 23 62 27 63 24 64 26 65 25 66
REMARK SMILES IDX 44 67 45 68 49 69 46 70 48 71 47 72 34 73 35 74 39 75 36 76
REMARK SMILES IDX 38 77 37 78
REMARK H PARENT 6 6 10 27 54 46 32 57
REMARK Flexibility Score: inf
ROOT
ATOM      1  C   UNL A   1      35.876  23.561  26.127  1.00  0.00     0.042 C 
ENDROOT
BRANCH   1   2
ATOM      2  C   UNL A   1      35.031  22.288  26.082  1.00  0.00     0.117 C 
BRANCH   2   3
ATOM      3  N   UNL A   1      34.466  22.043  24.762  1.00  0.00    -0.356 N 
ATOM      4  C   UNL A   1      33.366  22.483  24.101  1.00  0.00     0.225 C 
ATOM      5  O   UNL A   1      33.155  21.947  23.006  1.00  0.00    -0.275 OA
ATOM      6  H   UNL A   1      35.004  21.415  24.228  1.00  0.00     0.163 HD
BRANCH   4   7
ATOM      7  C   UNL A   1      32.384  23.526  24.610  1.00  0.00     0.102 C 
ATOM      8  C   UNL A   1      33.822  25.407  23.588  1.00  0.00     0.032 C 
ATOM      9  C   UNL A   1      32.873  24.979  24.698  1.00  0.00     0.096 C 
ATOM     10  N   UNL A   1      31.640  25.774  24.693  1.00  0.00    -0.321 N 
ATOM     11  C   UNL A   1      31.012  23.593  23.959  1.00  0.00     0.037 C 
ATOM     12  C   UNL A   1      30.481  24.940  24.414  1.00  0.00     0.122 C 
BRANCH  10  13
ATOM     13  C   UNL A   1      31.471  26.854  25.571  1.00  0.00     0.324 C 
ATOM     14  O   UNL A   1      30.837  26.768  26.619  1.00  0.00    -0.248 OA
BRANCH  13  15
ATOM     15  N   UNL A   1      31.880  28.071  25.026  1.00  0.00    -0.294 N 
ATOM     16  C   UNL A   1      30.922  29.037  24.479  1.00  0.00     0.132 C 
ATOM     17  C   UNL A   1      32.848  28.799  25.741  1.00  0.00     0.049 A 
ATOM     18  C   UNL A   1      31.159  30.378  25.208  1.00  0.00     0.060 C 
ATOM     19  C   UNL A   1      32.390  30.084  26.003  1.00  0.00    -0.022 A 
ATOM     20  C   UNL A   1      33.992  28.277  26.320  1.00  0.00     0.027 A 
ATOM     21  C   UNL A   1      32.996  30.833  26.996  1.00  0.00     0.006 A 
ATOM     22  C   UNL A   1      34.637  29.046  27.283  1.00  0.00     0.002 A 
ATOM     23  C   UNL A   1      34.114  30.297  27.650  1.00  0.00     0.000 A 
ENDBRANCH  13  15
ENDBRANCH  10  13
ENDBRANCH   4   7
ENDBRANCH   2   3
ENDBRANCH   1   2
BRANCH   1  24
ATOM     24  C   UNL A   1      37.012  23.598  25.114  1.00  0.00     0.118 C 
BRANCH  24  25
ATOM     25  N   UNL A   1      38.082  22.673  25.449  1.00  0.00    -0.352 N 
ATOM     26  C   UNL A   1      39.289  22.897  26.072  1.00  0.00     0.251 C 
ATOM     27  H   UNL A   1      37.918  21.738  25.189  1.00  0.00     0.163 HD
ATOM     28  O   UNL A   1      40.142  22.015  26.064  1.00  0.00    -0.269 OA
BRANCH  26  29
ATOM     29  C   UNL A   1      39.583  24.191  26.734  1.00  0.00     0.039 A 
ATOM     30  C   UNL A   1      39.125  24.397  28.040  1.00  0.00     0.014 A 
ATOM     31  C   UNL A   1      40.256  25.220  26.071  1.00  0.00     0.014 A 
ATOM     32  C   UNL A   1      39.393  25.604  28.695  1.00  0.00     0.010 A 
ATOM     33  C   UNL A   1      40.600  26.386  26.754  1.00  0.00     0.010 A 
ATOM     34  C   UNL A   1      40.163  26.597  28.069  1.00  0.00    -0.014 A 
BRANCH  34  35
ATOM     35  C   UNL A   1      40.505  27.866  28.766  1.00  0.00     0.031 A 
ATOM     36  C   UNL A   1      41.856  28.039  29.412  1.00  0.00     0.074 A 
ATOM     37  C   UNL A   1      39.586  28.845  28.871  1.00  0.00     0.049 A 
ATOM     38  N   UNL A   1      42.311  29.043  30.119  1.00  0.00    -0.248 NA
ATOM     39  C   UNL A   1      42.809  26.927  29.266  1.00  0.00     0.031 C 
ATOM     40  C   UNL A   1      38.229  28.799  28.322  1.00  0.00     0.029 A 
ATOM     41  N   UNL A   1      39.652  30.073  29.484  1.00  0.00    -0.354 N 
ATOM     42  C   UNL A   1      43.592  28.675  30.516  1.00  0.00     0.074 A 
ATOM     43  C   UNL A   1      43.822  27.338  30.016  1.00  0.00     0.031 C 
ATOM     44  C   UNL A   1      37.605  29.956  28.595  1.00  0.00     0.029 A 
ATOM     45  C   UNL A   1      38.496  30.808  29.375  1.00  0.00     0.049 A 
ATOM     46  H   UNL A   1      40.454  30.397  29.956  1.00  0.00     0.167 HD
ATOM     47  C   UNL A   1      44.504  29.390  31.219  1.00  0.00     0.031 A 
ATOM     48  C   UNL A   1      38.186  32.028  29.851  1.00  0.00     0.031 A 
ATOM     49  C   UNL A   1      44.288  30.726  31.705  1.00  0.00     0.049 A 
ATOM     50  C   UNL A   1      39.210  32.796  30.640  1.00  0.00     0.074 A 
ATOM     51  C   UNL A   1      45.172  31.552  32.378  1.00  0.00     0.029 A 
ATOM     52  N   UNL A   1      43.104  31.433  31.569  1.00  0.00    -0.354 N 
ATOM     53  N   UNL A   1      40.435  32.455  30.956  1.00  0.00    -0.248 NA
ATOM     54  C   UNL A   1      38.809  34.123  31.127  1.00  0.00     0.031 C 
ATOM     55  C   UNL A   1      44.507  32.741  32.692  1.00  0.00     0.029 A 
ATOM     56  C   UNL A   1      43.228  32.677  32.165  1.00  0.00     0.049 A 
ATOM     57  H   UNL A   1      42.296  31.101  31.116  1.00  0.00     0.167 HD
ATOM     58  C   UNL A   1      40.960  33.535  31.654  1.00  0.00     0.074 A 
ATOM     59  C   UNL A   1      39.925  34.548  31.701  1.00  0.00     0.031 C 
ATOM     60  C   UNL A   1      42.191  33.676  32.204  1.00  0.00     0.031 A 
BRANCH  47  61
ATOM     61  C   UNL A   1      45.826  28.733  31.505  1.00  0.00    -0.014 A 
ATOM     62  C   UNL A   1      46.023  27.970  32.668  1.00  0.00     0.009 A 
ATOM     63  C   UNL A   1      46.879  28.850  30.585  1.00  0.00     0.009 A 
ATOM     64  C   UNL A   1      47.259  27.371  32.922  1.00  0.00     0.001 A 
ATOM     65  C   UNL A   1      48.105  28.225  30.826  1.00  0.00     0.001 A 
ATOM     66  C   UNL A   1      48.297  27.495  31.998  1.00  0.00     0.000 A 
ENDBRANCH  47  61
BRANCH  48  67
ATOM     67  C   UNL A   1      36.846  32.614  29.583  1.00  0.00    -0.014 A 
ATOM     68  C   UNL A   1      35.822  32.511  30.537  1.00  0.00     0.009 A 
ATOM     69  C   UNL A   1      36.581  33.270  28.371  1.00  0.00     0.009 A 
ATOM     70  C   UNL A   1      34.553  33.030  30.273  1.00  0.00     0.001 A 
ATOM     71  C   UNL A   1      35.319  33.814  28.122  1.00  0.00     0.001 A 
ATOM     72  C   UNL A   1      34.304  33.685  29.068  1.00  0.00     0.000 A 
ENDBRANCH  48  67
BRANCH  60  73
ATOM     73  C   UNL A   1      42.500  34.985  32.872  1.00  0.00    -0.014 A 
ATOM     74  C   UNL A   1      42.056  35.262  34.175  1.00  0.00     0.009 A 
ATOM     75  C   UNL A   1      43.281  35.938  32.201  1.00  0.00     0.009 A 
ATOM     76  C   UNL A   1      42.363  36.483  34.779  1.00  0.00     0.001 A 
ATOM     77  C   UNL A   1      43.610  37.147  32.819  1.00  0.00     0.001 A 
ATOM     78  C   UNL A   1      43.143  37.421  34.103  1.00  0.00     0.000 A 
ENDBRANCH  60  73
ENDBRANCH  34  35
ENDBRANCH  26  29
ENDBRANCH  24  25
ENDBRANCH   1  24
TORSDOF 12
ENDMDL
MODEL 2
REMARK VINA RESULT:     -11.0      2.170      7.868
REMARK SMILES C[C@@H]1[C@H](C(=O)NCCCNC(=O)c2ccc(-c3c4nc(c(-c5ccccc5)c5ccc([nH]5)c(-c5ccccc5)c5nc(c(-c6ccccc6)c6ccc3[nH]6)C=C5)C=C4)cc2)CCN1C(=O)N1CCc2ccccc21
REMARK SMILES IDX 8 1 7 2 6 3 4 4 5 5 3 7 1 8 2 9 63 10 61 11 62 12 64 13
REMARK SMILES IDX 65 14 66 15 67 16 74 17 68 18 69 19 73 20 70 21 72 22 71 23
REMARK SMILES IDX 9 24 10 25 11 26 12 28 13 29 14 30 60 31 15 32 59 33 16 34
REMARK SMILES IDX 17 35 18 36 53 37 19 38 58 39 52 40 54 41 20 42 57 43 51 44
REMARK SMILES IDX 50 45 21 47 43 48 28 49 42 50 29 51 32 52 41 53 55 54 30 55
REMARK SMILES IDX 31 56 40 58 56 59 33 60 22 61 23 62 27 63 24 64 26 65 25 66
REMARK SMILES IDX 44 67 45 68 49 69 46 70 48 71 47 72 34 73 35 74 39 75 36 76
REMARK SMILES IDX 38 77 37 78
REMARK H PARENT 6 6 10 27 54 46 32 57
REMARK Flexibility Score: inf
ROOT
ATOM      1  C   UNL A   1      32.467  27.910  26.935  1.00  0.00     0.042 C 
ENDROOT
BRANCH   1   2
ATOM      2  C   UNL A   1      31.928  28.026  25.509  1.00  0.00     0.117 C 
BRANCH   2   3
ATOM      3  N   UNL A   1      30.659  27.330  25.336  1.00  0.00    -0.356 N 
ATOM      4  C   UNL A   1      30.277  26.192  24.706  1.00  0.00     0.225 C 
ATOM      5  O   UNL A   1      29.058  25.981  24.684  1.00  0.00    -0.275 OA
ATOM      6  H   UNL A   1      29.909  27.791  25.777  1.00  0.00     0.163 HD
BRANCH   4   7
ATOM      7  C   UNL A   1      31.206  25.206  24.016  1.00  0.00     0.102 C 
ATOM      8  C   UNL A   1      31.937  24.262  26.301  1.00  0.00     0.032 C 
ATOM      9  C   UNL A   1      32.317  24.566  24.859  1.00  0.00     0.096 C 
ATOM     10  N   UNL A   1      32.670  23.346  24.123  1.00  0.00    -0.321 N 
ATOM     11  C   UNL A   1      30.579  24.066  23.229  1.00  0.00     0.037 C 
ATOM     12  C   UNL A   1      31.738  23.106  23.031  1.00  0.00     0.122 C 
BRANCH  10  13
ATOM     13  C   UNL A   1      34.009  22.977  23.932  1.00  0.00     0.324 C 
ATOM     14  O   UNL A   1      34.622  23.207  22.894  1.00  0.00    -0.248 OA
BRANCH  13  15
ATOM     15  N   UNL A   1      34.488  22.124  24.926  1.00  0.00    -0.294 N 
ATOM     16  C   UNL A   1      34.441  20.665  24.785  1.00  0.00     0.132 C 
ATOM     17  C   UNL A   1      35.727  22.450  25.506  1.00  0.00     0.049 A 
ATOM     18  C   UNL A   1      35.881  20.142  24.981  1.00  0.00     0.060 C 
ATOM     19  C   UNL A   1      36.605  21.379  25.405  1.00  0.00    -0.022 A 
ATOM     20  C   UNL A   1      36.127  23.712  25.910  1.00  0.00     0.027 A 
ATOM     21  C   UNL A   1      37.963  21.595  25.557  1.00  0.00     0.006 A 
ATOM     22  C   UNL A   1      37.486  23.925  26.116  1.00  0.00     0.002 A 
ATOM     23  C   UNL A   1      38.401  22.883  25.896  1.00  0.00     0.000 A 
ENDBRANCH  13  15
ENDBRANCH  10  13
ENDBRANCH   4   7
ENDBRANCH   2   3
ENDBRANCH   1   2
BRANCH   1  24
ATOM     24  C   UNL A   1      33.830  28.556  27.147  1.00  0.00     0.118 C 
BRANCH  24  25
ATOM     25  N   UNL A   1      33.724  29.938  27.587  1.00  0.00    -0.352 N 
ATOM     26  C   UNL A   1      34.617  30.720  28.281  1.00  0.00     0.251 C 
ATOM     27  H   UNL A   1      32.879  30.384  27.351  1.00  0.00     0.163 HD
ATOM     28  O   UNL A   1      34.244  31.795  28.742  1.00  0.00    -0.269 OA
BRANCH  26  29
ATOM     29  C   UNL A   1      36.017  30.280  28.499  1.00  0.00     0.039 A 
ATOM     30  C   UNL A   1      36.373  29.767  29.751  1.00  0.00     0.014 A 
ATOM     31  C   UNL A   1      36.993  30.415  27.509  1.00  0.00     0.014 A 
ATOM     32  C   UNL A   1      37.682  29.335  29.986  1.00  0.00     0.010 A 
ATOM     33  C   UNL A   1      38.274  29.904  27.713  1.00  0.00     0.010 A 
ATOM     34  C   UNL A   1      38.638  29.369  28.957  1.00  0.00    -0.014 A 
BRANCH  34  35
ATOM     35  C   UNL A   1      40.022  28.867  29.168  1.00  0.00     0.031 A 
ATOM     36  C   UNL A   1      41.070  29.763  29.777  1.00  0.00     0.074 A 
ATOM     37  C   UNL A   1      40.358  27.627  28.764  1.00  0.00     0.049 A 
ATOM     38  N   UNL A   1      42.343  29.527  29.978  1.00  0.00    -0.248 NA
ATOM     39  C   UNL A   1      40.637  31.108  30.189  1.00  0.00     0.031 C 
ATOM     40  C   UNL A   1      39.453  26.665  28.131  1.00  0.00     0.029 A 
ATOM     41  N   UNL A   1      41.559  26.962  28.820  1.00  0.00    -0.354 N 
ATOM     42  C   UNL A   1      42.863  30.697  30.519  1.00  0.00     0.074 A 
ATOM     43  C   UNL A   1      41.783  31.657  30.568  1.00  0.00     0.031 C 
ATOM     44  C   UNL A   1      40.121  25.527  27.887  1.00  0.00     0.029 A 
ATOM     45  C   UNL A   1      41.510  25.689  28.303  1.00  0.00     0.049 A 
ATOM     46  H   UNL A   1      42.378  27.360  29.195  1.00  0.00     0.167 HD
ATOM     47  C   UNL A   1      44.122  30.948  30.954  1.00  0.00     0.031 A 
ATOM     48  C   UNL A   1      42.474  24.759  28.174  1.00  0.00     0.031 A 
ATOM     49  C   UNL A   1      45.197  29.993  30.924  1.00  0.00     0.049 A 
ATOM     50  C   UNL A   1      43.866  25.066  28.652  1.00  0.00     0.074 A 
ATOM     51  C   UNL A   1      46.492  30.137  31.392  1.00  0.00     0.029 A 
ATOM     52  N   UNL A   1      45.102  28.716  30.395  1.00  0.00    -0.354 N 
ATOM     53  N   UNL A   1      44.325  26.158  29.213  1.00  0.00    -0.248 NA
ATOM     54  C   UNL A   1      44.870  24.006  28.486  1.00  0.00     0.031 C 
ATOM     55  C   UNL A   1      47.194  28.962  31.104  1.00  0.00     0.029 A 
ATOM     56  C   UNL A   1      46.321  28.068  30.507  1.00  0.00     0.049 A 
ATOM     57  H   UNL A   1      44.289  28.326  30.000  1.00  0.00     0.167 HD
ATOM     58  C   UNL A   1      45.662  25.906  29.493  1.00  0.00     0.074 A 
ATOM     59  C   UNL A   1      45.935  24.553  29.054  1.00  0.00     0.031 C 
ATOM     60  C   UNL A   1      46.580  26.722  30.067  1.00  0.00     0.031 A 
BRANCH  47  61
ATOM     61  C   UNL A   1      44.404  32.320  31.502  1.00  0.00    -0.014 A 
ATOM     62  C   UNL A   1      44.250  32.605  32.868  1.00  0.00     0.009 A 
ATOM     63  C   UNL A   1      44.861  33.334  30.645  1.00  0.00     0.009 A 
ATOM     64  C   UNL A   1      44.510  33.887  33.359  1.00  0.00     0.001 A 
ATOM     65  C   UNL A   1      45.150  34.606  31.143  1.00  0.00     0.001 A 
ATOM     66  C   UNL A   1      44.965  34.885  32.497  1.00  0.00     0.000 A 
ENDBRANCH  47  61
BRANCH  48  67
ATOM     67  C   UNL A   1      42.156  23.434  27.580  1.00  0.00    -0.014 A 
ATOM     68  C   UNL A   1      42.462  23.167  26.237  1.00  0.00     0.009 A 
ATOM     69  C   UNL A   1      41.538  22.434  28.347  1.00  0.00     0.009 A 
ATOM     70  C   UNL A   1      42.133  21.935  25.667  1.00  0.00     0.001 A 
ATOM     71  C   UNL A   1      41.236  21.193  27.782  1.00  0.00     0.001 A 
ATOM     72  C   UNL A   1      41.525  20.948  26.441  1.00  0.00     0.000 A 
ENDBRANCH  48  67
BRANCH  60  73
ATOM     73  C   UNL A   1      47.957  26.162  30.286  1.00  0.00    -0.014 A 
ATOM     74  C   UNL A   1      48.911  26.148  29.256  1.00  0.00     0.009 A 
ATOM     75  C   UNL A   1      48.315  25.679  31.553  1.00  0.00     0.009 A 
ATOM     76  C   UNL A   1      50.187  25.630  29.485  1.00  0.00     0.001 A 
ATOM     77  C   UNL A   1      49.601  25.188  31.787  1.00  0.00     0.001 A 
ATOM     78  C   UNL A   1      50.532  25.155  30.751  1.00  0.00     0.000 A 
ENDBRANCH  60  73
ENDBRANCH  34  35
ENDBRANCH  26  29
ENDBRANCH  24  25
ENDBRANCH   1  24
TORSDOF 12
ENDMDL
MODEL 3
REMARK VINA RESULT:     -10.8      2.330      3.666
REMARK SMILES C[C@@H]1[C@H](C(=O)NCCCNC(=O)c2ccc(-c3c4nc(c(-c5ccccc5)c5ccc([nH]5)c(-c5ccccc5)c5nc(c(-c6ccccc6)c6ccc3[nH]6)C=C5)C=C4)cc2)CCN1C(=O)N1CCc2ccccc21
REMARK SMILES IDX 8 1 7 2 6 3 4 4 5 5 3 7 1 8 2 9 63 10 61 11 62 12 64 13
REMARK SMILES IDX 65 14 66 15 67 16 74 17 68 18 69 19 73 20 70 21 72 22 71 23
REMARK SMILES IDX 9 24 10 25 11 26 12 28 13 29 14 30 60 31 15 32 59 33 16 34
REMARK SMILES IDX 17 35 18 36 53 37 19 38 58 39 52 40 54 41 20 42 57 43 51 44
REMARK SMILES IDX 50 45 21 47 43 48 28 49 42 50 29 51 32 52 41 53 55 54 30 55
REMARK SMILES IDX 31 56 40 58 56 59 33 60 22 61 23 62 27 63 24 64 26 65 25 66
REMARK SMILES IDX 44 67 45 68 49 69 46 70 48 71 47 72 34 73 35 74 39 75 36 76
REMARK SMILES IDX 38 77 37 78
REMARK H PARENT 6 6 10 27 54 46 32 57
REMARK Flexibility Score: inf
ROOT
ATOM      1  C   UNL A   1      37.640  19.376  25.033  1.00  0.00     0.042 C 
ENDROOT
BRANCH   1   2
ATOM      2  C   UNL A   1      36.398  20.254  24.884  1.00  0.00     0.117 C 
BRANCH   2   3
ATOM      3  N   UNL A   1      35.162  19.499  25.046  1.00  0.00    -0.356 N 
ATOM      4  C   UNL A   1      33.848  19.828  25.112  1.00  0.00     0.225 C 
ATOM      5  O   UNL A   1      33.080  18.895  25.376  1.00  0.00    -0.275 OA
ATOM      6  H   UNL A   1      35.316  18.530  25.127  1.00  0.00     0.163 HD
BRANCH   4   7
ATOM      7  C   UNL A   1      33.273  21.223  24.927  1.00  0.00     0.102 C 
ATOM      8  C   UNL A   1      34.128  21.910  27.260  1.00  0.00     0.032 C 
ATOM      9  C   UNL A   1      33.067  22.081  26.183  1.00  0.00     0.096 C 
ATOM     10  N   UNL A   1      33.026  23.457  25.676  1.00  0.00    -0.321 N 
ATOM     11  C   UNL A   1      33.934  22.138  23.909  1.00  0.00     0.037 C 
ATOM     12  C   UNL A   1      33.383  23.506  24.266  1.00  0.00     0.122 C 
BRANCH  10  13
ATOM     13  C   UNL A   1      32.069  24.372  26.140  1.00  0.00     0.324 C 
ATOM     14  O   UNL A   1      31.381  24.169  27.136  1.00  0.00    -0.248 OA
BRANCH  13  15
ATOM     15  N   UNL A   1      31.813  25.401  25.234  1.00  0.00    -0.294 N 
ATOM     16  C   UNL A   1      30.469  25.647  24.700  1.00  0.00     0.132 C 
ATOM     17  C   UNL A   1      32.391  26.653  25.508  1.00  0.00     0.049 A 
ATOM     18  C   UNL A   1      30.120  27.120  25.003  1.00  0.00     0.060 C 
ATOM     19  C   UNL A   1      31.414  27.639  25.543  1.00  0.00    -0.022 A 
ATOM     20  C   UNL A   1      33.694  26.872  25.921  1.00  0.00     0.027 A 
ATOM     21  C   UNL A   1      31.689  28.849  26.157  1.00  0.00     0.006 A 
ATOM     22  C   UNL A   1      33.992  28.105  26.492  1.00  0.00     0.002 A 
ATOM     23  C   UNL A   1      32.984  29.069  26.650  1.00  0.00     0.000 A 
ENDBRANCH  13  15
ENDBRANCH  10  13
ENDBRANCH   4   7
ENDBRANCH   2   3
ENDBRANCH   1   2
BRANCH   1  24
ATOM     24  C   UNL A   1      38.895  20.128  25.457  1.00  0.00     0.118 C 
BRANCH  24  25
ATOM     25  N   UNL A   1      40.023  19.239  25.681  1.00  0.00    -0.352 N 
ATOM     26  C   UNL A   1      41.304  19.517  26.097  1.00  0.00     0.251 C 
ATOM     27  H   UNL A   1      39.841  18.288  25.506  1.00  0.00     0.163 HD
ATOM     28  O   UNL A   1      42.166  18.646  26.013  1.00  0.00    -0.269 OA
BRANCH  26  29
ATOM     29  C   UNL A   1      41.668  20.854  26.626  1.00  0.00     0.039 A 
ATOM     30  C   UNL A   1      42.146  21.822  25.737  1.00  0.00     0.014 A 
ATOM     31  C   UNL A   1      41.595  21.150  27.989  1.00  0.00     0.014 A 
ATOM     32  C   UNL A   1      42.490  23.095  26.203  1.00  0.00     0.010 A 
ATOM     33  C   UNL A   1      41.852  22.444  28.441  1.00  0.00     0.010 A 
ATOM     34  C   UNL A   1      42.314  23.428  27.556  1.00  0.00    -0.014 A 
BRANCH  34  35
ATOM     35  C   UNL A   1      42.623  24.792  28.065  1.00  0.00     0.031 A 
ATOM     36  C   UNL A   1      44.032  25.155  28.456  1.00  0.00     0.074 A 
ATOM     37  C   UNL A   1      41.632  25.689  28.231  1.00  0.00     0.049 A 
ATOM     38  N   UNL A   1      44.483  26.268  28.980  1.00  0.00    -0.248 NA
ATOM     39  C   UNL A   1      45.064  24.125  28.256  1.00  0.00     0.031 C 
ATOM     40  C   UNL A   1      40.219  25.461  27.924  1.00  0.00     0.029 A 
ATOM     41  N   UNL A   1      41.662  26.977  28.707  1.00  0.00    -0.354 N 
ATOM     42  C   UNL A   1      45.842  26.063  29.190  1.00  0.00     0.074 A 
ATOM     43  C   UNL A   1      46.132  24.705  28.784  1.00  0.00     0.031 C 
ATOM     44  C   UNL A   1      39.525  26.579  28.189  1.00  0.00     0.029 A 
ATOM     45  C   UNL A   1      40.432  27.589  28.725  1.00  0.00     0.049 A 
ATOM     46  H   UNL A   1      42.489  27.422  29.006  1.00  0.00     0.167 HD
ATOM     47  C   UNL A   1      46.772  26.930  29.660  1.00  0.00     0.031 A 
ATOM     48  C   UNL A   1      40.071  28.820  29.131  1.00  0.00     0.031 A 
ATOM     49  C   UNL A   1      46.493  28.286  30.049  1.00  0.00     0.049 A 
ATOM     50  C   UNL A   1      41.118  29.759  29.663  1.00  0.00     0.074 A 
ATOM     51  C   UNL A   1      47.378  29.257  30.486  1.00  0.00     0.029 A 
ATOM     52  N   UNL A   1      45.234  28.864  30.049  1.00  0.00    -0.354 N 
ATOM     53  N   UNL A   1      42.407  29.566  29.800  1.00  0.00    -0.248 NA
ATOM     54  C   UNL A   1      40.659  31.090  30.085  1.00  0.00     0.031 C 
ATOM     55  C   UNL A   1      46.647  30.408  30.794  1.00  0.00     0.029 A 
ATOM     56  C   UNL A   1      45.315  30.172  30.497  1.00  0.00     0.049 A 
ATOM     57  H   UNL A   1      44.404  28.412  29.770  1.00  0.00     0.167 HD
ATOM     58  C   UNL A   1      42.917  30.760  30.296  1.00  0.00     0.074 A 
ATOM     59  C   UNL A   1      41.800  31.674  30.422  1.00  0.00     0.031 C 
ATOM     60  C   UNL A   1      44.196  31.071  30.617  1.00  0.00     0.031 A 
BRANCH  47  61
ATOM     61  C   UNL A   1      48.185  26.430  29.781  1.00  0.00    -0.014 A 
ATOM     62  C   UNL A   1      48.638  25.804  30.953  1.00  0.00     0.009 A 
ATOM     63  C   UNL A   1      49.067  26.558  28.696  1.00  0.00     0.009 A 
ATOM     64  C   UNL A   1      49.956  25.351  31.051  1.00  0.00     0.001 A 
ATOM     65  C   UNL A   1      50.375  26.077  28.785  1.00  0.00     0.001 A 
ATOM     66  C   UNL A   1      50.822  25.483  29.965  1.00  0.00     0.000 A 
ENDBRANCH  47  61
BRANCH  48  67
ATOM     67  C   UNL A   1      38.650  29.249  29.038  1.00  0.00    -0.014 A 
ATOM     68  C   UNL A   1      37.795  29.116  30.143  1.00  0.00     0.009 A 
ATOM     69  C   UNL A   1      38.142  29.786  27.846  1.00  0.00     0.009 A 
ATOM     70  C   UNL A   1      36.452  29.486  30.047  1.00  0.00     0.001 A 
ATOM     71  C   UNL A   1      36.805  30.182  27.762  1.00  0.00     0.001 A 
ATOM     72  C   UNL A   1      35.959  30.024  28.858  1.00  0.00     0.000 A 
ENDBRANCH  48  67
BRANCH  60  73
ATOM     73  C   UNL A   1      44.465  32.467  31.099  1.00  0.00    -0.014 A 
ATOM     74  C   UNL A   1      44.752  33.508  30.201  1.00  0.00     0.009 A 
ATOM     75  C   UNL A   1      44.392  32.753  32.471  1.00  0.00     0.009 A 
ATOM     76  C   UNL A   1      44.991  34.800  30.672  1.00  0.00     0.001 A 
ATOM     77  C   UNL A   1      44.604  34.052  32.937  1.00  0.00     0.001 A 
ATOM     78  C   UNL A   1      44.912  35.071  32.038  1.00  0.00     0.000 A 
ENDBRANCH  60  73
ENDBRANCH  34  35
ENDBRANCH  26  29
ENDBRANCH  24  25
ENDBRANCH   1  24
TORSDOF 12
ENDMDL
