MODEL 1
REMARK VINA RESULT:     -11.6      0.000      0.000
REMARK SMILES NC(=O)[C@@H]1CCCCN1C(=O)N[C@H]1C=C[C@@H](C(=O)NCCCNC(=O)c2ccc(-c3c4nc(c(-c5ccccc5)c5ccc([nH]5)c(-c5ccccc5)c5nc(c(-c6ccccc6)c6ccc3[nH]6)C=C5)C=C4)cc2)C1
REMARK SMILES IDX 20 1 19 2 17 3 18 4 16 6 13 7 14 8 74 9 15 10 12 11 10 12
REMARK SMILES IDX 11 13 9 15 4 16 5 17 6 18 8 19 7 20 2 21 1 22 3 25 21 26
REMARK SMILES IDX 22 27 23 28 24 29 25 31 26 32 27 33 73 34 28 35 72 36 29 37
REMARK SMILES IDX 30 38 31 39 66 40 32 41 71 42 65 43 67 44 33 45 70 46 64 47
REMARK SMILES IDX 63 48 34 50 56 51 41 52 55 53 42 54 45 55 54 56 68 57 43 58
REMARK SMILES IDX 44 59 53 61 69 62 46 63 35 64 36 65 40 66 37 67 39 68 38 69
REMARK SMILES IDX 57 70 58 71 62 72 59 73 61 74 60 75 47 76 48 77 52 78 49 79
REMARK SMILES IDX 51 80 50 81
REMARK H PARENT 19 5 12 14 1 23 1 24 23 30 67 49 45 60
REMARK Flexibility Score: inf
ROOT
ATOM      1  C   UNL A   1      36.601  20.823  24.683  1.00  0.00     0.117 C 
ENDROOT
BRANCH   1   2
ATOM      2  N   UNL A   1      35.734  20.902  25.846  1.00  0.00    -0.356 N 
ATOM      3  C   UNL A   1      34.730  21.771  26.144  1.00  0.00     0.227 C 
ATOM      4  O   UNL A   1      34.135  21.606  27.214  1.00  0.00    -0.274 OA
ATOM      5  H   UNL A   1      35.900  20.214  26.530  1.00  0.00     0.163 HD
BRANCH   3   6
ATOM      6  C   UNL A   1      34.346  22.925  25.218  1.00  0.00     0.103 C 
ATOM      7  C   UNL A   1      33.024  24.983  25.260  1.00  0.00     0.107 C 
ATOM      8  C   UNL A   1      34.488  25.258  25.425  1.00  0.00    -0.006 C 
ATOM      9  C   UNL A   1      32.933  23.462  25.464  1.00  0.00     0.047 C 
ATOM     10  C   UNL A   1      35.216  24.137  25.353  1.00  0.00    -0.016 C 
BRANCH   7  11
ATOM     11  N   UNL A   1      32.263  25.742  26.226  1.00  0.00    -0.332 N 
ATOM     12  C   UNL A   1      31.335  26.720  26.189  1.00  0.00     0.318 C 
ATOM     13  O   UNL A   1      31.034  27.158  27.302  1.00  0.00    -0.249 OA
ATOM     14  H   UNL A   1      32.476  25.476  27.149  1.00  0.00     0.165 HD
BRANCH  12  15
ATOM     15  N   UNL A   1      30.758  27.189  25.035  1.00  0.00    -0.313 N 
ATOM     16  C   UNL A   1      31.404  28.336  24.332  1.00  0.00     0.176 C 
ATOM     17  C   UNL A   1      30.342  29.228  23.639  1.00  0.00     0.035 C 
ATOM     18  C   UNL A   1      29.363  28.449  22.776  1.00  0.00     0.004 C 
ATOM     19  C   UNL A   1      29.840  26.450  24.171  1.00  0.00     0.122 C 
ATOM     20  C   UNL A   1      28.747  27.328  23.586  1.00  0.00     0.022 C 
BRANCH  16  21
ATOM     21  C   UNL A   1      32.272  29.357  25.118  1.00  0.00     0.240 C 
ATOM     22  N   UNL A   1      33.615  29.296  24.847  1.00  0.00    -0.368 N 
ATOM     23  H   UNL A   1      34.237  29.908  25.302  1.00  0.00     0.159 HD
ATOM     24  H   UNL A   1      33.957  28.639  24.198  1.00  0.00     0.159 HD
ATOM     25  O   UNL A   1      31.829  30.208  25.885  1.00  0.00    -0.273 OA
ENDBRANCH  16  21
ENDBRANCH  12  15
ENDBRANCH   7  11
ENDBRANCH   3   6
ENDBRANCH   1   2
BRANCH   1  26
ATOM     26  C   UNL A   1      37.719  19.811  24.869  1.00  0.00     0.042 C 
BRANCH  26  27
ATOM     27  C   UNL A   1      38.809  20.279  25.820  1.00  0.00     0.118 C 
BRANCH  27  28
ATOM     28  N   UNL A   1      39.957  19.381  25.838  1.00  0.00    -0.352 N 
ATOM     29  C   UNL A   1      41.284  19.647  26.069  1.00  0.00     0.251 C 
ATOM     30  H   UNL A   1      39.748  18.436  25.655  1.00  0.00     0.163 HD
ATOM     31  O   UNL A   1      42.128  18.790  25.836  1.00  0.00    -0.269 OA
BRANCH  29  32
ATOM     32  C   UNL A   1      41.695  20.969  26.586  1.00  0.00     0.039 A 
ATOM     33  C   UNL A   1      42.107  21.953  25.683  1.00  0.00     0.014 A 
ATOM     34  C   UNL A   1      41.694  21.232  27.958  1.00  0.00     0.014 A 
ATOM     35  C   UNL A   1      42.453  23.221  26.154  1.00  0.00     0.010 A 
ATOM     36  C   UNL A   1      41.947  22.520  28.415  1.00  0.00     0.010 A 
ATOM     37  C   UNL A   1      42.341  23.524  27.520  1.00  0.00    -0.014 A 
BRANCH  37  38
ATOM     38  C   UNL A   1      42.646  24.878  28.042  1.00  0.00     0.031 A 
ATOM     39  C   UNL A   1      44.048  25.225  28.460  1.00  0.00     0.074 A 
ATOM     40  C   UNL A   1      41.650  25.771  28.206  1.00  0.00     0.049 A 
ATOM     41  N   UNL A   1      44.499  26.325  29.009  1.00  0.00    -0.248 NA
ATOM     42  C   UNL A   1      45.075  24.189  28.261  1.00  0.00     0.031 C 
ATOM     43  C   UNL A   1      40.241  25.543  27.878  1.00  0.00     0.029 A 
ATOM     44  N   UNL A   1      41.674  27.051  28.700  1.00  0.00    -0.354 N 
ATOM     45  C   UNL A   1      45.851  26.103  29.241  1.00  0.00     0.074 A 
ATOM     46  C   UNL A   1      46.136  24.748  28.823  1.00  0.00     0.031 C 
ATOM     47  C   UNL A   1      39.542  26.656  28.150  1.00  0.00     0.029 A 
ATOM     48  C   UNL A   1      40.441  27.658  28.712  1.00  0.00     0.049 A 
ATOM     49  H   UNL A   1      42.495  27.493  29.015  1.00  0.00     0.167 HD
ATOM     50  C   UNL A   1      46.777  26.956  29.736  1.00  0.00     0.031 A 
ATOM     51  C   UNL A   1      40.076  28.882  29.136  1.00  0.00     0.031 A 
ATOM     52  C   UNL A   1      46.496  28.307  30.140  1.00  0.00     0.049 A 
ATOM     53  C   UNL A   1      41.121  29.805  29.699  1.00  0.00     0.074 A 
ATOM     54  C   UNL A   1      47.376  29.270  30.603  1.00  0.00     0.029 A 
ATOM     55  N   UNL A   1      45.237  28.885  30.131  1.00  0.00    -0.354 N 
ATOM     56  N   UNL A   1      42.406  29.604  29.849  1.00  0.00    -0.248 NA
ATOM     57  C   UNL A   1      40.660  31.129  30.140  1.00  0.00     0.031 C 
ATOM     58  C   UNL A   1      46.639  30.416  30.921  1.00  0.00     0.029 A 
ATOM     59  C   UNL A   1      45.311  30.185  30.602  1.00  0.00     0.049 A 
ATOM     60  H   UNL A   1      44.411  28.438  29.833  1.00  0.00     0.167 HD
ATOM     61  C   UNL A   1      42.916  30.784  30.375  1.00  0.00     0.074 A 
ATOM     62  C   UNL A   1      41.801  31.701  30.501  1.00  0.00     0.031 C 
ATOM     63  C   UNL A   1      44.191  31.084  30.720  1.00  0.00     0.031 A 
BRANCH  50  64
ATOM     64  C   UNL A   1      48.184  26.442  29.874  1.00  0.00    -0.014 A 
ATOM     65  C   UNL A   1      49.111  26.565  28.825  1.00  0.00     0.009 A 
ATOM     66  C   UNL A   1      48.596  25.844  31.074  1.00  0.00     0.009 A 
ATOM     67  C   UNL A   1      50.406  26.062  28.961  1.00  0.00     0.001 A 
ATOM     68  C   UNL A   1      49.901  25.370  31.220  1.00  0.00     0.001 A 
ATOM     69  C   UNL A   1      50.801  25.469  30.160  1.00  0.00     0.000 A 
ENDBRANCH  50  64
BRANCH  51  70
ATOM     70  C   UNL A   1      38.658  29.314  29.027  1.00  0.00    -0.014 A 
ATOM     71  C   UNL A   1      37.801  29.222  30.136  1.00  0.00     0.009 A 
ATOM     72  C   UNL A   1      38.152  29.819  27.819  1.00  0.00     0.009 A 
ATOM     73  C   UNL A   1      36.462  29.602  30.029  1.00  0.00     0.001 A 
ATOM     74  C   UNL A   1      36.820  30.226  27.724  1.00  0.00     0.001 A 
ATOM     75  C   UNL A   1      35.974  30.109  28.825  1.00  0.00     0.000 A 
ENDBRANCH  51  70
BRANCH  63  76
ATOM     76  C   UNL A   1      44.457  32.472  31.232  1.00  0.00    -0.014 A 
ATOM     77  C   UNL A   1      44.413  32.766  32.603  1.00  0.00     0.009 A 
ATOM     78  C   UNL A   1      44.797  33.490  30.327  1.00  0.00     0.009 A 
ATOM     79  C   UNL A   1      44.671  34.062  33.055  1.00  0.00     0.001 A 
ATOM     80  C   UNL A   1      45.084  34.776  30.783  1.00  0.00     0.001 A 
ATOM     81  C   UNL A   1      45.012  35.063  32.145  1.00  0.00     0.000 A 
ENDBRANCH  63  76
ENDBRANCH  37  38
ENDBRANCH  29  32
ENDBRANCH  27  28
ENDBRANCH  26  27
ENDBRANCH   1  26
TORSDOF 13
ENDMDL
MODEL 2
REMARK VINA RESULT:     -11.6      0.627      5.989
REMARK SMILES NC(=O)[C@@H]1CCCCN1C(=O)N[C@H]1C=C[C@@H](C(=O)NCCCNC(=O)c2ccc(-c3c4nc(c(-c5ccccc5)c5ccc([nH]5)c(-c5ccccc5)c5nc(c(-c6ccccc6)c6ccc3[nH]6)C=C5)C=C4)cc2)C1
REMARK SMILES IDX 20 1 19 2 17 3 18 4 16 6 13 7 14 8 74 9 15 10 12 11 10 12
REMARK SMILES IDX 11 13 9 15 4 16 5 17 6 18 8 19 7 20 2 21 1 22 3 25 21 26
REMARK SMILES IDX 22 27 23 28 24 29 25 31 26 32 27 33 73 34 28 35 72 36 29 37
REMARK SMILES IDX 30 38 31 39 66 40 32 41 71 42 65 43 67 44 33 45 70 46 64 47
REMARK SMILES IDX 63 48 34 50 56 51 41 52 55 53 42 54 45 55 54 56 68 57 43 58
REMARK SMILES IDX 44 59 53 61 69 62 46 63 35 64 36 65 40 66 37 67 39 68 38 69
REMARK SMILES IDX 57 70 58 71 62 72 59 73 61 74 60 75 47 76 48 77 52 78 49 79
REMARK SMILES IDX 51 80 50 81
REMARK H PARENT 19 5 12 14 1 23 1 24 23 30 67 49 45 60
REMARK Flexibility Score: inf
ROOT
ATOM      1  C   UNL A   1      36.620  20.923  24.838  1.00  0.00     0.117 C 
ENDROOT
BRANCH   1   2
ATOM      2  N   UNL A   1      35.875  21.109  26.071  1.00  0.00    -0.356 N 
ATOM      3  C   UNL A   1      34.880  21.984  26.382  1.00  0.00     0.227 C 
ATOM      4  O   UNL A   1      34.405  21.923  27.520  1.00  0.00    -0.274 OA
ATOM      5  H   UNL A   1      36.132  20.501  26.802  1.00  0.00     0.163 HD
BRANCH   3   6
ATOM      6  C   UNL A   1      34.367  23.025  25.386  1.00  0.00     0.103 C 
ATOM      7  C   UNL A   1      32.926  25.001  25.338  1.00  0.00     0.107 C 
ATOM      8  C   UNL A   1      34.378  25.371  25.375  1.00  0.00    -0.006 C 
ATOM      9  C   UNL A   1      32.943  23.503  25.682  1.00  0.00     0.047 C 
ATOM     10  C   UNL A   1      35.168  24.291  25.353  1.00  0.00    -0.016 C 
BRANCH   7  11
ATOM     11  N   UNL A   1      32.184  25.803  26.284  1.00  0.00    -0.332 N 
ATOM     12  C   UNL A   1      31.283  26.805  26.223  1.00  0.00     0.318 C 
ATOM     13  O   UNL A   1      30.991  27.277  27.324  1.00  0.00    -0.249 OA
ATOM     14  H   UNL A   1      32.387  25.553  27.214  1.00  0.00     0.165 HD
BRANCH  12  15
ATOM     15  N   UNL A   1      30.722  27.262  25.056  1.00  0.00    -0.313 N 
ATOM     16  C   UNL A   1      31.382  28.397  24.347  1.00  0.00     0.176 C 
ATOM     17  C   UNL A   1      30.332  29.286  23.631  1.00  0.00     0.035 C 
ATOM     18  C   UNL A   1      29.359  28.502  22.766  1.00  0.00     0.004 C 
ATOM     19  C   UNL A   1      29.810  26.518  24.191  1.00  0.00     0.122 C 
ATOM     20  C   UNL A   1      28.728  27.393  23.583  1.00  0.00     0.022 C 
BRANCH  16  21
ATOM     21  C   UNL A   1      32.245  29.424  25.130  1.00  0.00     0.240 C 
ATOM     22  N   UNL A   1      33.597  29.311  24.925  1.00  0.00    -0.368 N 
ATOM     23  H   UNL A   1      34.217  29.922  25.383  1.00  0.00     0.159 HD
ATOM     24  H   UNL A   1      33.946  28.618  24.319  1.00  0.00     0.159 HD
ATOM     25  O   UNL A   1      31.796  30.319  25.841  1.00  0.00    -0.273 OA
ENDBRANCH  16  21
ENDBRANCH  12  15
ENDBRANCH   7  11
ENDBRANCH   3   6
ENDBRANCH   1   2
BRANCH   1  26
ATOM     26  C   UNL A   1      37.728  19.895  24.985  1.00  0.00     0.042 C 
BRANCH  26  27
ATOM     27  C   UNL A   1      38.930  20.406  25.762  1.00  0.00     0.118 C 
BRANCH  27  28
ATOM     28  N   UNL A   1      39.996  19.416  25.854  1.00  0.00    -0.352 N 
ATOM     29  C   UNL A   1      41.332  19.579  26.129  1.00  0.00     0.251 C 
ATOM     30  H   UNL A   1      39.715  18.486  25.695  1.00  0.00     0.163 HD
ATOM     31  O   UNL A   1      42.109  18.646  25.957  1.00  0.00    -0.269 OA
BRANCH  29  32
ATOM     32  C   UNL A   1      41.835  20.879  26.618  1.00  0.00     0.039 A 
ATOM     33  C   UNL A   1      42.285  21.824  25.692  1.00  0.00     0.014 A 
ATOM     34  C   UNL A   1      41.880  21.159  27.986  1.00  0.00     0.014 A 
ATOM     35  C   UNL A   1      42.719  23.075  26.138  1.00  0.00     0.010 A 
ATOM     36  C   UNL A   1      42.222  22.436  28.419  1.00  0.00     0.010 A 
ATOM     37  C   UNL A   1      42.656  23.402  27.502  1.00  0.00    -0.014 A 
BRANCH  37  38
ATOM     38  C   UNL A   1      43.055  24.741  27.998  1.00  0.00     0.031 A 
ATOM     39  C   UNL A   1      42.009  25.789  28.259  1.00  0.00     0.074 A 
ATOM     40  C   UNL A   1      44.362  25.037  28.145  1.00  0.00     0.049 A 
ATOM     41  N   UNL A   1      42.161  27.039  28.620  1.00  0.00    -0.248 NA
ATOM     42  C   UNL A   1      40.606  25.389  28.061  1.00  0.00     0.031 C 
ATOM     43  C   UNL A   1      45.475  24.123  27.884  1.00  0.00     0.029 A 
ATOM     44  N   UNL A   1      44.972  26.201  28.543  1.00  0.00    -0.354 N 
ATOM     45  C   UNL A   1      40.881  27.575  28.669  1.00  0.00     0.074 A 
ATOM     46  C   UNL A   1      39.968  26.535  28.249  1.00  0.00     0.031 C 
ATOM     47  C   UNL A   1      46.630  24.750  28.160  1.00  0.00     0.029 A 
ATOM     48  C   UNL A   1      46.343  26.119  28.571  1.00  0.00     0.049 A 
ATOM     49  H   UNL A   1      44.475  27.015  28.785  1.00  0.00     0.167 HD
ATOM     50  C   UNL A   1      40.496  28.816  29.048  1.00  0.00     0.031 A 
ATOM     51  C   UNL A   1      47.265  27.048  28.886  1.00  0.00     0.031 A 
ATOM     52  C   UNL A   1      41.402  29.847  29.477  1.00  0.00     0.049 A 
ATOM     53  C   UNL A   1      46.813  28.424  29.288  1.00  0.00     0.074 A 
ATOM     54  C   UNL A   1      41.108  31.119  29.935  1.00  0.00     0.029 A 
ATOM     55  N   UNL A   1      42.782  29.722  29.498  1.00  0.00    -0.354 N 
ATOM     56  N   UNL A   1      45.596  28.896  29.394  1.00  0.00    -0.248 NA
ATOM     57  C   UNL A   1      47.867  29.391  29.625  1.00  0.00     0.031 C 
ATOM     58  C   UNL A   1      42.314  31.782  30.185  1.00  0.00     0.029 A 
ATOM     59  C   UNL A   1      43.356  30.903  29.938  1.00  0.00     0.049 A 
ATOM     60  H   UNL A   1      43.281  28.914  29.238  1.00  0.00     0.167 HD
ATOM     61  C   UNL A   1      45.733  30.205  29.836  1.00  0.00     0.074 A 
ATOM     62  C   UNL A   1      47.153  30.445  29.995  1.00  0.00     0.031 C 
ATOM     63  C   UNL A   1      44.771  31.125  30.091  1.00  0.00     0.031 A 
BRANCH  50  64
ATOM     64  C   UNL A   1      39.024  29.123  29.008  1.00  0.00    -0.014 A 
ATOM     65  C   UNL A   1      38.203  28.905  30.127  1.00  0.00     0.009 A 
ATOM     66  C   UNL A   1      38.453  29.658  27.844  1.00  0.00     0.009 A 
ATOM     67  C   UNL A   1      36.834  29.174  30.065  1.00  0.00     0.001 A 
ATOM     68  C   UNL A   1      37.090  29.956  27.794  1.00  0.00     0.001 A 
ATOM     69  C   UNL A   1      36.280  29.704  28.900  1.00  0.00     0.000 A 
ENDBRANCH  50  64
BRANCH  51  70
ATOM     70  C   UNL A   1      48.710  26.701  28.853  1.00  0.00    -0.014 A 
ATOM     71  C   UNL A   1      49.451  26.863  27.671  1.00  0.00     0.009 A 
ATOM     72  C   UNL A   1      49.356  26.207  29.996  1.00  0.00     0.009 A 
ATOM     73  C   UNL A   1      50.803  26.514  27.630  1.00  0.00     0.001 A 
ATOM     74  C   UNL A   1      50.715  25.886  29.959  1.00  0.00     0.001 A 
ATOM     75  C   UNL A   1      51.435  26.031  28.775  1.00  0.00     0.000 A 
ENDBRANCH  51  70
BRANCH  63  76
ATOM     76  C   UNL A   1      45.220  32.464  30.604  1.00  0.00    -0.014 A 
ATOM     77  C   UNL A   1      45.399  32.698  31.976  1.00  0.00     0.009 A 
ATOM     78  C   UNL A   1      45.507  33.493  29.694  1.00  0.00     0.009 A 
ATOM     79  C   UNL A   1      45.824  33.948  32.429  1.00  0.00     0.001 A 
ATOM     80  C   UNL A   1      45.962  34.732  30.147  1.00  0.00     0.001 A 
ATOM     81  C   UNL A   1      46.110  34.962  31.513  1.00  0.00     0.000 A 
ENDBRANCH  63  76
ENDBRANCH  37  38
ENDBRANCH  29  32
ENDBRANCH  27  28
ENDBRANCH  26  27
ENDBRANCH   1  26
TORSDOF 13
ENDMDL
MODEL 3
REMARK VINA RESULT:     -11.4      4.122      9.337
REMARK SMILES NC(=O)[C@@H]1CCCCN1C(=O)N[C@H]1C=C[C@@H](C(=O)NCCCNC(=O)c2ccc(-c3c4nc(c(-c5ccccc5)c5ccc([nH]5)c(-c5ccccc5)c5nc(c(-c6ccccc6)c6ccc3[nH]6)C=C5)C=C4)cc2)C1
REMARK SMILES IDX 20 1 19 2 17 3 18 4 16 6 13 7 14 8 74 9 15 10 12 11 10 12
REMARK SMILES IDX 11 13 9 15 4 16 5 17 6 18 8 19 7 20 2 21 1 22 3 25 21 26
REMARK SMILES IDX 22 27 23 28 24 29 25 31 26 32 27 33 73 34 28 35 72 36 29 37
REMARK SMILES IDX 30 38 31 39 66 40 32 41 71 42 65 43 67 44 33 45 70 46 64 47
REMARK SMILES IDX 63 48 34 50 56 51 41 52 55 53 42 54 45 55 54 56 68 57 43 58
REMARK SMILES IDX 44 59 53 61 69 62 46 63 35 64 36 65 40 66 37 67 39 68 38 69
REMARK SMILES IDX 57 70 58 71 62 72 59 73 61 74 60 75 47 76 48 77 52 78 49 79
REMARK SMILES IDX 51 80 50 81
REMARK H PARENT 19 5 12 14 1 23 1 24 23 30 67 49 45 60
REMARK Flexibility Score: inf
ROOT
ATOM      1  C   UNL A   1      31.601  30.776  26.406  1.00  0.00     0.117 C 
ENDROOT
BRANCH   1   2
ATOM      2  N   UNL A   1      31.135  30.389  25.087  1.00  0.00    -0.356 N 
ATOM      3  C   UNL A   1      31.447  29.310  24.318  1.00  0.00     0.227 C 
ATOM      4  O   UNL A   1      30.891  29.215  23.220  1.00  0.00    -0.274 OA
ATOM      5  H   UNL A   1      30.487  31.010  24.681  1.00  0.00     0.163 HD
BRANCH   3   6
ATOM      6  C   UNL A   1      32.456  28.253  24.765  1.00  0.00     0.103 C 
ATOM      7  C   UNL A   1      32.812  25.838  24.612  1.00  0.00     0.107 C 
ATOM      8  C   UNL A   1      33.645  26.588  23.617  1.00  0.00    -0.006 C 
ATOM      9  C   UNL A   1      31.819  26.902  25.103  1.00  0.00     0.047 C 
ATOM     10  C   UNL A   1      33.487  27.912  23.733  1.00  0.00    -0.016 C 
BRANCH   7  11
ATOM     11  N   UNL A   1      32.179  24.705  23.977  1.00  0.00    -0.332 N 
ATOM     12  C   UNL A   1      32.196  23.364  24.125  1.00  0.00     0.318 C 
ATOM     13  O   UNL A   1      31.560  22.762  23.257  1.00  0.00    -0.249 OA
ATOM     14  H   UNL A   1      31.579  24.982  23.248  1.00  0.00     0.165 HD
BRANCH  12  15
ATOM     15  N   UNL A   1      32.843  22.712  25.146  1.00  0.00    -0.313 N 
ATOM     16  C   UNL A   1      32.060  22.345  26.363  1.00  0.00     0.176 C 
ATOM     17  C   UNL A   1      32.951  22.405  27.631  1.00  0.00     0.035 C 
ATOM     18  C   UNL A   1      34.262  21.648  27.489  1.00  0.00     0.004 C 
ATOM     19  C   UNL A   1      34.085  21.952  25.031  1.00  0.00     0.122 C 
ATOM     20  C   UNL A   1      34.987  22.109  26.242  1.00  0.00     0.022 C 
BRANCH  16  21
ATOM     21  C   UNL A   1      30.803  23.161  26.770  1.00  0.00     0.240 C 
ATOM     22  N   UNL A   1      29.631  22.448  26.768  1.00  0.00    -0.368 N 
ATOM     23  H   UNL A   1      28.786  22.888  27.013  1.00  0.00     0.159 HD
ATOM     24  H   UNL A   1      29.636  21.495  26.520  1.00  0.00     0.159 HD
ATOM     25  O   UNL A   1      30.817  24.335  27.130  1.00  0.00    -0.273 OA
ENDBRANCH  16  21
ENDBRANCH  12  15
ENDBRANCH   7  11
ENDBRANCH   3   6
ENDBRANCH   1   2
BRANCH   1  26
ATOM     26  C   UNL A   1      31.429  32.263  26.663  1.00  0.00     0.042 C 
BRANCH  26  27
ATOM     27  C   UNL A   1      32.689  32.939  27.180  1.00  0.00     0.118 C 
BRANCH  27  28
ATOM     28  N   UNL A   1      32.450  34.312  27.607  1.00  0.00    -0.352 N 
ATOM     29  C   UNL A   1      33.025  35.033  28.624  1.00  0.00     0.251 C 
ATOM     30  H   UNL A   1      31.771  34.798  27.084  1.00  0.00     0.163 HD
ATOM     31  O   UNL A   1      32.542  36.110  28.957  1.00  0.00    -0.269 OA
BRANCH  29  32
ATOM     32  C   UNL A   1      34.215  34.509  29.325  1.00  0.00     0.039 A 
ATOM     33  C   UNL A   1      34.057  33.921  30.583  1.00  0.00     0.014 A 
ATOM     34  C   UNL A   1      35.485  34.613  28.753  1.00  0.00     0.014 A 
ATOM     35  C   UNL A   1      35.167  33.379  31.235  1.00  0.00     0.010 A 
ATOM     36  C   UNL A   1      36.569  33.989  29.359  1.00  0.00     0.010 A 
ATOM     37  C   UNL A   1      36.424  33.377  30.611  1.00  0.00    -0.014 A 
BRANCH  37  38
ATOM     38  C   UNL A   1      37.608  32.757  31.254  1.00  0.00     0.031 A 
ATOM     39  C   UNL A   1      38.254  31.549  30.635  1.00  0.00     0.074 A 
ATOM     40  C   UNL A   1      38.058  33.238  32.431  1.00  0.00     0.049 A 
ATOM     41  N   UNL A   1      39.246  30.820  31.083  1.00  0.00    -0.248 NA
ATOM     42  C   UNL A   1      37.694  31.079  29.357  1.00  0.00     0.031 C 
ATOM     43  C   UNL A   1      37.493  34.378  33.155  1.00  0.00     0.029 A 
ATOM     44  N   UNL A   1      39.093  32.816  33.228  1.00  0.00    -0.354 N 
ATOM     45  C   UNL A   1      39.410  29.798  30.157  1.00  0.00     0.074 A 
ATOM     46  C   UNL A   1      38.384  29.968  29.151  1.00  0.00     0.031 C 
ATOM     47  C   UNL A   1      38.207  34.584  34.273  1.00  0.00     0.029 A 
ATOM     48  C   UNL A   1      39.249  33.568  34.367  1.00  0.00     0.049 A 
ATOM     49  H   UNL A   1      39.668  32.049  33.004  1.00  0.00     0.167 HD
ATOM     50  C   UNL A   1      40.343  28.818  30.132  1.00  0.00     0.031 A 
ATOM     51  C   UNL A   1      40.128  33.445  35.379  1.00  0.00     0.031 A 
ATOM     52  C   UNL A   1      41.371  28.657  31.125  1.00  0.00     0.049 A 
ATOM     53  C   UNL A   1      41.145  32.338  35.337  1.00  0.00     0.074 A 
ATOM     54  C   UNL A   1      42.397  27.730  31.162  1.00  0.00     0.029 A 
ATOM     55  N   UNL A   1      41.498  29.443  32.260  1.00  0.00    -0.354 N 
ATOM     56  N   UNL A   1      41.329  31.420  34.421  1.00  0.00    -0.248 NA
ATOM     57  C   UNL A   1      42.080  32.260  36.467  1.00  0.00     0.031 C 
ATOM     58  C   UNL A   1      43.117  27.924  32.346  1.00  0.00     0.029 A 
ATOM     59  C   UNL A   1      42.573  29.007  33.016  1.00  0.00     0.049 A 
ATOM     60  H   UNL A   1      40.912  30.198  32.494  1.00  0.00     0.167 HD
ATOM     61  C   UNL A   1      42.419  30.672  34.847  1.00  0.00     0.074 A 
ATOM     62  C   UNL A   1      42.863  31.255  36.097  1.00  0.00     0.031 C 
ATOM     63  C   UNL A   1      43.002  29.600  34.257  1.00  0.00     0.031 A 
BRANCH  50  64
ATOM     64  C   UNL A   1      40.286  27.840  28.991  1.00  0.00    -0.014 A 
ATOM     65  C   UNL A   1      39.530  26.659  29.080  1.00  0.00     0.009 A 
ATOM     66  C   UNL A   1      40.979  28.111  27.802  1.00  0.00     0.009 A 
ATOM     67  C   UNL A   1      39.506  25.751  28.020  1.00  0.00     0.001 A 
ATOM     68  C   UNL A   1      40.929  27.217  26.731  1.00  0.00     0.001 A 
ATOM     69  C   UNL A   1      40.202  26.033  26.845  1.00  0.00     0.000 A 
ENDBRANCH  50  64
BRANCH  51  70
ATOM     70  C   UNL A   1      40.100  34.409  36.509  1.00  0.00    -0.014 A 
ATOM     71  C   UNL A   1      39.315  34.149  37.644  1.00  0.00     0.009 A 
ATOM     72  C   UNL A   1      40.854  35.593  36.462  1.00  0.00     0.009 A 
ATOM     73  C   UNL A   1      39.267  35.066  38.696  1.00  0.00     0.001 A 
ATOM     74  C   UNL A   1      40.826  36.493  37.529  1.00  0.00     0.001 A 
ATOM     75  C   UNL A   1      40.026  36.234  38.640  1.00  0.00     0.000 A 
ENDBRANCH  51  70
BRANCH  63  76
ATOM     76  C   UNL A   1      44.207  29.012  34.936  1.00  0.00    -0.014 A 
ATOM     77  C   UNL A   1      45.501  29.479  34.660  1.00  0.00     0.009 A 
ATOM     78  C   UNL A   1      44.036  28.005  35.898  1.00  0.00     0.009 A 
ATOM     79  C   UNL A   1      46.604  28.922  35.310  1.00  0.00     0.001 A 
ATOM     80  C   UNL A   1      45.137  27.472  36.568  1.00  0.00     0.001 A 
ATOM     81  C   UNL A   1      46.421  27.924  36.267  1.00  0.00     0.000 A 
ENDBRANCH  63  76
ENDBRANCH  37  38
ENDBRANCH  29  32
ENDBRANCH  27  28
ENDBRANCH  26  27
ENDBRANCH   1  26
TORSDOF 13
ENDMDL
