MODEL 1
REMARK VINA RESULT:     -12.0      0.000      0.000
REMARK SMILES Cc1nc(-c2ccccc2Cl)nc2sc(C(=O)NCCCNC(=O)c3ccc(-c4c5nc(c(-c6ccccc6)c6ccc([nH]6)c(-c6ccccc6)c6nc(c(-c7ccccc7)c7ccc4[nH]7)C=C6)C=C5)cc3)c(N)c12
REMARK SMILES IDX 20 1 19 2 18 3 16 4 17 5 15 7 1 8 2 9 3 10 75 11 4 12 13 13
REMARK SMILES IDX 73 14 12 15 14 16 5 17 6 18 10 19 7 20 9 21 11 22 8 23 74 24
REMARK SMILES IDX 21 27 22 28 23 29 24 31 25 32 26 33 72 34 27 35 71 36 28 37
REMARK SMILES IDX 29 38 30 39 65 40 31 41 70 42 64 43 66 44 32 45 69 46 63 47
REMARK SMILES IDX 62 48 33 50 55 51 40 52 54 53 41 54 44 55 53 56 67 57 42 58
REMARK SMILES IDX 43 59 52 61 68 62 45 63 34 64 35 65 39 66 36 67 38 68 37 69
REMARK SMILES IDX 56 70 57 71 61 72 58 73 60 74 59 75 46 76 47 77 51 78 48 79
REMARK SMILES IDX 50 80 49 81
REMARK H PARENT 18 6 74 25 74 26 22 30 66 49 44 60
REMARK Flexibility Score: inf
ROOT
ATOM      1  C   UNL A   1      38.519  21.374  25.528  1.00  0.00     0.042 C 
ENDROOT
BRANCH   1   2
ATOM      2  C   UNL A   1      37.212  22.142  25.265  1.00  0.00     0.118 C 
BRANCH   2   3
ATOM      3  N   UNL A   1      36.039  21.273  25.158  1.00  0.00    -0.351 N 
ATOM      4  C   UNL A   1      34.718  21.558  24.850  1.00  0.00     0.263 C 
ATOM      5  O   UNL A   1      34.003  20.580  24.609  1.00  0.00    -0.268 OA
ATOM      6  H   UNL A   1      36.220  20.322  25.335  1.00  0.00     0.163 HD
BRANCH   4   7
ATOM      7  C   UNL A   1      34.220  22.925  24.762  1.00  0.00     0.118 A 
ATOM      8  C   UNL A   1      32.942  26.244  21.750  1.00  0.00     0.067 C 
ATOM      9  C   UNL A   1      33.295  26.221  23.205  1.00  0.00     0.052 A 
ATOM     10  N   UNL A   1      33.313  27.429  23.853  1.00  0.00    -0.233 NA
ATOM     11  C   UNL A   1      33.605  25.055  23.936  1.00  0.00     0.056 A 
ATOM     12  C   UNL A   1      33.550  27.459  25.178  1.00  0.00     0.162 A 
ATOM     13  C   UNL A   1      33.744  25.254  25.295  1.00  0.00     0.130 A 
ATOM     14  C   UNL A   1      33.837  23.656  23.638  1.00  0.00     0.067 A 
ATOM     15  N   UNL A   1      33.739  26.405  25.963  1.00  0.00    -0.217 NA
ATOM     16  S   UNL A   1      33.859  23.827  26.160  1.00  0.00    -0.108 S 
BRANCH  12  17
ATOM     17  C   UNL A   1      33.629  28.729  25.889  1.00  0.00     0.038 A 
ATOM     18  C   UNL A   1      34.714  28.954  26.765  1.00  0.00     0.013 A 
ATOM     19  C   UNL A   1      32.575  29.651  25.892  1.00  0.00     0.052 A 
ATOM     20  C   UNL A   1      34.734  30.053  27.626  1.00  0.00     0.001 A 
ATOM     21  C   UNL A   1      32.596  30.752  26.756  1.00  0.00     0.021 A 
ATOM     22  Cl  UNL A   1      31.168  29.436  24.905  1.00  0.00    -0.084 Cl
ATOM     23  C   UNL A   1      33.669  30.947  27.626  1.00  0.00     0.002 A 
ENDBRANCH  12  17
BRANCH  14  24
ATOM     24  N   UNL A   1      33.777  23.113  22.402  1.00  0.00    -0.397 N 
ATOM     25  H   UNL A   1      34.203  23.570  21.643  1.00  0.00     0.156 HD
ATOM     26  H   UNL A   1      33.306  22.259  22.262  1.00  0.00     0.156 HD
ENDBRANCH  14  24
ENDBRANCH   4   7
ENDBRANCH   2   3
ENDBRANCH   1   2
BRANCH   1  27
ATOM     27  C   UNL A   1      39.434  22.084  26.503  1.00  0.00     0.118 C 
BRANCH  27  28
ATOM     28  N   UNL A   1      40.838  22.035  26.101  1.00  0.00    -0.352 N 
ATOM     29  C   UNL A   1      41.739  23.084  26.031  1.00  0.00     0.251 C 
ATOM     30  H   UNL A   1      41.185  21.149  25.850  1.00  0.00     0.163 HD
ATOM     31  O   UNL A   1      42.758  22.997  25.370  1.00  0.00    -0.269 OA
BRANCH  29  32
ATOM     32  C   UNL A   1      41.423  24.322  26.768  1.00  0.00     0.039 A 
ATOM     33  C   UNL A   1      41.980  24.582  28.020  1.00  0.00     0.014 A 
ATOM     34  C   UNL A   1      40.603  25.257  26.144  1.00  0.00     0.014 A 
ATOM     35  C   UNL A   1      41.779  25.837  28.590  1.00  0.00     0.010 A 
ATOM     36  C   UNL A   1      40.568  26.544  26.612  1.00  0.00     0.010 A 
ATOM     37  C   UNL A   1      41.097  26.828  27.862  1.00  0.00    -0.014 A 
BRANCH  37  38
ATOM     38  C   UNL A   1      41.022  28.199  28.355  1.00  0.00     0.031 A 
ATOM     39  C   UNL A   1      42.152  29.061  27.932  1.00  0.00     0.074 A 
ATOM     40  C   UNL A   1      39.944  28.720  28.982  1.00  0.00     0.049 A 
ATOM     41  N   UNL A   1      43.129  29.476  28.665  1.00  0.00    -0.248 NA
ATOM     42  C   UNL A   1      42.292  29.392  26.504  1.00  0.00     0.031 C 
ATOM     43  C   UNL A   1      38.623  28.104  29.176  1.00  0.00     0.029 A 
ATOM     44  N   UNL A   1      39.766  29.969  29.497  1.00  0.00    -0.354 N 
ATOM     45  C   UNL A   1      43.882  30.315  27.850  1.00  0.00     0.074 A 
ATOM     46  C   UNL A   1      43.442  30.072  26.501  1.00  0.00     0.031 C 
ATOM     47  C   UNL A   1      37.725  29.050  29.533  1.00  0.00     0.029 A 
ATOM     48  C   UNL A   1      38.445  30.278  29.802  1.00  0.00     0.049 A 
ATOM     49  H   UNL A   1      40.509  30.598  29.640  1.00  0.00     0.167 HD
ATOM     50  C   UNL A   1      44.575  31.357  28.389  1.00  0.00     0.031 A 
ATOM     51  C   UNL A   1      37.979  31.457  30.272  1.00  0.00     0.031 A 
ATOM     52  C   UNL A   1      44.617  31.267  29.827  1.00  0.00     0.049 A 
ATOM     53  C   UNL A   1      39.106  32.141  30.934  1.00  0.00     0.074 A 
ATOM     54  C   UNL A   1      45.315  30.561  30.780  1.00  0.00     0.029 A 
ATOM     55  N   UNL A   1      43.495  31.769  30.430  1.00  0.00    -0.354 N 
ATOM     56  N   UNL A   1      39.680  31.688  32.011  1.00  0.00    -0.248 NA
ATOM     57  C   UNL A   1      39.824  33.196  30.230  1.00  0.00     0.031 C 
ATOM     58  C   UNL A   1      44.479  30.519  31.938  1.00  0.00     0.029 A 
ATOM     59  C   UNL A   1      43.314  31.236  31.678  1.00  0.00     0.049 A 
ATOM     60  H   UNL A   1      42.893  32.431  30.018  1.00  0.00     0.167 HD
ATOM     61  C   UNL A   1      40.997  32.073  31.872  1.00  0.00     0.074 A 
ATOM     62  C   UNL A   1      40.987  33.145  30.884  1.00  0.00     0.031 C 
ATOM     63  C   UNL A   1      42.012  31.274  32.307  1.00  0.00     0.031 A 
BRANCH  50  64
ATOM     64  C   UNL A   1      44.749  32.696  27.707  1.00  0.00    -0.014 A 
ATOM     65  C   UNL A   1      43.680  33.612  27.741  1.00  0.00     0.009 A 
ATOM     66  C   UNL A   1      45.787  32.978  26.798  1.00  0.00     0.009 A 
ATOM     67  C   UNL A   1      43.634  34.719  26.882  1.00  0.00     0.001 A 
ATOM     68  C   UNL A   1      45.762  34.101  25.964  1.00  0.00     0.001 A 
ATOM     69  C   UNL A   1      44.674  34.960  25.992  1.00  0.00     0.000 A 
ENDBRANCH  50  64
BRANCH  51  70
ATOM     70  C   UNL A   1      36.700  32.152  30.033  1.00  0.00    -0.014 A 
ATOM     71  C   UNL A   1      35.763  32.263  31.074  1.00  0.00     0.009 A 
ATOM     72  C   UNL A   1      36.557  33.000  28.921  1.00  0.00     0.009 A 
ATOM     73  C   UNL A   1      34.776  33.255  31.049  1.00  0.00     0.001 A 
ATOM     74  C   UNL A   1      35.565  33.986  28.895  1.00  0.00     0.001 A 
ATOM     75  C   UNL A   1      34.694  34.132  29.972  1.00  0.00     0.000 A 
ENDBRANCH  51  70
BRANCH  63  76
ATOM     76  C   UNL A   1      41.699  30.259  33.366  1.00  0.00    -0.014 A 
ATOM     77  C   UNL A   1      41.380  28.917  33.096  1.00  0.00     0.009 A 
ATOM     78  C   UNL A   1      41.798  30.666  34.704  1.00  0.00     0.009 A 
ATOM     79  C   UNL A   1      41.153  28.016  34.143  1.00  0.00     0.001 A 
ATOM     80  C   UNL A   1      41.589  29.764  35.746  1.00  0.00     0.001 A 
ATOM     81  C   UNL A   1      41.264  28.439  35.466  1.00  0.00     0.000 A 
ENDBRANCH  63  76
ENDBRANCH  37  38
ENDBRANCH  29  32
ENDBRANCH  27  28
ENDBRANCH   1  27
TORSDOF 12
ENDMDL
MODEL 2
REMARK VINA RESULT:     -11.7      2.990      8.186
REMARK SMILES Cc1nc(-c2ccccc2Cl)nc2sc(C(=O)NCCCNC(=O)c3ccc(-c4c5nc(c(-c6ccccc6)c6ccc([nH]6)c(-c6ccccc6)c6nc(c(-c7ccccc7)c7ccc4[nH]7)C=C6)C=C5)cc3)c(N)c12
REMARK SMILES IDX 20 1 19 2 18 3 16 4 17 5 15 7 1 8 2 9 3 10 75 11 4 12 13 13
REMARK SMILES IDX 73 14 12 15 14 16 5 17 6 18 10 19 7 20 9 21 11 22 8 23 74 24
REMARK SMILES IDX 21 27 22 28 23 29 24 31 25 32 26 33 72 34 27 35 71 36 28 37
REMARK SMILES IDX 29 38 30 39 65 40 31 41 70 42 64 43 66 44 32 45 69 46 63 47
REMARK SMILES IDX 62 48 33 50 55 51 40 52 54 53 41 54 44 55 53 56 67 57 42 58
REMARK SMILES IDX 43 59 52 61 68 62 45 63 34 64 35 65 39 66 36 67 38 68 37 69
REMARK SMILES IDX 56 70 57 71 61 72 58 73 60 74 59 75 46 76 47 77 51 78 48 79
REMARK SMILES IDX 50 80 49 81
REMARK H PARENT 18 6 74 25 74 26 22 30 66 49 44 60
REMARK Flexibility Score: inf
ROOT
ATOM      1  C   UNL A   1      33.393  29.719  26.380  1.00  0.00     0.042 C 
ENDROOT
BRANCH   1   2
ATOM      2  C   UNL A   1      31.893  29.780  26.045  1.00  0.00     0.118 C 
BRANCH   2   3
ATOM      3  N   UNL A   1      31.614  29.708  24.610  1.00  0.00    -0.351 N 
ATOM      4  C   UNL A   1      31.614  28.634  23.733  1.00  0.00     0.263 C 
ATOM      5  O   UNL A   1      31.112  28.848  22.626  1.00  0.00    -0.268 OA
ATOM      6  H   UNL A   1      31.386  30.572  24.196  1.00  0.00     0.163 HD
BRANCH   4   7
ATOM      7  C   UNL A   1      32.125  27.323  24.115  1.00  0.00     0.118 A 
ATOM      8  C   UNL A   1      31.217  23.588  26.751  1.00  0.00     0.067 C 
ATOM      9  C   UNL A   1      32.431  24.112  26.049  1.00  0.00     0.052 A 
ATOM     10  N   UNL A   1      33.592  23.404  26.217  1.00  0.00    -0.233 NA
ATOM     11  C   UNL A   1      32.453  25.268  25.241  1.00  0.00     0.056 A 
ATOM     12  C   UNL A   1      34.697  23.786  25.550  1.00  0.00     0.162 A 
ATOM     13  C   UNL A   1      33.643  25.472  24.570  1.00  0.00     0.130 A 
ATOM     14  C   UNL A   1      31.540  26.347  24.920  1.00  0.00     0.067 A 
ATOM     15  N   UNL A   1      34.779  24.791  24.684  1.00  0.00    -0.217 NA
ATOM     16  S   UNL A   1      33.555  26.697  23.434  1.00  0.00    -0.108 S 
BRANCH  12  17
ATOM     17  C   UNL A   1      35.962  23.089  25.746  1.00  0.00     0.038 A 
ATOM     18  C   UNL A   1      37.100  23.835  26.127  1.00  0.00     0.013 A 
ATOM     19  C   UNL A   1      36.141  21.749  25.381  1.00  0.00     0.052 A 
ATOM     20  C   UNL A   1      38.374  23.263  26.125  1.00  0.00     0.001 A 
ATOM     21  C   UNL A   1      37.419  21.178  25.379  1.00  0.00     0.021 A 
ATOM     22  Cl  UNL A   1      34.825  20.765  24.836  1.00  0.00    -0.084 Cl
ATOM     23  C   UNL A   1      38.532  21.936  25.742  1.00  0.00     0.002 A 
ENDBRANCH  12  17
BRANCH  14  24
ATOM     24  N   UNL A   1      30.283  26.459  25.403  1.00  0.00    -0.397 N 
ATOM     25  H   UNL A   1      29.804  27.315  25.333  1.00  0.00     0.156 HD
ATOM     26  H   UNL A   1      29.847  25.684  25.827  1.00  0.00     0.156 HD
ENDBRANCH  14  24
ENDBRANCH   4   7
ENDBRANCH   2   3
ENDBRANCH   1   2
BRANCH   1  27
ATOM     27  C   UNL A   1      33.745  30.464  27.650  1.00  0.00     0.118 C 
BRANCH  27  28
ATOM     28  N   UNL A   1      34.389  31.750  27.394  1.00  0.00    -0.352 N 
ATOM     29  C   UNL A   1      35.613  32.196  27.863  1.00  0.00     0.251 C 
ATOM     30  H   UNL A   1      33.892  32.375  26.818  1.00  0.00     0.163 HD
ATOM     31  O   UNL A   1      35.890  33.381  27.875  1.00  0.00    -0.269 OA
BRANCH  29  32
ATOM     32  C   UNL A   1      36.572  31.193  28.364  1.00  0.00     0.039 A 
ATOM     33  C   UNL A   1      36.491  29.855  27.977  1.00  0.00     0.014 A 
ATOM     34  C   UNL A   1      37.604  31.636  29.185  1.00  0.00     0.014 A 
ATOM     35  C   UNL A   1      37.519  28.992  28.347  1.00  0.00     0.010 A 
ATOM     36  C   UNL A   1      38.700  30.839  29.382  1.00  0.00     0.010 A 
ATOM     37  C   UNL A   1      38.641  29.500  29.024  1.00  0.00    -0.014 A 
BRANCH  37  38
ATOM     38  C   UNL A   1      39.809  28.661  29.271  1.00  0.00     0.031 A 
ATOM     39  C   UNL A   1      40.117  28.454  30.707  1.00  0.00     0.074 A 
ATOM     40  C   UNL A   1      40.460  27.968  28.311  1.00  0.00     0.049 A 
ATOM     41  N   UNL A   1      41.085  28.980  31.378  1.00  0.00    -0.248 NA
ATOM     42  C   UNL A   1      39.168  27.685  31.530  1.00  0.00     0.031 C 
ATOM     43  C   UNL A   1      40.080  27.795  26.902  1.00  0.00     0.029 A 
ATOM     44  N   UNL A   1      41.562  27.174  28.419  1.00  0.00    -0.354 N 
ATOM     45  C   UNL A   1      41.009  28.424  32.650  1.00  0.00     0.074 A 
ATOM     46  C   UNL A   1      39.715  27.799  32.743  1.00  0.00     0.031 C 
ATOM     47  C   UNL A   1      40.779  26.772  26.360  1.00  0.00     0.029 A 
ATOM     48  C   UNL A   1      41.797  26.370  27.309  1.00  0.00     0.049 A 
ATOM     49  H   UNL A   1      42.141  27.168  29.215  1.00  0.00     0.167 HD
ATOM     50  C   UNL A   1      42.136  28.255  33.397  1.00  0.00     0.031 A 
ATOM     51  C   UNL A   1      42.782  25.454  27.168  1.00  0.00     0.031 A 
ATOM     52  C   UNL A   1      43.257  28.949  32.812  1.00  0.00     0.049 A 
ATOM     53  C   UNL A   1      43.867  25.832  28.093  1.00  0.00     0.074 A 
ATOM     54  C   UNL A   1      43.727  30.241  32.742  1.00  0.00     0.029 A 
ATOM     55  N   UNL A   1      43.872  28.236  31.818  1.00  0.00    -0.354 N 
ATOM     56  N   UNL A   1      44.564  26.925  27.964  1.00  0.00    -0.248 NA
ATOM     57  C   UNL A   1      43.999  25.146  29.371  1.00  0.00     0.031 C 
ATOM     58  C   UNL A   1      44.523  30.312  31.557  1.00  0.00     0.029 A 
ATOM     59  C   UNL A   1      44.554  29.055  30.960  1.00  0.00     0.049 A 
ATOM     60  H   UNL A   1      43.828  27.256  31.731  1.00  0.00     0.167 HD
ATOM     61  C   UNL A   1      44.858  27.286  29.262  1.00  0.00     0.074 A 
ATOM     62  C   UNL A   1      44.665  26.080  30.055  1.00  0.00     0.031 C 
ATOM     63  C   UNL A   1      44.900  28.597  29.632  1.00  0.00     0.031 A 
BRANCH  50  64
ATOM     64  C   UNL A   1      42.370  27.080  34.319  1.00  0.00    -0.014 A 
ATOM     65  C   UNL A   1      43.307  26.101  33.936  1.00  0.00     0.009 A 
ATOM     66  C   UNL A   1      41.513  26.744  35.384  1.00  0.00     0.009 A 
ATOM     67  C   UNL A   1      43.351  24.845  34.556  1.00  0.00     0.001 A 
ATOM     68  C   UNL A   1      41.577  25.504  36.029  1.00  0.00     0.001 A 
ATOM     69  C   UNL A   1      42.483  24.546  35.600  1.00  0.00     0.000 A 
ENDBRANCH  50  64
BRANCH  51  70
ATOM     70  C   UNL A   1      42.802  24.161  26.459  1.00  0.00    -0.014 A 
ATOM     71  C   UNL A   1      43.853  23.868  25.573  1.00  0.00     0.009 A 
ATOM     72  C   UNL A   1      42.006  23.096  26.914  1.00  0.00     0.009 A 
ATOM     73  C   UNL A   1      44.159  22.547  25.234  1.00  0.00     0.001 A 
ATOM     74  C   UNL A   1      42.308  21.775  26.567  1.00  0.00     0.001 A 
ATOM     75  C   UNL A   1      43.403  21.500  25.751  1.00  0.00     0.000 A 
ENDBRANCH  51  70
BRANCH  63  76
ATOM     76  C   UNL A   1      45.137  29.620  28.561  1.00  0.00    -0.014 A 
ATOM     77  C   UNL A   1      46.411  29.987  28.094  1.00  0.00     0.009 A 
ATOM     78  C   UNL A   1      44.011  30.190  27.949  1.00  0.00     0.009 A 
ATOM     79  C   UNL A   1      46.546  30.912  27.052  1.00  0.00     0.001 A 
ATOM     80  C   UNL A   1      44.147  31.097  26.900  1.00  0.00     0.001 A 
ATOM     81  C   UNL A   1      45.415  31.460  26.452  1.00  0.00     0.000 A 
ENDBRANCH  63  76
ENDBRANCH  37  38
ENDBRANCH  29  32
ENDBRANCH  27  28
ENDBRANCH   1  27
TORSDOF 12
ENDMDL
MODEL 3
REMARK VINA RESULT:     -11.7      3.542      8.159
REMARK SMILES Cc1nc(-c2ccccc2Cl)nc2sc(C(=O)NCCCNC(=O)c3ccc(-c4c5nc(c(-c6ccccc6)c6ccc([nH]6)c(-c6ccccc6)c6nc(c(-c7ccccc7)c7ccc4[nH]7)C=C6)C=C5)cc3)c(N)c12
REMARK SMILES IDX 20 1 19 2 18 3 16 4 17 5 15 7 1 8 2 9 3 10 75 11 4 12 13 13
REMARK SMILES IDX 73 14 12 15 14 16 5 17 6 18 10 19 7 20 9 21 11 22 8 23 74 24
REMARK SMILES IDX 21 27 22 28 23 29 24 31 25 32 26 33 72 34 27 35 71 36 28 37
REMARK SMILES IDX 29 38 30 39 65 40 31 41 70 42 64 43 66 44 32 45 69 46 63 47
REMARK SMILES IDX 62 48 33 50 55 51 40 52 54 53 41 54 44 55 53 56 67 57 42 58
REMARK SMILES IDX 43 59 52 61 68 62 45 63 34 64 35 65 39 66 36 67 38 68 37 69
REMARK SMILES IDX 56 70 57 71 61 72 58 73 60 74 59 75 46 76 47 77 51 78 48 79
REMARK SMILES IDX 50 80 49 81
REMARK H PARENT 18 6 74 25 74 26 22 30 66 49 44 60
REMARK Flexibility Score: inf
ROOT
ATOM      1  C   UNL A   1      33.740  28.932  26.581  1.00  0.00     0.042 C 
ENDROOT
BRANCH   1   2
ATOM      2  C   UNL A   1      33.427  27.759  25.636  1.00  0.00     0.118 C 
BRANCH   2   3
ATOM      3  N   UNL A   1      32.484  28.105  24.572  1.00  0.00    -0.351 N 
ATOM      4  C   UNL A   1      31.512  27.351  23.933  1.00  0.00     0.263 C 
ATOM      5  O   UNL A   1      30.716  27.986  23.235  1.00  0.00    -0.268 OA
ATOM      6  H   UNL A   1      32.551  29.035  24.256  1.00  0.00     0.163 HD
BRANCH   4   7
ATOM      7  C   UNL A   1      31.406  25.909  24.117  1.00  0.00     0.118 A 
ATOM      8  C   UNL A   1      29.849  22.625  27.035  1.00  0.00     0.067 C 
ATOM      9  C   UNL A   1      30.789  22.639  25.870  1.00  0.00     0.052 A 
ATOM     10  N   UNL A   1      31.409  21.455  25.565  1.00  0.00    -0.233 NA
ATOM     11  C   UNL A   1      31.073  23.774  25.082  1.00  0.00     0.056 A 
ATOM     12  C   UNL A   1      32.206  21.391  24.482  1.00  0.00     0.162 A 
ATOM     13  C   UNL A   1      31.845  23.517  23.968  1.00  0.00     0.130 A 
ATOM     14  C   UNL A   1      30.772  25.191  25.131  1.00  0.00     0.067 A 
ATOM     15  N   UNL A   1      32.438  22.377  23.623  1.00  0.00    -0.217 NA
ATOM     16  S   UNL A   1      31.952  24.821  22.926  1.00  0.00    -0.108 S 
BRANCH  12  17
ATOM     17  C   UNL A   1      32.922  20.164  24.159  1.00  0.00     0.038 A 
ATOM     18  C   UNL A   1      32.268  19.174  23.391  1.00  0.00     0.013 A 
ATOM     19  C   UNL A   1      34.154  19.841  24.743  1.00  0.00     0.052 A 
ATOM     20  C   UNL A   1      32.820  17.902  23.229  1.00  0.00     0.001 A 
ATOM     21  C   UNL A   1      34.705  18.564  24.579  1.00  0.00     0.021 A 
ATOM     22  Cl  UNL A   1      35.007  20.957  25.756  1.00  0.00    -0.084 Cl
ATOM     23  C   UNL A   1      34.035  17.596  23.831  1.00  0.00     0.002 A 
ENDBRANCH  12  17
BRANCH  14  24
ATOM     24  N   UNL A   1      30.031  25.787  26.090  1.00  0.00    -0.397 N 
ATOM     25  H   UNL A   1      29.275  26.365  25.840  1.00  0.00     0.156 HD
ATOM     26  H   UNL A   1      30.248  25.644  27.040  1.00  0.00     0.156 HD
ENDBRANCH  14  24
ENDBRANCH   4   7
ENDBRANCH   2   3
ENDBRANCH   1   2
BRANCH   1  27
ATOM     27  C   UNL A   1      35.087  28.802  27.258  1.00  0.00     0.118 C 
BRANCH  27  28
ATOM     28  N   UNL A   1      35.281  29.775  28.331  1.00  0.00    -0.352 N 
ATOM     29  C   UNL A   1      36.368  29.902  29.178  1.00  0.00     0.251 C 
ATOM     30  H   UNL A   1      34.548  30.418  28.467  1.00  0.00     0.163 HD
ATOM     31  O   UNL A   1      36.279  30.504  30.232  1.00  0.00    -0.269 OA
BRANCH  29  32
ATOM     32  C   UNL A   1      37.639  29.271  28.775  1.00  0.00     0.039 A 
ATOM     33  C   UNL A   1      38.344  29.711  27.654  1.00  0.00     0.014 A 
ATOM     34  C   UNL A   1      38.151  28.266  29.589  1.00  0.00     0.014 A 
ATOM     35  C   UNL A   1      39.615  29.192  27.422  1.00  0.00     0.010 A 
ATOM     36  C   UNL A   1      39.467  27.903  29.470  1.00  0.00     0.010 A 
ATOM     37  C   UNL A   1      40.186  28.310  28.356  1.00  0.00    -0.014 A 
BRANCH  37  38
ATOM     38  C   UNL A   1      41.576  27.887  28.233  1.00  0.00     0.031 A 
ATOM     39  C   UNL A   1      41.762  26.606  27.509  1.00  0.00     0.074 A 
ATOM     40  C   UNL A   1      42.635  28.658  28.568  1.00  0.00     0.049 A 
ATOM     41  N   UNL A   1      42.075  25.464  28.020  1.00  0.00    -0.248 NA
ATOM     42  C   UNL A   1      41.431  26.550  26.075  1.00  0.00     0.031 C 
ATOM     43  C   UNL A   1      42.635  30.070  28.977  1.00  0.00     0.029 A 
ATOM     44  N   UNL A   1      43.965  28.367  28.514  1.00  0.00    -0.354 N 
ATOM     45  C   UNL A   1      42.212  24.593  26.944  1.00  0.00     0.074 A 
ATOM     46  C   UNL A   1      41.620  25.254  25.810  1.00  0.00     0.031 C 
ATOM     47  C   UNL A   1      43.888  30.572  28.893  1.00  0.00     0.029 A 
ATOM     48  C   UNL A   1      44.797  29.473  28.640  1.00  0.00     0.049 A 
ATOM     49  H   UNL A   1      44.307  27.452  28.395  1.00  0.00     0.167 HD
ATOM     50  C   UNL A   1      43.081  23.546  27.012  1.00  0.00     0.031 A 
ATOM     51  C   UNL A   1      46.148  29.481  28.569  1.00  0.00     0.031 A 
ATOM     52  C   UNL A   1      43.560  23.353  28.358  1.00  0.00     0.049 A 
ATOM     53  C   UNL A   1      46.612  28.122  28.906  1.00  0.00     0.074 A 
ATOM     54  C   UNL A   1      43.098  22.799  29.530  1.00  0.00     0.029 A 
ATOM     55  N   UNL A   1      44.608  24.174  28.678  1.00  0.00    -0.354 N 
ATOM     56  N   UNL A   1      46.458  27.589  30.084  1.00  0.00    -0.248 NA
ATOM     57  C   UNL A   1      46.990  27.203  27.840  1.00  0.00     0.031 C 
ATOM     58  C   UNL A   1      43.805  23.452  30.586  1.00  0.00     0.029 A 
ATOM     59  C   UNL A   1      44.709  24.355  30.032  1.00  0.00     0.049 A 
ATOM     60  H   UNL A   1      45.213  24.584  28.018  1.00  0.00     0.167 HD
ATOM     61  C   UNL A   1      46.285  26.246  29.820  1.00  0.00     0.074 A 
ATOM     62  C   UNL A   1      46.811  26.043  28.477  1.00  0.00     0.031 C 
ATOM     63  C   UNL A   1      45.431  25.489  30.565  1.00  0.00     0.031 A 
BRANCH  50  64
ATOM     64  C   UNL A   1      43.894  23.046  25.839  1.00  0.00    -0.014 A 
ATOM     65  C   UNL A   1      43.917  21.662  25.577  1.00  0.00     0.009 A 
ATOM     66  C   UNL A   1      44.858  23.826  25.172  1.00  0.00     0.009 A 
ATOM     67  C   UNL A   1      44.877  21.091  24.731  1.00  0.00     0.001 A 
ATOM     68  C   UNL A   1      45.797  23.264  24.300  1.00  0.00     0.001 A 
ATOM     69  C   UNL A   1      45.819  21.893  24.096  1.00  0.00     0.000 A 
ENDBRANCH  50  64
BRANCH  51  70
ATOM     70  C   UNL A   1      47.080  30.495  28.040  1.00  0.00    -0.014 A 
ATOM     71  C   UNL A   1      46.701  31.282  26.939  1.00  0.00     0.009 A 
ATOM     72  C   UNL A   1      48.164  30.929  28.820  1.00  0.00     0.009 A 
ATOM     73  C   UNL A   1      47.321  32.510  26.686  1.00  0.00     0.001 A 
ATOM     74  C   UNL A   1      48.789  32.154  28.562  1.00  0.00     0.001 A 
ATOM     75  C   UNL A   1      48.348  32.957  27.513  1.00  0.00     0.000 A 
ENDBRANCH  51  70
BRANCH  63  76
ATOM     76  C   UNL A   1      45.091  25.970  31.945  1.00  0.00    -0.014 A 
ATOM     77  C   UNL A   1      45.853  25.675  33.088  1.00  0.00     0.009 A 
ATOM     78  C   UNL A   1      43.983  26.818  32.080  1.00  0.00     0.009 A 
ATOM     79  C   UNL A   1      45.500  26.207  34.334  1.00  0.00     0.001 A 
ATOM     80  C   UNL A   1      43.642  27.361  33.318  1.00  0.00     0.001 A 
ATOM     81  C   UNL A   1      44.399  27.054  34.446  1.00  0.00     0.000 A 
ENDBRANCH  63  76
ENDBRANCH  37  38
ENDBRANCH  29  32
ENDBRANCH  27  28
ENDBRANCH   1  27
TORSDOF 12
ENDMDL
