MODEL 1
REMARK VINA RESULT:      -9.7      0.000      0.000
REMARK SMILES O=C(NCCCNC(=O)c1ccc(-c2ccc(OCc3ccccc3)cc2)nc1)c1ccc(-c2c3nc(c(-c4ccccc4)c4ccc([nH]4)c(-c4ccccc4)c4nc(c(-c5ccccc5)c5ccc2[nH]5)C=C4)C=C3)cc1
REMARK SMILES IDX 6 1 5 2 4 3 3 4 1 5 2 6 30 8 31 9 77 10 32 11 76 12 33 13
REMARK SMILES IDX 34 14 35 15 70 16 36 17 75 18 69 19 71 20 37 21 74 22 68 23
REMARK SMILES IDX 67 24 38 26 60 27 45 28 59 29 46 30 49 31 58 32 72 33 47 34
REMARK SMILES IDX 48 35 57 37 73 38 50 39 39 40 40 41 44 42 41 43 43 44 42 45
REMARK SMILES IDX 61 46 62 47 66 48 63 49 65 50 64 51 51 52 52 53 56 54 53 55
REMARK SMILES IDX 55 56 54 57 7 58 8 59 9 61 10 62 11 63 29 64 12 65 28 66
REMARK SMILES IDX 13 67 14 68 15 69 27 70 16 71 26 72 17 73 18 74 19 75 20 76
REMARK SMILES IDX 21 77 25 78 22 79 24 80 23 81
REMARK H PARENT 3 7 71 25 49 36 7 60
REMARK Flexibility Score: inf
ROOT
ATOM      1  C   UNL A   1      44.953  18.509  25.946  1.00  0.00     0.118 C 
ENDROOT
BRANCH   1   2
ATOM      2  C   UNL A   1      43.774  17.695  26.456  1.00  0.00     0.042 C 
BRANCH   2   3
ATOM      3  C   UNL A   1      42.741  18.526  27.201  1.00  0.00     0.118 C 
BRANCH   3   4
ATOM      4  N   UNL A   1      41.507  18.700  26.445  1.00  0.00    -0.352 N 
ATOM      5  O   UNL A   1      39.603  19.697  25.773  1.00  0.00    -0.269 OA
ATOM      6  C   UNL A   1      40.711  19.807  26.295  1.00  0.00     0.251 C 
ATOM      7  H   UNL A   1      41.197  17.897  25.967  1.00  0.00     0.163 HD
BRANCH   6   8
ATOM      8  C   UNL A   1      41.171  21.124  26.777  1.00  0.00     0.039 A 
ATOM      9  C   UNL A   1      41.160  21.425  28.139  1.00  0.00     0.014 A 
ATOM     10  C   UNL A   1      41.639  22.067  25.856  1.00  0.00     0.014 A 
ATOM     11  C   UNL A   1      41.446  22.715  28.564  1.00  0.00     0.010 A 
ATOM     12  C   UNL A   1      42.037  23.331  26.300  1.00  0.00     0.010 A 
ATOM     13  C   UNL A   1      41.913  23.675  27.653  1.00  0.00    -0.014 A 
BRANCH  13  14
ATOM     14  C   UNL A   1      42.336  25.002  28.163  1.00  0.00     0.031 A 
ATOM     15  C   UNL A   1      41.341  26.101  28.406  1.00  0.00     0.074 A 
ATOM     16  C   UNL A   1      43.641  25.195  28.440  1.00  0.00     0.049 A 
ATOM     17  N   UNL A   1      41.548  27.305  28.880  1.00  0.00    -0.248 NA
ATOM     18  C   UNL A   1      39.937  25.821  28.069  1.00  0.00     0.031 C 
ATOM     19  C   UNL A   1      44.700  24.201  28.244  1.00  0.00     0.029 A 
ATOM     20  N   UNL A   1      44.295  26.277  28.969  1.00  0.00    -0.354 N 
ATOM     21  C   UNL A   1      40.309  27.932  28.878  1.00  0.00     0.074 A 
ATOM     22  C   UNL A   1      39.359  26.986  28.333  1.00  0.00     0.031 C 
ATOM     23  C   UNL A   1      45.858  24.696  28.702  1.00  0.00     0.029 A 
ATOM     24  C   UNL A   1      45.639  26.064  29.154  1.00  0.00     0.049 A 
ATOM     25  H   UNL A   1      43.845  27.124  29.195  1.00  0.00     0.167 HD
ATOM     26  C   UNL A   1      39.993  29.182  29.296  1.00  0.00     0.031 A 
ATOM     27  C   UNL A   1      46.598  26.883  29.618  1.00  0.00     0.031 A 
ATOM     28  C   UNL A   1      40.944  30.122  29.832  1.00  0.00     0.049 A 
ATOM     29  C   UNL A   1      46.228  28.275  30.031  1.00  0.00     0.074 A 
ATOM     30  C   UNL A   1      40.716  31.400  30.312  1.00  0.00     0.029 A 
ATOM     31  N   UNL A   1      42.306  29.887  29.952  1.00  0.00    -0.354 N 
ATOM     32  N   UNL A   1      45.046  28.841  30.054  1.00  0.00    -0.248 NA
ATOM     33  C   UNL A   1      47.324  29.141  30.481  1.00  0.00     0.031 C 
ATOM     34  C   UNL A   1      41.948  31.960  30.668  1.00  0.00     0.029 A 
ATOM     35  C   UNL A   1      42.935  31.009  30.468  1.00  0.00     0.049 A 
ATOM     36  H   UNL A   1      42.758  29.048  29.707  1.00  0.00     0.167 HD
ATOM     37  C   UNL A   1      45.252  30.125  30.534  1.00  0.00     0.074 A 
ATOM     38  C   UNL A   1      46.670  30.246  30.811  1.00  0.00     0.031 C 
ATOM     39  C   UNL A   1      44.348  31.117  30.726  1.00  0.00     0.031 A 
BRANCH  26  40
ATOM     40  C   UNL A   1      38.560  29.620  29.153  1.00  0.00    -0.014 A 
ATOM     41  C   UNL A   1      38.061  30.111  27.936  1.00  0.00     0.009 A 
ATOM     42  C   UNL A   1      37.687  29.509  30.247  1.00  0.00     0.009 A 
ATOM     43  C   UNL A   1      36.728  30.514  27.828  1.00  0.00     0.001 A 
ATOM     44  C   UNL A   1      36.348  29.887  30.129  1.00  0.00     0.001 A 
ATOM     45  C   UNL A   1      35.872  30.398  28.923  1.00  0.00     0.000 A 
ENDBRANCH  26  40
BRANCH  27  46
ATOM     46  C   UNL A   1      48.001  26.402  29.696  1.00  0.00    -0.014 A 
ATOM     47  C   UNL A   1      48.854  26.503  28.588  1.00  0.00     0.009 A 
ATOM     48  C   UNL A   1      48.503  25.864  30.893  1.00  0.00     0.009 A 
ATOM     49  C   UNL A   1      50.175  26.059  28.671  1.00  0.00     0.001 A 
ATOM     50  C   UNL A   1      49.832  25.451  30.983  1.00  0.00     0.001 A 
ATOM     51  C   UNL A   1      50.665  25.542  29.870  1.00  0.00     0.000 A 
ENDBRANCH  27  46
BRANCH  39  52
ATOM     52  C   UNL A   1      44.870  32.411  31.285  1.00  0.00    -0.014 A 
ATOM     53  C   UNL A   1      44.953  32.625  32.670  1.00  0.00     0.009 A 
ATOM     54  C   UNL A   1      45.304  33.419  30.412  1.00  0.00     0.009 A 
ATOM     55  C   UNL A   1      45.426  33.840  33.168  1.00  0.00     0.001 A 
ATOM     56  C   UNL A   1      45.806  34.621  30.913  1.00  0.00     0.001 A 
ATOM     57  C   UNL A   1      45.857  34.834  32.289  1.00  0.00     0.000 A 
ENDBRANCH  39  52
ENDBRANCH  13  14
ENDBRANCH   6   8
ENDBRANCH   3   4
ENDBRANCH   2   3
ENDBRANCH   1   2
BRANCH   1  58
ATOM     58  N   UNL A   1      45.021  18.503  24.491  1.00  0.00    -0.352 N 
ATOM     59  C   UNL A   1      44.937  19.549  23.613  1.00  0.00     0.252 C 
ATOM     60  H   UNL A   1      45.145  17.617  24.080  1.00  0.00     0.163 HD
ATOM     61  O   UNL A   1      44.723  19.333  22.420  1.00  0.00    -0.269 OA
BRANCH  59  62
ATOM     62  C   UNL A   1      45.122  20.927  24.078  1.00  0.00     0.058 A 
ATOM     63  C   UNL A   1      46.057  21.251  25.057  1.00  0.00     0.018 A 
ATOM     64  C   UNL A   1      44.413  21.954  23.476  1.00  0.00     0.125 A 
ATOM     65  C   UNL A   1      46.217  22.580  25.422  1.00  0.00     0.030 A 
ATOM     66  N   UNL A   1      44.554  23.260  23.811  1.00  0.00    -0.255 NA
ATOM     67  C   UNL A   1      45.474  23.561  24.762  1.00  0.00     0.070 A 
BRANCH  67  68
ATOM     68  C   UNL A   1      45.720  24.987  25.001  1.00  0.00     0.000 A 
ATOM     69  C   UNL A   1      47.013  25.496  25.171  1.00  0.00     0.014 A 
ATOM     70  C   UNL A   1      44.642  25.884  25.068  1.00  0.00     0.014 A 
ATOM     71  C   UNL A   1      47.219  26.870  25.345  1.00  0.00     0.047 A 
ATOM     72  C   UNL A   1      44.844  27.250  25.257  1.00  0.00     0.047 A 
ATOM     73  C   UNL A   1      46.138  27.754  25.362  1.00  0.00     0.119 A 
BRANCH  73  74
ATOM     74  O   UNL A   1      46.473  29.079  25.424  1.00  0.00    -0.489 OA
BRANCH  74  75
ATOM     75  C   UNL A   1      46.539  29.704  26.713  1.00  0.00     0.265 C 
BRANCH  75  76
ATOM     76  C   UNL A   1      46.002  31.122  26.786  1.00  0.00    -0.011 A 
ATOM     77  C   UNL A   1      44.631  31.401  26.892  1.00  0.00     0.007 A 
ATOM     78  C   UNL A   1      46.903  32.197  26.753  1.00  0.00     0.007 A 
ATOM     79  C   UNL A   1      44.177  32.715  27.023  1.00  0.00     0.000 A 
ATOM     80  C   UNL A   1      46.447  33.512  26.864  1.00  0.00     0.000 A 
ATOM     81  C   UNL A   1      45.085  33.770  27.011  1.00  0.00     0.000 A 
ENDBRANCH  75  76
ENDBRANCH  74  75
ENDBRANCH  73  74
ENDBRANCH  67  68
ENDBRANCH  59  62
ENDBRANCH   1  58
TORSDOF 14
ENDMDL
MODEL 2
REMARK VINA RESULT:      -9.5      5.141     10.211
REMARK SMILES O=C(NCCCNC(=O)c1ccc(-c2ccc(OCc3ccccc3)cc2)nc1)c1ccc(-c2c3nc(c(-c4ccccc4)c4ccc([nH]4)c(-c4ccccc4)c4nc(c(-c5ccccc5)c5ccc2[nH]5)C=C4)C=C3)cc1
REMARK SMILES IDX 6 1 5 2 4 3 3 4 1 5 2 6 30 8 31 9 77 10 32 11 76 12 33 13
REMARK SMILES IDX 34 14 35 15 70 16 36 17 75 18 69 19 71 20 37 21 74 22 68 23
REMARK SMILES IDX 67 24 38 26 60 27 45 28 59 29 46 30 49 31 58 32 72 33 47 34
REMARK SMILES IDX 48 35 57 37 73 38 50 39 39 40 40 41 44 42 41 43 43 44 42 45
REMARK SMILES IDX 61 46 62 47 66 48 63 49 65 50 64 51 51 52 52 53 56 54 53 55
REMARK SMILES IDX 55 56 54 57 7 58 8 59 9 61 10 62 11 63 29 64 12 65 28 66
REMARK SMILES IDX 13 67 14 68 15 69 27 70 16 71 26 72 17 73 18 74 19 75 20 76
REMARK SMILES IDX 21 77 25 78 22 79 24 80 23 81
REMARK H PARENT 3 7 71 25 49 36 7 60
REMARK Flexibility Score: inf
ROOT
ATOM      1  C   UNL A   1      36.041  20.338  24.980  1.00  0.00     0.118 C 
ENDROOT
BRANCH   1   2
ATOM      2  C   UNL A   1      37.406  19.750  24.657  1.00  0.00     0.042 C 
BRANCH   2   3
ATOM      3  C   UNL A   1      38.520  20.278  25.549  1.00  0.00     0.118 C 
BRANCH   3   4
ATOM      4  N   UNL A   1      39.625  19.338  25.684  1.00  0.00    -0.352 N 
ATOM      5  O   UNL A   1      41.759  18.656  25.916  1.00  0.00    -0.269 OA
ATOM      6  C   UNL A   1      40.929  19.553  26.051  1.00  0.00     0.251 C 
ATOM      7  H   UNL A   1      39.401  18.401  25.479  1.00  0.00     0.163 HD
BRANCH   6   8
ATOM      8  C   UNL A   1      41.343  20.864  26.589  1.00  0.00     0.039 A 
ATOM      9  C   UNL A   1      41.325  21.105  27.963  1.00  0.00     0.014 A 
ATOM     10  C   UNL A   1      41.774  21.861  25.709  1.00  0.00     0.014 A 
ATOM     11  C   UNL A   1      41.566  22.384  28.443  1.00  0.00     0.010 A 
ATOM     12  C   UNL A   1      42.129  23.119  26.207  1.00  0.00     0.010 A 
ATOM     13  C   UNL A   1      41.996  23.399  27.574  1.00  0.00    -0.014 A 
BRANCH  13  14
ATOM     14  C   UNL A   1      42.373  24.718  28.140  1.00  0.00     0.031 A 
ATOM     15  C   UNL A   1      43.795  25.038  28.500  1.00  0.00     0.074 A 
ATOM     16  C   UNL A   1      41.408  25.646  28.296  1.00  0.00     0.049 A 
ATOM     17  N   UNL A   1      44.291  26.154  28.973  1.00  0.00    -0.248 NA
ATOM     18  C   UNL A   1      44.791  23.971  28.313  1.00  0.00     0.031 C 
ATOM     19  C   UNL A   1      39.990  25.450  27.982  1.00  0.00     0.029 A 
ATOM     20  N   UNL A   1      41.475  26.944  28.730  1.00  0.00    -0.354 N 
ATOM     21  C   UNL A   1      45.646  25.919  29.162  1.00  0.00     0.074 A 
ATOM     22  C   UNL A   1      45.893  24.546  28.775  1.00  0.00     0.031 C 
ATOM     23  C   UNL A   1      39.333  26.602  28.175  1.00  0.00     0.029 A 
ATOM     24  C   UNL A   1      40.265  27.593  28.696  1.00  0.00     0.049 A 
ATOM     25  H   UNL A   1      42.309  27.370  29.035  1.00  0.00     0.167 HD
ATOM     26  C   UNL A   1      46.598  26.772  29.612  1.00  0.00     0.031 A 
ATOM     27  C   UNL A   1      39.933  28.843  29.060  1.00  0.00     0.031 A 
ATOM     28  C   UNL A   1      46.345  28.136  30.001  1.00  0.00     0.049 A 
ATOM     29  C   UNL A   1      40.997  29.751  29.598  1.00  0.00     0.074 A 
ATOM     30  C   UNL A   1      47.249  29.088  30.442  1.00  0.00     0.029 A 
ATOM     31  N   UNL A   1      45.096  28.739  30.004  1.00  0.00    -0.354 N 
ATOM     32  N   UNL A   1      42.280  29.523  29.738  1.00  0.00    -0.248 NA
ATOM     33  C   UNL A   1      40.567  31.086  30.028  1.00  0.00     0.031 C 
ATOM     34  C   UNL A   1      46.537  30.249  30.765  1.00  0.00     0.029 A 
ATOM     35  C   UNL A   1      45.200  30.040  30.469  1.00  0.00     0.049 A 
ATOM     36  H   UNL A   1      44.260  28.306  29.719  1.00  0.00     0.167 HD
ATOM     37  C   UNL A   1      42.816  30.691  30.260  1.00  0.00     0.074 A 
ATOM     38  C   UNL A   1      41.721  31.632  30.389  1.00  0.00     0.031 C 
ATOM     39  C   UNL A   1      44.099  30.960  30.603  1.00  0.00     0.031 A 
BRANCH  26  40
ATOM     40  C   UNL A   1      47.999  26.241  29.747  1.00  0.00    -0.014 A 
ATOM     41  C   UNL A   1      48.486  25.754  30.971  1.00  0.00     0.009 A 
ATOM     42  C   UNL A   1      48.837  26.195  28.621  1.00  0.00     0.009 A 
ATOM     43  C   UNL A   1      49.791  25.268  31.072  1.00  0.00     0.001 A 
ATOM     44  C   UNL A   1      50.132  25.683  28.718  1.00  0.00     0.001 A 
ATOM     45  C   UNL A   1      50.611  25.228  29.944  1.00  0.00     0.000 A 
ENDBRANCH  26  40
BRANCH  27  46
ATOM     46  C   UNL A   1      38.522  29.294  28.941  1.00  0.00    -0.014 A 
ATOM     47  C   UNL A   1      38.020  29.748  27.713  1.00  0.00     0.009 A 
ATOM     48  C   UNL A   1      37.663  29.244  30.050  1.00  0.00     0.009 A 
ATOM     49  C   UNL A   1      36.690  30.159  27.604  1.00  0.00     0.001 A 
ATOM     50  C   UNL A   1      36.327  29.625  29.931  1.00  0.00     0.001 A 
ATOM     51  C   UNL A   1      35.843  30.089  28.709  1.00  0.00     0.000 A 
ENDBRANCH  27  46
BRANCH  39  52
ATOM     52  C   UNL A   1      44.386  32.337  31.129  1.00  0.00    -0.014 A 
ATOM     53  C   UNL A   1      44.344  32.615  32.505  1.00  0.00     0.009 A 
ATOM     54  C   UNL A   1      44.724  33.365  30.236  1.00  0.00     0.009 A 
ATOM     55  C   UNL A   1      44.598  33.906  32.971  1.00  0.00     0.001 A 
ATOM     56  C   UNL A   1      45.008  34.647  30.708  1.00  0.00     0.001 A 
ATOM     57  C   UNL A   1      44.936  34.919  32.073  1.00  0.00     0.000 A 
ENDBRANCH  39  52
ENDBRANCH  13  14
ENDBRANCH   6   8
ENDBRANCH   3   4
ENDBRANCH   2   3
ENDBRANCH   1   2
BRANCH   1  58
ATOM     58  N   UNL A   1      35.010  19.311  25.017  1.00  0.00    -0.352 N 
ATOM     59  C   UNL A   1      33.648  19.447  25.070  1.00  0.00     0.252 C 
ATOM     60  H   UNL A   1      35.339  18.384  25.002  1.00  0.00     0.163 HD
ATOM     61  O   UNL A   1      32.947  18.486  25.386  1.00  0.00    -0.269 OA
BRANCH  59  62
ATOM     62  C   UNL A   1      33.016  20.726  24.730  1.00  0.00     0.058 A 
ATOM     63  C   UNL A   1      32.929  21.768  25.649  1.00  0.00     0.018 A 
ATOM     64  C   UNL A   1      32.567  20.946  23.438  1.00  0.00     0.125 A 
ATOM     65  C   UNL A   1      32.360  22.970  25.254  1.00  0.00     0.030 A 
ATOM     66  N   UNL A   1      32.012  22.111  23.025  1.00  0.00    -0.255 NA
ATOM     67  C   UNL A   1      31.940  23.120  23.931  1.00  0.00     0.070 A 
BRANCH  67  68
ATOM     68  C   UNL A   1      31.480  24.417  23.424  1.00  0.00     0.000 A 
ATOM     69  C   UNL A   1      30.383  25.084  23.984  1.00  0.00     0.014 A 
ATOM     70  C   UNL A   1      32.141  25.023  22.343  1.00  0.00     0.014 A 
ATOM     71  C   UNL A   1      30.001  26.344  23.511  1.00  0.00     0.047 A 
ATOM     72  C   UNL A   1      31.751  26.271  21.862  1.00  0.00     0.047 A 
ATOM     73  C   UNL A   1      30.699  26.954  22.467  1.00  0.00     0.119 A 
BRANCH  73  74
ATOM     74  O   UNL A   1      30.304  28.230  22.172  1.00  0.00    -0.489 OA
BRANCH  74  75
ATOM     75  C   UNL A   1      29.321  28.849  23.013  1.00  0.00     0.265 C 
BRANCH  75  76
ATOM     76  C   UNL A   1      28.871  30.236  22.591  1.00  0.00    -0.011 A 
ATOM     77  C   UNL A   1      28.892  31.332  23.467  1.00  0.00     0.007 A 
ATOM     78  C   UNL A   1      28.422  30.439  21.277  1.00  0.00     0.007 A 
ATOM     79  C   UNL A   1      28.533  32.607  23.026  1.00  0.00     0.000 A 
ATOM     80  C   UNL A   1      28.045  31.711  20.841  1.00  0.00     0.000 A 
ATOM     81  C   UNL A   1      28.111  32.796  21.712  1.00  0.00     0.000 A 
ENDBRANCH  75  76
ENDBRANCH  74  75
ENDBRANCH  73  74
ENDBRANCH  67  68
ENDBRANCH  59  62
ENDBRANCH   1  58
TORSDOF 14
ENDMDL
MODEL 3
REMARK VINA RESULT:      -9.4      4.365     10.832
REMARK SMILES O=C(NCCCNC(=O)c1ccc(-c2ccc(OCc3ccccc3)cc2)nc1)c1ccc(-c2c3nc(c(-c4ccccc4)c4ccc([nH]4)c(-c4ccccc4)c4nc(c(-c5ccccc5)c5ccc2[nH]5)C=C4)C=C3)cc1
REMARK SMILES IDX 6 1 5 2 4 3 3 4 1 5 2 6 30 8 31 9 77 10 32 11 76 12 33 13
REMARK SMILES IDX 34 14 35 15 70 16 36 17 75 18 69 19 71 20 37 21 74 22 68 23
REMARK SMILES IDX 67 24 38 26 60 27 45 28 59 29 46 30 49 31 58 32 72 33 47 34
REMARK SMILES IDX 48 35 57 37 73 38 50 39 39 40 40 41 44 42 41 43 43 44 42 45
REMARK SMILES IDX 61 46 62 47 66 48 63 49 65 50 64 51 51 52 52 53 56 54 53 55
REMARK SMILES IDX 55 56 54 57 7 58 8 59 9 61 10 62 11 63 29 64 12 65 28 66
REMARK SMILES IDX 13 67 14 68 15 69 27 70 16 71 26 72 17 73 18 74 19 75 20 76
REMARK SMILES IDX 21 77 25 78 22 79 24 80 23 81
REMARK H PARENT 3 7 71 25 49 36 7 60
REMARK Flexibility Score: inf
ROOT
ATOM      1  C   UNL A   1      34.242  35.345  29.080  1.00  0.00     0.118 C 
ENDROOT
BRANCH   1   2
ATOM      2  C   UNL A   1      33.688  34.239  28.193  1.00  0.00     0.042 C 
BRANCH   2   3
ATOM      3  C   UNL A   1      34.575  33.005  28.139  1.00  0.00     0.118 C 
BRANCH   3   4
ATOM      4  N   UNL A   1      33.843  31.803  27.760  1.00  0.00    -0.352 N 
ATOM      5  O   UNL A   1      33.545  29.670  27.100  1.00  0.00    -0.269 OA
ATOM      6  C   UNL A   1      34.277  30.509  27.621  1.00  0.00     0.251 C 
ATOM      7  H   UNL A   1      32.886  31.941  27.573  1.00  0.00     0.163 HD
BRANCH   6   8
ATOM      8  C   UNL A   1      35.629  30.127  28.075  1.00  0.00     0.039 A 
ATOM      9  C   UNL A   1      36.724  30.242  27.218  1.00  0.00     0.014 A 
ATOM     10  C   UNL A   1      35.809  29.666  29.383  1.00  0.00     0.014 A 
ATOM     11  C   UNL A   1      37.958  29.736  27.603  1.00  0.00     0.010 A 
ATOM     12  C   UNL A   1      37.079  29.263  29.808  1.00  0.00     0.010 A 
ATOM     13  C   UNL A   1      38.156  29.264  28.910  1.00  0.00    -0.014 A 
BRANCH  13  14
ATOM     14  C   UNL A   1      39.519  28.855  29.327  1.00  0.00     0.031 A 
ATOM     15  C   UNL A   1      40.348  29.710  30.243  1.00  0.00     0.074 A 
ATOM     16  C   UNL A   1      39.994  27.671  28.891  1.00  0.00     0.049 A 
ATOM     17  N   UNL A   1      41.543  29.477  30.725  1.00  0.00    -0.248 NA
ATOM     18  C   UNL A   1      39.769  30.994  30.669  1.00  0.00     0.031 C 
ATOM     19  C   UNL A   1      39.280  26.755  27.997  1.00  0.00     0.029 A 
ATOM     20  N   UNL A   1      41.171  27.023  29.159  1.00  0.00    -0.354 N 
ATOM     21  C   UNL A   1      41.868  30.588  31.491  1.00  0.00     0.074 A 
ATOM     22  C   UNL A   1      40.756  31.508  31.390  1.00  0.00     0.031 C 
ATOM     23  C   UNL A   1      40.006  25.640  27.839  1.00  0.00     0.029 A 
ATOM     24  C   UNL A   1      41.264  25.792  28.558  1.00  0.00     0.049 A 
ATOM     25  H   UNL A   1      41.880  27.403  29.727  1.00  0.00     0.167 HD
ATOM     26  C   UNL A   1      42.991  30.819  32.214  1.00  0.00     0.031 A 
ATOM     27  C   UNL A   1      42.258  24.888  28.566  1.00  0.00     0.031 A 
ATOM     28  C   UNL A   1      44.098  29.901  32.306  1.00  0.00     0.049 A 
ATOM     29  C   UNL A   1      43.507  25.188  29.338  1.00  0.00     0.074 A 
ATOM     30  C   UNL A   1      45.266  30.030  33.038  1.00  0.00     0.029 A 
ATOM     31  N   UNL A   1      44.177  28.688  31.638  1.00  0.00    -0.354 N 
ATOM     32  N   UNL A   1      43.785  26.230  30.083  1.00  0.00    -0.248 NA
ATOM     33  C   UNL A   1      44.580  24.189  29.268  1.00  0.00     0.031 C 
ATOM     34  C   UNL A   1      46.076  28.922  32.767  1.00  0.00     0.029 A 
ATOM     35  C   UNL A   1      45.388  28.074  31.916  1.00  0.00     0.049 A 
ATOM     36  H   UNL A   1      43.477  28.319  31.054  1.00  0.00     0.167 HD
ATOM     37  C   UNL A   1      45.058  26.007  30.584  1.00  0.00     0.074 A 
ATOM     38  C   UNL A   1      45.488  24.720  30.075  1.00  0.00     0.031 C 
ATOM     39  C   UNL A   1      45.806  26.798  31.391  1.00  0.00     0.031 A 
BRANCH  26  40
ATOM     40  C   UNL A   1      43.095  32.135  32.935  1.00  0.00    -0.014 A 
ATOM     41  C   UNL A   1      42.629  32.291  34.251  1.00  0.00     0.009 A 
ATOM     42  C   UNL A   1      43.700  33.231  32.299  1.00  0.00     0.009 A 
ATOM     43  C   UNL A   1      42.735  33.524  34.899  1.00  0.00     0.001 A 
ATOM     44  C   UNL A   1      43.830  34.454  32.958  1.00  0.00     0.001 A 
ATOM     45  C   UNL A   1      43.339  34.603  34.254  1.00  0.00     0.000 A 
ENDBRANCH  26  40
BRANCH  27  46
ATOM     46  C   UNL A   1      42.109  23.624  27.800  1.00  0.00    -0.014 A 
ATOM     47  C   UNL A   1      41.467  22.515  28.370  1.00  0.00     0.009 A 
ATOM     48  C   UNL A   1      42.585  23.531  26.482  1.00  0.00     0.009 A 
ATOM     49  C   UNL A   1      41.319  21.334  27.641  1.00  0.00     0.001 A 
ATOM     50  C   UNL A   1      42.408  22.360  25.745  1.00  0.00     0.001 A 
ATOM     51  C   UNL A   1      41.782  21.260  26.327  1.00  0.00     0.000 A 
ENDBRANCH  27  46
BRANCH  39  52
ATOM     52  C   UNL A   1      47.157  26.276  31.790  1.00  0.00    -0.014 A 
ATOM     53  C   UNL A   1      48.289  26.496  30.989  1.00  0.00     0.009 A 
ATOM     54  C   UNL A   1      47.301  25.573  32.995  1.00  0.00     0.009 A 
ATOM     55  C   UNL A   1      49.531  25.989  31.371  1.00  0.00     0.001 A 
ATOM     56  C   UNL A   1      48.551  25.094  33.390  1.00  0.00     0.001 A 
ATOM     57  C   UNL A   1      49.662  25.293  32.573  1.00  0.00     0.000 A 
ENDBRANCH  39  52
ENDBRANCH  13  14
ENDBRANCH   6   8
ENDBRANCH   3   4
ENDBRANCH   2   3
ENDBRANCH   1   2
BRANCH   1  58
ATOM     58  N   UNL A   1      33.335  35.659  30.174  1.00  0.00    -0.352 N 
ATOM     59  C   UNL A   1      33.295  35.149  31.444  1.00  0.00     0.252 C 
ATOM     60  H   UNL A   1      32.652  36.338  29.972  1.00  0.00     0.163 HD
ATOM     61  O   UNL A   1      32.292  35.313  32.139  1.00  0.00    -0.269 OA
BRANCH  59  62
ATOM     62  C   UNL A   1      34.447  34.427  31.991  1.00  0.00     0.058 A 
ATOM     63  C   UNL A   1      35.338  35.028  32.876  1.00  0.00     0.018 A 
ATOM     64  C   UNL A   1      34.617  33.084  31.694  1.00  0.00     0.125 A 
ATOM     65  C   UNL A   1      36.383  34.278  33.395  1.00  0.00     0.030 A 
ATOM     66  N   UNL A   1      35.626  32.328  32.191  1.00  0.00    -0.255 NA
ATOM     67  C   UNL A   1      36.482  32.927  33.058  1.00  0.00     0.070 A 
BRANCH  67  68
ATOM     68  C   UNL A   1      37.471  32.056  33.701  1.00  0.00     0.000 A 
ATOM     69  C   UNL A   1      37.636  30.718  33.323  1.00  0.00     0.014 A 
ATOM     70  C   UNL A   1      38.284  32.557  34.732  1.00  0.00     0.014 A 
ATOM     71  C   UNL A   1      38.624  29.927  33.922  1.00  0.00     0.047 A 
ATOM     72  C   UNL A   1      39.257  31.766  35.339  1.00  0.00     0.047 A 
ATOM     73  C   UNL A   1      39.455  30.456  34.911  1.00  0.00     0.119 A 
BRANCH  73  74
ATOM     74  O   UNL A   1      40.454  29.623  35.336  1.00  0.00    -0.489 OA
BRANCH  74  75
ATOM     75  C   UNL A   1      40.904  28.592  34.446  1.00  0.00     0.265 C 
BRANCH  75  76
ATOM     76  C   UNL A   1      42.226  27.939  34.809  1.00  0.00    -0.011 A 
ATOM     77  C   UNL A   1      42.614  26.693  34.295  1.00  0.00     0.007 A 
ATOM     78  C   UNL A   1      43.099  28.603  35.686  1.00  0.00     0.007 A 
ATOM     79  C   UNL A   1      43.865  26.152  34.600  1.00  0.00     0.000 A 
ATOM     80  C   UNL A   1      44.342  28.053  36.005  1.00  0.00     0.000 A 
ATOM     81  C   UNL A   1      44.729  26.833  35.452  1.00  0.00     0.000 A 
ENDBRANCH  75  76
ENDBRANCH  74  75
ENDBRANCH  73  74
ENDBRANCH  67  68
ENDBRANCH  59  62
ENDBRANCH   1  58
TORSDOF 14
ENDMDL
