MODEL 1
REMARK VINA RESULT:     -12.1      0.000      0.000
REMARK SMILES O=C(NCCCNC(=O)[C@@H](Cc1c[nH]c2ccccc12)Nc1ncnc2ccccc12)c1ccc(-c2c3nc(c(-c4ccccc4)c4ccc([nH]4)c(-c4ccccc4)c4nc(c(-c5ccccc5)c5ccc2[nH]5)C=C4)C=C3)cc1
REMARK SMILES IDX 5 1 4 2 3 3 1 4 2 5 32 7 33 8 79 9 34 10 78 11 35 12 36 13
REMARK SMILES IDX 37 14 72 15 38 16 77 17 71 18 73 19 39 20 76 21 70 22 69 23
REMARK SMILES IDX 40 25 62 26 47 27 61 28 48 29 51 30 60 31 74 32 49 33 50 34
REMARK SMILES IDX 59 36 75 37 52 38 41 39 42 40 46 41 43 42 45 43 44 44 63 45
REMARK SMILES IDX 64 46 68 47 65 48 67 49 66 50 53 51 54 52 58 53 55 54 57 55
REMARK SMILES IDX 56 56 6 57 7 58 8 59 9 61 10 62 11 63 12 64 13 65 20 66
REMARK SMILES IDX 14 67 15 68 19 69 16 71 18 72 17 73 21 74 22 76 23 77 31 78
REMARK SMILES IDX 24 79 26 80 30 81 25 82 27 83 29 84 28 85
REMARK H PARENT 3 6 73 24 51 35 7 60 14 70 21 75
REMARK Flexibility Score: inf
ROOT
ATOM      1  C   UNL A   1      36.909  20.109  24.934  1.00  0.00     0.042 C 
ENDROOT
BRANCH   1   2
ATOM      2  C   UNL A   1      38.292  20.703  25.148  1.00  0.00     0.118 C 
BRANCH   2   3
ATOM      3  N   UNL A   1      39.283  19.688  25.458  1.00  0.00    -0.352 N 
ATOM      4  O   UNL A   1      41.260  18.741  25.853  1.00  0.00    -0.269 OA
ATOM      5  C   UNL A   1      40.576  19.763  25.918  1.00  0.00     0.251 C 
ATOM      6  H   UNL A   1      38.968  18.767  25.310  1.00  0.00     0.163 HD
BRANCH   5   7
ATOM      7  C   UNL A   1      41.193  20.997  26.482  1.00  0.00     0.039 A 
ATOM      8  C   UNL A   1      41.749  22.011  25.701  1.00  0.00     0.014 A 
ATOM      9  C   UNL A   1      41.068  21.218  27.863  1.00  0.00     0.014 A 
ATOM     10  C   UNL A   1      42.245  23.179  26.292  1.00  0.00     0.010 A 
ATOM     11  C   UNL A   1      41.480  22.426  28.445  1.00  0.00     0.010 A 
ATOM     12  C   UNL A   1      42.081  23.420  27.665  1.00  0.00    -0.014 A 
BRANCH  12  13
ATOM     13  C   UNL A   1      42.437  24.751  28.233  1.00  0.00     0.031 A 
ATOM     14  C   UNL A   1      43.853  25.099  28.605  1.00  0.00     0.074 A 
ATOM     15  C   UNL A   1      41.466  25.668  28.418  1.00  0.00     0.049 A 
ATOM     16  N   UNL A   1      44.330  26.232  29.060  1.00  0.00    -0.248 NA
ATOM     17  C   UNL A   1      44.863  24.041  28.457  1.00  0.00     0.031 C 
ATOM     18  C   UNL A   1      40.043  25.459  28.136  1.00  0.00     0.029 A 
ATOM     19  N   UNL A   1      41.525  26.965  28.867  1.00  0.00    -0.354 N 
ATOM     20  C   UNL A   1      45.687  26.021  29.268  1.00  0.00     0.074 A 
ATOM     21  C   UNL A   1      45.954  24.643  28.909  1.00  0.00     0.031 C 
ATOM     22  C   UNL A   1      39.377  26.602  28.358  1.00  0.00     0.029 A 
ATOM     23  C   UNL A   1      40.311  27.608  28.849  1.00  0.00     0.049 A 
ATOM     24  H   UNL A   1      42.358  27.392  29.173  1.00  0.00     0.167 HD
ATOM     25  C   UNL A   1      46.628  26.891  29.712  1.00  0.00     0.031 A 
ATOM     26  C   UNL A   1      39.977  28.868  29.187  1.00  0.00     0.031 A 
ATOM     27  C   UNL A   1      46.374  28.261  30.075  1.00  0.00     0.049 A 
ATOM     28  C   UNL A   1      41.033  29.807  29.688  1.00  0.00     0.074 A 
ATOM     29  C   UNL A   1      47.277  29.224  30.492  1.00  0.00     0.029 A 
ATOM     30  N   UNL A   1      45.125  28.861  30.075  1.00  0.00    -0.354 N 
ATOM     31  N   UNL A   1      42.319  29.601  29.827  1.00  0.00    -0.248 NA
ATOM     32  C   UNL A   1      40.588  31.152  30.082  1.00  0.00     0.031 C 
ATOM     33  C   UNL A   1      46.568  30.394  30.786  1.00  0.00     0.029 A 
ATOM     34  C   UNL A   1      45.229  30.173  30.508  1.00  0.00     0.049 A 
ATOM     35  H   UNL A   1      44.285  28.419  29.807  1.00  0.00     0.167 HD
ATOM     36  C   UNL A   1      42.841  30.792  30.311  1.00  0.00     0.074 A 
ATOM     37  C   UNL A   1      41.736  31.722  30.426  1.00  0.00     0.031 C 
ATOM     38  C   UNL A   1      44.124  31.086  30.633  1.00  0.00     0.031 A 
BRANCH  25  39
ATOM     39  C   UNL A   1      48.031  26.371  29.853  1.00  0.00    -0.014 A 
ATOM     40  C   UNL A   1      48.941  26.431  28.786  1.00  0.00     0.009 A 
ATOM     41  C   UNL A   1      48.459  25.843  31.082  1.00  0.00     0.009 A 
ATOM     42  C   UNL A   1      50.240  25.940  28.937  1.00  0.00     0.001 A 
ATOM     43  C   UNL A   1      49.764  25.375  31.236  1.00  0.00     0.001 A 
ATOM     44  C   UNL A   1      50.651  25.416  30.161  1.00  0.00     0.000 A 
ENDBRANCH  25  39
BRANCH  26  45
ATOM     45  C   UNL A   1      38.567  29.317  29.049  1.00  0.00    -0.014 A 
ATOM     46  C   UNL A   1      38.077  29.740  27.805  1.00  0.00     0.009 A 
ATOM     47  C   UNL A   1      37.702  29.300  30.153  1.00  0.00     0.009 A 
ATOM     48  C   UNL A   1      36.748  30.148  27.673  1.00  0.00     0.001 A 
ATOM     49  C   UNL A   1      36.368  29.686  30.012  1.00  0.00     0.001 A 
ATOM     50  C   UNL A   1      35.894  30.115  28.773  1.00  0.00     0.000 A 
ENDBRANCH  26  45
BRANCH  38  51
ATOM     51  C   UNL A   1      44.401  32.478  31.125  1.00  0.00    -0.014 A 
ATOM     52  C   UNL A   1      44.391  32.778  32.495  1.00  0.00     0.009 A 
ATOM     53  C   UNL A   1      44.699  33.496  30.206  1.00  0.00     0.009 A 
ATOM     54  C   UNL A   1      44.643  34.080  32.934  1.00  0.00     0.001 A 
ATOM     55  C   UNL A   1      44.973  34.790  30.648  1.00  0.00     0.001 A 
ATOM     56  C   UNL A   1      44.937  35.083  32.011  1.00  0.00     0.000 A 
ENDBRANCH  38  51
ENDBRANCH  12  13
ENDBRANCH   5   7
ENDBRANCH   2   3
ENDBRANCH   1   2
BRANCH   1  57
ATOM     57  C   UNL A   1      35.754  20.970  25.438  1.00  0.00     0.117 C 
BRANCH  57  58
ATOM     58  N   UNL A   1      34.504  20.598  24.796  1.00  0.00    -0.354 N 
ATOM     59  C   UNL A   1      33.579  21.302  24.089  1.00  0.00     0.242 C 
ATOM     60  H   UNL A   1      34.282  19.644  24.893  1.00  0.00     0.163 HD
ATOM     61  O   UNL A   1      32.500  20.721  23.904  1.00  0.00    -0.273 OA
BRANCH  59  62
ATOM     62  C   UNL A   1      33.773  22.733  23.528  1.00  0.00     0.174 C 
BRANCH  62  63
ATOM     63  C   UNL A   1      32.656  23.188  22.571  1.00  0.00     0.072 C 
BRANCH  63  64
ATOM     64  C   UNL A   1      32.442  24.648  22.305  1.00  0.00    -0.020 A 
ATOM     65  C   UNL A   1      33.214  25.488  21.527  1.00  0.00     0.087 A 
ATOM     66  C   UNL A   1      31.320  25.427  22.753  1.00  0.00     0.003 A 
ATOM     67  N   UNL A   1      32.664  26.742  21.558  1.00  0.00    -0.361 N 
ATOM     68  C   UNL A   1      31.518  26.738  22.320  1.00  0.00     0.046 A 
ATOM     69  C   UNL A   1      30.177  25.143  23.529  1.00  0.00     0.010 A 
ATOM     70  H   UNL A   1      33.033  27.531  21.101  1.00  0.00     0.166 HD
ATOM     71  C   UNL A   1      30.658  27.789  22.665  1.00  0.00     0.026 A 
ATOM     72  C   UNL A   1      29.302  26.178  23.874  1.00  0.00     0.001 A 
ATOM     73  C   UNL A   1      29.548  27.482  23.457  1.00  0.00     0.002 A 
ENDBRANCH  63  64
ENDBRANCH  62  63
BRANCH  62  74
ATOM     74  N   UNL A   1      34.138  23.722  24.552  1.00  0.00    -0.358 N 
ATOM     75  H   UNL A   1      35.089  23.957  24.657  1.00  0.00     0.162 HD
BRANCH  74  76
ATOM     76  C   UNL A   1      33.217  24.340  25.378  1.00  0.00     0.137 A 
ATOM     77  N   UNL A   1      32.360  23.453  25.911  1.00  0.00    -0.219 NA
ATOM     78  C   UNL A   1      33.112  25.725  25.625  1.00  0.00     0.043 A 
ATOM     79  C   UNL A   1      31.424  23.938  26.735  1.00  0.00     0.224 A 
ATOM     80  C   UNL A   1      32.086  26.098  26.509  1.00  0.00     0.076 A 
ATOM     81  C   UNL A   1      33.899  26.758  25.047  1.00  0.00     0.014 A 
ATOM     82  N   UNL A   1      31.252  25.219  27.069  1.00  0.00    -0.236 NA
ATOM     83  C   UNL A   1      31.904  27.444  26.812  1.00  0.00     0.029 A 
ATOM     84  C   UNL A   1      33.705  28.101  25.369  1.00  0.00     0.001 A 
ATOM     85  C   UNL A   1      32.704  28.445  26.260  1.00  0.00     0.002 A 
ENDBRANCH  74  76
ENDBRANCH  62  74
ENDBRANCH  59  62
ENDBRANCH  57  58
ENDBRANCH   1  57
TORSDOF 14
ENDMDL
MODEL 2
REMARK VINA RESULT:     -12.1      1.914      6.963
REMARK SMILES O=C(NCCCNC(=O)[C@@H](Cc1c[nH]c2ccccc12)Nc1ncnc2ccccc12)c1ccc(-c2c3nc(c(-c4ccccc4)c4ccc([nH]4)c(-c4ccccc4)c4nc(c(-c5ccccc5)c5ccc2[nH]5)C=C4)C=C3)cc1
REMARK SMILES IDX 5 1 4 2 3 3 1 4 2 5 32 7 33 8 79 9 34 10 78 11 35 12 36 13
REMARK SMILES IDX 37 14 72 15 38 16 77 17 71 18 73 19 39 20 76 21 70 22 69 23
REMARK SMILES IDX 40 25 62 26 47 27 61 28 48 29 51 30 60 31 74 32 49 33 50 34
REMARK SMILES IDX 59 36 75 37 52 38 41 39 42 40 46 41 43 42 45 43 44 44 63 45
REMARK SMILES IDX 64 46 68 47 65 48 67 49 66 50 53 51 54 52 58 53 55 54 57 55
REMARK SMILES IDX 56 56 6 57 7 58 8 59 9 61 10 62 11 63 12 64 13 65 20 66
REMARK SMILES IDX 14 67 15 68 19 69 16 71 18 72 17 73 21 74 22 76 23 77 31 78
REMARK SMILES IDX 24 79 26 80 30 81 25 82 27 83 29 84 28 85
REMARK H PARENT 3 6 73 24 51 35 7 60 14 70 21 75
REMARK Flexibility Score: inf
ROOT
ATOM      1  C   UNL A   1      32.660  28.419  27.178  1.00  0.00     0.042 C 
ENDROOT
BRANCH   1   2
ATOM      2  C   UNL A   1      33.500  29.546  26.598  1.00  0.00     0.118 C 
BRANCH   2   3
ATOM      3  N   UNL A   1      33.669  30.642  27.536  1.00  0.00    -0.352 N 
ATOM      4  O   UNL A   1      34.400  31.806  29.289  1.00  0.00    -0.269 OA
ATOM      5  C   UNL A   1      34.647  30.933  28.455  1.00  0.00     0.251 C 
ATOM      6  H   UNL A   1      32.941  31.305  27.507  1.00  0.00     0.163 HD
BRANCH   5   7
ATOM      7  C   UNL A   1      35.976  30.259  28.506  1.00  0.00     0.039 A 
ATOM      8  C   UNL A   1      36.930  30.351  27.492  1.00  0.00     0.014 A 
ATOM      9  C   UNL A   1      36.343  29.628  29.706  1.00  0.00     0.014 A 
ATOM     10  C   UNL A   1      38.188  29.755  27.637  1.00  0.00     0.010 A 
ATOM     11  C   UNL A   1      37.634  29.111  29.889  1.00  0.00     0.010 A 
ATOM     12  C   UNL A   1      38.572  29.163  28.851  1.00  0.00    -0.014 A 
BRANCH  12  13
ATOM     13  C   UNL A   1      39.980  28.714  29.046  1.00  0.00     0.031 A 
ATOM     14  C   UNL A   1      40.439  27.344  28.626  1.00  0.00     0.074 A 
ATOM     15  C   UNL A   1      40.865  29.558  29.614  1.00  0.00     0.049 A 
ATOM     16  N   UNL A   1      41.642  26.827  28.680  1.00  0.00    -0.248 NA
ATOM     17  C   UNL A   1      39.420  26.435  28.084  1.00  0.00     0.031 C 
ATOM     18  C   UNL A   1      40.555  30.904  30.103  1.00  0.00     0.029 A 
ATOM     19  N   UNL A   1      42.210  29.421  29.858  1.00  0.00    -0.354 N 
ATOM     20  C   UNL A   1      41.523  25.530  28.197  1.00  0.00     0.074 A 
ATOM     21  C   UNL A   1      40.126  25.332  27.873  1.00  0.00     0.031 C 
ATOM     22  C   UNL A   1      41.684  31.489  30.529  1.00  0.00     0.029 A 
ATOM     23  C   UNL A   1      42.788  30.546  30.396  1.00  0.00     0.049 A 
ATOM     24  H   UNL A   1      42.712  28.596  29.667  1.00  0.00     0.167 HD
ATOM     25  C   UNL A   1      42.486  24.589  28.031  1.00  0.00     0.031 A 
ATOM     26  C   UNL A   1      44.063  30.799  30.746  1.00  0.00     0.031 A 
ATOM     27  C   UNL A   1      43.878  24.773  28.353  1.00  0.00     0.049 A 
ATOM     28  C   UNL A   1      45.107  29.739  30.567  1.00  0.00     0.074 A 
ATOM     29  C   UNL A   1      44.928  23.888  28.176  1.00  0.00     0.029 A 
ATOM     30  N   UNL A   1      44.413  25.915  28.929  1.00  0.00    -0.354 N 
ATOM     31  N   UNL A   1      44.982  28.538  30.058  1.00  0.00    -0.248 NA
ATOM     32  C   UNL A   1      46.468  30.069  31.012  1.00  0.00     0.031 C 
ATOM     33  C   UNL A   1      46.091  24.478  28.684  1.00  0.00     0.029 A 
ATOM     34  C   UNL A   1      45.773  25.748  29.135  1.00  0.00     0.049 A 
ATOM     35  H   UNL A   1      43.902  26.726  29.157  1.00  0.00     0.167 HD
ATOM     36  C   UNL A   1      46.248  27.973  30.110  1.00  0.00     0.074 A 
ATOM     37  C   UNL A   1      47.131  28.968  30.684  1.00  0.00     0.031 C 
ATOM     38  C   UNL A   1      46.641  26.737  29.718  1.00  0.00     0.031 A 
BRANCH  25  39
ATOM     39  C   UNL A   1      42.056  23.253  27.494  1.00  0.00    -0.014 A 
ATOM     40  C   UNL A   1      42.227  22.924  26.140  1.00  0.00     0.009 A 
ATOM     41  C   UNL A   1      41.501  22.299  28.362  1.00  0.00     0.009 A 
ATOM     42  C   UNL A   1      41.817  21.678  25.660  1.00  0.00     0.001 A 
ATOM     43  C   UNL A   1      41.116  21.046  27.883  1.00  0.00     0.001 A 
ATOM     44  C   UNL A   1      41.265  20.740  26.531  1.00  0.00     0.000 A 
ENDBRANCH  25  39
BRANCH  26  45
ATOM     45  C   UNL A   1      44.423  32.132  31.296  1.00  0.00    -0.014 A 
ATOM     46  C   UNL A   1      44.377  32.365  32.678  1.00  0.00     0.009 A 
ATOM     47  C   UNL A   1      44.837  33.167  30.444  1.00  0.00     0.009 A 
ATOM     48  C   UNL A   1      44.728  33.613  33.196  1.00  0.00     0.001 A 
ATOM     49  C   UNL A   1      45.211  34.406  30.966  1.00  0.00     0.001 A 
ATOM     50  C   UNL A   1      45.151  34.629  32.341  1.00  0.00     0.000 A 
ENDBRANCH  26  45
BRANCH  38  51
ATOM     51  C   UNL A   1      48.096  26.401  29.882  1.00  0.00    -0.014 A 
ATOM     52  C   UNL A   1      48.572  25.793  31.054  1.00  0.00     0.009 A 
ATOM     53  C   UNL A   1      48.996  26.674  28.841  1.00  0.00     0.009 A 
ATOM     54  C   UNL A   1      49.929  25.495  31.192  1.00  0.00     0.001 A 
ATOM     55  C   UNL A   1      50.348  26.355  28.973  1.00  0.00     0.001 A 
ATOM     56  C   UNL A   1      50.815  25.773  30.151  1.00  0.00     0.000 A 
ENDBRANCH  38  51
ENDBRANCH  12  13
ENDBRANCH   5   7
ENDBRANCH   2   3
ENDBRANCH   1   2
BRANCH   1  57
ATOM     57  C   UNL A   1      32.597  27.157  26.321  1.00  0.00     0.117 C 
BRANCH  57  58
ATOM     58  N   UNL A   1      31.526  26.278  26.761  1.00  0.00    -0.354 N 
ATOM     59  C   UNL A   1      31.036  25.102  26.281  1.00  0.00     0.242 C 
ATOM     60  H   UNL A   1      31.062  26.597  27.568  1.00  0.00     0.163 HD
ATOM     61  O   UNL A   1      29.945  24.752  26.755  1.00  0.00    -0.273 OA
BRANCH  59  62
ATOM     62  C   UNL A   1      31.719  24.211  25.214  1.00  0.00     0.174 C 
BRANCH  62  63
ATOM     63  C   UNL A   1      31.202  24.439  23.782  1.00  0.00     0.072 C 
BRANCH  63  64
ATOM     64  C   UNL A   1      31.270  25.805  23.168  1.00  0.00    -0.020 A 
ATOM     65  C   UNL A   1      32.317  26.365  22.462  1.00  0.00     0.087 A 
ATOM     66  C   UNL A   1      30.198  26.763  23.129  1.00  0.00     0.003 A 
ATOM     67  N   UNL A   1      31.962  27.631  22.082  1.00  0.00    -0.361 N 
ATOM     68  C   UNL A   1      30.680  27.909  22.497  1.00  0.00     0.046 A 
ATOM     69  C   UNL A   1      28.875  26.773  23.618  1.00  0.00     0.010 A 
ATOM     70  H   UNL A   1      32.539  28.252  21.582  1.00  0.00     0.166 HD
ATOM     71  C   UNL A   1      29.923  29.082  22.374  1.00  0.00     0.026 A 
ATOM     72  C   UNL A   1      28.102  27.931  23.493  1.00  0.00     0.001 A 
ATOM     73  C   UNL A   1      28.625  29.071  22.891  1.00  0.00     0.002 A 
ENDBRANCH  63  64
ENDBRANCH  62  63
BRANCH  62  74
ATOM     74  N   UNL A   1      33.183  24.167  25.334  1.00  0.00    -0.358 N 
ATOM     75  H   UNL A   1      33.662  25.010  25.509  1.00  0.00     0.162 HD
BRANCH  74  76
ATOM     76  C   UNL A   1      33.924  23.006  25.215  1.00  0.00     0.137 A 
ATOM     77  N   UNL A   1      33.138  21.942  24.975  1.00  0.00    -0.219 NA
ATOM     78  C   UNL A   1      35.322  22.887  25.366  1.00  0.00     0.043 A 
ATOM     79  C   UNL A   1      33.749  20.761  24.835  1.00  0.00     0.224 A 
ATOM     80  C   UNL A   1      35.832  21.589  25.193  1.00  0.00     0.076 A 
ATOM     81  C   UNL A   1      36.235  23.919  25.710  1.00  0.00     0.014 A 
ATOM     82  N   UNL A   1      35.061  20.534  24.921  1.00  0.00    -0.236 NA
ATOM     83  C   UNL A   1      37.200  21.372  25.325  1.00  0.00     0.029 A 
ATOM     84  C   UNL A   1      37.604  23.683  25.831  1.00  0.00     0.001 A 
ATOM     85  C   UNL A   1      38.090  22.402  25.634  1.00  0.00     0.002 A 
ENDBRANCH  74  76
ENDBRANCH  62  74
ENDBRANCH  59  62
ENDBRANCH  57  58
ENDBRANCH   1  57
TORSDOF 14
ENDMDL
MODEL 3
REMARK VINA RESULT:     -12.1      3.266      8.129
REMARK SMILES O=C(NCCCNC(=O)[C@@H](Cc1c[nH]c2ccccc12)Nc1ncnc2ccccc12)c1ccc(-c2c3nc(c(-c4ccccc4)c4ccc([nH]4)c(-c4ccccc4)c4nc(c(-c5ccccc5)c5ccc2[nH]5)C=C4)C=C3)cc1
REMARK SMILES IDX 5 1 4 2 3 3 1 4 2 5 32 7 33 8 79 9 34 10 78 11 35 12 36 13
REMARK SMILES IDX 37 14 72 15 38 16 77 17 71 18 73 19 39 20 76 21 70 22 69 23
REMARK SMILES IDX 40 25 62 26 47 27 61 28 48 29 51 30 60 31 74 32 49 33 50 34
REMARK SMILES IDX 59 36 75 37 52 38 41 39 42 40 46 41 43 42 45 43 44 44 63 45
REMARK SMILES IDX 64 46 68 47 65 48 67 49 66 50 53 51 54 52 58 53 55 54 57 55
REMARK SMILES IDX 56 56 6 57 7 58 8 59 9 61 10 62 11 63 12 64 13 65 20 66
REMARK SMILES IDX 14 67 15 68 19 69 16 71 18 72 17 73 21 74 22 76 23 77 31 78
REMARK SMILES IDX 24 79 26 80 30 81 25 82 27 83 29 84 28 85
REMARK H PARENT 3 6 73 24 51 35 7 60 14 70 21 75
REMARK Flexibility Score: inf
ROOT
ATOM      1  C   UNL A   1      31.324  31.189  25.968  1.00  0.00     0.042 C 
ENDROOT
BRANCH   1   2
ATOM      2  C   UNL A   1      32.387  31.618  26.967  1.00  0.00     0.118 C 
BRANCH   2   3
ATOM      3  N   UNL A   1      32.263  33.019  27.331  1.00  0.00    -0.352 N 
ATOM      4  O   UNL A   1      32.499  34.915  28.476  1.00  0.00    -0.269 OA
ATOM      5  C   UNL A   1      32.989  33.826  28.173  1.00  0.00     0.251 C 
ATOM      6  H   UNL A   1      31.512  33.478  26.890  1.00  0.00     0.163 HD
BRANCH   5   7
ATOM      7  C   UNL A   1      34.320  33.464  28.739  1.00  0.00     0.039 A 
ATOM      8  C   UNL A   1      34.488  32.704  29.896  1.00  0.00     0.014 A 
ATOM      9  C   UNL A   1      35.459  33.774  27.977  1.00  0.00     0.014 A 
ATOM     10  C   UNL A   1      35.767  32.336  30.331  1.00  0.00     0.010 A 
ATOM     11  C   UNL A   1      36.732  33.328  28.362  1.00  0.00     0.010 A 
ATOM     12  C   UNL A   1      36.902  32.607  29.550  1.00  0.00    -0.014 A 
BRANCH  12  13
ATOM     13  C   UNL A   1      38.223  32.033  29.935  1.00  0.00     0.031 A 
ATOM     14  C   UNL A   1      39.141  32.737  30.897  1.00  0.00     0.074 A 
ATOM     15  C   UNL A   1      38.604  30.853  29.407  1.00  0.00     0.049 A 
ATOM     16  N   UNL A   1      40.297  32.341  31.370  1.00  0.00    -0.248 NA
ATOM     17  C   UNL A   1      38.714  34.057  31.384  1.00  0.00     0.031 C 
ATOM     18  C   UNL A   1      37.833  30.073  28.435  1.00  0.00     0.029 A 
ATOM     19  N   UNL A   1      39.725  30.089  29.627  1.00  0.00    -0.354 N 
ATOM     20  C   UNL A   1      40.743  33.365  32.196  1.00  0.00     0.074 A 
ATOM     21  C   UNL A   1      39.743  34.411  32.143  1.00  0.00     0.031 C 
ATOM     22  C   UNL A   1      38.470  28.919  28.190  1.00  0.00     0.029 A 
ATOM     23  C   UNL A   1      39.719  28.896  28.944  1.00  0.00     0.049 A 
ATOM     24  H   UNL A   1      40.462  30.369  30.217  1.00  0.00     0.167 HD
ATOM     25  C   UNL A   1      41.878  33.431  32.936  1.00  0.00     0.031 A 
ATOM     26  C   UNL A   1      40.614  27.891  28.919  1.00  0.00     0.031 A 
ATOM     27  C   UNL A   1      42.882  32.400  32.994  1.00  0.00     0.049 A 
ATOM     28  C   UNL A   1      41.868  27.994  29.735  1.00  0.00     0.074 A 
ATOM     29  C   UNL A   1      44.040  32.366  33.752  1.00  0.00     0.029 A 
ATOM     30  N   UNL A   1      42.854  31.225  32.259  1.00  0.00    -0.354 N 
ATOM     31  N   UNL A   1      42.245  28.948  30.550  1.00  0.00    -0.248 NA
ATOM     32  C   UNL A   1      42.820  26.880  29.625  1.00  0.00     0.031 C 
ATOM     33  C   UNL A   1      44.735  31.191  33.443  1.00  0.00     0.029 A 
ATOM     34  C   UNL A   1      43.985  30.471  32.527  1.00  0.00     0.049 A 
ATOM     35  H   UNL A   1      42.135  30.964  31.638  1.00  0.00     0.167 HD
ATOM     36  C   UNL A   1      43.471  28.546  31.059  1.00  0.00     0.074 A 
ATOM     37  C   UNL A   1      43.767  27.253  30.476  1.00  0.00     0.031 C 
ATOM     38  C   UNL A   1      44.278  29.194  31.933  1.00  0.00     0.031 A 
BRANCH  25  39
ATOM     39  C   UNL A   1      42.107  34.685  33.732  1.00  0.00    -0.014 A 
ATOM     40  C   UNL A   1      42.772  35.789  33.175  1.00  0.00     0.009 A 
ATOM     41  C   UNL A   1      41.622  34.775  35.046  1.00  0.00     0.009 A 
ATOM     42  C   UNL A   1      42.977  36.945  33.933  1.00  0.00     0.001 A 
ATOM     43  C   UNL A   1      41.808  35.940  35.791  1.00  0.00     0.001 A 
ATOM     44  C   UNL A   1      42.493  37.020  35.238  1.00  0.00     0.000 A 
ENDBRANCH  25  39
BRANCH  26  45
ATOM     45  C   UNL A   1      40.344  26.686  28.093  1.00  0.00    -0.014 A 
ATOM     46  C   UNL A   1      40.872  26.581  26.799  1.00  0.00     0.009 A 
ATOM     47  C   UNL A   1      39.578  25.628  28.605  1.00  0.00     0.009 A 
ATOM     48  C   UNL A   1      40.629  25.443  26.027  1.00  0.00     0.001 A 
ATOM     49  C   UNL A   1      39.357  24.480  27.841  1.00  0.00     0.001 A 
ATOM     50  C   UNL A   1      39.879  24.392  26.551  1.00  0.00     0.000 A 
ENDBRANCH  26  45
BRANCH  38  51
ATOM     51  C   UNL A   1      45.554  28.503  32.323  1.00  0.00    -0.014 A 
ATOM     52  C   UNL A   1      46.745  28.725  31.613  1.00  0.00     0.009 A 
ATOM     53  C   UNL A   1      45.569  27.637  33.427  1.00  0.00     0.009 A 
ATOM     54  C   UNL A   1      47.920  28.068  31.985  1.00  0.00     0.001 A 
ATOM     55  C   UNL A   1      46.750  26.999  33.809  1.00  0.00     0.001 A 
ATOM     56  C   UNL A   1      47.922  27.209  33.083  1.00  0.00     0.000 A 
ENDBRANCH  38  51
ENDBRANCH  12  13
ENDBRANCH   5   7
ENDBRANCH   2   3
ENDBRANCH   1   2
BRANCH   1  57
ATOM     57  C   UNL A   1      31.467  29.759  25.453  1.00  0.00     0.117 C 
BRANCH  57  58
ATOM     58  N   UNL A   1      32.616  29.631  24.571  1.00  0.00    -0.354 N 
ATOM     59  C   UNL A   1      33.270  28.557  24.051  1.00  0.00     0.242 C 
ATOM     60  H   UNL A   1      32.997  30.496  24.295  1.00  0.00     0.163 HD
ATOM     61  O   UNL A   1      34.372  28.807  23.540  1.00  0.00    -0.273 OA
BRANCH  59  62
ATOM     62  C   UNL A   1      32.755  27.097  24.063  1.00  0.00     0.174 C 
BRANCH  62  63
ATOM     63  C   UNL A   1      31.741  26.781  22.949  1.00  0.00     0.072 C 
BRANCH  63  64
ATOM     64  C   UNL A   1      30.288  27.095  23.145  1.00  0.00    -0.020 A 
ATOM     65  C   UNL A   1      29.334  26.325  23.784  1.00  0.00     0.087 A 
ATOM     66  C   UNL A   1      29.635  28.319  22.771  1.00  0.00     0.003 A 
ATOM     67  N   UNL A   1      28.135  26.984  23.733  1.00  0.00    -0.361 N 
ATOM     68  C   UNL A   1      28.285  28.195  23.098  1.00  0.00     0.046 A 
ATOM     69  C   UNL A   1      30.065  29.505  22.138  1.00  0.00     0.010 A 
ATOM     70  H   UNL A   1      27.288  26.641  24.099  1.00  0.00     0.166 HD
ATOM     71  C   UNL A   1      27.334  29.174  22.781  1.00  0.00     0.026 A 
ATOM     72  C   UNL A   1      29.131  30.497  21.824  1.00  0.00     0.001 A 
ATOM     73  C   UNL A   1      27.785  30.326  22.131  1.00  0.00     0.002 A 
ENDBRANCH  63  64
ENDBRANCH  62  63
BRANCH  62  74
ATOM     74  N   UNL A   1      33.823  26.098  24.215  1.00  0.00    -0.358 N 
ATOM     75  H   UNL A   1      34.653  26.220  23.699  1.00  0.00     0.162 HD
BRANCH  74  76
ATOM     76  C   UNL A   1      33.724  24.997  25.045  1.00  0.00     0.137 A 
ATOM     77  N   UNL A   1      32.574  25.004  25.739  1.00  0.00    -0.219 NA
ATOM     78  C   UNL A   1      34.698  23.990  25.218  1.00  0.00     0.043 A 
ATOM     79  C   UNL A   1      32.366  23.979  26.573  1.00  0.00     0.224 A 
ATOM     80  C   UNL A   1      34.351  22.973  26.123  1.00  0.00     0.076 A 
ATOM     81  C   UNL A   1      35.981  23.929  24.611  1.00  0.00     0.014 A 
ATOM     82  N   UNL A   1      33.195  22.956  26.791  1.00  0.00    -0.236 NA
ATOM     83  C   UNL A   1      35.248  21.937  26.360  1.00  0.00     0.029 A 
ATOM     84  C   UNL A   1      36.864  22.878  24.857  1.00  0.00     0.001 A 
ATOM     85  C   UNL A   1      36.494  21.874  25.735  1.00  0.00     0.002 A 
ENDBRANCH  74  76
ENDBRANCH  62  74
ENDBRANCH  59  62
ENDBRANCH  57  58
ENDBRANCH   1  57
TORSDOF 14
ENDMDL
