MODEL 1
REMARK VINA RESULT:     -11.6      0.000      0.000
REMARK SMILES COc1cc(NS(=O)(=O)c2cc(C)c(C(=O)NCCCNC(=O)c3ccc(-c4c5nc(c(-c6ccccc6)c6ccc([nH]6)c(-c6ccccc6)c6nc(c(-c7ccccc7)c7ccc4[nH]7)C=C6)C=C5)cc3)s2)cc(OC)c1
REMARK SMILES IDX 18 1 17 2 15 3 16 4 14 6 10 7 11 8 72 9 12 10 13 11 7 12
REMARK SMILES IDX 8 13 9 14 6 15 5 17 3 18 4 19 77 20 74 21 73 22 2 23 1 24
REMARK SMILES IDX 75 25 76 26 19 27 20 28 21 29 22 30 23 32 24 33 25 34 71 35
REMARK SMILES IDX 26 36 70 37 27 38 28 39 29 40 64 41 30 42 69 43 63 44 65 45
REMARK SMILES IDX 31 46 68 47 62 48 61 49 32 51 54 52 39 53 53 54 40 55 43 56
REMARK SMILES IDX 52 57 66 58 41 59 42 60 51 62 67 63 44 64 33 65 34 66 38 67
REMARK SMILES IDX 35 68 37 69 36 70 55 71 56 72 60 73 57 74 59 75 58 76 45 77
REMARK SMILES IDX 46 78 50 79 47 80 49 81 48 82
REMARK H PARENT 17 5 6 16 21 31 65 50 43 61
REMARK Flexibility Score: inf
ROOT
ATOM      1  C   UNL A   1      36.057  20.323  24.979  1.00  0.00     0.118 C 
ENDROOT
BRANCH   1   2
ATOM      2  N   UNL A   1      34.972  19.371  25.029  1.00  0.00    -0.351 N 
ATOM      3  C   UNL A   1      33.605  19.483  25.034  1.00  0.00     0.261 C 
ATOM      4  O   UNL A   1      33.033  18.400  25.202  1.00  0.00    -0.268 OA
ATOM      5  H   UNL A   1      35.281  18.437  25.065  1.00  0.00     0.163 HD
BRANCH   3   6
ATOM      6  C   UNL A   1      32.878  20.727  24.770  1.00  0.00     0.096 A 
ATOM      7  C   UNL A   1      31.724  22.838  25.423  1.00  0.00     0.141 A 
ATOM      8  C   UNL A   1      31.558  22.541  24.092  1.00  0.00     0.038 A 
ATOM      9  S   UNL A   1      32.886  21.828  26.126  1.00  0.00    -0.116 S 
ATOM     10  C   UNL A   1      32.208  21.316  23.694  1.00  0.00    -0.026 A 
ATOM     11  C   UNL A   1      32.081  20.855  22.282  1.00  0.00     0.046 C 
BRANCH   7  12
ATOM     12  S   UNL A   1      30.868  23.980  26.483  1.00  0.00     0.271 S 
ATOM     13  O   UNL A   1      31.909  24.798  27.066  1.00  0.00    -0.200 OA
ATOM     14  O   UNL A   1      29.939  23.231  27.298  1.00  0.00    -0.200 OA
BRANCH  12  15
ATOM     15  N   UNL A   1      29.974  24.999  25.472  1.00  0.00    -0.279 N 
ATOM     16  H   UNL A   1      28.998  24.876  25.419  1.00  0.00     0.180 HD
BRANCH  15  17
ATOM     17  C   UNL A   1      30.584  26.038  24.688  1.00  0.00     0.056 A 
ATOM     18  C   UNL A   1      31.114  28.380  24.262  1.00  0.00     0.124 A 
ATOM     19  C   UNL A   1      30.780  27.344  25.136  1.00  0.00     0.073 A 
ATOM     20  C   UNL A   1      31.339  28.103  22.919  1.00  0.00     0.093 A 
ATOM     21  C   UNL A   1      31.185  26.797  22.452  1.00  0.00     0.124 A 
ATOM     22  C   UNL A   1      30.769  25.784  23.328  1.00  0.00     0.073 A 
BRANCH  18  23
ATOM     23  O   UNL A   1      31.204  29.616  24.844  1.00  0.00    -0.497 OA
ATOM     24  C   UNL A   1      32.431  29.890  25.512  1.00  0.00     0.278 C 
ENDBRANCH  18  23
BRANCH  21  25
ATOM     25  O   UNL A   1      31.381  26.390  21.159  1.00  0.00    -0.497 OA
ATOM     26  C   UNL A   1      32.615  25.735  20.883  1.00  0.00     0.278 C 
ENDBRANCH  21  25
ENDBRANCH  15  17
ENDBRANCH  12  15
ENDBRANCH   7  12
ENDBRANCH   3   6
ENDBRANCH   1   2
BRANCH   1  27
ATOM     27  C   UNL A   1      37.385  19.586  24.806  1.00  0.00     0.042 C 
BRANCH  27  28
ATOM     28  C   UNL A   1      38.561  20.262  25.509  1.00  0.00     0.118 C 
BRANCH  28  29
ATOM     29  N   UNL A   1      39.693  19.366  25.661  1.00  0.00    -0.352 N 
ATOM     30  C   UNL A   1      40.986  19.633  26.038  1.00  0.00     0.251 C 
ATOM     31  H   UNL A   1      39.503  18.420  25.463  1.00  0.00     0.163 HD
ATOM     32  O   UNL A   1      41.844  18.768  25.877  1.00  0.00    -0.269 OA
BRANCH  30  33
ATOM     33  C   UNL A   1      41.373  20.942  26.620  1.00  0.00     0.039 A 
ATOM     34  C   UNL A   1      41.849  21.941  25.763  1.00  0.00     0.014 A 
ATOM     35  C   UNL A   1      41.348  21.175  27.998  1.00  0.00     0.014 A 
ATOM     36  C   UNL A   1      42.256  23.177  26.277  1.00  0.00     0.010 A 
ATOM     37  C   UNL A   1      41.692  22.430  28.505  1.00  0.00     0.010 A 
ATOM     38  C   UNL A   1      42.162  23.440  27.652  1.00  0.00    -0.014 A 
BRANCH  38  39
ATOM     39  C   UNL A   1      42.579  24.748  28.220  1.00  0.00     0.031 A 
ATOM     40  C   UNL A   1      41.563  25.835  28.447  1.00  0.00     0.074 A 
ATOM     41  C   UNL A   1      43.879  24.988  28.481  1.00  0.00     0.049 A 
ATOM     42  N   UNL A   1      41.746  27.071  28.839  1.00  0.00    -0.248 NA
ATOM     43  C   UNL A   1      40.157  25.493  28.175  1.00  0.00     0.031 C 
ATOM     44  C   UNL A   1      44.975  24.038  28.284  1.00  0.00     0.029 A 
ATOM     45  N   UNL A   1      44.498  26.118  28.958  1.00  0.00    -0.354 N 
ATOM     46  C   UNL A   1      40.489  27.661  28.830  1.00  0.00     0.074 A 
ATOM     47  C   UNL A   1      39.554  26.657  28.370  1.00  0.00     0.031 C 
ATOM     48  C   UNL A   1      46.129  24.619  28.651  1.00  0.00     0.029 A 
ATOM     49  C   UNL A   1      45.859  25.990  29.076  1.00  0.00     0.049 A 
ATOM     50  H   UNL A   1      44.011  26.941  29.193  1.00  0.00     0.167 HD
ATOM     51  C   UNL A   1      40.138  28.921  29.181  1.00  0.00     0.031 A 
ATOM     52  C   UNL A   1      46.791  26.877  29.472  1.00  0.00     0.031 A 
ATOM     53  C   UNL A   1      41.052  29.918  29.668  1.00  0.00     0.049 A 
ATOM     54  C   UNL A   1      46.375  28.262  29.879  1.00  0.00     0.074 A 
ATOM     55  C   UNL A   1      40.777  31.207  30.095  1.00  0.00     0.029 A 
ATOM     56  N   UNL A   1      42.418  29.735  29.802  1.00  0.00    -0.354 N 
ATOM     57  N   UNL A   1      45.176  28.792  29.895  1.00  0.00    -0.248 NA
ATOM     58  C   UNL A   1      47.442  29.168  30.329  1.00  0.00     0.031 C 
ATOM     59  C   UNL A   1      41.984  31.812  30.463  1.00  0.00     0.029 A 
ATOM     60  C   UNL A   1      43.002  30.889  30.296  1.00  0.00     0.049 A 
ATOM     61  H   UNL A   1      42.902  28.907  29.578  1.00  0.00     0.167 HD
ATOM     62  C   UNL A   1      45.342  30.085  30.373  1.00  0.00     0.074 A 
ATOM     63  C   UNL A   1      46.754  30.257  30.646  1.00  0.00     0.031 C 
ATOM     64  C   UNL A   1      44.406  31.044  30.566  1.00  0.00     0.031 A 
BRANCH  51  65
ATOM     65  C   UNL A   1      38.689  29.294  29.042  1.00  0.00    -0.014 A 
ATOM     66  C   UNL A   1      38.183  29.795  27.833  1.00  0.00     0.009 A 
ATOM     67  C   UNL A   1      37.816  29.115  30.126  1.00  0.00     0.009 A 
ATOM     68  C   UNL A   1      36.835  30.144  27.724  1.00  0.00     0.001 A 
ATOM     69  C   UNL A   1      36.465  29.445  30.006  1.00  0.00     0.001 A 
ATOM     70  C   UNL A   1      35.978  29.966  28.809  1.00  0.00     0.000 A 
ENDBRANCH  51  65
BRANCH  52  71
ATOM     71  C   UNL A   1      48.218  26.478  29.516  1.00  0.00    -0.014 A 
ATOM     72  C   UNL A   1      48.752  25.882  30.668  1.00  0.00     0.009 A 
ATOM     73  C   UNL A   1      49.053  26.688  28.407  1.00  0.00     0.009 A 
ATOM     74  C   UNL A   1      50.099  25.520  30.716  1.00  0.00     0.001 A 
ATOM     75  C   UNL A   1      50.395  26.308  28.451  1.00  0.00     0.001 A 
ATOM     76  C   UNL A   1      50.918  25.729  29.607  1.00  0.00     0.000 A 
ENDBRANCH  52  71
BRANCH  64  77
ATOM     77  C   UNL A   1      44.875  32.355  31.125  1.00  0.00    -0.014 A 
ATOM     78  C   UNL A   1      44.936  32.568  32.511  1.00  0.00     0.009 A 
ATOM     79  C   UNL A   1      45.294  33.373  30.256  1.00  0.00     0.009 A 
ATOM     80  C   UNL A   1      45.385  33.791  33.014  1.00  0.00     0.001 A 
ATOM     81  C   UNL A   1      45.758  34.587  30.763  1.00  0.00     0.001 A 
ATOM     82  C   UNL A   1      45.798  34.797  32.141  1.00  0.00     0.000 A 
ENDBRANCH  64  77
ENDBRANCH  38  39
ENDBRANCH  30  33
ENDBRANCH  28  29
ENDBRANCH  27  28
ENDBRANCH   1  27
TORSDOF 15
ENDMDL
MODEL 2
REMARK VINA RESULT:     -11.5      3.471      8.905
REMARK SMILES COc1cc(NS(=O)(=O)c2cc(C)c(C(=O)NCCCNC(=O)c3ccc(-c4c5nc(c(-c6ccccc6)c6ccc([nH]6)c(-c6ccccc6)c6nc(c(-c7ccccc7)c7ccc4[nH]7)C=C6)C=C5)cc3)s2)cc(OC)c1
REMARK SMILES IDX 18 1 17 2 15 3 16 4 14 6 10 7 11 8 72 9 12 10 13 11 7 12
REMARK SMILES IDX 8 13 9 14 6 15 5 17 3 18 4 19 77 20 74 21 73 22 2 23 1 24
REMARK SMILES IDX 75 25 76 26 19 27 20 28 21 29 22 30 23 32 24 33 25 34 71 35
REMARK SMILES IDX 26 36 70 37 27 38 28 39 29 40 64 41 30 42 69 43 63 44 65 45
REMARK SMILES IDX 31 46 68 47 62 48 61 49 32 51 54 52 39 53 53 54 40 55 43 56
REMARK SMILES IDX 52 57 66 58 41 59 42 60 51 62 67 63 44 64 33 65 34 66 38 67
REMARK SMILES IDX 35 68 37 69 36 70 55 71 56 72 60 73 57 74 59 75 58 76 45 77
REMARK SMILES IDX 46 78 50 79 47 80 49 81 48 82
REMARK H PARENT 17 5 6 16 21 31 65 50 43 61
REMARK Flexibility Score: inf
ROOT
ATOM      1  C   UNL A   1      31.507  30.543  26.527  1.00  0.00     0.118 C 
ENDROOT
BRANCH   1   2
ATOM      2  N   UNL A   1      32.211  30.094  25.349  1.00  0.00    -0.351 N 
ATOM      3  C   UNL A   1      32.216  28.927  24.628  1.00  0.00     0.261 C 
ATOM      4  O   UNL A   1      33.068  28.918  23.732  1.00  0.00    -0.268 OA
ATOM      5  H   UNL A   1      32.820  30.775  24.982  1.00  0.00     0.163 HD
BRANCH   3   6
ATOM      6  C   UNL A   1      31.255  27.837  24.816  1.00  0.00     0.096 A 
ATOM      7  C   UNL A   1      30.469  25.675  25.776  1.00  0.00     0.141 A 
ATOM      8  C   UNL A   1      29.642  26.137  24.781  1.00  0.00     0.038 A 
ATOM      9  S   UNL A   1      31.597  26.857  26.220  1.00  0.00    -0.116 S 
ATOM     10  C   UNL A   1      30.085  27.382  24.202  1.00  0.00    -0.026 A 
ATOM     11  C   UNL A   1      29.298  27.981  23.086  1.00  0.00     0.046 C 
BRANCH   7  12
ATOM     12  S   UNL A   1      30.599  24.076  26.542  1.00  0.00     0.271 S 
ATOM     13  O   UNL A   1      29.335  23.882  27.218  1.00  0.00    -0.200 OA
ATOM     14  O   UNL A   1      31.859  24.013  27.247  1.00  0.00    -0.200 OA
BRANCH  12  15
ATOM     15  N   UNL A   1      30.645  22.942  25.287  1.00  0.00    -0.279 N 
ATOM     16  H   UNL A   1      29.836  22.413  25.097  1.00  0.00     0.180 HD
BRANCH  15  17
ATOM     17  C   UNL A   1      31.821  22.721  24.489  1.00  0.00     0.056 A 
ATOM     18  C   UNL A   1      34.085  21.869  24.188  1.00  0.00     0.124 A 
ATOM     19  C   UNL A   1      32.850  21.848  24.838  1.00  0.00     0.073 A 
ATOM     20  C   UNL A   1      34.283  22.723  23.110  1.00  0.00     0.093 A 
ATOM     21  C   UNL A   1      33.255  23.583  22.718  1.00  0.00     0.124 A 
ATOM     22  C   UNL A   1      32.050  23.606  23.434  1.00  0.00     0.073 A 
BRANCH  18  23
ATOM     23  O   UNL A   1      35.014  20.998  24.691  1.00  0.00    -0.497 OA
ATOM     24  C   UNL A   1      35.806  21.498  25.763  1.00  0.00     0.278 C 
ENDBRANCH  18  23
BRANCH  21  25
ATOM     25  O   UNL A   1      33.317  24.467  21.674  1.00  0.00    -0.497 OA
ATOM     26  C   UNL A   1      33.075  25.834  21.990  1.00  0.00     0.278 C 
ENDBRANCH  21  25
ENDBRANCH  15  17
ENDBRANCH  12  15
ENDBRANCH   7  12
ENDBRANCH   3   6
ENDBRANCH   1   2
BRANCH   1  27
ATOM     27  C   UNL A   1      31.437  32.070  26.537  1.00  0.00     0.042 C 
BRANCH  27  28
ATOM     28  C   UNL A   1      32.743  32.743  26.954  1.00  0.00     0.118 C 
BRANCH  28  29
ATOM     29  N   UNL A   1      32.514  34.007  27.629  1.00  0.00    -0.352 N 
ATOM     30  C   UNL A   1      33.140  34.552  28.723  1.00  0.00     0.251 C 
ATOM     31  H   UNL A   1      31.797  34.561  27.241  1.00  0.00     0.163 HD
ATOM     32  O   UNL A   1      32.637  35.528  29.274  1.00  0.00    -0.269 OA
BRANCH  30  33
ATOM     33  C   UNL A   1      34.401  33.982  29.262  1.00  0.00     0.039 A 
ATOM     34  C   UNL A   1      35.612  34.355  28.667  1.00  0.00     0.014 A 
ATOM     35  C   UNL A   1      34.403  33.031  30.286  1.00  0.00     0.014 A 
ATOM     36  C   UNL A   1      36.818  33.813  29.123  1.00  0.00     0.010 A 
ATOM     37  C   UNL A   1      35.612  32.539  30.785  1.00  0.00     0.010 A 
ATOM     38  C   UNL A   1      36.831  32.915  30.200  1.00  0.00    -0.014 A 
BRANCH  38  39
ATOM     39  C   UNL A   1      38.101  32.334  30.709  1.00  0.00     0.031 A 
ATOM     40  C   UNL A   1      38.663  31.082  30.090  1.00  0.00     0.074 A 
ATOM     41  C   UNL A   1      38.724  32.892  31.765  1.00  0.00     0.049 A 
ATOM     42  N   UNL A   1      39.700  30.372  30.456  1.00  0.00    -0.248 NA
ATOM     43  C   UNL A   1      37.951  30.547  28.918  1.00  0.00     0.031 C 
ATOM     44  C   UNL A   1      38.278  34.088  32.481  1.00  0.00     0.029 A 
ATOM     45  N   UNL A   1      39.865  32.511  32.428  1.00  0.00    -0.354 N 
ATOM     46  C   UNL A   1      39.747  29.293  29.583  1.00  0.00     0.074 A 
ATOM     47  C   UNL A   1      38.620  29.427  28.684  1.00  0.00     0.031 C 
ATOM     48  C   UNL A   1      39.143  34.352  33.474  1.00  0.00     0.029 A 
ATOM     49  C   UNL A   1      40.184  33.327  33.485  1.00  0.00     0.049 A 
ATOM     50  H   UNL A   1      40.403  31.728  32.170  1.00  0.00     0.167 HD
ATOM     51  C   UNL A   1      40.649  28.284  29.524  1.00  0.00     0.031 A 
ATOM     52  C   UNL A   1      41.194  33.256  34.372  1.00  0.00     0.031 A 
ATOM     53  C   UNL A   1      41.789  28.156  30.391  1.00  0.00     0.049 A 
ATOM     54  C   UNL A   1      42.195  32.142  34.273  1.00  0.00     0.074 A 
ATOM     55  C   UNL A   1      42.784  27.193  30.372  1.00  0.00     0.029 A 
ATOM     56  N   UNL A   1      42.091  29.023  31.427  1.00  0.00    -0.354 N 
ATOM     57  N   UNL A   1      42.241  31.148  33.420  1.00  0.00    -0.248 NA
ATOM     58  C   UNL A   1      43.288  32.145  35.256  1.00  0.00     0.031 C 
ATOM     59  C   UNL A   1      43.676  27.465  31.416  1.00  0.00     0.029 A 
ATOM     60  C   UNL A   1      43.252  28.614  32.061  1.00  0.00     0.049 A 
ATOM     61  H   UNL A   1      41.558  29.813  31.676  1.00  0.00     0.167 HD
ATOM     62  C   UNL A   1      43.375  30.419  33.751  1.00  0.00     0.074 A 
ATOM     63  C   UNL A   1      43.995  31.089  34.875  1.00  0.00     0.031 C 
ATOM     64  C   UNL A   1      43.858  29.293  33.175  1.00  0.00     0.031 A 
BRANCH  51  65
ATOM     65  C   UNL A   1      40.429  27.227  28.479  1.00  0.00    -0.014 A 
ATOM     66  C   UNL A   1      39.651  26.092  28.750  1.00  0.00     0.009 A 
ATOM     67  C   UNL A   1      40.987  27.384  27.201  1.00  0.00     0.009 A 
ATOM     68  C   UNL A   1      39.463  25.115  27.770  1.00  0.00     0.001 A 
ATOM     69  C   UNL A   1      40.780  26.417  26.217  1.00  0.00     0.001 A 
ATOM     70  C   UNL A   1      40.025  25.280  26.504  1.00  0.00     0.000 A 
ENDBRANCH  51  65
BRANCH  52  71
ATOM     71  C   UNL A   1      41.317  34.286  35.433  1.00  0.00    -0.014 A 
ATOM     72  C   UNL A   1      40.692  34.102  36.675  1.00  0.00     0.009 A 
ATOM     73  C   UNL A   1      42.061  35.455  35.210  1.00  0.00     0.009 A 
ATOM     74  C   UNL A   1      40.795  35.078  37.668  1.00  0.00     0.001 A 
ATOM     75  C   UNL A   1      42.179  36.419  36.211  1.00  0.00     0.001 A 
ATOM     76  C   UNL A   1      41.541  36.233  37.437  1.00  0.00     0.000 A 
ENDBRANCH  52  71
BRANCH  64  77
ATOM     77  C   UNL A   1      45.133  28.731  33.732  1.00  0.00    -0.014 A 
ATOM     78  C   UNL A   1      45.118  27.859  34.831  1.00  0.00     0.009 A 
ATOM     79  C   UNL A   1      46.357  29.052  33.128  1.00  0.00     0.009 A 
ATOM     80  C   UNL A   1      46.313  27.338  35.330  1.00  0.00     0.001 A 
ATOM     81  C   UNL A   1      47.548  28.515  33.619  1.00  0.00     0.001 A 
ATOM     82  C   UNL A   1      47.526  27.664  34.722  1.00  0.00     0.000 A 
ENDBRANCH  64  77
ENDBRANCH  38  39
ENDBRANCH  30  33
ENDBRANCH  28  29
ENDBRANCH  27  28
ENDBRANCH   1  27
TORSDOF 15
ENDMDL
MODEL 3
REMARK VINA RESULT:     -11.4      0.875      5.903
REMARK SMILES COc1cc(NS(=O)(=O)c2cc(C)c(C(=O)NCCCNC(=O)c3ccc(-c4c5nc(c(-c6ccccc6)c6ccc([nH]6)c(-c6ccccc6)c6nc(c(-c7ccccc7)c7ccc4[nH]7)C=C6)C=C5)cc3)s2)cc(OC)c1
REMARK SMILES IDX 18 1 17 2 15 3 16 4 14 6 10 7 11 8 72 9 12 10 13 11 7 12
REMARK SMILES IDX 8 13 9 14 6 15 5 17 3 18 4 19 77 20 74 21 73 22 2 23 1 24
REMARK SMILES IDX 75 25 76 26 19 27 20 28 21 29 22 30 23 32 24 33 25 34 71 35
REMARK SMILES IDX 26 36 70 37 27 38 28 39 29 40 64 41 30 42 69 43 63 44 65 45
REMARK SMILES IDX 31 46 68 47 62 48 61 49 32 51 54 52 39 53 53 54 40 55 43 56
REMARK SMILES IDX 52 57 66 58 41 59 42 60 51 62 67 63 44 64 33 65 34 66 38 67
REMARK SMILES IDX 35 68 37 69 36 70 55 71 56 72 60 73 57 74 59 75 58 76 45 77
REMARK SMILES IDX 46 78 50 79 47 80 49 81 48 82
REMARK H PARENT 17 5 6 16 21 31 65 50 43 61
REMARK Flexibility Score: inf
ROOT
ATOM      1  C   UNL A   1      36.127  20.125  24.910  1.00  0.00     0.118 C 
ENDROOT
BRANCH   1   2
ATOM      2  N   UNL A   1      35.020  19.203  24.810  1.00  0.00    -0.351 N 
ATOM      3  C   UNL A   1      33.656  19.346  24.816  1.00  0.00     0.261 C 
ATOM      4  O   UNL A   1      33.057  18.264  24.820  1.00  0.00    -0.268 OA
ATOM      5  H   UNL A   1      35.307  18.266  24.715  1.00  0.00     0.163 HD
BRANCH   3   6
ATOM      6  C   UNL A   1      32.961  20.633  24.725  1.00  0.00     0.096 A 
ATOM      7  C   UNL A   1      31.889  22.680  25.660  1.00  0.00     0.141 A 
ATOM      8  C   UNL A   1      31.682  22.552  24.308  1.00  0.00     0.038 A 
ATOM      9  S   UNL A   1      33.037  21.559  26.203  1.00  0.00    -0.116 S 
ATOM     10  C   UNL A   1      32.284  21.366  23.747  1.00  0.00    -0.026 A 
ATOM     11  C   UNL A   1      32.108  21.086  22.294  1.00  0.00     0.046 C 
BRANCH   7  12
ATOM     12  S   UNL A   1      31.095  23.707  26.875  1.00  0.00     0.271 S 
ATOM     13  O   UNL A   1      32.168  24.175  27.726  1.00  0.00    -0.200 OA
ATOM     14  O   UNL A   1      29.960  22.986  27.405  1.00  0.00    -0.200 OA
BRANCH  12  15
ATOM     15  N   UNL A   1      30.514  25.065  26.052  1.00  0.00    -0.279 N 
ATOM     16  H   UNL A   1      29.589  25.055  25.714  1.00  0.00     0.180 HD
BRANCH  15  17
ATOM     17  C   UNL A   1      31.321  26.235  25.827  1.00  0.00     0.056 A 
ATOM     18  C   UNL A   1      31.913  28.557  26.277  1.00  0.00     0.124 A 
ATOM     19  C   UNL A   1      31.341  27.345  26.670  1.00  0.00     0.073 A 
ATOM     20  C   UNL A   1      32.555  28.650  25.048  1.00  0.00     0.093 A 
ATOM     21  C   UNL A   1      32.580  27.541  24.201  1.00  0.00     0.124 A 
ATOM     22  C   UNL A   1      31.929  26.357  24.576  1.00  0.00     0.073 A 
BRANCH  18  23
ATOM     23  O   UNL A   1      31.792  29.571  27.189  1.00  0.00    -0.497 OA
ATOM     24  C   UNL A   1      32.630  30.699  26.965  1.00  0.00     0.278 C 
ENDBRANCH  18  23
BRANCH  21  25
ATOM     25  O   UNL A   1      33.180  27.498  22.971  1.00  0.00    -0.497 OA
ATOM     26  C   UNL A   1      34.001  28.610  22.629  1.00  0.00     0.278 C 
ENDBRANCH  21  25
ENDBRANCH  15  17
ENDBRANCH  12  15
ENDBRANCH   7  12
ENDBRANCH   3   6
ENDBRANCH   1   2
BRANCH   1  27
ATOM     27  C   UNL A   1      37.447  19.355  24.869  1.00  0.00     0.042 C 
BRANCH  27  28
ATOM     28  C   UNL A   1      38.614  20.101  25.513  1.00  0.00     0.118 C 
BRANCH  28  29
ATOM     29  N   UNL A   1      39.762  19.238  25.724  1.00  0.00    -0.352 N 
ATOM     30  C   UNL A   1      41.052  19.552  26.077  1.00  0.00     0.251 C 
ATOM     31  H   UNL A   1      39.589  18.277  25.593  1.00  0.00     0.163 HD
ATOM     32  O   UNL A   1      41.924  18.694  25.975  1.00  0.00    -0.269 OA
BRANCH  30  33
ATOM     33  C   UNL A   1      41.417  20.907  26.565  1.00  0.00     0.039 A 
ATOM     34  C   UNL A   1      41.206  21.211  27.914  1.00  0.00     0.014 A 
ATOM     35  C   UNL A   1      41.886  21.901  25.702  1.00  0.00     0.014 A 
ATOM     36  C   UNL A   1      41.505  22.486  28.405  1.00  0.00     0.010 A 
ATOM     37  C   UNL A   1      42.245  23.154  26.204  1.00  0.00     0.010 A 
ATOM     38  C   UNL A   1      42.047  23.464  27.558  1.00  0.00    -0.014 A 
BRANCH  38  39
ATOM     39  C   UNL A   1      42.381  24.823  28.058  1.00  0.00     0.031 A 
ATOM     40  C   UNL A   1      43.791  25.156  28.464  1.00  0.00     0.074 A 
ATOM     41  C   UNL A   1      41.410  25.746  28.206  1.00  0.00     0.049 A 
ATOM     42  N   UNL A   1      44.258  26.249  29.013  1.00  0.00    -0.248 NA
ATOM     43  C   UNL A   1      44.806  24.114  28.242  1.00  0.00     0.031 C 
ATOM     44  C   UNL A   1      39.997  25.553  27.879  1.00  0.00     0.029 A 
ATOM     45  N   UNL A   1      41.470  27.032  28.684  1.00  0.00    -0.354 N 
ATOM     46  C   UNL A   1      45.609  26.015  29.232  1.00  0.00     0.074 A 
ATOM     47  C   UNL A   1      45.884  24.668  28.780  1.00  0.00     0.031 C 
ATOM     48  C   UNL A   1      39.326  26.684  28.153  1.00  0.00     0.029 A 
ATOM     49  C   UNL A   1      40.254  27.668  28.704  1.00  0.00     0.049 A 
ATOM     50  H   UNL A   1      42.306  27.458  28.984  1.00  0.00     0.167 HD
ATOM     51  C   UNL A   1      46.544  26.846  29.754  1.00  0.00     0.031 A 
ATOM     52  C   UNL A   1      39.917  28.901  29.126  1.00  0.00     0.031 A 
ATOM     53  C   UNL A   1      46.290  28.196  30.179  1.00  0.00     0.049 A 
ATOM     54  C   UNL A   1      40.974  29.813  29.679  1.00  0.00     0.074 A 
ATOM     55  C   UNL A   1      47.187  29.128  30.674  1.00  0.00     0.029 A 
ATOM     56  N   UNL A   1      45.049  28.810  30.151  1.00  0.00    -0.354 N 
ATOM     57  N   UNL A   1      42.254  29.585  29.848  1.00  0.00    -0.248 NA
ATOM     58  C   UNL A   1      40.540  31.156  30.093  1.00  0.00     0.031 C 
ATOM     59  C   UNL A   1      46.481  30.300  30.969  1.00  0.00     0.029 A 
ATOM     60  C   UNL A   1      45.154  30.106  30.628  1.00  0.00     0.049 A 
ATOM     61  H   UNL A   1      44.217  28.387  29.839  1.00  0.00     0.167 HD
ATOM     62  C   UNL A   1      42.779  30.760  30.370  1.00  0.00     0.074 A 
ATOM     63  C   UNL A   1      41.685  31.701  30.479  1.00  0.00     0.031 C 
ATOM     64  C   UNL A   1      44.057  31.031  30.728  1.00  0.00     0.031 A 
BRANCH  51  65
ATOM     65  C   UNL A   1      47.937  26.306  29.899  1.00  0.00    -0.014 A 
ATOM     66  C   UNL A   1      48.858  26.383  28.843  1.00  0.00     0.009 A 
ATOM     67  C   UNL A   1      48.341  25.736  31.116  1.00  0.00     0.009 A 
ATOM     68  C   UNL A   1      50.147  25.868  28.992  1.00  0.00     0.001 A 
ATOM     69  C   UNL A   1      49.637  25.242  31.269  1.00  0.00     0.001 A 
ATOM     70  C   UNL A   1      50.536  25.301  30.204  1.00  0.00     0.000 A 
ENDBRANCH  51  65
BRANCH  52  71
ATOM     71  C   UNL A   1      38.508  29.354  29.031  1.00  0.00    -0.014 A 
ATOM     72  C   UNL A   1      37.650  29.236  30.134  1.00  0.00     0.009 A 
ATOM     73  C   UNL A   1      38.015  29.907  27.839  1.00  0.00     0.009 A 
ATOM     74  C   UNL A   1      36.319  29.649  30.040  1.00  0.00     0.001 A 
ATOM     75  C   UNL A   1      36.690  30.337  27.754  1.00  0.00     0.001 A 
ATOM     76  C   UNL A   1      35.842  30.201  28.853  1.00  0.00     0.000 A 
ENDBRANCH  52  71
BRANCH  64  77
ATOM     77  C   UNL A   1      44.345  32.410  31.244  1.00  0.00    -0.014 A 
ATOM     78  C   UNL A   1      44.682  33.453  30.367  1.00  0.00     0.009 A 
ATOM     79  C   UNL A   1      44.243  32.675  32.617  1.00  0.00     0.009 A 
ATOM     80  C   UNL A   1      44.937  34.732  30.864  1.00  0.00     0.001 A 
ATOM     81  C   UNL A   1      44.480  33.960  33.107  1.00  0.00     0.001 A 
ATOM     82  C   UNL A   1      44.833  34.985  32.231  1.00  0.00     0.000 A 
ENDBRANCH  64  77
ENDBRANCH  38  39
ENDBRANCH  30  33
ENDBRANCH  28  29
ENDBRANCH  27  28
ENDBRANCH   1  27
TORSDOF 15
ENDMDL
