MODEL 1
REMARK VINA RESULT:     -10.8      0.000      0.000
REMARK SMILES O=C(NCCCNC(=O)c1ccc([C@@H]2CCC[N@@H+](CCN3CCCC3=O)C2)cc1)c1ccc(-c2c3nc(c(-c4ccccc4)c4ccc([nH]4)c(-c4ccccc4)c4nc(c(-c5ccccc5)c5ccc2[nH]5)C=C4)C=C3)cc1
REMARK SMILES IDX 6 1 5 2 4 3 3 4 1 5 2 6 30 8 31 9 77 10 32 11 76 12 33 13
REMARK SMILES IDX 34 14 35 15 70 16 36 17 75 18 69 19 71 20 37 21 74 22 68 23
REMARK SMILES IDX 67 24 38 26 60 27 45 28 59 29 46 30 49 31 58 32 72 33 47 34
REMARK SMILES IDX 48 35 57 37 73 38 50 39 39 40 40 41 44 42 41 43 43 44 42 45
REMARK SMILES IDX 61 46 62 47 66 48 63 49 65 50 64 51 51 52 52 53 56 54 53 55
REMARK SMILES IDX 55 56 54 57 7 58 8 59 9 61 10 62 11 63 29 64 12 65 28 66
REMARK SMILES IDX 13 67 14 68 15 69 27 70 16 71 18 72 17 73 19 75 20 76 21 77
REMARK SMILES IDX 22 78 25 79 23 80 24 81 26 82
REMARK H PARENT 3 7 71 25 49 36 7 60 18 74
REMARK Flexibility Score: inf
ROOT
ATOM      1  C   UNL A   1      34.765  21.761  26.790  1.00  0.00     0.118 C 
ENDROOT
BRANCH   1   2
ATOM      2  C   UNL A   1      35.362  22.591  25.670  1.00  0.00     0.042 C 
BRANCH   2   3
ATOM      3  C   UNL A   1      36.652  23.283  26.069  1.00  0.00     0.118 C 
BRANCH   3   4
ATOM      4  N   UNL A   1      37.796  22.379  26.053  1.00  0.00    -0.352 N 
ATOM      5  O   UNL A   1      39.975  21.799  26.017  1.00  0.00    -0.269 OA
ATOM      6  C   UNL A   1      39.123  22.639  26.288  1.00  0.00     0.251 C 
ATOM      7  H   UNL A   1      37.585  21.442  25.840  1.00  0.00     0.163 HD
BRANCH   6   8
ATOM      8  C   UNL A   1      39.521  23.940  26.859  1.00  0.00     0.039 A 
ATOM      9  C   UNL A   1      39.340  24.194  28.220  1.00  0.00     0.014 A 
ATOM     10  C   UNL A   1      40.094  24.910  26.032  1.00  0.00     0.014 A 
ATOM     11  C   UNL A   1      39.574  25.463  28.723  1.00  0.00     0.010 A 
ATOM     12  C   UNL A   1      40.444  26.151  26.568  1.00  0.00     0.010 A 
ATOM     13  C   UNL A   1      40.169  26.441  27.913  1.00  0.00    -0.014 A 
BRANCH  13  14
ATOM     14  C   UNL A   1      40.606  27.713  28.534  1.00  0.00     0.031 A 
ATOM     15  C   UNL A   1      42.013  27.906  29.012  1.00  0.00     0.074 A 
ATOM     16  C   UNL A   1      39.697  28.701  28.654  1.00  0.00     0.049 A 
ATOM     17  N   UNL A   1      42.540  28.952  29.600  1.00  0.00    -0.248 NA
ATOM     18  C   UNL A   1      42.951  26.790  28.819  1.00  0.00     0.031 C 
ATOM     19  C   UNL A   1      38.295  28.616  28.224  1.00  0.00     0.029 A 
ATOM     20  N   UNL A   1      39.809  29.968  29.161  1.00  0.00    -0.354 N 
ATOM     21  C   UNL A   1      43.858  28.611  29.871  1.00  0.00     0.074 A 
ATOM     22  C   UNL A   1      44.051  27.257  29.396  1.00  0.00     0.031 C 
ATOM     23  C   UNL A   1      37.693  29.791  28.448  1.00  0.00     0.029 A 
ATOM     24  C   UNL A   1      38.635  30.680  29.113  1.00  0.00     0.049 A 
ATOM     25  H   UNL A   1      40.648  30.332  29.525  1.00  0.00     0.167 HD
ATOM     26  C   UNL A   1      44.814  29.363  30.466  1.00  0.00     0.031 A 
ATOM     27  C   UNL A   1      38.334  31.901  29.586  1.00  0.00     0.031 A 
ATOM     28  C   UNL A   1      44.609  30.712  30.929  1.00  0.00     0.049 A 
ATOM     29  C   UNL A   1      39.403  32.687  30.284  1.00  0.00     0.074 A 
ATOM     30  C   UNL A   1      45.531  31.577  31.493  1.00  0.00     0.029 A 
ATOM     31  N   UNL A   1      43.398  31.385  30.895  1.00  0.00    -0.354 N 
ATOM     32  N   UNL A   1      40.659  32.373  30.481  1.00  0.00    -0.248 NA
ATOM     33  C   UNL A   1      39.011  33.992  30.830  1.00  0.00     0.031 C 
ATOM     34  C   UNL A   1      44.862  32.748  31.862  1.00  0.00     0.029 A 
ATOM     35  C   UNL A   1      43.537  32.637  31.469  1.00  0.00     0.049 A 
ATOM     36  H   UNL A   1      42.562  31.026  30.517  1.00  0.00     0.167 HD
ATOM     37  C   UNL A   1      41.213  33.445  31.163  1.00  0.00     0.074 A 
ATOM     38  C   UNL A   1      40.161  34.430  31.320  1.00  0.00     0.031 C 
ATOM     39  C   UNL A   1      42.477  33.599  31.623  1.00  0.00     0.031 A 
BRANCH  26  40
ATOM     40  C   UNL A   1      46.164  28.740  30.692  1.00  0.00    -0.014 A 
ATOM     41  C   UNL A   1      47.195  28.856  29.747  1.00  0.00     0.009 A 
ATOM     42  C   UNL A   1      46.428  28.089  31.907  1.00  0.00     0.009 A 
ATOM     43  C   UNL A   1      48.456  28.312  30.006  1.00  0.00     0.001 A 
ATOM     44  C   UNL A   1      47.696  27.568  32.175  1.00  0.00     0.001 A 
ATOM     45  C   UNL A   1      48.707  27.675  31.221  1.00  0.00     0.000 A 
ENDBRANCH  26  40
BRANCH  27  46
ATOM     46  C   UNL A   1      36.948  32.423  29.461  1.00  0.00    -0.014 A 
ATOM     47  C   UNL A   1      36.572  33.205  28.359  1.00  0.00     0.009 A 
ATOM     48  C   UNL A   1      35.992  32.136  30.449  1.00  0.00     0.009 A 
ATOM     49  C   UNL A   1      35.272  33.709  28.265  1.00  0.00     0.001 A 
ATOM     50  C   UNL A   1      34.686  32.612  30.334  1.00  0.00     0.001 A 
ATOM     51  C   UNL A   1      34.330  33.408  29.247  1.00  0.00     0.000 A 
ENDBRANCH  27  46
BRANCH  39  52
ATOM     52  C   UNL A   1      42.794  34.890  32.322  1.00  0.00    -0.014 A 
ATOM     53  C   UNL A   1      42.552  35.048  33.695  1.00  0.00     0.009 A 
ATOM     54  C   UNL A   1      43.380  35.944  31.605  1.00  0.00     0.009 A 
ATOM     55  C   UNL A   1      42.865  36.251  34.330  1.00  0.00     0.001 A 
ATOM     56  C   UNL A   1      43.720  37.133  32.250  1.00  0.00     0.001 A 
ATOM     57  C   UNL A   1      43.454  37.288  33.609  1.00  0.00     0.000 A 
ENDBRANCH  39  52
ENDBRANCH  13  14
ENDBRANCH   6   8
ENDBRANCH   3   4
ENDBRANCH   2   3
ENDBRANCH   1   2
BRANCH   1  58
ATOM     58  N   UNL A   1      34.130  20.553  26.287  1.00  0.00    -0.352 N 
ATOM     59  C   UNL A   1      32.960  20.433  25.585  1.00  0.00     0.251 C 
ATOM     60  H   UNL A   1      34.603  19.711  26.476  1.00  0.00     0.163 HD
ATOM     61  O   UNL A   1      32.451  19.330  25.411  1.00  0.00    -0.269 OA
BRANCH  59  62
ATOM     62  C   UNL A   1      32.321  21.642  25.033  1.00  0.00     0.039 A 
ATOM     63  C   UNL A   1      32.510  21.957  23.689  1.00  0.00     0.014 A 
ATOM     64  C   UNL A   1      31.572  22.481  25.861  1.00  0.00     0.014 A 
ATOM     65  C   UNL A   1      31.969  23.137  23.179  1.00  0.00     0.005 A 
ATOM     66  C   UNL A   1      30.993  23.630  25.337  1.00  0.00     0.005 A 
ATOM     67  C   UNL A   1      31.252  24.012  24.012  1.00  0.00    -0.039 A 
BRANCH  67  68
ATOM     68  C   UNL A   1      30.842  25.379  23.483  1.00  0.00     0.074 C 
ATOM     69  C   UNL A   1      31.172  25.538  21.979  1.00  0.00     0.020 C 
ATOM     70  C   UNL A   1      31.404  26.512  24.368  1.00  0.00     0.270 C 
ATOM     71  C   UNL A   1      32.107  26.710  21.720  1.00  0.00     0.062 C 
ATOM     72  N   UNL A   1      31.360  27.843  23.782  1.00  0.00    -0.333 N 
ATOM     73  C   UNL A   1      31.504  27.966  22.343  1.00  0.00     0.262 C 
ATOM     74  H   UNL A   1      32.303  28.143  24.028  1.00  0.00     0.348 HD
BRANCH  72  75
ATOM     75  C   UNL A   1      30.622  28.881  24.498  1.00  0.00     0.284 C 
BRANCH  75  76
ATOM     76  C   UNL A   1      31.396  30.049  25.147  1.00  0.00     0.180 C 
BRANCH  76  77
ATOM     77  N   UNL A   1      32.654  29.856  25.871  1.00  0.00    -0.337 N 
ATOM     78  C   UNL A   1      32.819  30.507  27.153  1.00  0.00     0.120 C 
ATOM     79  C   UNL A   1      33.748  29.044  25.588  1.00  0.00     0.222 C 
ATOM     80  C   UNL A   1      34.247  30.197  27.559  1.00  0.00     0.031 C 
ATOM     81  C   UNL A   1      34.494  28.862  26.891  1.00  0.00     0.102 C 
ATOM     82  O   UNL A   1      34.081  28.533  24.549  1.00  0.00    -0.275 OA
ENDBRANCH  76  77
ENDBRANCH  75  76
ENDBRANCH  72  75
ENDBRANCH  67  68
ENDBRANCH  59  62
ENDBRANCH   1  58
TORSDOF 14
ENDMDL
MODEL 2
REMARK VINA RESULT:     -10.8      3.218      7.030
REMARK SMILES O=C(NCCCNC(=O)c1ccc([C@@H]2CCC[N@@H+](CCN3CCCC3=O)C2)cc1)c1ccc(-c2c3nc(c(-c4ccccc4)c4ccc([nH]4)c(-c4ccccc4)c4nc(c(-c5ccccc5)c5ccc2[nH]5)C=C4)C=C3)cc1
REMARK SMILES IDX 6 1 5 2 4 3 3 4 1 5 2 6 30 8 31 9 77 10 32 11 76 12 33 13
REMARK SMILES IDX 34 14 35 15 70 16 36 17 75 18 69 19 71 20 37 21 74 22 68 23
REMARK SMILES IDX 67 24 38 26 60 27 45 28 59 29 46 30 49 31 58 32 72 33 47 34
REMARK SMILES IDX 48 35 57 37 73 38 50 39 39 40 40 41 44 42 41 43 43 44 42 45
REMARK SMILES IDX 61 46 62 47 66 48 63 49 65 50 64 51 51 52 52 53 56 54 53 55
REMARK SMILES IDX 55 56 54 57 7 58 8 59 9 61 10 62 11 63 29 64 12 65 28 66
REMARK SMILES IDX 13 67 14 68 15 69 27 70 16 71 18 72 17 73 19 75 20 76 21 77
REMARK SMILES IDX 22 78 25 79 23 80 24 81 26 82
REMARK H PARENT 3 7 71 25 49 36 7 60 18 74
REMARK Flexibility Score: inf
ROOT
ATOM      1  C   UNL A   1      38.781  22.390  26.156  1.00  0.00     0.118 C 
ENDROOT
BRANCH   1   2
ATOM      2  C   UNL A   1      40.074  21.973  26.829  1.00  0.00     0.042 C 
BRANCH   2   3
ATOM      3  C   UNL A   1      40.905  23.153  27.297  1.00  0.00     0.118 C 
BRANCH   3   4
ATOM      4  N   UNL A   1      41.449  23.926  26.188  1.00  0.00    -0.352 N 
ATOM      5  O   UNL A   1      41.827  25.760  24.931  1.00  0.00    -0.269 OA
ATOM      6  C   UNL A   1      41.537  25.286  26.025  1.00  0.00     0.251 C 
ATOM      7  H   UNL A   1      41.806  23.392  25.442  1.00  0.00     0.163 HD
BRANCH   6   8
ATOM      8  C   UNL A   1      41.271  26.176  27.172  1.00  0.00     0.039 A 
ATOM      9  C   UNL A   1      42.114  27.258  27.430  1.00  0.00     0.014 A 
ATOM     10  C   UNL A   1      40.162  25.937  27.987  1.00  0.00     0.014 A 
ATOM     11  C   UNL A   1      41.951  28.000  28.589  1.00  0.00     0.010 A 
ATOM     12  C   UNL A   1      39.927  26.763  29.088  1.00  0.00     0.010 A 
ATOM     13  C   UNL A   1      40.832  27.788  29.406  1.00  0.00    -0.014 A 
BRANCH  13  14
ATOM     14  C   UNL A   1      40.567  28.735  30.513  1.00  0.00     0.031 A 
ATOM     15  C   UNL A   1      39.476  29.759  30.422  1.00  0.00     0.074 A 
ATOM     16  C   UNL A   1      41.338  28.648  31.615  1.00  0.00     0.049 A 
ATOM     17  N   UNL A   1      39.139  30.674  31.297  1.00  0.00    -0.248 NA
ATOM     18  C   UNL A   1      38.661  29.770  29.198  1.00  0.00     0.031 C 
ATOM     19  C   UNL A   1      42.433  27.689  31.807  1.00  0.00     0.029 A 
ATOM     20  N   UNL A   1      41.320  29.363  32.783  1.00  0.00    -0.354 N 
ATOM     21  C   UNL A   1      38.096  31.386  30.720  1.00  0.00     0.074 A 
ATOM     22  C   UNL A   1      37.862  30.807  29.414  1.00  0.00     0.031 C 
ATOM     23  C   UNL A   1      42.951  27.849  33.031  1.00  0.00     0.029 A 
ATOM     24  C   UNL A   1      42.288  28.972  33.677  1.00  0.00     0.049 A 
ATOM     25  H   UNL A   1      40.677  30.086  32.964  1.00  0.00     0.167 HD
ATOM     26  C   UNL A   1      37.405  32.430  31.236  1.00  0.00     0.031 A 
ATOM     27  C   UNL A   1      42.633  29.484  34.870  1.00  0.00     0.031 A 
ATOM     28  C   UNL A   1      37.646  32.992  32.540  1.00  0.00     0.049 A 
ATOM     29  C   UNL A   1      41.880  30.671  35.390  1.00  0.00     0.074 A 
ATOM     30  C   UNL A   1      36.962  34.013  33.177  1.00  0.00     0.029 A 
ATOM     31  N   UNL A   1      38.658  32.592  33.400  1.00  0.00    -0.354 N 
ATOM     32  N   UNL A   1      40.859  31.296  34.857  1.00  0.00    -0.248 NA
ATOM     33  C   UNL A   1      42.329  31.226  36.672  1.00  0.00     0.031 C 
ATOM     34  C   UNL A   1      37.601  34.276  34.392  1.00  0.00     0.029 A 
ATOM     35  C   UNL A   1      38.645  33.376  34.541  1.00  0.00     0.049 A 
ATOM     36  H   UNL A   1      39.292  31.859  33.225  1.00  0.00     0.167 HD
ATOM     37  C   UNL A   1      40.535  32.311  35.744  1.00  0.00     0.074 A 
ATOM     38  C   UNL A   1      41.450  32.200  36.862  1.00  0.00     0.031 C 
ATOM     39  C   UNL A   1      39.569  33.255  35.639  1.00  0.00     0.031 A 
BRANCH  26  40
ATOM     40  C   UNL A   1      36.343  33.065  30.383  1.00  0.00    -0.014 A 
ATOM     41  C   UNL A   1      36.653  34.058  29.441  1.00  0.00     0.009 A 
ATOM     42  C   UNL A   1      35.019  32.607  30.475  1.00  0.00     0.009 A 
ATOM     43  C   UNL A   1      35.653  34.594  28.625  1.00  0.00     0.001 A 
ATOM     44  C   UNL A   1      34.027  33.126  29.641  1.00  0.00     0.001 A 
ATOM     45  C   UNL A   1      34.344  34.124  28.720  1.00  0.00     0.000 A 
ENDBRANCH  26  40
BRANCH  27  46
ATOM     46  C   UNL A   1      43.780  28.908  35.619  1.00  0.00    -0.014 A 
ATOM     47  C   UNL A   1      45.084  29.377  35.409  1.00  0.00     0.009 A 
ATOM     48  C   UNL A   1      43.569  27.881  36.556  1.00  0.00     0.009 A 
ATOM     49  C   UNL A   1      46.156  28.811  36.103  1.00  0.00     0.001 A 
ATOM     50  C   UNL A   1      44.638  27.343  37.272  1.00  0.00     0.001 A 
ATOM     51  C   UNL A   1      45.933  27.800  37.036  1.00  0.00     0.000 A 
ENDBRANCH  27  46
BRANCH  39  52
ATOM     52  C   UNL A   1      39.443  34.228  36.775  1.00  0.00    -0.014 A 
ATOM     53  C   UNL A   1      38.741  33.892  37.943  1.00  0.00     0.009 A 
ATOM     54  C   UNL A   1      40.070  35.481  36.691  1.00  0.00     0.009 A 
ATOM     55  C   UNL A   1      38.646  34.806  38.994  1.00  0.00     0.001 A 
ATOM     56  C   UNL A   1      39.999  36.379  37.755  1.00  0.00     0.001 A 
ATOM     57  C   UNL A   1      39.280  36.044  38.902  1.00  0.00     0.000 A 
ENDBRANCH  39  52
ENDBRANCH  13  14
ENDBRANCH   6   8
ENDBRANCH   3   4
ENDBRANCH   2   3
ENDBRANCH   1   2
BRANCH   1  58
ATOM     58  N   UNL A   1      38.123  21.266  25.508  1.00  0.00    -0.352 N 
ATOM     59  C   UNL A   1      36.792  21.102  25.229  1.00  0.00     0.251 C 
ATOM     60  H   UNL A   1      38.712  20.527  25.234  1.00  0.00     0.163 HD
ATOM     61  O   UNL A   1      36.364  20.010  24.865  1.00  0.00    -0.269 OA
BRANCH  59  62
ATOM     62  C   UNL A   1      35.879  22.251  25.361  1.00  0.00     0.039 A 
ATOM     63  C   UNL A   1      35.081  22.358  26.499  1.00  0.00     0.014 A 
ATOM     64  C   UNL A   1      35.786  23.197  24.337  1.00  0.00     0.014 A 
ATOM     65  C   UNL A   1      34.164  23.404  26.597  1.00  0.00     0.005 A 
ATOM     66  C   UNL A   1      34.906  24.265  24.461  1.00  0.00     0.005 A 
ATOM     67  C   UNL A   1      34.028  24.335  25.554  1.00  0.00    -0.039 A 
BRANCH  67  68
ATOM     68  C   UNL A   1      32.890  25.345  25.597  1.00  0.00     0.074 C 
ATOM     69  C   UNL A   1      31.804  24.946  26.624  1.00  0.00     0.020 C 
ATOM     70  C   UNL A   1      32.339  25.626  24.183  1.00  0.00     0.270 C 
ATOM     71  C   UNL A   1      30.438  24.777  25.976  1.00  0.00     0.062 C 
ATOM     72  N   UNL A   1      31.054  26.306  24.138  1.00  0.00    -0.333 N 
ATOM     73  C   UNL A   1      30.102  26.049  25.203  1.00  0.00     0.262 C 
ATOM     74  H   UNL A   1      30.606  25.726  23.428  1.00  0.00     0.348 HD
BRANCH  72  75
ATOM     75  C   UNL A   1      30.982  27.584  23.433  1.00  0.00     0.284 C 
BRANCH  75  76
ATOM     76  C   UNL A   1      29.644  28.024  22.798  1.00  0.00     0.180 C 
BRANCH  76  77
ATOM     77  N   UNL A   1      28.980  29.280  23.149  1.00  0.00    -0.337 N 
ATOM     78  C   UNL A   1      29.800  30.446  23.401  1.00  0.00     0.120 C 
ATOM     79  C   UNL A   1      27.629  29.609  23.202  1.00  0.00     0.222 C 
ATOM     80  C   UNL A   1      28.820  31.516  23.844  1.00  0.00     0.031 C 
ATOM     81  C   UNL A   1      27.554  31.118  23.118  1.00  0.00     0.102 C 
ATOM     82  O   UNL A   1      26.663  28.893  23.271  1.00  0.00    -0.275 OA
ENDBRANCH  76  77
ENDBRANCH  75  76
ENDBRANCH  72  75
ENDBRANCH  67  68
ENDBRANCH  59  62
ENDBRANCH   1  58
TORSDOF 14
ENDMDL
MODEL 3
REMARK VINA RESULT:     -10.7      5.029      7.162
REMARK SMILES O=C(NCCCNC(=O)c1ccc([C@@H]2CCC[N@@H+](CCN3CCCC3=O)C2)cc1)c1ccc(-c2c3nc(c(-c4ccccc4)c4ccc([nH]4)c(-c4ccccc4)c4nc(c(-c5ccccc5)c5ccc2[nH]5)C=C4)C=C3)cc1
REMARK SMILES IDX 6 1 5 2 4 3 3 4 1 5 2 6 30 8 31 9 77 10 32 11 76 12 33 13
REMARK SMILES IDX 34 14 35 15 70 16 36 17 75 18 69 19 71 20 37 21 74 22 68 23
REMARK SMILES IDX 67 24 38 26 60 27 45 28 59 29 46 30 49 31 58 32 72 33 47 34
REMARK SMILES IDX 48 35 57 37 73 38 50 39 39 40 40 41 44 42 41 43 43 44 42 45
REMARK SMILES IDX 61 46 62 47 66 48 63 49 65 50 64 51 51 52 52 53 56 54 53 55
REMARK SMILES IDX 55 56 54 57 7 58 8 59 9 61 10 62 11 63 29 64 12 65 28 66
REMARK SMILES IDX 13 67 14 68 15 69 27 70 16 71 18 72 17 73 19 75 20 76 21 77
REMARK SMILES IDX 22 78 25 79 23 80 24 81 26 82
REMARK H PARENT 3 7 71 25 49 36 7 60 18 74
REMARK Flexibility Score: inf
ROOT
ATOM      1  C   UNL A   1      42.962  22.299  25.394  1.00  0.00     0.118 C 
ENDROOT
BRANCH   1   2
ATOM      2  C   UNL A   1      44.432  22.120  25.718  1.00  0.00     0.042 C 
BRANCH   2   3
ATOM      3  C   UNL A   1      45.056  23.357  26.338  1.00  0.00     0.118 C 
BRANCH   3   4
ATOM      4  N   UNL A   1      45.795  24.153  25.367  1.00  0.00    -0.352 N 
ATOM      5  O   UNL A   1      46.404  26.016  24.252  1.00  0.00    -0.269 OA
ATOM      6  C   UNL A   1      45.919  25.516  25.261  1.00  0.00     0.251 C 
ATOM      7  H   UNL A   1      46.278  23.635  24.683  1.00  0.00     0.163 HD
BRANCH   6   8
ATOM      8  C   UNL A   1      45.455  26.377  26.366  1.00  0.00     0.039 A 
ATOM      9  C   UNL A   1      44.099  26.683  26.495  1.00  0.00     0.014 A 
ATOM     10  C   UNL A   1      46.380  26.871  27.290  1.00  0.00     0.014 A 
ATOM     11  C   UNL A   1      43.687  27.609  27.439  1.00  0.00     0.010 A 
ATOM     12  C   UNL A   1      45.944  27.709  28.318  1.00  0.00     0.010 A 
ATOM     13  C   UNL A   1      44.597  28.098  28.388  1.00  0.00    -0.014 A 
BRANCH  13  14
ATOM     14  C   UNL A   1      44.086  28.913  29.514  1.00  0.00     0.031 A 
ATOM     15  C   UNL A   1      43.810  28.306  30.856  1.00  0.00     0.074 A 
ATOM     16  C   UNL A   1      43.877  30.227  29.297  1.00  0.00     0.049 A 
ATOM     17  N   UNL A   1      43.336  28.884  31.932  1.00  0.00    -0.248 NA
ATOM     18  C   UNL A   1      44.090  26.872  31.019  1.00  0.00     0.031 C 
ATOM     19  C   UNL A   1      44.110  30.921  28.024  1.00  0.00     0.029 A 
ATOM     20  N   UNL A   1      43.434  31.216  30.134  1.00  0.00    -0.354 N 
ATOM     21  C   UNL A   1      43.235  27.882  32.888  1.00  0.00     0.074 A 
ATOM     22  C   UNL A   1      43.684  26.656  32.264  1.00  0.00     0.031 C 
ATOM     23  C   UNL A   1      43.847  32.224  28.177  1.00  0.00     0.029 A 
ATOM     24  C   UNL A   1      43.347  32.446  29.527  1.00  0.00     0.049 A 
ATOM     25  H   UNL A   1      43.200  31.061  31.077  1.00  0.00     0.167 HD
ATOM     26  C   UNL A   1      42.801  27.982  34.167  1.00  0.00     0.031 A 
ATOM     27  C   UNL A   1      42.880  33.618  29.989  1.00  0.00     0.031 A 
ATOM     28  C   UNL A   1      42.362  29.211  34.776  1.00  0.00     0.049 A 
ATOM     29  C   UNL A   1      42.361  33.682  31.394  1.00  0.00     0.074 A 
ATOM     30  C   UNL A   1      41.958  29.427  36.083  1.00  0.00     0.029 A 
ATOM     31  N   UNL A   1      42.254  30.427  34.119  1.00  0.00    -0.354 N 
ATOM     32  N   UNL A   1      42.326  32.739  32.302  1.00  0.00    -0.248 NA
ATOM     33  C   UNL A   1      41.813  34.970  31.835  1.00  0.00     0.031 C 
ATOM     34  C   UNL A   1      41.543  30.757  36.197  1.00  0.00     0.029 A 
ATOM     35  C   UNL A   1      41.748  31.386  34.979  1.00  0.00     0.049 A 
ATOM     36  H   UNL A   1      42.502  30.586  33.178  1.00  0.00     0.167 HD
ATOM     37  C   UNL A   1      41.763  33.321  33.428  1.00  0.00     0.074 A 
ATOM     38  C   UNL A   1      41.499  34.707  33.095  1.00  0.00     0.031 C 
ATOM     39  C   UNL A   1      41.485  32.757  34.628  1.00  0.00     0.031 A 
BRANCH  26  40
ATOM     40  C   UNL A   1      42.739  26.727  34.993  1.00  0.00    -0.014 A 
ATOM     41  C   UNL A   1      43.841  26.283  35.739  1.00  0.00     0.009 A 
ATOM     42  C   UNL A   1      41.530  26.019  35.080  1.00  0.00     0.009 A 
ATOM     43  C   UNL A   1      43.739  25.142  36.539  1.00  0.00     0.001 A 
ATOM     44  C   UNL A   1      41.423  24.894  35.900  1.00  0.00     0.001 A 
ATOM     45  C   UNL A   1      42.530  24.452  36.624  1.00  0.00     0.000 A 
ENDBRANCH  26  40
BRANCH  27  46
ATOM     46  C   UNL A   1      42.834  34.802  29.093  1.00  0.00    -0.014 A 
ATOM     47  C   UNL A   1      43.953  35.633  28.943  1.00  0.00     0.009 A 
ATOM     48  C   UNL A   1      41.662  35.104  28.380  1.00  0.00     0.009 A 
ATOM     49  C   UNL A   1      43.890  36.757  28.115  1.00  0.00     0.001 A 
ATOM     50  C   UNL A   1      41.614  36.208  27.528  1.00  0.00     0.001 A 
ATOM     51  C   UNL A   1      42.724  37.040  27.405  1.00  0.00     0.000 A 
ENDBRANCH  27  46
BRANCH  39  52
ATOM     52  C   UNL A   1      40.880  33.649  35.674  1.00  0.00    -0.014 A 
ATOM     53  C   UNL A   1      41.687  34.444  36.503  1.00  0.00     0.009 A 
ATOM     54  C   UNL A   1      39.485  33.724  35.803  1.00  0.00     0.009 A 
ATOM     55  C   UNL A   1      41.106  35.275  37.461  1.00  0.00     0.001 A 
ATOM     56  C   UNL A   1      38.907  34.579  36.740  1.00  0.00     0.001 A 
ATOM     57  C   UNL A   1      39.718  35.347  37.574  1.00  0.00     0.000 A 
ENDBRANCH  39  52
ENDBRANCH  13  14
ENDBRANCH   6   8
ENDBRANCH   3   4
ENDBRANCH   2   3
ENDBRANCH   1   2
BRANCH   1  58
ATOM     58  N   UNL A   1      42.126  21.386  26.158  1.00  0.00    -0.352 N 
ATOM     59  C   UNL A   1      41.257  21.676  27.176  1.00  0.00     0.251 C 
ATOM     60  H   UNL A   1      42.193  20.436  25.910  1.00  0.00     0.163 HD
ATOM     61  O   UNL A   1      40.778  20.774  27.859  1.00  0.00    -0.269 OA
BRANCH  59  62
ATOM     62  C   UNL A   1      40.895  23.080  27.441  1.00  0.00     0.039 A 
ATOM     63  C   UNL A   1      41.759  23.874  28.191  1.00  0.00     0.014 A 
ATOM     64  C   UNL A   1      39.680  23.592  26.979  1.00  0.00     0.014 A 
ATOM     65  C   UNL A   1      41.390  25.182  28.506  1.00  0.00     0.005 A 
ATOM     66  C   UNL A   1      39.337  24.910  27.253  1.00  0.00     0.005 A 
ATOM     67  C   UNL A   1      40.150  25.693  28.087  1.00  0.00    -0.039 A 
BRANCH  67  68
ATOM     68  C   UNL A   1      39.686  27.047  28.606  1.00  0.00     0.074 C 
ATOM     69  C   UNL A   1      39.700  28.126  27.497  1.00  0.00     0.020 C 
ATOM     70  C   UNL A   1      40.457  27.452  29.880  1.00  0.00     0.270 C 
ATOM     71  C   UNL A   1      40.600  29.300  27.852  1.00  0.00     0.062 C 
ATOM     72  N   UNL A   1      40.338  28.849  30.265  1.00  0.00    -0.333 N 
ATOM     73  C   UNL A   1      40.183  29.841  29.217  1.00  0.00     0.262 C 
ATOM     74  H   UNL A   1      41.321  29.031  30.466  1.00  0.00     0.348 HD
BRANCH  72  75
ATOM     75  C   UNL A   1      39.800  29.148  31.591  1.00  0.00     0.284 C 
BRANCH  75  76
ATOM     76  C   UNL A   1      39.518  30.617  31.979  1.00  0.00     0.180 C 
BRANCH  76  77
ATOM     77  N   UNL A   1      38.171  31.109  32.274  1.00  0.00    -0.337 N 
ATOM     78  C   UNL A   1      38.017  32.485  32.695  1.00  0.00     0.120 C 
ATOM     79  C   UNL A   1      36.930  30.496  32.132  1.00  0.00     0.222 C 
ATOM     80  C   UNL A   1      36.542  32.622  33.024  1.00  0.00     0.031 C 
ATOM     81  C   UNL A   1      35.906  31.609  32.098  1.00  0.00     0.102 C 
ATOM     82  O   UNL A   1      36.654  29.328  32.025  1.00  0.00    -0.275 OA
ENDBRANCH  76  77
ENDBRANCH  75  76
ENDBRANCH  72  75
ENDBRANCH  67  68
ENDBRANCH  59  62
ENDBRANCH   1  58
TORSDOF 14
ENDMDL
