MODEL 1
REMARK VINA RESULT:     -10.3      0.000      0.000
REMARK SMILES Cc1ccc(C(=O)N2CCC(CC(=O)NCCCNC(=O)c3ccc(-c4c5nc(c(-c6ccccc6)c6ccc([nH]6)c(-c6ccccc6)c6nc(c(-c7ccccc7)c7ccc4[nH]7)C=C6)C=C5)cc3)CC2)cn1
REMARK SMILES IDX 17 1 16 2 15 3 13 4 14 5 12 7 11 8 6 9 7 10 8 11 9 12 71 13
REMARK SMILES IDX 10 14 70 15 5 16 1 17 2 18 3 19 73 20 4 21 72 22 18 23 19 24
REMARK SMILES IDX 20 25 21 27 22 28 23 29 69 30 24 31 68 32 25 33 26 34 27 35
REMARK SMILES IDX 62 36 28 37 67 38 61 39 63 40 29 41 66 42 60 43 59 44 30 46
REMARK SMILES IDX 52 47 37 48 51 49 38 50 41 51 50 52 64 53 39 54 40 55 49 57
REMARK SMILES IDX 65 58 42 59 31 60 32 61 36 62 33 63 35 64 34 65 53 66 54 67
REMARK SMILES IDX 58 68 55 69 57 70 56 71 43 72 44 73 48 74 45 75 47 76 46 77
REMARK H PARENT 15 6 19 26 63 45 41 56
REMARK Flexibility Score: inf
ROOT
ATOM      1  C   UNL A   1      34.223  34.672  28.404  1.00  0.00     0.042 C 
ENDROOT
BRANCH   1   2
ATOM      2  C   UNL A   1      33.042  34.912  29.345  1.00  0.00     0.117 C 
BRANCH   2   3
ATOM      3  N   UNL A   1      33.099  36.213  30.000  1.00  0.00    -0.356 N 
ATOM      4  C   UNL A   1      33.301  36.549  31.306  1.00  0.00     0.220 C 
ATOM      5  O   UNL A   1      33.269  37.743  31.610  1.00  0.00    -0.275 OA
ATOM      6  H   UNL A   1      32.969  36.979  29.397  1.00  0.00     0.163 HD
BRANCH   4   7
ATOM      7  C   UNL A   1      33.526  35.484  32.359  1.00  0.00     0.103 C 
BRANCH   7   8
ATOM      8  C   UNL A   1      34.647  34.502  31.980  1.00  0.00     0.002 C 
ATOM      9  C   UNL A   1      37.130  32.200  34.003  1.00  0.00     0.255 C 
ATOM     10  O   UNL A   1      36.559  32.527  35.037  1.00  0.00    -0.269 OA
ATOM     11  N   UNL A   1      36.705  32.596  32.743  1.00  0.00    -0.339 N 
ATOM     12  C   UNL A   1      37.102  33.909  32.270  1.00  0.00     0.120 C 
ATOM     13  C   UNL A   1      35.433  32.101  32.245  1.00  0.00     0.120 C 
ATOM     14  C   UNL A   1      36.008  34.937  32.541  1.00  0.00     0.026 C 
ATOM     15  C   UNL A   1      34.297  33.092  32.493  1.00  0.00     0.026 C 
BRANCH   9  16
ATOM     16  C   UNL A   1      38.331  31.328  34.020  1.00  0.00     0.058 A 
ATOM     17  C   UNL A   1      41.654  28.676  33.864  1.00  0.00     0.066 C 
ATOM     18  C   UNL A   1      40.499  29.629  33.932  1.00  0.00     0.037 A 
ATOM     19  C   UNL A   1      40.659  30.897  34.482  1.00  0.00     0.024 A 
ATOM     20  N   UNL A   1      39.314  29.192  33.442  1.00  0.00    -0.261 NA
ATOM     21  C   UNL A   1      39.561  31.754  34.526  1.00  0.00     0.017 A 
ATOM     22  C   UNL A   1      38.260  30.049  33.492  1.00  0.00     0.125 A 
ENDBRANCH   9  16
ENDBRANCH   7   8
ENDBRANCH   4   7
ENDBRANCH   2   3
ENDBRANCH   1   2
BRANCH   1  23
ATOM     23  C   UNL A   1      34.916  33.327  28.601  1.00  0.00     0.118 C 
BRANCH  23  24
ATOM     24  N   UNL A   1      34.043  32.216  28.262  1.00  0.00    -0.352 N 
ATOM     25  C   UNL A   1      34.346  30.909  27.970  1.00  0.00     0.251 C 
ATOM     26  H   UNL A   1      33.083  32.435  28.239  1.00  0.00     0.163 HD
ATOM     27  O   UNL A   1      33.479  30.192  27.474  1.00  0.00    -0.269 OA
BRANCH  25  28
ATOM     28  C   UNL A   1      35.692  30.339  28.234  1.00  0.00     0.039 A 
ATOM     29  C   UNL A   1      35.948  29.790  29.497  1.00  0.00     0.014 A 
ATOM     30  C   UNL A   1      36.730  30.425  27.302  1.00  0.00     0.014 A 
ATOM     31  C   UNL A   1      37.222  29.308  29.814  1.00  0.00     0.010 A 
ATOM     32  C   UNL A   1      37.986  29.887  27.596  1.00  0.00     0.010 A 
ATOM     33  C   UNL A   1      38.252  29.341  28.862  1.00  0.00    -0.014 A 
BRANCH  33  34
ATOM     34  C   UNL A   1      39.620  28.858  29.189  1.00  0.00     0.031 A 
ATOM     35  C   UNL A   1      40.583  29.750  29.930  1.00  0.00     0.074 A 
ATOM     36  C   UNL A   1      40.023  27.636  28.790  1.00  0.00     0.049 A 
ATOM     37  N   UNL A   1      41.837  29.535  30.240  1.00  0.00    -0.248 NA
ATOM     38  C   UNL A   1      40.073  31.061  30.361  1.00  0.00     0.031 C 
ATOM     39  C   UNL A   1      39.210  26.673  28.048  1.00  0.00     0.029 A 
ATOM     40  N   UNL A   1      41.230  26.999  28.951  1.00  0.00    -0.354 N 
ATOM     41  C   UNL A   1      42.274  30.693  30.872  1.00  0.00     0.074 A 
ATOM     42  C   UNL A   1      41.160  31.616  30.880  1.00  0.00     0.031 C 
ATOM     43  C   UNL A   1      39.934  25.562  27.832  1.00  0.00     0.029 A 
ATOM     44  C   UNL A   1      41.270  25.746  28.392  1.00  0.00     0.049 A 
ATOM     45  H   UNL A   1      41.994  27.405  29.422  1.00  0.00     0.167 HD
ATOM     46  C   UNL A   1      43.487  30.964  31.409  1.00  0.00     0.031 A 
ATOM     47  C   UNL A   1      42.270  24.846  28.331  1.00  0.00     0.031 A 
ATOM     48  C   UNL A   1      44.592  30.044  31.443  1.00  0.00     0.049 A 
ATOM     49  C   UNL A   1      43.600  25.162  28.951  1.00  0.00     0.074 A 
ATOM     50  C   UNL A   1      45.840  30.216  32.022  1.00  0.00     0.029 A 
ATOM     51  N   UNL A   1      44.581  28.777  30.885  1.00  0.00    -0.354 N 
ATOM     52  N   UNL A   1      43.982  26.248  29.577  1.00  0.00    -0.248 NA
ATOM     53  C   UNL A   1      44.638  24.122  28.859  1.00  0.00     0.031 C 
ATOM     54  C   UNL A   1      46.593  29.060  31.788  1.00  0.00     0.029 A 
ATOM     55  C   UNL A   1      45.803  28.161  31.093  1.00  0.00     0.049 A 
ATOM     56  H   UNL A   1      43.818  28.376  30.411  1.00  0.00     0.167 HD
ATOM     57  C   UNL A   1      45.293  26.015  29.971  1.00  0.00     0.074 A 
ATOM     58  C   UNL A   1      45.640  24.682  29.524  1.00  0.00     0.031 C 
ATOM     59  C   UNL A   1      46.134  26.835  30.645  1.00  0.00     0.031 A 
BRANCH  46  60
ATOM     60  C   UNL A   1      43.688  32.327  32.005  1.00  0.00    -0.014 A 
ATOM     61  C   UNL A   1      43.487  32.556  33.374  1.00  0.00     0.009 A 
ATOM     62  C   UNL A   1      44.120  33.386  31.190  1.00  0.00     0.009 A 
ATOM     63  C   UNL A   1      43.688  33.829  33.912  1.00  0.00     0.001 A 
ATOM     64  C   UNL A   1      44.340  34.652  31.736  1.00  0.00     0.001 A 
ATOM     65  C   UNL A   1      44.116  34.875  33.094  1.00  0.00     0.000 A 
ENDBRANCH  46  60
BRANCH  47  66
ATOM     66  C   UNL A   1      42.048  23.540  27.662  1.00  0.00    -0.014 A 
ATOM     67  C   UNL A   1      41.457  22.477  28.360  1.00  0.00     0.009 A 
ATOM     68  C   UNL A   1      42.433  23.351  26.325  1.00  0.00     0.009 A 
ATOM     69  C   UNL A   1      41.272  21.241  27.738  1.00  0.00     0.001 A 
ATOM     70  C   UNL A   1      42.228  22.119  25.701  1.00  0.00     0.001 A 
ATOM     71  C   UNL A   1      41.655  21.064  26.409  1.00  0.00     0.000 A 
ENDBRANCH  47  66
BRANCH  59  72
ATOM     72  C   UNL A   1      47.502  26.306  30.962  1.00  0.00    -0.014 A 
ATOM     73  C   UNL A   1      48.532  26.351  30.011  1.00  0.00     0.009 A 
ATOM     74  C   UNL A   1      47.771  25.790  32.238  1.00  0.00     0.009 A 
ATOM     75  C   UNL A   1      49.803  25.867  30.328  1.00  0.00     0.001 A 
ATOM     76  C   UNL A   1      49.047  25.324  32.557  1.00  0.00     0.001 A 
ATOM     77  C   UNL A   1      50.060  25.357  31.600  1.00  0.00     0.000 A 
ENDBRANCH  59  72
ENDBRANCH  33  34
ENDBRANCH  25  28
ENDBRANCH  23  24
ENDBRANCH   1  23
TORSDOF 12
ENDMDL
MODEL 2
REMARK VINA RESULT:     -10.2      4.429      9.815
REMARK SMILES Cc1ccc(C(=O)N2CCC(CC(=O)NCCCNC(=O)c3ccc(-c4c5nc(c(-c6ccccc6)c6ccc([nH]6)c(-c6ccccc6)c6nc(c(-c7ccccc7)c7ccc4[nH]7)C=C6)C=C5)cc3)CC2)cn1
REMARK SMILES IDX 17 1 16 2 15 3 13 4 14 5 12 7 11 8 6 9 7 10 8 11 9 12 71 13
REMARK SMILES IDX 10 14 70 15 5 16 1 17 2 18 3 19 73 20 4 21 72 22 18 23 19 24
REMARK SMILES IDX 20 25 21 27 22 28 23 29 69 30 24 31 68 32 25 33 26 34 27 35
REMARK SMILES IDX 62 36 28 37 67 38 61 39 63 40 29 41 66 42 60 43 59 44 30 46
REMARK SMILES IDX 52 47 37 48 51 49 38 50 41 51 50 52 64 53 39 54 40 55 49 57
REMARK SMILES IDX 65 58 42 59 31 60 32 61 36 62 33 63 35 64 34 65 53 66 54 67
REMARK SMILES IDX 58 68 55 69 57 70 56 71 43 72 44 73 48 74 45 75 47 76 46 77
REMARK H PARENT 15 6 19 26 63 45 41 56
REMARK Flexibility Score: inf
ROOT
ATOM      1  C   UNL A   1      31.400  31.129  25.871  1.00  0.00     0.042 C 
ENDROOT
BRANCH   1   2
ATOM      2  C   UNL A   1      31.560  29.668  25.450  1.00  0.00     0.117 C 
BRANCH   2   3
ATOM      3  N   UNL A   1      32.570  29.487  24.415  1.00  0.00    -0.356 N 
ATOM      4  C   UNL A   1      33.452  28.472  24.192  1.00  0.00     0.220 C 
ATOM      5  O   UNL A   1      34.238  28.581  23.249  1.00  0.00    -0.275 OA
ATOM      6  H   UNL A   1      32.625  30.225  23.765  1.00  0.00     0.163 HD
BRANCH   4   7
ATOM      7  C   UNL A   1      33.487  27.259  25.098  1.00  0.00     0.103 C 
BRANCH   7   8
ATOM      8  C   UNL A   1      33.859  25.969  24.349  1.00  0.00     0.002 C 
ATOM      9  C   UNL A   1      32.868  22.166  24.694  1.00  0.00     0.255 C 
ATOM     10  O   UNL A   1      32.073  22.475  25.574  1.00  0.00    -0.269 OA
ATOM     11  N   UNL A   1      33.597  23.099  23.969  1.00  0.00    -0.339 N 
ATOM     12  C   UNL A   1      34.815  23.623  24.560  1.00  0.00     0.120 C 
ATOM     13  C   UNL A   1      32.890  23.998  23.073  1.00  0.00     0.120 C 
ATOM     14  C   UNL A   1      34.548  24.947  25.265  1.00  0.00     0.026 C 
ATOM     15  C   UNL A   1      32.594  25.344  23.730  1.00  0.00     0.026 C 
BRANCH   9  16
ATOM     16  C   UNL A   1      33.104  20.750  24.320  1.00  0.00     0.058 A 
ATOM     17  C   UNL A   1      33.938  16.663  23.477  1.00  0.00     0.066 C 
ATOM     18  C   UNL A   1      33.623  18.102  23.758  1.00  0.00     0.037 A 
ATOM     19  C   UNL A   1      32.518  18.712  23.171  1.00  0.00     0.024 A 
ATOM     20  N   UNL A   1      34.462  18.762  24.591  1.00  0.00    -0.261 NA
ATOM     21  C   UNL A   1      32.258  20.050  23.457  1.00  0.00     0.017 A 
ATOM     22  C   UNL A   1      34.184  20.066  24.858  1.00  0.00     0.125 A 
ENDBRANCH   9  16
ENDBRANCH   7   8
ENDBRANCH   4   7
ENDBRANCH   2   3
ENDBRANCH   1   2
BRANCH   1  23
ATOM     23  C   UNL A   1      32.361  31.572  26.969  1.00  0.00     0.118 C 
BRANCH  23  24
ATOM     24  N   UNL A   1      32.205  32.981  27.286  1.00  0.00    -0.352 N 
ATOM     25  C   UNL A   1      32.947  33.791  28.111  1.00  0.00     0.251 C 
ATOM     26  H   UNL A   1      31.449  33.426  26.838  1.00  0.00     0.163 HD
ATOM     27  O   UNL A   1      32.499  34.891  28.427  1.00  0.00    -0.269 OA
BRANCH  25  28
ATOM     28  C   UNL A   1      34.273  33.372  28.634  1.00  0.00     0.039 A 
ATOM     29  C   UNL A   1      35.419  33.736  27.916  1.00  0.00     0.014 A 
ATOM     30  C   UNL A   1      34.401  32.547  29.755  1.00  0.00     0.014 A 
ATOM     31  C   UNL A   1      36.682  33.303  28.332  1.00  0.00     0.010 A 
ATOM     32  C   UNL A   1      35.668  32.165  30.206  1.00  0.00     0.010 A 
ATOM     33  C   UNL A   1      36.821  32.521  29.489  1.00  0.00    -0.014 A 
BRANCH  33  34
ATOM     34  C   UNL A   1      38.152  32.029  29.931  1.00  0.00     0.031 A 
ATOM     35  C   UNL A   1      38.681  30.712  29.423  1.00  0.00     0.074 A 
ATOM     36  C   UNL A   1      38.878  32.734  30.820  1.00  0.00     0.049 A 
ATOM     37  N   UNL A   1      39.783  30.082  29.749  1.00  0.00    -0.248 NA
ATOM     38  C   UNL A   1      37.854  30.002  28.434  1.00  0.00     0.031 C 
ATOM     39  C   UNL A   1      38.485  34.012  31.414  1.00  0.00     0.029 A 
ATOM     40  N   UNL A   1      40.101  32.466  31.385  1.00  0.00    -0.354 N 
ATOM     41  C   UNL A   1      39.765  28.892  29.032  1.00  0.00     0.074 A 
ATOM     42  C   UNL A   1      38.533  28.876  28.273  1.00  0.00     0.031 C 
ATOM     43  C   UNL A   1      39.455  34.425  32.246  1.00  0.00     0.029 A 
ATOM     44  C   UNL A   1      40.522  33.429  32.269  1.00  0.00     0.049 A 
ATOM     45  H   UNL A   1      40.625  31.659  31.176  1.00  0.00     0.167 HD
ATOM     46  C   UNL A   1      40.691  27.905  28.996  1.00  0.00     0.031 A 
ATOM     47  C   UNL A   1      41.638  33.501  33.018  1.00  0.00     0.031 A 
ATOM     48  C   UNL A   1      41.937  27.924  29.714  1.00  0.00     0.049 A 
ATOM     49  C   UNL A   1      42.660  32.403  32.947  1.00  0.00     0.074 A 
ATOM     50  C   UNL A   1      42.962  26.992  29.688  1.00  0.00     0.029 A 
ATOM     51  N   UNL A   1      42.332  28.930  30.580  1.00  0.00    -0.354 N 
ATOM     52  N   UNL A   1      42.642  31.304  32.234  1.00  0.00    -0.248 NA
ATOM     53  C   UNL A   1      43.862  32.561  33.782  1.00  0.00     0.031 C 
ATOM     54  C   UNL A   1      43.967  27.422  30.562  1.00  0.00     0.029 A 
ATOM     55  C   UNL A   1      43.578  28.635  31.105  1.00  0.00     0.049 A 
ATOM     56  H   UNL A   1      41.804  29.733  30.792  1.00  0.00     0.167 HD
ATOM     57  C   UNL A   1      43.834  30.651  32.518  1.00  0.00     0.074 A 
ATOM     58  C   UNL A   1      44.558  31.479  33.459  1.00  0.00     0.031 C 
ATOM     59  C   UNL A   1      44.288  29.468  32.039  1.00  0.00     0.031 A 
BRANCH  46  60
ATOM     60  C   UNL A   1      40.387  26.706  28.147  1.00  0.00    -0.014 A 
ATOM     61  C   UNL A   1      39.609  25.647  28.641  1.00  0.00     0.009 A 
ATOM     62  C   UNL A   1      40.853  26.652  26.824  1.00  0.00     0.009 A 
ATOM     63  C   UNL A   1      39.328  24.543  27.833  1.00  0.00     0.001 A 
ATOM     64  C   UNL A   1      40.552  25.556  26.013  1.00  0.00     0.001 A 
ATOM     65  C   UNL A   1      39.797  24.500  26.520  1.00  0.00     0.000 A 
ENDBRANCH  46  60
BRANCH  47  66
ATOM     66  C   UNL A   1      41.859  34.671  33.904  1.00  0.00    -0.014 A 
ATOM     67  C   UNL A   1      42.544  35.799  33.430  1.00  0.00     0.009 A 
ATOM     68  C   UNL A   1      41.391  34.661  35.227  1.00  0.00     0.009 A 
ATOM     69  C   UNL A   1      42.774  36.890  34.270  1.00  0.00     0.001 A 
ATOM     70  C   UNL A   1      41.606  35.762  36.059  1.00  0.00     0.001 A 
ATOM     71  C   UNL A   1      42.303  36.871  35.582  1.00  0.00     0.000 A 
ENDBRANCH  47  66
BRANCH  59  72
ATOM     72  C   UNL A   1      45.639  29.011  32.504  1.00  0.00    -0.014 A 
ATOM     73  C   UNL A   1      45.775  28.200  33.640  1.00  0.00     0.009 A 
ATOM     74  C   UNL A   1      46.784  29.368  31.776  1.00  0.00     0.009 A 
ATOM     75  C   UNL A   1      47.040  27.772  34.051  1.00  0.00     0.001 A 
ATOM     76  C   UNL A   1      48.044  28.924  32.179  1.00  0.00     0.001 A 
ATOM     77  C   UNL A   1      48.171  28.131  33.319  1.00  0.00     0.000 A 
ENDBRANCH  59  72
ENDBRANCH  33  34
ENDBRANCH  25  28
ENDBRANCH  23  24
ENDBRANCH   1  23
TORSDOF 12
ENDMDL
MODEL 3
REMARK VINA RESULT:     -10.1      4.691     10.569
REMARK SMILES Cc1ccc(C(=O)N2CCC(CC(=O)NCCCNC(=O)c3ccc(-c4c5nc(c(-c6ccccc6)c6ccc([nH]6)c(-c6ccccc6)c6nc(c(-c7ccccc7)c7ccc4[nH]7)C=C6)C=C5)cc3)CC2)cn1
REMARK SMILES IDX 17 1 16 2 15 3 13 4 14 5 12 7 11 8 6 9 7 10 8 11 9 12 71 13
REMARK SMILES IDX 10 14 70 15 5 16 1 17 2 18 3 19 73 20 4 21 72 22 18 23 19 24
REMARK SMILES IDX 20 25 21 27 22 28 23 29 69 30 24 31 68 32 25 33 26 34 27 35
REMARK SMILES IDX 62 36 28 37 67 38 61 39 63 40 29 41 66 42 60 43 59 44 30 46
REMARK SMILES IDX 52 47 37 48 51 49 38 50 41 51 50 52 64 53 39 54 40 55 49 57
REMARK SMILES IDX 65 58 42 59 31 60 32 61 36 62 33 63 35 64 34 65 53 66 54 67
REMARK SMILES IDX 58 68 55 69 57 70 56 71 43 72 44 73 48 74 45 75 47 76 46 77
REMARK H PARENT 15 6 19 26 63 45 41 56
REMARK Flexibility Score: inf
ROOT
ATOM      1  C   UNL A   1      37.256  19.551  24.993  1.00  0.00     0.042 C 
ENDROOT
BRANCH   1   2
ATOM      2  C   UNL A   1      36.014  20.442  25.024  1.00  0.00     0.117 C 
BRANCH   2   3
ATOM      3  N   UNL A   1      34.773  19.678  25.057  1.00  0.00    -0.356 N 
ATOM      4  C   UNL A   1      33.541  19.993  25.548  1.00  0.00     0.220 C 
ATOM      5  O   UNL A   1      32.653  19.141  25.481  1.00  0.00    -0.275 OA
ATOM      6  H   UNL A   1      34.836  18.781  24.656  1.00  0.00     0.163 HD
BRANCH   4   7
ATOM      7  C   UNL A   1      33.279  21.341  26.187  1.00  0.00     0.103 C 
BRANCH   7   8
ATOM      8  C   UNL A   1      32.943  22.432  25.158  1.00  0.00     0.002 C 
ATOM      9  C   UNL A   1      30.760  25.717  25.197  1.00  0.00     0.255 C 
ATOM     10  O   UNL A   1      30.557  25.543  26.393  1.00  0.00    -0.269 OA
ATOM     11  N   UNL A   1      31.606  24.913  24.446  1.00  0.00    -0.339 N 
ATOM     12  C   UNL A   1      31.082  23.660  23.936  1.00  0.00     0.120 C 
ATOM     13  C   UNL A   1      33.030  24.935  24.733  1.00  0.00     0.120 C 
ATOM     14  C   UNL A   1      31.437  22.505  24.866  1.00  0.00     0.026 C 
ATOM     15  C   UNL A   1      33.443  23.798  25.666  1.00  0.00     0.026 C 
BRANCH   9  16
ATOM     16  C   UNL A   1      30.118  26.828  24.452  1.00  0.00     0.058 A 
ATOM     17  C   UNL A   1      28.534  30.118  22.267  1.00  0.00     0.066 C 
ATOM     18  C   UNL A   1      29.069  28.945  23.034  1.00  0.00     0.037 A 
ATOM     19  C   UNL A   1      28.299  27.798  23.200  1.00  0.00     0.024 A 
ATOM     20  N   UNL A   1      30.315  29.067  23.548  1.00  0.00    -0.261 NA
ATOM     21  C   UNL A   1      28.831  26.730  23.918  1.00  0.00     0.017 A 
ATOM     22  C   UNL A   1      30.814  28.008  24.240  1.00  0.00     0.125 A 
ENDBRANCH   9  16
ENDBRANCH   7   8
ENDBRANCH   4   7
ENDBRANCH   2   3
ENDBRANCH   1   2
BRANCH   1  23
ATOM     23  C   UNL A   1      38.551  20.269  25.363  1.00  0.00     0.118 C 
BRANCH  23  24
ATOM     24  N   UNL A   1      39.628  19.333  25.633  1.00  0.00    -0.352 N 
ATOM     25  C   UNL A   1      40.920  19.563  26.041  1.00  0.00     0.251 C 
ATOM     26  H   UNL A   1      39.396  18.385  25.505  1.00  0.00     0.163 HD
ATOM     27  O   UNL A   1      41.737  18.648  25.976  1.00  0.00    -0.269 OA
BRANCH  25  28
ATOM     28  C   UNL A   1      41.355  20.888  26.553  1.00  0.00     0.039 A 
ATOM     29  C   UNL A   1      41.158  21.176  27.910  1.00  0.00     0.014 A 
ATOM     30  C   UNL A   1      41.856  21.882  25.709  1.00  0.00     0.014 A 
ATOM     31  C   UNL A   1      41.486  22.436  28.421  1.00  0.00     0.010 A 
ATOM     32  C   UNL A   1      42.242  23.120  26.230  1.00  0.00     0.010 A 
ATOM     33  C   UNL A   1      42.043  23.418  27.588  1.00  0.00    -0.014 A 
BRANCH  33  34
ATOM     34  C   UNL A   1      42.372  24.772  28.107  1.00  0.00     0.031 A 
ATOM     35  C   UNL A   1      43.785  25.105  28.515  1.00  0.00     0.074 A 
ATOM     36  C   UNL A   1      41.405  25.698  28.256  1.00  0.00     0.049 A 
ATOM     37  N   UNL A   1      44.251  26.203  29.057  1.00  0.00    -0.248 NA
ATOM     38  C   UNL A   1      44.799  24.061  28.303  1.00  0.00     0.031 C 
ATOM     39  C   UNL A   1      39.992  25.511  27.924  1.00  0.00     0.029 A 
ATOM     40  N   UNL A   1      41.468  26.984  28.735  1.00  0.00    -0.354 N 
ATOM     41  C   UNL A   1      45.603  25.970  29.279  1.00  0.00     0.074 A 
ATOM     42  C   UNL A   1      45.877  24.619  28.837  1.00  0.00     0.031 C 
ATOM     43  C   UNL A   1      39.325  26.646  28.194  1.00  0.00     0.029 A 
ATOM     44  C   UNL A   1      40.255  27.628  28.745  1.00  0.00     0.049 A 
ATOM     45  H   UNL A   1      42.304  27.403  29.043  1.00  0.00     0.167 HD
ATOM     46  C   UNL A   1      46.538  26.804  29.793  1.00  0.00     0.031 A 
ATOM     47  C   UNL A   1      39.925  28.867  29.156  1.00  0.00     0.031 A 
ATOM     48  C   UNL A   1      46.290  28.160  30.202  1.00  0.00     0.049 A 
ATOM     49  C   UNL A   1      40.983  29.780  29.705  1.00  0.00     0.074 A 
ATOM     50  C   UNL A   1      47.194  29.096  30.678  1.00  0.00     0.029 A 
ATOM     51  N   UNL A   1      45.052  28.778  30.173  1.00  0.00    -0.354 N 
ATOM     52  N   UNL A   1      42.263  29.554  29.872  1.00  0.00    -0.248 NA
ATOM     53  C   UNL A   1      40.549  31.124  30.117  1.00  0.00     0.031 C 
ATOM     54  C   UNL A   1      46.494  30.274  30.965  1.00  0.00     0.029 A 
ATOM     55  C   UNL A   1      45.163  30.077  30.637  1.00  0.00     0.049 A 
ATOM     56  H   UNL A   1      44.216  28.355  29.870  1.00  0.00     0.167 HD
ATOM     57  C   UNL A   1      42.790  30.730  30.388  1.00  0.00     0.074 A 
ATOM     58  C   UNL A   1      41.696  31.672  30.498  1.00  0.00     0.031 C 
ATOM     59  C   UNL A   1      44.069  31.004  30.739  1.00  0.00     0.031 A 
BRANCH  46  60
ATOM     60  C   UNL A   1      47.930  26.265  29.950  1.00  0.00    -0.014 A 
ATOM     61  C   UNL A   1      48.374  25.754  31.179  1.00  0.00     0.009 A 
ATOM     62  C   UNL A   1      48.793  26.233  28.844  1.00  0.00     0.009 A 
ATOM     63  C   UNL A   1      49.670  25.247  31.304  1.00  0.00     0.001 A 
ATOM     64  C   UNL A   1      50.081  25.707  28.968  1.00  0.00     0.001 A 
ATOM     65  C   UNL A   1      50.520  25.222  30.199  1.00  0.00     0.000 A 
ENDBRANCH  46  60
BRANCH  47  66
ATOM     66  C   UNL A   1      38.519  29.328  29.054  1.00  0.00    -0.014 A 
ATOM     67  C   UNL A   1      38.035  29.867  27.853  1.00  0.00     0.009 A 
ATOM     68  C   UNL A   1      37.658  29.239  30.159  1.00  0.00     0.009 A 
ATOM     69  C   UNL A   1      36.719  30.325  27.764  1.00  0.00     0.001 A 
ATOM     70  C   UNL A   1      36.337  29.680  30.061  1.00  0.00     0.001 A 
ATOM     71  C   UNL A   1      35.871  30.229  28.866  1.00  0.00     0.000 A 
ENDBRANCH  47  66
BRANCH  59  72
ATOM     72  C   UNL A   1      44.360  32.384  31.250  1.00  0.00    -0.014 A 
ATOM     73  C   UNL A   1      44.705  33.422  30.371  1.00  0.00     0.009 A 
ATOM     74  C   UNL A   1      44.250  32.657  32.622  1.00  0.00     0.009 A 
ATOM     75  C   UNL A   1      44.958  34.704  30.863  1.00  0.00     0.001 A 
ATOM     76  C   UNL A   1      44.487  33.945  33.107  1.00  0.00     0.001 A 
ATOM     77  C   UNL A   1      44.846  34.965  32.228  1.00  0.00     0.000 A 
ENDBRANCH  59  72
ENDBRANCH  33  34
ENDBRANCH  25  28
ENDBRANCH  23  24
ENDBRANCH   1  23
TORSDOF 12
ENDMDL
