MODEL 1
REMARK VINA RESULT:     -12.0      0.000      0.000
REMARK SMILES C[C@@H](Oc1ccc(-c2ccccc2)cc1)C(=O)N1CCC[C@H](C(=O)NCCCNC(=O)c2ccc(-c3c4nc(c(-c5ccccc5)c5ccc([nH]5)c(-c5ccccc5)c5nc(c(-c6ccccc6)c6ccc3[nH]6)C=C5)C=C4)cc2)C1
REMARK SMILES IDX 23 1 24 2 25 3 22 5 18 6 19 7 80 8 20 9 21 10 16 11 17 12
REMARK SMILES IDX 2 13 1 14 3 15 4 16 5 17 15 18 6 19 14 20 7 21 8 22 9 23
REMARK SMILES IDX 13 24 10 25 12 26 11 27 26 28 27 29 28 30 29 31 30 32 31 34
REMARK SMILES IDX 32 35 33 36 79 37 34 38 78 39 35 40 36 41 37 42 72 43 38 44
REMARK SMILES IDX 77 45 71 46 73 47 39 48 76 49 70 50 69 51 40 53 62 54 47 55
REMARK SMILES IDX 61 56 48 57 51 58 60 59 74 60 49 61 50 62 59 64 75 65 52 66
REMARK SMILES IDX 41 67 42 68 46 69 43 70 45 71 44 72 63 73 64 74 68 75 65 76
REMARK SMILES IDX 67 77 66 78 53 79 54 80 58 81 55 82 57 83 56 84
REMARK H PARENT 25 4 29 33 73 52 51 63
REMARK Flexibility Score: inf
ROOT
ATOM      1  C   UNL A   1      35.247  22.740  26.135  1.00  0.00     0.224 C 
ATOM      2  O   UNL A   1      34.621  22.934  27.185  1.00  0.00    -0.275 OA
ATOM      3  N   UNL A   1      35.642  21.461  25.914  1.00  0.00    -0.356 N 
ATOM      4  H   UNL A   1      35.524  20.860  26.686  1.00  0.00     0.163 HD
ENDROOT
BRANCH   1   5
ATOM      5  C   UNL A   1      35.563  23.934  25.221  1.00  0.00     0.098 C 
ATOM      6  N   UNL A   1      33.584  25.247  24.386  1.00  0.00    -0.339 N 
ATOM      7  C   UNL A   1      33.957  24.997  22.997  1.00  0.00     0.119 C 
ATOM      8  C   UNL A   1      34.669  25.175  25.362  1.00  0.00     0.133 C 
ATOM      9  C   UNL A   1      34.706  23.685  22.813  1.00  0.00     0.022 C 
ATOM     10  C   UNL A   1      35.873  23.533  23.778  1.00  0.00     0.017 C 
BRANCH   6  11
ATOM     11  C   UNL A   1      32.253  25.557  24.665  1.00  0.00     0.263 C 
ATOM     12  O   UNL A   1      31.803  26.678  24.393  1.00  0.00    -0.271 OA
BRANCH  11  13
ATOM     13  C   UNL A   1      31.339  24.542  25.374  1.00  0.00     0.259 C 
ATOM     14  C   UNL A   1      30.157  25.107  26.153  1.00  0.00     0.064 C 
BRANCH  13  15
ATOM     15  O   UNL A   1      30.898  23.665  24.329  1.00  0.00    -0.481 OA
BRANCH  15  16
ATOM     16  C   UNL A   1      31.572  22.479  24.329  1.00  0.00     0.120 A 
ATOM     17  C   UNL A   1      31.895  21.846  23.132  1.00  0.00     0.047 A 
ATOM     18  C   UNL A   1      31.784  21.851  25.547  1.00  0.00     0.047 A 
ATOM     19  C   UNL A   1      32.408  20.543  23.159  1.00  0.00     0.012 A 
ATOM     20  C   UNL A   1      32.303  20.561  25.571  1.00  0.00     0.012 A 
ATOM     21  C   UNL A   1      32.584  19.868  24.380  1.00  0.00    -0.018 A 
BRANCH  21  22
ATOM     22  C   UNL A   1      32.960  18.448  24.440  1.00  0.00    -0.018 A 
ATOM     23  C   UNL A   1      33.627  17.803  23.388  1.00  0.00     0.009 A 
ATOM     24  C   UNL A   1      32.657  17.696  25.591  1.00  0.00     0.009 A 
ATOM     25  C   UNL A   1      33.996  16.457  23.498  1.00  0.00     0.001 A 
ATOM     26  C   UNL A   1      33.025  16.356  25.702  1.00  0.00     0.001 A 
ATOM     27  C   UNL A   1      33.699  15.737  24.656  1.00  0.00     0.000 A 
ENDBRANCH  21  22
ENDBRANCH  15  16
ENDBRANCH  13  15
ENDBRANCH  11  13
ENDBRANCH   6  11
ENDBRANCH   1   5
BRANCH   3  28
ATOM     28  C   UNL A   1      36.207  20.827  24.747  1.00  0.00     0.117 C 
BRANCH  28  29
ATOM     29  C   UNL A   1      37.276  19.795  25.054  1.00  0.00     0.042 C 
BRANCH  29  30
ATOM     30  C   UNL A   1      38.554  20.406  25.596  1.00  0.00     0.118 C 
BRANCH  30  31
ATOM     31  N   UNL A   1      39.652  19.446  25.685  1.00  0.00    -0.352 N 
ATOM     32  C   UNL A   1      40.960  19.604  26.080  1.00  0.00     0.251 C 
ATOM     33  H   UNL A   1      39.415  18.529  25.416  1.00  0.00     0.163 HD
ATOM     34  O   UNL A   1      41.745  18.673  25.971  1.00  0.00    -0.269 OA
BRANCH  32  35
ATOM     35  C   UNL A   1      41.430  20.904  26.607  1.00  0.00     0.039 A 
ATOM     36  C   UNL A   1      41.971  21.838  25.718  1.00  0.00     0.014 A 
ATOM     37  C   UNL A   1      41.336  21.207  27.964  1.00  0.00     0.014 A 
ATOM     38  C   UNL A   1      42.339  23.103  26.183  1.00  0.00     0.010 A 
ATOM     39  C   UNL A   1      41.582  22.502  28.400  1.00  0.00     0.010 A 
ATOM     40  C   UNL A   1      42.105  23.459  27.520  1.00  0.00    -0.014 A 
BRANCH  40  41
ATOM     41  C   UNL A   1      42.423  24.812  28.038  1.00  0.00     0.031 A 
ATOM     42  C   UNL A   1      43.833  25.143  28.447  1.00  0.00     0.074 A 
ATOM     43  C   UNL A   1      41.435  25.710  28.221  1.00  0.00     0.049 A 
ATOM     44  N   UNL A   1      44.298  26.229  29.010  1.00  0.00    -0.248 NA
ATOM     45  C   UNL A   1      44.848  24.097  28.237  1.00  0.00     0.031 C 
ATOM     46  C   UNL A   1      40.020  25.495  27.913  1.00  0.00     0.029 A 
ATOM     47  N   UNL A   1      41.476  26.988  28.718  1.00  0.00    -0.354 N 
ATOM     48  C   UNL A   1      45.642  25.980  29.253  1.00  0.00     0.074 A 
ATOM     49  C   UNL A   1      45.906  24.622  28.832  1.00  0.00     0.031 C 
ATOM     50  C   UNL A   1      39.335  26.617  28.184  1.00  0.00     0.029 A 
ATOM     51  C   UNL A   1      40.252  27.613  28.728  1.00  0.00     0.049 A 
ATOM     52  H   UNL A   1      42.302  27.417  29.038  1.00  0.00     0.167 HD
ATOM     53  C   UNL A   1      46.584  26.813  29.756  1.00  0.00     0.031 A 
ATOM     54  C   UNL A   1      39.909  28.851  29.130  1.00  0.00     0.031 A 
ATOM     55  C   UNL A   1      46.328  28.173  30.138  1.00  0.00     0.049 A 
ATOM     56  C   UNL A   1      40.972  29.764  29.671  1.00  0.00     0.074 A 
ATOM     57  C   UNL A   1      47.224  29.129  30.581  1.00  0.00     0.029 A 
ATOM     58  N   UNL A   1      45.077  28.773  30.118  1.00  0.00    -0.354 N 
ATOM     59  N   UNL A   1      42.254  29.539  29.827  1.00  0.00    -0.248 NA
ATOM     60  C   UNL A   1      40.539  31.107  30.083  1.00  0.00     0.031 C 
ATOM     61  C   UNL A   1      46.508  30.294  30.875  1.00  0.00     0.029 A 
ATOM     62  C   UNL A   1      45.174  30.079  30.564  1.00  0.00     0.049 A 
ATOM     63  H   UNL A   1      44.245  28.334  29.829  1.00  0.00     0.167 HD
ATOM     64  C   UNL A   1      42.787  30.717  30.331  1.00  0.00     0.074 A 
ATOM     65  C   UNL A   1      41.691  31.659  30.441  1.00  0.00     0.031 C 
ATOM     66  C   UNL A   1      44.069  30.998  30.670  1.00  0.00     0.031 A 
BRANCH  53  67
ATOM     67  C   UNL A   1      47.972  26.260  29.925  1.00  0.00    -0.014 A 
ATOM     68  C   UNL A   1      48.872  26.197  28.847  1.00  0.00     0.009 A 
ATOM     69  C   UNL A   1      48.388  25.793  31.181  1.00  0.00     0.009 A 
ATOM     70  C   UNL A   1      50.138  25.630  29.012  1.00  0.00     0.001 A 
ATOM     71  C   UNL A   1      49.666  25.256  31.351  1.00  0.00     0.001 A 
ATOM     72  C   UNL A   1      50.534  25.163  30.264  1.00  0.00     0.000 A 
ENDBRANCH  53  67
BRANCH  54  73
ATOM     73  C   UNL A   1      38.503  29.311  28.995  1.00  0.00    -0.014 A 
ATOM     74  C   UNL A   1      38.029  29.774  27.757  1.00  0.00     0.009 A 
ATOM     75  C   UNL A   1      37.624  29.276  30.087  1.00  0.00     0.009 A 
ATOM     76  C   UNL A   1      36.709  30.210  27.621  1.00  0.00     0.001 A 
ATOM     77  C   UNL A   1      36.297  29.688  29.943  1.00  0.00     0.001 A 
ATOM     78  C   UNL A   1      35.843  30.162  28.713  1.00  0.00     0.000 A 
ENDBRANCH  54  73
BRANCH  66  79
ATOM     79  C   UNL A   1      44.360  32.386  31.162  1.00  0.00    -0.014 A 
ATOM     80  C   UNL A   1      44.269  32.709  32.526  1.00  0.00     0.009 A 
ATOM     81  C   UNL A   1      44.774  33.372  30.254  1.00  0.00     0.009 A 
ATOM     82  C   UNL A   1      44.558  34.002  32.963  1.00  0.00     0.001 A 
ATOM     83  C   UNL A   1      45.089  34.656  30.698  1.00  0.00     0.001 A 
ATOM     84  C   UNL A   1      44.973  34.973  32.051  1.00  0.00     0.000 A 
ENDBRANCH  66  79
ENDBRANCH  40  41
ENDBRANCH  32  35
ENDBRANCH  30  31
ENDBRANCH  29  30
ENDBRANCH  28  29
ENDBRANCH   3  28
TORSDOF 15
ENDMDL
MODEL 2
REMARK VINA RESULT:     -11.9      4.167      8.668
REMARK SMILES C[C@@H](Oc1ccc(-c2ccccc2)cc1)C(=O)N1CCC[C@H](C(=O)NCCCNC(=O)c2ccc(-c3c4nc(c(-c5ccccc5)c5ccc([nH]5)c(-c5ccccc5)c5nc(c(-c6ccccc6)c6ccc3[nH]6)C=C5)C=C4)cc2)C1
REMARK SMILES IDX 23 1 24 2 25 3 22 5 18 6 19 7 80 8 20 9 21 10 16 11 17 12
REMARK SMILES IDX 2 13 1 14 3 15 4 16 5 17 15 18 6 19 14 20 7 21 8 22 9 23
REMARK SMILES IDX 13 24 10 25 12 26 11 27 26 28 27 29 28 30 29 31 30 32 31 34
REMARK SMILES IDX 32 35 33 36 79 37 34 38 78 39 35 40 36 41 37 42 72 43 38 44
REMARK SMILES IDX 77 45 71 46 73 47 39 48 76 49 70 50 69 51 40 53 62 54 47 55
REMARK SMILES IDX 61 56 48 57 51 58 60 59 74 60 49 61 50 62 59 64 75 65 52 66
REMARK SMILES IDX 41 67 42 68 46 69 43 70 45 71 44 72 63 73 64 74 68 75 65 76
REMARK SMILES IDX 67 77 66 78 53 79 54 80 58 81 55 82 57 83 56 84
REMARK H PARENT 25 4 29 33 73 52 51 63
REMARK Flexibility Score: inf
ROOT
ATOM      1  C   UNL A   1      32.669  29.312  24.892  1.00  0.00     0.224 C 
ATOM      2  O   UNL A   1      33.658  29.272  24.149  1.00  0.00    -0.275 OA
ATOM      3  N   UNL A   1      32.716  30.239  25.882  1.00  0.00    -0.356 N 
ATOM      4  H   UNL A   1      33.594  30.669  25.995  1.00  0.00     0.163 HD
ENDROOT
BRANCH   1   5
ATOM      5  C   UNL A   1      31.528  28.306  24.675  1.00  0.00     0.098 C 
ATOM      6  N   UNL A   1      31.990  26.438  23.051  1.00  0.00    -0.339 N 
ATOM      7  C   UNL A   1      30.852  26.826  22.224  1.00  0.00     0.119 C 
ATOM      8  C   UNL A   1      31.926  26.838  24.456  1.00  0.00     0.133 C 
ATOM      9  C   UNL A   1      30.543  28.314  22.303  1.00  0.00     0.022 C 
ATOM     10  C   UNL A   1      30.434  28.816  23.736  1.00  0.00     0.017 C 
BRANCH   6  11
ATOM     11  C   UNL A   1      33.018  25.706  22.457  1.00  0.00     0.263 C 
ATOM     12  O   UNL A   1      33.595  26.142  21.452  1.00  0.00    -0.271 OA
BRANCH  11  13
ATOM     13  C   UNL A   1      33.408  24.317  22.992  1.00  0.00     0.259 C 
ATOM     14  C   UNL A   1      34.699  24.225  23.795  1.00  0.00     0.064 C 
BRANCH  13  15
ATOM     15  O   UNL A   1      32.280  23.906  23.778  1.00  0.00    -0.481 OA
BRANCH  15  16
ATOM     16  C   UNL A   1      32.253  22.557  23.980  1.00  0.00     0.120 A 
ATOM     17  C   UNL A   1      32.387  22.028  25.261  1.00  0.00     0.047 A 
ATOM     18  C   UNL A   1      32.247  21.732  22.865  1.00  0.00     0.047 A 
ATOM     19  C   UNL A   1      32.553  20.646  25.420  1.00  0.00     0.012 A 
ATOM     20  C   UNL A   1      32.403  20.360  23.027  1.00  0.00     0.012 A 
ATOM     21  C   UNL A   1      32.600  19.796  24.301  1.00  0.00    -0.018 A 
BRANCH  21  22
ATOM     22  C   UNL A   1      32.939  18.370  24.417  1.00  0.00    -0.018 A 
ATOM     23  C   UNL A   1      33.646  17.684  23.419  1.00  0.00     0.009 A 
ATOM     24  C   UNL A   1      32.559  17.656  25.569  1.00  0.00     0.009 A 
ATOM     25  C   UNL A   1      33.977  16.334  23.583  1.00  0.00     0.001 A 
ATOM     26  C   UNL A   1      32.889  16.312  25.734  1.00  0.00     0.001 A 
ATOM     27  C   UNL A   1      33.604  15.652  24.740  1.00  0.00     0.000 A 
ENDBRANCH  21  22
ENDBRANCH  15  16
ENDBRANCH  13  15
ENDBRANCH  11  13
ENDBRANCH   6  11
ENDBRANCH   1   5
BRANCH   3  28
ATOM     28  C   UNL A   1      31.702  30.704  26.799  1.00  0.00     0.117 C 
BRANCH  28  29
ATOM     29  C   UNL A   1      31.509  32.209  26.803  1.00  0.00     0.042 C 
BRANCH  29  30
ATOM     30  C   UNL A   1      32.747  32.967  27.242  1.00  0.00     0.118 C 
BRANCH  30  31
ATOM     31  N   UNL A   1      32.455  34.327  27.687  1.00  0.00    -0.352 N 
ATOM     32  C   UNL A   1      33.029  35.099  28.671  1.00  0.00     0.251 C 
ATOM     33  H   UNL A   1      31.721  34.768  27.199  1.00  0.00     0.163 HD
ATOM     34  O   UNL A   1      32.547  36.189  28.948  1.00  0.00    -0.269 OA
BRANCH  32  35
ATOM     35  C   UNL A   1      34.208  34.606  29.415  1.00  0.00     0.039 A 
ATOM     36  C   UNL A   1      34.012  33.960  30.640  1.00  0.00     0.014 A 
ATOM     37  C   UNL A   1      35.497  34.769  28.913  1.00  0.00     0.014 A 
ATOM     38  C   UNL A   1      35.104  33.411  31.316  1.00  0.00     0.010 A 
ATOM     39  C   UNL A   1      36.562  34.115  29.519  1.00  0.00     0.010 A 
ATOM     40  C   UNL A   1      36.382  33.446  30.736  1.00  0.00    -0.014 A 
BRANCH  40  41
ATOM     41  C   UNL A   1      37.556  32.819  31.390  1.00  0.00     0.031 A 
ATOM     42  C   UNL A   1      38.220  31.628  30.751  1.00  0.00     0.074 A 
ATOM     43  C   UNL A   1      37.971  33.261  32.593  1.00  0.00     0.049 A 
ATOM     44  N   UNL A   1      39.193  30.880  31.205  1.00  0.00    -0.248 NA
ATOM     45  C   UNL A   1      37.690  31.193  29.448  1.00  0.00     0.031 C 
ATOM     46  C   UNL A   1      37.381  34.373  33.342  1.00  0.00     0.029 A 
ATOM     47  N   UNL A   1      38.990  32.822  33.400  1.00  0.00    -0.354 N 
ATOM     48  C   UNL A   1      39.362  29.872  30.265  1.00  0.00     0.074 A 
ATOM     49  C   UNL A   1      38.354  30.067  29.247  1.00  0.00     0.031 C 
ATOM     50  C   UNL A   1      38.076  34.557  34.476  1.00  0.00     0.029 A 
ATOM     51  C   UNL A   1      39.128  33.550  34.556  1.00  0.00     0.049 A 
ATOM     52  H   UNL A   1      39.567  32.057  33.173  1.00  0.00     0.167 HD
ATOM     53  C   UNL A   1      40.288  28.885  30.235  1.00  0.00     0.031 A 
ATOM     54  C   UNL A   1      40.007  33.421  35.569  1.00  0.00     0.031 A 
ATOM     55  C   UNL A   1      41.311  28.716  31.228  1.00  0.00     0.049 A 
ATOM     56  C   UNL A   1      41.035  32.328  35.507  1.00  0.00     0.074 A 
ATOM     57  C   UNL A   1      42.350  27.802  31.252  1.00  0.00     0.029 A 
ATOM     58  N   UNL A   1      41.427  29.485  32.377  1.00  0.00    -0.354 N 
ATOM     59  N   UNL A   1      41.228  31.425  34.576  1.00  0.00    -0.248 NA
ATOM     60  C   UNL A   1      41.974  32.243  36.635  1.00  0.00     0.031 C 
ATOM     61  C   UNL A   1      43.065  27.987  32.439  1.00  0.00     0.029 A 
ATOM     62  C   UNL A   1      42.504  29.051  33.129  1.00  0.00     0.049 A 
ATOM     63  H   UNL A   1      40.830  30.230  32.620  1.00  0.00     0.167 HD
ATOM     64  C   UNL A   1      42.324  30.682  34.991  1.00  0.00     0.074 A 
ATOM     65  C   UNL A   1      42.762  31.248  36.251  1.00  0.00     0.031 C 
ATOM     66  C   UNL A   1      42.918  29.626  34.383  1.00  0.00     0.031 A 
BRANCH  53  67
ATOM     67  C   UNL A   1      40.220  27.913  29.089  1.00  0.00    -0.014 A 
ATOM     68  C   UNL A   1      39.535  26.692  29.203  1.00  0.00     0.009 A 
ATOM     69  C   UNL A   1      40.852  28.223  27.875  1.00  0.00     0.009 A 
ATOM     70  C   UNL A   1      39.530  25.779  28.146  1.00  0.00     0.001 A 
ATOM     71  C   UNL A   1      40.818  27.322  26.808  1.00  0.00     0.001 A 
ATOM     72  C   UNL A   1      40.170  26.097  26.948  1.00  0.00     0.000 A 
ENDBRANCH  53  67
BRANCH  54  73
ATOM     73  C   UNL A   1      39.975  34.378  36.704  1.00  0.00    -0.014 A 
ATOM     74  C   UNL A   1      39.308  34.040  37.892  1.00  0.00     0.009 A 
ATOM     75  C   UNL A   1      40.620  35.621  36.618  1.00  0.00     0.009 A 
ATOM     76  C   UNL A   1      39.271  34.935  38.964  1.00  0.00     0.001 A 
ATOM     77  C   UNL A   1      40.604  36.504  37.701  1.00  0.00     0.001 A 
ATOM     78  C   UNL A   1      39.924  36.164  38.869  1.00  0.00     0.000 A 
ENDBRANCH  54  73
BRANCH  66  79
ATOM     79  C   UNL A   1      44.123  29.035  35.057  1.00  0.00    -0.014 A 
ATOM     80  C   UNL A   1      44.001  27.967  35.960  1.00  0.00     0.009 A 
ATOM     81  C   UNL A   1      45.401  29.527  34.750  1.00  0.00     0.009 A 
ATOM     82  C   UNL A   1      45.136  27.424  36.564  1.00  0.00     0.001 A 
ATOM     83  C   UNL A   1      46.535  28.964  35.335  1.00  0.00     0.001 A 
ATOM     84  C   UNL A   1      46.401  27.918  36.248  1.00  0.00     0.000 A 
ENDBRANCH  66  79
ENDBRANCH  40  41
ENDBRANCH  32  35
ENDBRANCH  30  31
ENDBRANCH  29  30
ENDBRANCH  28  29
ENDBRANCH   3  28
TORSDOF 15
ENDMDL
MODEL 3
REMARK VINA RESULT:     -11.8      2.102      3.488
REMARK SMILES C[C@@H](Oc1ccc(-c2ccccc2)cc1)C(=O)N1CCC[C@H](C(=O)NCCCNC(=O)c2ccc(-c3c4nc(c(-c5ccccc5)c5ccc([nH]5)c(-c5ccccc5)c5nc(c(-c6ccccc6)c6ccc3[nH]6)C=C5)C=C4)cc2)C1
REMARK SMILES IDX 23 1 24 2 25 3 22 5 18 6 19 7 80 8 20 9 21 10 16 11 17 12
REMARK SMILES IDX 2 13 1 14 3 15 4 16 5 17 15 18 6 19 14 20 7 21 8 22 9 23
REMARK SMILES IDX 13 24 10 25 12 26 11 27 26 28 27 29 28 30 29 31 30 32 31 34
REMARK SMILES IDX 32 35 33 36 79 37 34 38 78 39 35 40 36 41 37 42 72 43 38 44
REMARK SMILES IDX 77 45 71 46 73 47 39 48 76 49 70 50 69 51 40 53 62 54 47 55
REMARK SMILES IDX 61 56 48 57 51 58 60 59 74 60 49 61 50 62 59 64 75 65 52 66
REMARK SMILES IDX 41 67 42 68 46 69 43 70 45 71 44 72 63 73 64 74 68 75 65 76
REMARK SMILES IDX 67 77 66 78 53 79 54 80 58 81 55 82 57 83 56 84
REMARK H PARENT 25 4 29 33 73 52 51 63
REMARK Flexibility Score: inf
ROOT
ATOM      1  C   UNL A   1      34.073  25.844  23.184  1.00  0.00     0.224 C 
ATOM      2  O   UNL A   1      33.849  25.588  21.994  1.00  0.00    -0.275 OA
ATOM      3  N   UNL A   1      34.494  24.800  23.940  1.00  0.00    -0.356 N 
ATOM      4  H   UNL A   1      34.426  23.923  23.497  1.00  0.00     0.163 HD
ENDROOT
BRANCH   1   5
ATOM      5  C   UNL A   1      33.812  27.266  23.704  1.00  0.00     0.098 C 
ATOM      6  N   UNL A   1      31.991  27.501  25.427  1.00  0.00    -0.339 N 
ATOM      7  C   UNL A   1      31.262  28.441  24.583  1.00  0.00     0.119 C 
ATOM      8  C   UNL A   1      33.430  27.407  25.185  1.00  0.00     0.133 C 
ATOM      9  C   UNL A   1      31.502  28.212  23.098  1.00  0.00     0.022 C 
ATOM     10  C   UNL A   1      32.981  28.124  22.748  1.00  0.00     0.017 C 
BRANCH   6  11
ATOM     11  C   UNL A   1      31.279  26.799  26.400  1.00  0.00     0.263 C 
ATOM     12  O   UNL A   1      31.158  27.264  27.541  1.00  0.00    -0.271 OA
BRANCH  11  13
ATOM     13  C   UNL A   1      30.690  25.410  26.098  1.00  0.00     0.259 C 
ATOM     14  C   UNL A   1      29.172  25.286  26.119  1.00  0.00     0.064 C 
BRANCH  13  15
ATOM     15  O   UNL A   1      31.219  25.069  24.809  1.00  0.00    -0.481 OA
BRANCH  15  16
ATOM     16  C   UNL A   1      31.452  23.731  24.682  1.00  0.00     0.120 A 
ATOM     17  C   UNL A   1      31.909  22.984  25.764  1.00  0.00     0.047 A 
ATOM     18  C   UNL A   1      31.373  23.174  23.414  1.00  0.00     0.047 A 
ATOM     19  C   UNL A   1      32.327  21.662  25.561  1.00  0.00     0.012 A 
ATOM     20  C   UNL A   1      31.779  21.859  23.217  1.00  0.00     0.012 A 
ATOM     21  C   UNL A   1      32.302  21.093  24.275  1.00  0.00    -0.018 A 
BRANCH  21  22
ATOM     22  C   UNL A   1      32.886  19.774  23.994  1.00  0.00    -0.018 A 
ATOM     23  C   UNL A   1      34.021  19.297  24.665  1.00  0.00     0.009 A 
ATOM     24  C   UNL A   1      32.291  18.941  23.027  1.00  0.00     0.009 A 
ATOM     25  C   UNL A   1      34.526  18.021  24.391  1.00  0.00     0.001 A 
ATOM     26  C   UNL A   1      32.793  17.670  22.753  1.00  0.00     0.001 A 
ATOM     27  C   UNL A   1      33.910  17.208  23.440  1.00  0.00     0.000 A 
ENDBRANCH  21  22
ENDBRANCH  15  16
ENDBRANCH  13  15
ENDBRANCH  11  13
ENDBRANCH   6  11
ENDBRANCH   1   5
BRANCH   3  28
ATOM     28  C   UNL A   1      35.024  24.749  25.282  1.00  0.00     0.117 C 
BRANCH  28  29
ATOM     29  C   UNL A   1      35.819  23.493  25.591  1.00  0.00     0.042 C 
BRANCH  29  30
ATOM     30  C   UNL A   1      37.062  23.350  24.734  1.00  0.00     0.118 C 
BRANCH  30  31
ATOM     31  N   UNL A   1      38.041  22.427  25.300  1.00  0.00    -0.352 N 
ATOM     32  C   UNL A   1      39.107  22.645  26.143  1.00  0.00     0.251 C 
ATOM     33  H   UNL A   1      37.919  21.487  25.033  1.00  0.00     0.163 HD
ATOM     34  O   UNL A   1      39.871  21.727  26.408  1.00  0.00    -0.269 OA
BRANCH  32  35
ATOM     35  C   UNL A   1      39.351  23.991  26.707  1.00  0.00     0.039 A 
ATOM     36  C   UNL A   1      38.896  24.275  27.997  1.00  0.00     0.014 A 
ATOM     37  C   UNL A   1      40.027  24.966  25.976  1.00  0.00     0.014 A 
ATOM     38  C   UNL A   1      39.192  25.511  28.579  1.00  0.00     0.010 A 
ATOM     39  C   UNL A   1      40.429  26.140  26.599  1.00  0.00     0.010 A 
ATOM     40  C   UNL A   1      40.000  26.434  27.900  1.00  0.00    -0.014 A 
BRANCH  40  41
ATOM     41  C   UNL A   1      40.391  27.730  28.507  1.00  0.00     0.031 A 
ATOM     42  C   UNL A   1      41.788  27.918  29.032  1.00  0.00     0.074 A 
ATOM     43  C   UNL A   1      39.471  28.702  28.665  1.00  0.00     0.049 A 
ATOM     44  N   UNL A   1      42.300  28.933  29.681  1.00  0.00    -0.248 NA
ATOM     45  C   UNL A   1      42.725  26.797  28.842  1.00  0.00     0.031 C 
ATOM     46  C   UNL A   1      38.070  28.626  28.245  1.00  0.00     0.029 A 
ATOM     47  N   UNL A   1      39.582  29.949  29.227  1.00  0.00    -0.354 N 
ATOM     48  C   UNL A   1      43.596  28.556  30.006  1.00  0.00     0.074 A 
ATOM     49  C   UNL A   1      43.776  27.200  29.537  1.00  0.00     0.031 C 
ATOM     50  C   UNL A   1      37.464  29.791  28.524  1.00  0.00     0.029 A 
ATOM     51  C   UNL A   1      38.418  30.677  29.181  1.00  0.00     0.049 A 
ATOM     52  H   UNL A   1      40.415  30.289  29.626  1.00  0.00     0.167 HD
ATOM     53  C   UNL A   1      44.564  29.280  30.616  1.00  0.00     0.031 A 
ATOM     54  C   UNL A   1      38.151  31.922  29.620  1.00  0.00     0.031 A 
ATOM     55  C   UNL A   1      44.395  30.639  31.048  1.00  0.00     0.049 A 
ATOM     56  C   UNL A   1      39.243  32.713  30.281  1.00  0.00     0.074 A 
ATOM     57  C   UNL A   1      45.333  31.492  31.602  1.00  0.00     0.029 A 
ATOM     58  N   UNL A   1      43.205  31.347  30.969  1.00  0.00    -0.354 N 
ATOM     59  N   UNL A   1      40.486  32.370  30.517  1.00  0.00    -0.248 NA
ATOM     60  C   UNL A   1      38.895  34.069  30.729  1.00  0.00     0.031 C 
ATOM     61  C   UNL A   1      44.697  32.702  31.902  1.00  0.00     0.029 A 
ATOM     62  C   UNL A   1      43.377  32.618  31.486  1.00  0.00     0.049 A 
ATOM     63  H   UNL A   1      42.362  30.996  30.599  1.00  0.00     0.167 HD
ATOM     64  C   UNL A   1      41.077  33.473  31.116  1.00  0.00     0.074 A 
ATOM     65  C   UNL A   1      40.059  34.502  31.195  1.00  0.00     0.031 C 
ATOM     66  C   UNL A   1      42.349  33.625  31.560  1.00  0.00     0.031 A 
BRANCH  53  67
ATOM     67  C   UNL A   1      45.884  28.600  30.856  1.00  0.00    -0.014 A 
ATOM     68  C   UNL A   1      46.896  28.600  29.881  1.00  0.00     0.009 A 
ATOM     69  C   UNL A   1      46.121  27.948  32.075  1.00  0.00     0.009 A 
ATOM     70  C   UNL A   1      48.094  27.917  30.101  1.00  0.00     0.001 A 
ATOM     71  C   UNL A   1      47.332  27.293  32.306  1.00  0.00     0.001 A 
ATOM     72  C   UNL A   1      48.312  27.267  31.315  1.00  0.00     0.000 A 
ENDBRANCH  53  67
BRANCH  54  73
ATOM     73  C   UNL A   1      36.803  32.509  29.408  1.00  0.00    -0.014 A 
ATOM     74  C   UNL A   1      35.842  32.454  30.430  1.00  0.00     0.009 A 
ATOM     75  C   UNL A   1      36.471  33.139  28.199  1.00  0.00     0.009 A 
ATOM     76  C   UNL A   1      34.571  33.001  30.239  1.00  0.00     0.001 A 
ATOM     77  C   UNL A   1      35.208  33.708  28.020  1.00  0.00     0.001 A 
ATOM     78  C   UNL A   1      34.257  33.632  29.036  1.00  0.00     0.000 A 
ENDBRANCH  54  73
BRANCH  66  79
ATOM     79  C   UNL A   1      42.718  34.959  32.141  1.00  0.00    -0.014 A 
ATOM     80  C   UNL A   1      42.440  35.271  33.481  1.00  0.00     0.009 A 
ATOM     81  C   UNL A   1      43.393  35.899  31.347  1.00  0.00     0.009 A 
ATOM     82  C   UNL A   1      42.804  36.512  34.004  1.00  0.00     0.001 A 
ATOM     83  C   UNL A   1      43.781  37.128  31.881  1.00  0.00     0.001 A 
ATOM     84  C   UNL A   1      43.479  37.437  33.207  1.00  0.00     0.000 A 
ENDBRANCH  66  79
ENDBRANCH  40  41
ENDBRANCH  32  35
ENDBRANCH  30  31
ENDBRANCH  29  30
ENDBRANCH  28  29
ENDBRANCH   3  28
TORSDOF 15
ENDMDL
