MODEL 1
REMARK VINA RESULT:     -13.5      0.000      0.000
REMARK SMILES C/C(=N\Nc1nc(-c2ccc(Cl)cc2)cs1)c1nnn(-c2ccc(C(=O)NCCCNC(=O)c3ccc(-c4c5nc(c(-c6ccccc6)c6ccc([nH]6)c(-c6ccccc6)c6nc(c(-c7ccccc7)c7ccc4[nH]7)C=C6)C=C5)cc3)cc2)c1C
REMARK SMILES IDX 25 1 26 2 27 3 24 5 21 6 22 7 83 8 23 9 82 10 20 11 17 12
REMARK SMILES IDX 18 13 84 14 19 15 85 16 2 17 1 18 3 19 4 20 5 22 6 23 16 24
REMARK SMILES IDX 7 25 15 26 8 27 9 28 14 29 10 30 13 31 11 32 12 33 28 34
REMARK SMILES IDX 29 35 30 36 31 37 32 38 33 40 34 41 35 42 81 43 36 44 80 45
REMARK SMILES IDX 37 46 38 47 39 48 74 49 40 50 79 51 73 52 75 53 41 54 78 55
REMARK SMILES IDX 72 56 71 57 42 59 64 60 49 61 63 62 50 63 53 64 62 65 76 66
REMARK SMILES IDX 51 67 52 68 61 70 77 71 54 72 43 73 44 74 48 75 45 76 47 77
REMARK SMILES IDX 46 78 65 79 66 80 70 81 67 82 69 83 68 84 55 85 56 86 60 87
REMARK SMILES IDX 57 88 59 89 58 90
REMARK H PARENT 27 4 4 21 31 39 75 58 53 69
REMARK Flexibility Score: inf
ROOT
ATOM      1  C   UNL A   1      40.975  20.895  27.150  1.00  0.00     0.251 C 
ATOM      2  O   UNL A   1      41.038  21.539  28.197  1.00  0.00    -0.269 OA
ATOM      3  N   UNL A   1      42.061  20.123  26.802  1.00  0.00    -0.352 N 
ATOM      4  H   UNL A   1      42.844  20.249  27.386  1.00  0.00     0.163 HD
ENDROOT
BRANCH   1   5
ATOM      5  C   UNL A   1      39.721  20.937  26.346  1.00  0.00     0.039 A 
ATOM      6  C   UNL A   1      37.225  21.032  25.111  1.00  0.00     0.067 A 
ATOM      7  C   UNL A   1      37.754  22.206  25.644  1.00  0.00     0.029 A 
ATOM      8  C   UNL A   1      37.975  19.859  25.067  1.00  0.00     0.029 A 
ATOM      9  C   UNL A   1      39.001  22.146  26.281  1.00  0.00     0.016 A 
ATOM     10  C   UNL A   1      39.231  19.831  25.655  1.00  0.00     0.016 A 
BRANCH   6  11
ATOM     11  N   UNL A   1      35.867  20.950  24.768  1.00  0.00    -0.217 N 
ATOM     12  C   UNL A   1      33.826  21.421  24.195  1.00  0.00     0.132 A 
ATOM     13  N   UNL A   1      33.891  20.103  24.565  1.00  0.00    -0.128 NA
ATOM     14  C   UNL A   1      35.085  21.989  24.307  1.00  0.00     0.071 A 
ATOM     15  N   UNL A   1      35.163  19.806  24.820  1.00  0.00    -0.061 NA
ATOM     16  C   UNL A   1      35.618  23.325  23.924  1.00  0.00     0.069 C 
BRANCH  12  17
ATOM     17  C   UNL A   1      32.632  22.072  23.672  1.00  0.00     0.087 C 
ATOM     18  C   UNL A   1      32.191  21.602  22.307  1.00  0.00     0.071 C 
ATOM     19  N   UNL A   1      32.125  23.021  24.409  1.00  0.00    -0.176 NA
BRANCH  19  20
ATOM     20  N   UNL A   1      31.093  23.842  24.009  1.00  0.00    -0.252 N 
ATOM     21  H   UNL A   1      30.510  23.460  23.314  1.00  0.00     0.193 HD
BRANCH  20  22
ATOM     22  C   UNL A   1      30.746  25.090  24.414  1.00  0.00     0.203 A 
ATOM     23  N   UNL A   1      29.921  25.899  23.794  1.00  0.00    -0.219 NA
ATOM     24  S   UNL A   1      31.500  25.802  25.799  1.00  0.00    -0.103 S 
ATOM     25  C   UNL A   1      30.138  27.202  24.185  1.00  0.00     0.084 A 
ATOM     26  C   UNL A   1      30.973  27.354  25.271  1.00  0.00     0.097 A 
BRANCH  25  27
ATOM     27  C   UNL A   1      29.594  28.283  23.384  1.00  0.00     0.001 A 
ATOM     28  C   UNL A   1      28.207  28.390  23.226  1.00  0.00     0.012 A 
ATOM     29  C   UNL A   1      30.440  29.124  22.645  1.00  0.00     0.012 A 
ATOM     30  C   UNL A   1      27.667  29.344  22.361  1.00  0.00     0.021 A 
ATOM     31  C   UNL A   1      29.899  30.070  21.771  1.00  0.00     0.021 A 
ATOM     32  C   UNL A   1      28.514  30.179  21.635  1.00  0.00     0.041 A 
ATOM     33  Cl  UNL A   1      27.852  31.336  20.549  1.00  0.00    -0.084 Cl
ENDBRANCH  25  27
ENDBRANCH  20  22
ENDBRANCH  19  20
ENDBRANCH  12  17
ENDBRANCH   6  11
ENDBRANCH   1   5
BRANCH   3  34
ATOM     34  C   UNL A   1      42.273  19.152  25.734  1.00  0.00     0.118 C 
BRANCH  34  35
ATOM     35  C   UNL A   1      43.306  18.079  26.110  1.00  0.00     0.042 C 
BRANCH  35  36
ATOM     36  C   UNL A   1      44.735  18.517  25.856  1.00  0.00     0.118 C 
BRANCH  36  37
ATOM     37  N   UNL A   1      45.055  18.597  24.435  1.00  0.00    -0.352 N 
ATOM     38  C   UNL A   1      45.000  19.705  23.610  1.00  0.00     0.251 C 
ATOM     39  H   UNL A   1      45.349  17.758  24.012  1.00  0.00     0.163 HD
ATOM     40  O   UNL A   1      44.941  19.575  22.399  1.00  0.00    -0.269 OA
BRANCH  38  41
ATOM     41  C   UNL A   1      44.992  21.046  24.223  1.00  0.00     0.039 A 
ATOM     42  C   UNL A   1      44.148  22.047  23.739  1.00  0.00     0.014 A 
ATOM     43  C   UNL A   1      45.822  21.287  25.315  1.00  0.00     0.014 A 
ATOM     44  C   UNL A   1      44.082  23.258  24.424  1.00  0.00     0.010 A 
ATOM     45  C   UNL A   1      45.640  22.414  26.079  1.00  0.00     0.010 A 
ATOM     46  C   UNL A   1      44.809  23.424  25.615  1.00  0.00    -0.014 A 
BRANCH  46  47
ATOM     47  C   UNL A   1      44.628  24.621  26.428  1.00  0.00     0.031 A 
ATOM     48  C   UNL A   1      45.715  25.628  26.315  1.00  0.00     0.074 A 
ATOM     49  C   UNL A   1      43.502  24.913  27.111  1.00  0.00     0.049 A 
ATOM     50  N   UNL A   1      46.598  25.922  27.210  1.00  0.00    -0.248 NA
ATOM     51  C   UNL A   1      45.922  26.304  25.025  1.00  0.00     0.031 C 
ATOM     52  C   UNL A   1      42.212  24.214  27.105  1.00  0.00     0.029 A 
ATOM     53  N   UNL A   1      43.252  25.992  27.901  1.00  0.00    -0.354 N 
ATOM     54  C   UNL A   1      47.369  26.948  26.674  1.00  0.00     0.074 A 
ATOM     55  C   UNL A   1      47.009  27.037  25.281  1.00  0.00     0.031 C 
ATOM     56  C   UNL A   1      41.265  25.005  27.657  1.00  0.00     0.029 A 
ATOM     57  C   UNL A   1      41.914  26.174  28.221  1.00  0.00     0.049 A 
ATOM     58  H   UNL A   1      43.962  26.595  28.220  1.00  0.00     0.167 HD
ATOM     59  C   UNL A   1      48.084  27.786  27.476  1.00  0.00     0.031 A 
ATOM     60  C   UNL A   1      41.377  27.218  28.896  1.00  0.00     0.031 A 
ATOM     61  C   UNL A   1      48.167  27.289  28.826  1.00  0.00     0.049 A 
ATOM     62  C   UNL A   1      42.471  27.853  29.664  1.00  0.00     0.074 A 
ATOM     63  C   UNL A   1      48.681  26.153  29.418  1.00  0.00     0.029 A 
ATOM     64  N   UNL A   1      47.298  27.834  29.740  1.00  0.00    -0.354 N 
ATOM     65  N   UNL A   1      43.067  27.279  30.668  1.00  0.00    -0.248 NA
ATOM     66  C   UNL A   1      43.196  28.954  29.053  1.00  0.00     0.031 C 
ATOM     67  C   UNL A   1      47.743  25.817  30.439  1.00  0.00     0.029 A 
ATOM     68  C   UNL A   1      46.752  26.801  30.458  1.00  0.00     0.049 A 
ATOM     69  H   UNL A   1      47.102  28.791  29.858  1.00  0.00     0.167 HD
ATOM     70  C   UNL A   1      44.402  27.626  30.528  1.00  0.00     0.074 A 
ATOM     71  C   UNL A   1      44.402  28.752  29.594  1.00  0.00     0.031 C 
ATOM     72  C   UNL A   1      45.394  26.791  30.957  1.00  0.00     0.031 A 
BRANCH  59  73
ATOM     73  C   UNL A   1      48.360  29.233  27.156  1.00  0.00    -0.014 A 
ATOM     74  C   UNL A   1      49.691  29.630  26.926  1.00  0.00     0.009 A 
ATOM     75  C   UNL A   1      47.419  30.259  27.357  1.00  0.00     0.009 A 
ATOM     76  C   UNL A   1      50.068  30.978  26.971  1.00  0.00     0.001 A 
ATOM     77  C   UNL A   1      47.786  31.608  27.362  1.00  0.00     0.001 A 
ATOM     78  C   UNL A   1      49.117  31.965  27.199  1.00  0.00     0.000 A 
ENDBRANCH  59  73
BRANCH  60  79
ATOM     79  C   UNL A   1      40.046  27.839  28.760  1.00  0.00    -0.014 A 
ATOM     80  C   UNL A   1      39.139  27.826  29.831  1.00  0.00     0.009 A 
ATOM     81  C   UNL A   1      39.779  28.702  27.682  1.00  0.00     0.009 A 
ATOM     82  C   UNL A   1      38.032  28.684  29.846  1.00  0.00     0.001 A 
ATOM     83  C   UNL A   1      38.672  29.557  27.696  1.00  0.00     0.001 A 
ATOM     84  C   UNL A   1      37.810  29.562  28.788  1.00  0.00     0.000 A 
ENDBRANCH  60  79
BRANCH  72  85
ATOM     85  C   UNL A   1      45.003  25.613  31.818  1.00  0.00    -0.014 A 
ATOM     86  C   UNL A   1      44.432  24.434  31.302  1.00  0.00     0.009 A 
ATOM     87  C   UNL A   1      45.357  25.638  33.175  1.00  0.00     0.009 A 
ATOM     88  C   UNL A   1      44.193  23.331  32.130  1.00  0.00     0.001 A 
ATOM     89  C   UNL A   1      45.141  24.529  33.995  1.00  0.00     0.001 A 
ATOM     90  C   UNL A   1      44.554  23.378  33.475  1.00  0.00     0.000 A 
ENDBRANCH  72  85
ENDBRANCH  46  47
ENDBRANCH  38  41
ENDBRANCH  36  37
ENDBRANCH  35  36
ENDBRANCH  34  35
ENDBRANCH   3  34
TORSDOF 15
ENDMDL
MODEL 2
REMARK VINA RESULT:     -13.3      1.521      2.018
REMARK SMILES C/C(=N\Nc1nc(-c2ccc(Cl)cc2)cs1)c1nnn(-c2ccc(C(=O)NCCCNC(=O)c3ccc(-c4c5nc(c(-c6ccccc6)c6ccc([nH]6)c(-c6ccccc6)c6nc(c(-c7ccccc7)c7ccc4[nH]7)C=C6)C=C5)cc3)cc2)c1C
REMARK SMILES IDX 25 1 26 2 27 3 24 5 21 6 22 7 83 8 23 9 82 10 20 11 17 12
REMARK SMILES IDX 18 13 84 14 19 15 85 16 2 17 1 18 3 19 4 20 5 22 6 23 16 24
REMARK SMILES IDX 7 25 15 26 8 27 9 28 14 29 10 30 13 31 11 32 12 33 28 34
REMARK SMILES IDX 29 35 30 36 31 37 32 38 33 40 34 41 35 42 81 43 36 44 80 45
REMARK SMILES IDX 37 46 38 47 39 48 74 49 40 50 79 51 73 52 75 53 41 54 78 55
REMARK SMILES IDX 72 56 71 57 42 59 64 60 49 61 63 62 50 63 53 64 62 65 76 66
REMARK SMILES IDX 51 67 52 68 61 70 77 71 54 72 43 73 44 74 48 75 45 76 47 77
REMARK SMILES IDX 46 78 65 79 66 80 70 81 67 82 69 83 68 84 55 85 56 86 60 87
REMARK SMILES IDX 57 88 59 89 58 90
REMARK H PARENT 27 4 4 21 31 39 75 58 53 69
REMARK Flexibility Score: inf
ROOT
ATOM      1  C   UNL A   1      41.154  20.839  27.302  1.00  0.00     0.251 C 
ATOM      2  O   UNL A   1      41.264  21.523  28.319  1.00  0.00    -0.269 OA
ATOM      3  N   UNL A   1      42.174  19.965  27.000  1.00  0.00    -0.352 N 
ATOM      4  H   UNL A   1      42.962  20.053  27.584  1.00  0.00     0.163 HD
ENDROOT
BRANCH   1   5
ATOM      5  C   UNL A   1      39.912  20.947  26.485  1.00  0.00     0.039 A 
ATOM      6  C   UNL A   1      37.438  21.175  25.224  1.00  0.00     0.067 A 
ATOM      7  C   UNL A   1      38.028  22.321  25.754  1.00  0.00     0.029 A 
ATOM      8  C   UNL A   1      38.120  19.961  25.196  1.00  0.00     0.029 A 
ATOM      9  C   UNL A   1      39.263  22.194  26.404  1.00  0.00     0.016 A 
ATOM     10  C   UNL A   1      39.366  19.866  25.796  1.00  0.00     0.016 A 
BRANCH   6  11
ATOM     11  N   UNL A   1      36.081  21.168  24.867  1.00  0.00    -0.217 N 
ATOM     12  C   UNL A   1      34.070  21.754  24.291  1.00  0.00     0.132 A 
ATOM     13  N   UNL A   1      34.068  20.424  24.626  1.00  0.00    -0.128 NA
ATOM     14  C   UNL A   1      35.355  22.256  24.429  1.00  0.00     0.071 A 
ATOM     15  N   UNL A   1      35.322  20.059  24.883  1.00  0.00    -0.061 NA
ATOM     16  C   UNL A   1      35.955  23.575  24.087  1.00  0.00     0.069 C 
BRANCH  12  17
ATOM     17  C   UNL A   1      32.914  22.476  23.777  1.00  0.00     0.087 C 
ATOM     18  C   UNL A   1      32.549  22.164  22.345  1.00  0.00     0.071 C 
ATOM     19  N   UNL A   1      32.374  23.347  24.584  1.00  0.00    -0.176 NA
BRANCH  19  20
ATOM     20  N   UNL A   1      31.375  24.222  24.219  1.00  0.00    -0.252 N 
ATOM     21  H   UNL A   1      30.541  23.791  23.921  1.00  0.00     0.193 HD
BRANCH  20  22
ATOM     22  C   UNL A   1      31.347  25.579  24.203  1.00  0.00     0.203 A 
ATOM     23  N   UNL A   1      32.256  26.373  24.715  1.00  0.00    -0.219 NA
ATOM     24  S   UNL A   1      29.972  26.418  23.572  1.00  0.00    -0.103 S 
ATOM     25  C   UNL A   1      31.727  27.625  24.944  1.00  0.00     0.084 A 
ATOM     26  C   UNL A   1      30.483  27.843  24.392  1.00  0.00     0.097 A 
BRANCH  25  27
ATOM     27  C   UNL A   1      32.434  28.544  25.816  1.00  0.00     0.001 A 
ATOM     28  C   UNL A   1      31.832  29.758  26.168  1.00  0.00     0.012 A 
ATOM     29  C   UNL A   1      33.765  28.302  26.184  1.00  0.00     0.012 A 
ATOM     30  C   UNL A   1      32.541  30.711  26.903  1.00  0.00     0.021 A 
ATOM     31  C   UNL A   1      34.479  29.261  26.910  1.00  0.00     0.021 A 
ATOM     32  C   UNL A   1      33.862  30.460  27.269  1.00  0.00     0.041 A 
ATOM     33  Cl  UNL A   1      34.745  31.643  28.151  1.00  0.00    -0.084 Cl
ENDBRANCH  25  27
ENDBRANCH  20  22
ENDBRANCH  19  20
ENDBRANCH  12  17
ENDBRANCH   6  11
ENDBRANCH   1   5
BRANCH   3  34
ATOM     34  C   UNL A   1      42.311  18.932  25.979  1.00  0.00     0.118 C 
BRANCH  34  35
ATOM     35  C   UNL A   1      43.476  17.971  26.266  1.00  0.00     0.042 C 
BRANCH  35  36
ATOM     36  C   UNL A   1      44.832  18.577  25.964  1.00  0.00     0.118 C 
BRANCH  36  37
ATOM     37  N   UNL A   1      45.117  18.635  24.534  1.00  0.00    -0.352 N 
ATOM     38  C   UNL A   1      44.986  19.715  23.682  1.00  0.00     0.251 C 
ATOM     39  H   UNL A   1      45.445  17.801  24.126  1.00  0.00     0.163 HD
ATOM     40  O   UNL A   1      44.908  19.549  22.476  1.00  0.00    -0.269 OA
BRANCH  38  41
ATOM     41  C   UNL A   1      44.920  21.071  24.260  1.00  0.00     0.039 A 
ATOM     42  C   UNL A   1      43.880  21.940  23.924  1.00  0.00     0.014 A 
ATOM     43  C   UNL A   1      45.900  21.457  25.172  1.00  0.00     0.014 A 
ATOM     44  C   UNL A   1      43.788  23.162  24.586  1.00  0.00     0.010 A 
ATOM     45  C   UNL A   1      45.720  22.584  25.934  1.00  0.00     0.010 A 
ATOM     46  C   UNL A   1      44.695  23.466  25.616  1.00  0.00    -0.014 A 
BRANCH  46  47
ATOM     47  C   UNL A   1      44.517  24.665  26.426  1.00  0.00     0.031 A 
ATOM     48  C   UNL A   1      45.601  25.674  26.302  1.00  0.00     0.074 A 
ATOM     49  C   UNL A   1      43.394  24.957  27.115  1.00  0.00     0.049 A 
ATOM     50  N   UNL A   1      46.489  25.974  27.190  1.00  0.00    -0.248 NA
ATOM     51  C   UNL A   1      45.797  26.346  25.008  1.00  0.00     0.031 C 
ATOM     52  C   UNL A   1      42.106  24.254  27.119  1.00  0.00     0.029 A 
ATOM     53  N   UNL A   1      43.147  26.038  27.902  1.00  0.00    -0.354 N 
ATOM     54  C   UNL A   1      47.253  27.000  26.646  1.00  0.00     0.074 A 
ATOM     55  C   UNL A   1      46.884  27.083  25.254  1.00  0.00     0.031 C 
ATOM     56  C   UNL A   1      41.161  25.045  27.675  1.00  0.00     0.029 A 
ATOM     57  C   UNL A   1      41.810  26.218  28.230  1.00  0.00     0.049 A 
ATOM     58  H   UNL A   1      43.857  26.644  28.214  1.00  0.00     0.167 HD
ATOM     59  C   UNL A   1      47.971  27.843  27.439  1.00  0.00     0.031 A 
ATOM     60  C   UNL A   1      41.275  27.263  28.905  1.00  0.00     0.031 A 
ATOM     61  C   UNL A   1      48.064  27.351  28.791  1.00  0.00     0.049 A 
ATOM     62  C   UNL A   1      42.372  27.904  29.663  1.00  0.00     0.074 A 
ATOM     63  C   UNL A   1      48.585  26.219  29.384  1.00  0.00     0.029 A 
ATOM     64  N   UNL A   1      47.199  27.897  29.709  1.00  0.00    -0.354 N 
ATOM     65  N   UNL A   1      42.976  27.335  30.665  1.00  0.00    -0.248 NA
ATOM     66  C   UNL A   1      43.091  29.004  29.043  1.00  0.00     0.031 C 
ATOM     67  C   UNL A   1      47.655  25.884  30.412  1.00  0.00     0.029 A 
ATOM     68  C   UNL A   1      46.661  26.866  30.434  1.00  0.00     0.049 A 
ATOM     69  H   UNL A   1      47.002  28.855  29.824  1.00  0.00     0.167 HD
ATOM     70  C   UNL A   1      44.310  27.685  30.515  1.00  0.00     0.074 A 
ATOM     71  C   UNL A   1      44.300  28.807  29.578  1.00  0.00     0.031 C 
ATOM     72  C   UNL A   1      45.306  26.854  30.942  1.00  0.00     0.031 A 
BRANCH  59  73
ATOM     73  C   UNL A   1      48.242  29.289  27.113  1.00  0.00    -0.014 A 
ATOM     74  C   UNL A   1      49.560  29.770  27.225  1.00  0.00     0.009 A 
ATOM     75  C   UNL A   1      47.225  30.252  26.983  1.00  0.00     0.009 A 
ATOM     76  C   UNL A   1      49.833  31.142  27.282  1.00  0.00     0.001 A 
ATOM     77  C   UNL A   1      47.499  31.624  27.000  1.00  0.00     0.001 A 
ATOM     78  C   UNL A   1      48.801  32.068  27.179  1.00  0.00     0.000 A 
ENDBRANCH  59  73
BRANCH  60  79
ATOM     79  C   UNL A   1      39.942  27.881  28.775  1.00  0.00    -0.014 A 
ATOM     80  C   UNL A   1      39.048  27.885  29.858  1.00  0.00     0.009 A 
ATOM     81  C   UNL A   1      39.660  28.724  27.685  1.00  0.00     0.009 A 
ATOM     82  C   UNL A   1      37.940  28.742  29.871  1.00  0.00     0.001 A 
ATOM     83  C   UNL A   1      38.552  29.579  27.699  1.00  0.00     0.001 A 
ATOM     84  C   UNL A   1      37.704  29.601  28.801  1.00  0.00     0.000 A 
ENDBRANCH  60  79
BRANCH  72  85
ATOM     85  C   UNL A   1      44.924  25.678  31.809  1.00  0.00    -0.014 A 
ATOM     86  C   UNL A   1      44.483  24.446  31.291  1.00  0.00     0.009 A 
ATOM     87  C   UNL A   1      45.154  25.772  33.189  1.00  0.00     0.009 A 
ATOM     88  C   UNL A   1      44.250  23.355  32.136  1.00  0.00     0.001 A 
ATOM     89  C   UNL A   1      44.945  24.676  34.029  1.00  0.00     0.001 A 
ATOM     90  C   UNL A   1      44.487  23.469  33.504  1.00  0.00     0.000 A 
ENDBRANCH  72  85
ENDBRANCH  46  47
ENDBRANCH  38  41
ENDBRANCH  36  37
ENDBRANCH  35  36
ENDBRANCH  34  35
ENDBRANCH   3  34
TORSDOF 15
ENDMDL
MODEL 3
REMARK VINA RESULT:     -12.9      5.340     10.957
REMARK SMILES C/C(=N\Nc1nc(-c2ccc(Cl)cc2)cs1)c1nnn(-c2ccc(C(=O)NCCCNC(=O)c3ccc(-c4c5nc(c(-c6ccccc6)c6ccc([nH]6)c(-c6ccccc6)c6nc(c(-c7ccccc7)c7ccc4[nH]7)C=C6)C=C5)cc3)cc2)c1C
REMARK SMILES IDX 25 1 26 2 27 3 24 5 21 6 22 7 83 8 23 9 82 10 20 11 17 12
REMARK SMILES IDX 18 13 84 14 19 15 85 16 2 17 1 18 3 19 4 20 5 22 6 23 16 24
REMARK SMILES IDX 7 25 15 26 8 27 9 28 14 29 10 30 13 31 11 32 12 33 28 34
REMARK SMILES IDX 29 35 30 36 31 37 32 38 33 40 34 41 35 42 81 43 36 44 80 45
REMARK SMILES IDX 37 46 38 47 39 48 74 49 40 50 79 51 73 52 75 53 41 54 78 55
REMARK SMILES IDX 72 56 71 57 42 59 64 60 49 61 63 62 50 63 53 64 62 65 76 66
REMARK SMILES IDX 51 67 52 68 61 70 77 71 54 72 43 73 44 74 48 75 45 76 47 77
REMARK SMILES IDX 46 78 65 79 66 80 70 81 67 82 69 83 68 84 55 85 56 86 60 87
REMARK SMILES IDX 57 88 59 89 58 90
REMARK H PARENT 27 4 4 21 31 39 75 58 53 69
REMARK Flexibility Score: inf
ROOT
ATOM      1  C   UNL A   1      35.420  33.104  27.843  1.00  0.00     0.251 C 
ATOM      2  O   UNL A   1      36.631  33.004  27.648  1.00  0.00    -0.269 OA
ATOM      3  N   UNL A   1      34.902  34.362  28.053  1.00  0.00    -0.352 N 
ATOM      4  H   UNL A   1      35.585  35.067  28.135  1.00  0.00     0.163 HD
ENDROOT
BRANCH   1   5
ATOM      5  C   UNL A   1      34.573  31.879  27.791  1.00  0.00     0.039 A 
ATOM      6  C   UNL A   1      33.161  29.500  27.450  1.00  0.00     0.067 A 
ATOM      7  C   UNL A   1      34.426  29.452  28.033  1.00  0.00     0.029 A 
ATOM      8  C   UNL A   1      32.546  30.717  27.166  1.00  0.00     0.029 A 
ATOM      9  C   UNL A   1      35.138  30.650  28.182  1.00  0.00     0.016 A 
ATOM     10  C   UNL A   1      33.245  31.898  27.370  1.00  0.00     0.016 A 
BRANCH   6  11
ATOM     11  N   UNL A   1      32.547  28.333  26.972  1.00  0.00    -0.217 N 
ATOM     12  C   UNL A   1      31.938  26.645  25.749  1.00  0.00     0.132 A 
ATOM     13  N   UNL A   1      31.120  26.717  26.847  1.00  0.00    -0.128 NA
ATOM     14  C   UNL A   1      32.872  27.668  25.808  1.00  0.00     0.071 A 
ATOM     15  N   UNL A   1      31.566  27.694  27.633  1.00  0.00    -0.061 NA
ATOM     16  C   UNL A   1      34.059  27.987  24.970  1.00  0.00     0.069 C 
BRANCH  12  17
ATOM     17  C   UNL A   1      31.880  25.590  24.746  1.00  0.00     0.087 C 
ATOM     18  C   UNL A   1      30.742  25.704  23.760  1.00  0.00     0.071 C 
ATOM     19  N   UNL A   1      32.771  24.644  24.854  1.00  0.00    -0.176 NA
BRANCH  19  20
ATOM     20  N   UNL A   1      32.776  23.496  24.092  1.00  0.00    -0.252 N 
ATOM     21  H   UNL A   1      32.049  23.440  23.430  1.00  0.00     0.193 HD
BRANCH  20  22
ATOM     22  C   UNL A   1      33.616  22.430  24.100  1.00  0.00     0.203 A 
ATOM     23  N   UNL A   1      33.263  21.171  24.011  1.00  0.00    -0.219 NA
ATOM     24  S   UNL A   1      35.311  22.655  24.363  1.00  0.00    -0.103 S 
ATOM     25  C   UNL A   1      34.258  20.355  24.504  1.00  0.00     0.084 A 
ATOM     26  C   UNL A   1      35.457  20.985  24.755  1.00  0.00     0.097 A 
BRANCH  25  27
ATOM     27  C   UNL A   1      33.948  18.975  24.826  1.00  0.00     0.001 A 
ATOM     28  C   UNL A   1      34.844  17.965  24.456  1.00  0.00     0.012 A 
ATOM     29  C   UNL A   1      32.700  18.627  25.362  1.00  0.00     0.012 A 
ATOM     30  C   UNL A   1      34.511  16.621  24.644  1.00  0.00     0.021 A 
ATOM     31  C   UNL A   1      32.361  17.282  25.538  1.00  0.00     0.021 A 
ATOM     32  C   UNL A   1      33.270  16.285  25.182  1.00  0.00     0.041 A 
ATOM     33  Cl  UNL A   1      32.847  14.631  25.389  1.00  0.00    -0.084 Cl
ENDBRANCH  25  27
ENDBRANCH  20  22
ENDBRANCH  19  20
ENDBRANCH  12  17
ENDBRANCH   6  11
ENDBRANCH   1   5
BRANCH   3  34
ATOM     34  C   UNL A   1      33.533  34.852  28.176  1.00  0.00     0.118 C 
BRANCH  34  35
ATOM     35  C   UNL A   1      33.265  35.515  29.537  1.00  0.00     0.042 C 
BRANCH  35  36
ATOM     36  C   UNL A   1      33.987  34.832  30.681  1.00  0.00     0.118 C 
BRANCH  36  37
ATOM     37  N   UNL A   1      34.079  35.673  31.870  1.00  0.00    -0.352 N 
ATOM     38  C   UNL A   1      34.784  35.429  33.034  1.00  0.00     0.251 C 
ATOM     39  H   UNL A   1      33.578  36.520  31.839  1.00  0.00     0.163 HD
ATOM     40  O   UNL A   1      34.500  36.013  34.066  1.00  0.00    -0.269 OA
BRANCH  38  41
ATOM     41  C   UNL A   1      35.873  34.434  33.009  1.00  0.00     0.039 A 
ATOM     42  C   UNL A   1      35.593  33.068  33.072  1.00  0.00     0.014 A 
ATOM     43  C   UNL A   1      37.186  34.883  32.889  1.00  0.00     0.014 A 
ATOM     44  C   UNL A   1      36.639  32.161  32.920  1.00  0.00     0.010 A 
ATOM     45  C   UNL A   1      38.188  33.996  32.581  1.00  0.00     0.010 A 
ATOM     46  C   UNL A   1      37.933  32.633  32.643  1.00  0.00    -0.014 A 
BRANCH  46  47
ATOM     47  C   UNL A   1      39.005  31.697  32.322  1.00  0.00     0.031 A 
ATOM     48  C   UNL A   1      39.794  31.221  33.488  1.00  0.00     0.074 A 
ATOM     49  C   UNL A   1      39.196  31.148  31.105  1.00  0.00     0.049 A 
ATOM     50  N   UNL A   1      41.011  31.533  33.783  1.00  0.00    -0.248 NA
ATOM     51  C   UNL A   1      39.122  30.399  34.508  1.00  0.00     0.031 C 
ATOM     52  C   UNL A   1      38.352  31.242  29.908  1.00  0.00     0.029 A 
ATOM     53  N   UNL A   1      40.171  30.283  30.715  1.00  0.00    -0.354 N 
ATOM     54  C   UNL A   1      41.333  30.810  34.926  1.00  0.00     0.074 A 
ATOM     55  C   UNL A   1      40.094  30.253  35.412  1.00  0.00     0.031 C 
ATOM     56  C   UNL A   1      38.720  30.292  29.019  1.00  0.00     0.029 A 
ATOM     57  C   UNL A   1      39.933  29.658  29.499  1.00  0.00     0.049 A 
ATOM     58  H   UNL A   1      40.979  30.114  31.251  1.00  0.00     0.167 HD
ATOM     59  C   UNL A   1      42.629  30.551  35.257  1.00  0.00     0.031 A 
ATOM     60  C   UNL A   1      40.680  28.681  28.931  1.00  0.00     0.031 A 
ATOM     61  C   UNL A   1      43.545  31.347  34.480  1.00  0.00     0.049 A 
ATOM     62  C   UNL A   1      42.026  28.746  29.541  1.00  0.00     0.074 A 
ATOM     63  C   UNL A   1      43.772  32.699  34.321  1.00  0.00     0.029 A 
ATOM     64  N   UNL A   1      44.136  30.733  33.401  1.00  0.00    -0.354 N 
ATOM     65  N   UNL A   1      42.850  29.733  29.350  1.00  0.00    -0.248 NA
ATOM     66  C   UNL A   1      42.298  27.921  30.706  1.00  0.00     0.031 C 
ATOM     67  C   UNL A   1      44.055  32.860  32.932  1.00  0.00     0.029 A 
ATOM     68  C   UNL A   1      44.055  31.596  32.339  1.00  0.00     0.049 A 
ATOM     69  H   UNL A   1      44.543  29.836  33.393  1.00  0.00     0.167 HD
ATOM     70  C   UNL A   1      43.450  29.934  30.584  1.00  0.00     0.074 A 
ATOM     71  C   UNL A   1      43.164  28.717  31.342  1.00  0.00     0.031 C 
ATOM     72  C   UNL A   1      43.873  31.174  30.966  1.00  0.00     0.031 A 
BRANCH  59  73
ATOM     73  C   UNL A   1      43.087  29.309  35.978  1.00  0.00    -0.014 A 
ATOM     74  C   UNL A   1      44.191  29.403  36.846  1.00  0.00     0.009 A 
ATOM     75  C   UNL A   1      42.669  28.014  35.622  1.00  0.00     0.009 A 
ATOM     76  C   UNL A   1      44.884  28.262  37.271  1.00  0.00     0.001 A 
ATOM     77  C   UNL A   1      43.335  26.871  36.076  1.00  0.00     0.001 A 
ATOM     78  C   UNL A   1      44.461  26.998  36.877  1.00  0.00     0.000 A 
ENDBRANCH  59  73
BRANCH  60  79
ATOM     79  C   UNL A   1      40.260  27.561  28.067  1.00  0.00    -0.014 A 
ATOM     80  C   UNL A   1      40.871  27.353  26.820  1.00  0.00     0.009 A 
ATOM     81  C   UNL A   1      39.466  26.525  28.592  1.00  0.00     0.009 A 
ATOM     82  C   UNL A   1      40.736  26.131  26.149  1.00  0.00     0.001 A 
ATOM     83  C   UNL A   1      39.331  25.306  27.920  1.00  0.00     0.001 A 
ATOM     84  C   UNL A   1      39.982  25.102  26.708  1.00  0.00     0.000 A 
ENDBRANCH  60  79
BRANCH  72  85
ATOM     85  C   UNL A   1      43.913  32.263  29.919  1.00  0.00    -0.014 A 
ATOM     86  C   UNL A   1      42.827  33.117  29.651  1.00  0.00     0.009 A 
ATOM     87  C   UNL A   1      45.135  32.526  29.284  1.00  0.00     0.009 A 
ATOM     88  C   UNL A   1      42.956  34.180  28.749  1.00  0.00     0.001 A 
ATOM     89  C   UNL A   1      45.271  33.600  28.404  1.00  0.00     0.001 A 
ATOM     90  C   UNL A   1      44.181  34.424  28.131  1.00  0.00     0.000 A 
ENDBRANCH  72  85
ENDBRANCH  46  47
ENDBRANCH  38  41
ENDBRANCH  36  37
ENDBRANCH  35  36
ENDBRANCH  34  35
ENDBRANCH   3  34
TORSDOF 15
ENDMDL
