MODEL 1
REMARK VINA RESULT:      -9.4      0.000      0.000
REMARK SMILES O=C(CCS(=O)(=O)c1ccc2[nH]c(=O)oc2c1)NCCCNC(=O)c1ccc(-c2c3nc(c(-c4ccccc4)c4ccc([nH]4)c(-c4ccccc4)c4nc(c(-c5ccccc5)c5ccc2[nH]5)C=C4)C=C3)cc1
REMARK SMILES IDX 19 1 18 2 1 3 2 4 3 6 4 7 5 8 6 9 7 10 8 11 9 12 17 13 10 14
REMARK SMILES IDX 16 15 11 16 15 17 12 18 13 19 14 21 20 22 21 23 22 24 23 25
REMARK SMILES IDX 24 27 25 28 26 29 72 30 27 31 71 32 28 33 29 34 30 35 65 36
REMARK SMILES IDX 31 37 70 38 64 39 66 40 32 41 69 42 63 43 62 44 33 46 55 47
REMARK SMILES IDX 40 48 54 49 41 50 44 51 53 52 67 53 42 54 43 55 52 57 68 58
REMARK SMILES IDX 45 59 34 60 35 61 39 62 36 63 38 64 37 65 56 66 57 67 61 68
REMARK SMILES IDX 58 69 60 70 59 71 46 72 47 73 51 74 48 75 50 76 49 77
REMARK H PARENT 18 5 12 20 22 26 66 45 44 56
REMARK Flexibility Score: inf
ROOT
ATOM      1  C   UNL A   1      44.206  19.100  24.735  1.00  0.00     0.117 C 
ENDROOT
BRANCH   1   2
ATOM      2  N   UNL A   1      45.096  20.145  25.203  1.00  0.00    -0.356 N 
ATOM      3  O   UNL A   1      44.510  21.615  23.539  1.00  0.00    -0.275 OA
ATOM      4  C   UNL A   1      45.133  21.363  24.566  1.00  0.00     0.221 C 
ATOM      5  H   UNL A   1      45.678  19.981  25.980  1.00  0.00     0.163 HD
BRANCH   4   6
ATOM      6  C   UNL A   1      45.895  22.440  25.291  1.00  0.00     0.116 C 
BRANCH   6   7
ATOM      7  C   UNL A   1      45.840  23.754  24.522  1.00  0.00     0.152 C 
BRANCH   7   8
ATOM      8  S   UNL A   1      46.917  25.019  25.152  1.00  0.00     0.179 S 
ATOM      9  O   UNL A   1      47.721  24.420  26.208  1.00  0.00    -0.224 OA
ATOM     10  O   UNL A   1      47.552  25.655  24.014  1.00  0.00    -0.224 OA
BRANCH   8  11
ATOM     11  C   UNL A   1      45.985  26.307  25.959  1.00  0.00     0.071 A 
ATOM     12  C   UNL A   1      44.605  26.356  25.632  1.00  0.00     0.023 A 
ATOM     13  C   UNL A   1      46.593  27.340  26.677  1.00  0.00     0.069 A 
ATOM     14  C   UNL A   1      43.848  27.496  25.899  1.00  0.00     0.031 A 
ATOM     15  C   UNL A   1      45.836  28.480  26.865  1.00  0.00     0.157 A 
ATOM     16  C   UNL A   1      44.526  28.559  26.440  1.00  0.00     0.087 A 
ATOM     17  O   UNL A   1      46.347  29.721  27.225  1.00  0.00    -0.408 OA
ATOM     18  N   UNL A   1      44.198  29.884  26.452  1.00  0.00    -0.287 N 
ATOM     19  C   UNL A   1      45.306  30.589  26.862  1.00  0.00     0.417 A 
ATOM     20  H   UNL A   1      43.324  30.268  26.210  1.00  0.00     0.173 HD
ATOM     21  O   UNL A   1      45.404  31.806  26.863  1.00  0.00    -0.224 OA
ENDBRANCH   8  11
ENDBRANCH   7   8
ENDBRANCH   6   7
ENDBRANCH   4   6
ENDBRANCH   1   2
BRANCH   1  22
ATOM     22  C   UNL A   1      43.926  17.991  25.729  1.00  0.00     0.042 C 
BRANCH  22  23
ATOM     23  C   UNL A   1      42.854  18.305  26.763  1.00  0.00     0.118 C 
BRANCH  23  24
ATOM     24  N   UNL A   1      41.548  18.626  26.199  1.00  0.00    -0.352 N 
ATOM     25  C   UNL A   1      40.848  19.812  26.195  1.00  0.00     0.251 C 
ATOM     26  H   UNL A   1      41.095  17.877  25.749  1.00  0.00     0.163 HD
ATOM     27  O   UNL A   1      39.696  19.854  25.772  1.00  0.00    -0.269 OA
BRANCH  25  28
ATOM     28  C   UNL A   1      41.463  21.031  26.756  1.00  0.00     0.039 A 
ATOM     29  C   UNL A   1      41.938  22.012  25.883  1.00  0.00     0.014 A 
ATOM     30  C   UNL A   1      41.514  21.233  28.135  1.00  0.00     0.014 A 
ATOM     31  C   UNL A   1      42.352  23.241  26.391  1.00  0.00     0.010 A 
ATOM     32  C   UNL A   1      41.801  22.496  28.628  1.00  0.00     0.010 A 
ATOM     33  C   UNL A   1      42.221  23.515  27.762  1.00  0.00    -0.014 A 
BRANCH  33  34
ATOM     34  C   UNL A   1      42.507  24.860  28.314  1.00  0.00     0.031 A 
ATOM     35  C   UNL A   1      43.887  25.187  28.813  1.00  0.00     0.074 A 
ATOM     36  C   UNL A   1      41.505  25.752  28.435  1.00  0.00     0.049 A 
ATOM     37  N   UNL A   1      44.320  26.282  29.383  1.00  0.00    -0.248 NA
ATOM     38  C   UNL A   1      44.908  24.131  28.690  1.00  0.00     0.031 C 
ATOM     39  C   UNL A   1      40.111  25.526  28.044  1.00  0.00     0.029 A 
ATOM     40  N   UNL A   1      41.504  27.033  28.927  1.00  0.00    -0.354 N 
ATOM     41  C   UNL A   1      45.649  26.037  29.702  1.00  0.00     0.074 A 
ATOM     42  C   UNL A   1      45.932  24.670  29.331  1.00  0.00     0.031 C 
ATOM     43  C   UNL A   1      39.402  26.644  28.265  1.00  0.00     0.029 A 
ATOM     44  C   UNL A   1      40.277  27.649  28.859  1.00  0.00     0.049 A 
ATOM     45  H   UNL A   1      42.307  27.470  29.293  1.00  0.00     0.167 HD
ATOM     46  C   UNL A   1      46.563  26.884  30.233  1.00  0.00     0.031 A 
ATOM     47  C   UNL A   1      39.901  28.886  29.233  1.00  0.00     0.031 A 
ATOM     48  C   UNL A   1      46.275  28.246  30.592  1.00  0.00     0.049 A 
ATOM     49  C   UNL A   1      40.936  29.806  29.819  1.00  0.00     0.074 A 
ATOM     50  C   UNL A   1      47.136  29.208  31.087  1.00  0.00     0.029 A 
ATOM     51  N   UNL A   1      45.024  28.837  30.493  1.00  0.00    -0.354 N 
ATOM     52  N   UNL A   1      42.208  29.585  30.047  1.00  0.00    -0.248 NA
ATOM     53  C   UNL A   1      40.483  31.155  30.182  1.00  0.00     0.031 C 
ATOM     54  C   UNL A   1      46.394  30.365  31.342  1.00  0.00     0.029 A 
ATOM     55  C   UNL A   1      45.086  30.146  30.938  1.00  0.00     0.049 A 
ATOM     56  H   UNL A   1      44.214  28.392  30.157  1.00  0.00     0.167 HD
ATOM     57  C   UNL A   1      42.716  30.776  30.548  1.00  0.00     0.074 A 
ATOM     58  C   UNL A   1      41.616  31.722  30.569  1.00  0.00     0.031 C 
ATOM     59  C   UNL A   1      43.977  31.066  30.953  1.00  0.00     0.031 A 
BRANCH  46  60
ATOM     60  C   UNL A   1      47.952  26.349  30.457  1.00  0.00    -0.014 A 
ATOM     61  C   UNL A   1      48.917  26.369  29.435  1.00  0.00     0.009 A 
ATOM     62  C   UNL A   1      48.308  25.831  31.711  1.00  0.00     0.009 A 
ATOM     63  C   UNL A   1      50.191  25.840  29.650  1.00  0.00     0.001 A 
ATOM     64  C   UNL A   1      49.594  25.334  31.935  1.00  0.00     0.001 A 
ATOM     65  C   UNL A   1      50.530  25.328  30.902  1.00  0.00     0.000 A 
ENDBRANCH  46  60
BRANCH  47  66
ATOM     66  C   UNL A   1      38.497  29.336  29.039  1.00  0.00    -0.014 A 
ATOM     67  C   UNL A   1      37.577  29.279  30.098  1.00  0.00     0.009 A 
ATOM     68  C   UNL A   1      38.063  29.816  27.793  1.00  0.00     0.009 A 
ATOM     69  C   UNL A   1      36.247  29.660  29.904  1.00  0.00     0.001 A 
ATOM     70  C   UNL A   1      36.741  30.229  27.612  1.00  0.00     0.001 A 
ATOM     71  C   UNL A   1      35.831  30.139  28.663  1.00  0.00     0.000 A 
ENDBRANCH  47  66
BRANCH  59  72
ATOM     72  C   UNL A   1      44.239  32.475  31.407  1.00  0.00    -0.014 A 
ATOM     73  C   UNL A   1      44.614  33.482  30.504  1.00  0.00     0.009 A 
ATOM     74  C   UNL A   1      44.087  32.802  32.765  1.00  0.00     0.009 A 
ATOM     75  C   UNL A   1      44.881  34.775  30.959  1.00  0.00     0.001 A 
ATOM     76  C   UNL A   1      44.318  34.103  33.210  1.00  0.00     0.001 A 
ATOM     77  C   UNL A   1      44.728  35.085  32.311  1.00  0.00     0.000 A 
ENDBRANCH  59  72
ENDBRANCH  33  34
ENDBRANCH  25  28
ENDBRANCH  23  24
ENDBRANCH  22  23
ENDBRANCH   1  22
TORSDOF 13
ENDMDL
MODEL 2
REMARK VINA RESULT:      -9.2      6.289     11.884
REMARK SMILES O=C(CCS(=O)(=O)c1ccc2[nH]c(=O)oc2c1)NCCCNC(=O)c1ccc(-c2c3nc(c(-c4ccccc4)c4ccc([nH]4)c(-c4ccccc4)c4nc(c(-c5ccccc5)c5ccc2[nH]5)C=C4)C=C3)cc1
REMARK SMILES IDX 19 1 18 2 1 3 2 4 3 6 4 7 5 8 6 9 7 10 8 11 9 12 17 13 10 14
REMARK SMILES IDX 16 15 11 16 15 17 12 18 13 19 14 21 20 22 21 23 22 24 23 25
REMARK SMILES IDX 24 27 25 28 26 29 72 30 27 31 71 32 28 33 29 34 30 35 65 36
REMARK SMILES IDX 31 37 70 38 64 39 66 40 32 41 69 42 63 43 62 44 33 46 55 47
REMARK SMILES IDX 40 48 54 49 41 50 44 51 53 52 67 53 42 54 43 55 52 57 68 58
REMARK SMILES IDX 45 59 34 60 35 61 39 62 36 63 38 64 37 65 56 66 57 67 61 68
REMARK SMILES IDX 58 69 60 70 59 71 46 72 47 73 51 74 48 75 50 76 49 77
REMARK H PARENT 18 5 12 20 22 26 66 45 44 56
REMARK Flexibility Score: inf
ROOT
ATOM      1  C   UNL A   1      31.789  30.501  26.434  1.00  0.00     0.117 C 
ENDROOT
BRANCH   1   2
ATOM      2  N   UNL A   1      31.780  30.110  25.038  1.00  0.00    -0.356 N 
ATOM      3  O   UNL A   1      33.676  28.826  25.217  1.00  0.00    -0.275 OA
ATOM      4  C   UNL A   1      32.731  29.242  24.553  1.00  0.00     0.221 C 
ATOM      5  H   UNL A   1      31.090  30.467  24.433  1.00  0.00     0.163 HD
BRANCH   4   6
ATOM      6  C   UNL A   1      32.467  28.715  23.168  1.00  0.00     0.116 C 
BRANCH   6   7
ATOM      7  C   UNL A   1      33.429  27.583  22.828  1.00  0.00     0.152 C 
BRANCH   7   8
ATOM      8  S   UNL A   1      32.641  26.105  22.232  1.00  0.00     0.179 S 
ATOM      9  O   UNL A   1      31.268  26.450  21.894  1.00  0.00    -0.224 OA
ATOM     10  O   UNL A   1      33.518  25.516  21.240  1.00  0.00    -0.224 OA
BRANCH   8  11
ATOM     11  C   UNL A   1      32.503  24.889  23.529  1.00  0.00     0.071 A 
ATOM     12  C   UNL A   1      32.538  23.536  23.101  1.00  0.00     0.023 A 
ATOM     13  C   UNL A   1      32.151  25.222  24.839  1.00  0.00     0.069 A 
ATOM     14  C   UNL A   1      32.093  22.511  23.935  1.00  0.00     0.031 A 
ATOM     15  C   UNL A   1      31.652  24.195  25.617  1.00  0.00     0.157 A 
ATOM     16  C   UNL A   1      31.584  22.899  25.149  1.00  0.00     0.087 A 
ATOM     17  O   UNL A   1      30.930  24.368  26.792  1.00  0.00    -0.408 OA
ATOM     18  N   UNL A   1      30.744  22.230  25.993  1.00  0.00    -0.287 N 
ATOM     19  C   UNL A   1      30.302  23.123  26.942  1.00  0.00     0.417 A 
ATOM     20  H   UNL A   1      30.498  21.279  25.933  1.00  0.00     0.173 HD
ATOM     21  O   UNL A   1      29.438  22.893  27.774  1.00  0.00    -0.224 OA
ENDBRANCH   8  11
ENDBRANCH   7   8
ENDBRANCH   6   7
ENDBRANCH   4   6
ENDBRANCH   1   2
BRANCH   1  22
ATOM     22  C   UNL A   1      31.504  31.965  26.701  1.00  0.00     0.042 C 
BRANCH  22  23
ATOM     23  C   UNL A   1      32.656  32.748  27.315  1.00  0.00     0.118 C 
BRANCH  23  24
ATOM     24  N   UNL A   1      32.341  34.136  27.631  1.00  0.00    -0.352 N 
ATOM     25  C   UNL A   1      32.936  35.003  28.521  1.00  0.00     0.251 C 
ATOM     26  H   UNL A   1      31.583  34.514  27.129  1.00  0.00     0.163 HD
ATOM     27  O   UNL A   1      32.445  36.107  28.737  1.00  0.00    -0.269 OA
BRANCH  25  28
ATOM     28  C   UNL A   1      34.140  34.582  29.264  1.00  0.00     0.039 A 
ATOM     29  C   UNL A   1      33.990  34.030  30.538  1.00  0.00     0.014 A 
ATOM     30  C   UNL A   1      35.404  34.672  28.681  1.00  0.00     0.014 A 
ATOM     31  C   UNL A   1      35.092  33.462  31.174  1.00  0.00     0.010 A 
ATOM     32  C   UNL A   1      36.467  33.993  29.254  1.00  0.00     0.010 A 
ATOM     33  C   UNL A   1      36.324  33.379  30.505  1.00  0.00    -0.014 A 
BRANCH  33  34
ATOM     34  C   UNL A   1      37.473  32.648  31.088  1.00  0.00     0.031 A 
ATOM     35  C   UNL A   1      38.059  33.095  32.399  1.00  0.00     0.074 A 
ATOM     36  C   UNL A   1      38.033  31.636  30.397  1.00  0.00     0.049 A 
ATOM     37  N   UNL A   1      39.097  32.625  33.041  1.00  0.00    -0.248 NA
ATOM     38  C   UNL A   1      37.415  34.245  33.058  1.00  0.00     0.031 C 
ATOM     39  C   UNL A   1      37.592  31.154  29.085  1.00  0.00     0.029 A 
ATOM     40  N   UNL A   1      39.100  30.829  30.701  1.00  0.00    -0.354 N 
ATOM     41  C   UNL A   1      39.241  33.434  34.161  1.00  0.00     0.074 A 
ATOM     42  C   UNL A   1      38.232  34.464  34.076  1.00  0.00     0.031 C 
ATOM     43  C   UNL A   1      38.349  30.107  28.721  1.00  0.00     0.029 A 
ATOM     44  C   UNL A   1      39.359  29.875  29.747  1.00  0.00     0.049 A 
ATOM     45  H   UNL A   1      39.630  30.925  31.525  1.00  0.00     0.167 HD
ATOM     46  C   UNL A   1      40.118  33.314  35.186  1.00  0.00     0.031 A 
ATOM     47  C   UNL A   1      40.306  28.919  29.705  1.00  0.00     0.031 A 
ATOM     48  C   UNL A   1      41.113  32.279  35.267  1.00  0.00     0.049 A 
ATOM     49  C   UNL A   1      41.267  28.807  30.856  1.00  0.00     0.074 A 
ATOM     50  C   UNL A   1      42.017  32.031  36.284  1.00  0.00     0.029 A 
ATOM     51  N   UNL A   1      41.334  31.322  34.288  1.00  0.00    -0.354 N 
ATOM     52  N   UNL A   1      41.344  29.532  31.946  1.00  0.00    -0.248 NA
ATOM     53  C   UNL A   1      42.260  27.728  30.778  1.00  0.00     0.031 C 
ATOM     54  C   UNL A   1      42.823  30.957  35.893  1.00  0.00     0.029 A 
ATOM     55  C   UNL A   1      42.374  30.492  34.667  1.00  0.00     0.049 A 
ATOM     56  H   UNL A   1      40.825  31.244  33.449  1.00  0.00     0.167 HD
ATOM     57  C   UNL A   1      42.370  28.979  32.698  1.00  0.00     0.074 A 
ATOM     58  C   UNL A   1      42.871  27.843  31.949  1.00  0.00     0.031 C 
ATOM     59  C   UNL A   1      42.857  29.371  33.902  1.00  0.00     0.031 A 
BRANCH  46  60
ATOM     60  C   UNL A   1      40.033  34.332  36.290  1.00  0.00    -0.014 A 
ATOM     61  C   UNL A   1      40.759  35.535  36.233  1.00  0.00     0.009 A 
ATOM     62  C   UNL A   1      39.206  34.095  37.399  1.00  0.00     0.009 A 
ATOM     63  C   UNL A   1      40.694  36.455  37.281  1.00  0.00     0.001 A 
ATOM     64  C   UNL A   1      39.116  35.033  38.431  1.00  0.00     0.001 A 
ATOM     65  C   UNL A   1      39.868  36.205  38.376  1.00  0.00     0.000 A 
ENDBRANCH  46  60
BRANCH  47  66
ATOM     66  C   UNL A   1      40.374  27.978  28.556  1.00  0.00    -0.014 A 
ATOM     67  C   UNL A   1      39.708  26.744  28.603  1.00  0.00     0.009 A 
ATOM     68  C   UNL A   1      41.114  28.301  27.407  1.00  0.00     0.009 A 
ATOM     69  C   UNL A   1      39.808  25.840  27.542  1.00  0.00     0.001 A 
ATOM     70  C   UNL A   1      41.184  27.411  26.333  1.00  0.00     0.001 A 
ATOM     71  C   UNL A   1      40.542  26.177  26.406  1.00  0.00     0.000 A 
ENDBRANCH  47  66
BRANCH  59  72
ATOM     72  C   UNL A   1      43.954  28.533  34.498  1.00  0.00    -0.014 A 
ATOM     73  C   UNL A   1      45.305  28.884  34.361  1.00  0.00     0.009 A 
ATOM     74  C   UNL A   1      43.621  27.380  35.229  1.00  0.00     0.009 A 
ATOM     75  C   UNL A   1      46.305  28.070  34.899  1.00  0.00     0.001 A 
ATOM     76  C   UNL A   1      44.620  26.590  35.798  1.00  0.00     0.001 A 
ATOM     77  C   UNL A   1      45.960  26.927  35.621  1.00  0.00     0.000 A 
ENDBRANCH  59  72
ENDBRANCH  33  34
ENDBRANCH  25  28
ENDBRANCH  23  24
ENDBRANCH  22  23
ENDBRANCH   1  22
TORSDOF 13
ENDMDL
MODEL 3
REMARK VINA RESULT:      -9.1      0.876      6.100
REMARK SMILES O=C(CCS(=O)(=O)c1ccc2[nH]c(=O)oc2c1)NCCCNC(=O)c1ccc(-c2c3nc(c(-c4ccccc4)c4ccc([nH]4)c(-c4ccccc4)c4nc(c(-c5ccccc5)c5ccc2[nH]5)C=C4)C=C3)cc1
REMARK SMILES IDX 19 1 18 2 1 3 2 4 3 6 4 7 5 8 6 9 7 10 8 11 9 12 17 13 10 14
REMARK SMILES IDX 16 15 11 16 15 17 12 18 13 19 14 21 20 22 21 23 22 24 23 25
REMARK SMILES IDX 24 27 25 28 26 29 72 30 27 31 71 32 28 33 29 34 30 35 65 36
REMARK SMILES IDX 31 37 70 38 64 39 66 40 32 41 69 42 63 43 62 44 33 46 55 47
REMARK SMILES IDX 40 48 54 49 41 50 44 51 53 52 67 53 42 54 43 55 52 57 68 58
REMARK SMILES IDX 45 59 34 60 35 61 39 62 36 63 38 64 37 65 56 66 57 67 61 68
REMARK SMILES IDX 58 69 60 70 59 71 46 72 47 73 51 74 48 75 50 76 49 77
REMARK H PARENT 18 5 12 20 22 26 66 45 44 56
REMARK Flexibility Score: inf
ROOT
ATOM      1  C   UNL A   1      44.537  18.728  24.986  1.00  0.00     0.117 C 
ENDROOT
BRANCH   1   2
ATOM      2  N   UNL A   1      45.071  19.916  25.623  1.00  0.00    -0.356 N 
ATOM      3  O   UNL A   1      44.549  21.295  23.862  1.00  0.00    -0.275 OA
ATOM      4  C   UNL A   1      44.984  21.139  24.999  1.00  0.00     0.221 C 
ATOM      5  H   UNL A   1      45.500  19.847  26.506  1.00  0.00     0.163 HD
BRANCH   4   6
ATOM      6  C   UNL A   1      45.336  22.322  25.861  1.00  0.00     0.116 C 
BRANCH   6   7
ATOM      7  C   UNL A   1      45.283  23.614  25.054  1.00  0.00     0.152 C 
BRANCH   7   8
ATOM      8  S   UNL A   1      46.785  24.563  25.092  1.00  0.00     0.179 S 
ATOM      9  O   UNL A   1      47.515  24.176  26.291  1.00  0.00    -0.224 OA
ATOM     10  O   UNL A   1      47.402  24.450  23.785  1.00  0.00    -0.224 OA
BRANCH   8  11
ATOM     11  C   UNL A   1      46.436  26.299  25.306  1.00  0.00     0.071 A 
ATOM     12  C   UNL A   1      47.500  27.072  25.841  1.00  0.00     0.023 A 
ATOM     13  C   UNL A   1      45.150  26.829  25.184  1.00  0.00     0.069 A 
ATOM     14  C   UNL A   1      47.262  28.334  26.384  1.00  0.00     0.031 A 
ATOM     15  C   UNL A   1      44.933  28.051  25.791  1.00  0.00     0.157 A 
ATOM     16  C   UNL A   1      45.953  28.744  26.410  1.00  0.00     0.087 A 
ATOM     17  O   UNL A   1      43.682  28.577  26.092  1.00  0.00    -0.408 OA
ATOM     18  N   UNL A   1      45.355  29.694  27.188  1.00  0.00    -0.287 N 
ATOM     19  C   UNL A   1      43.993  29.556  27.048  1.00  0.00     0.417 A 
ATOM     20  H   UNL A   1      45.815  30.358  27.749  1.00  0.00     0.173 HD
ATOM     21  O   UNL A   1      43.155  30.158  27.701  1.00  0.00    -0.224 OA
ENDBRANCH   8  11
ENDBRANCH   7   8
ENDBRANCH   6   7
ENDBRANCH   4   6
ENDBRANCH   1   2
BRANCH   1  22
ATOM     22  C   UNL A   1      43.491  17.977  25.783  1.00  0.00     0.042 C 
BRANCH  22  23
ATOM     23  C   UNL A   1      42.663  18.833  26.732  1.00  0.00     0.118 C 
BRANCH  23  24
ATOM     24  N   UNL A   1      41.349  19.204  26.218  1.00  0.00    -0.352 N 
ATOM     25  C   UNL A   1      40.689  20.412  26.256  1.00  0.00     0.251 C 
ATOM     26  H   UNL A   1      40.857  18.477  25.774  1.00  0.00     0.163 HD
ATOM     27  O   UNL A   1      39.525  20.498  25.873  1.00  0.00    -0.269 OA
BRANCH  25  28
ATOM     28  C   UNL A   1      41.363  21.602  26.812  1.00  0.00     0.039 A 
ATOM     29  C   UNL A   1      41.658  22.670  25.963  1.00  0.00     0.014 A 
ATOM     30  C   UNL A   1      41.644  21.688  28.175  1.00  0.00     0.014 A 
ATOM     31  C   UNL A   1      42.125  23.868  26.503  1.00  0.00     0.010 A 
ATOM     32  C   UNL A   1      41.981  22.915  28.724  1.00  0.00     0.010 A 
ATOM     33  C   UNL A   1      42.224  24.019  27.895  1.00  0.00    -0.014 A 
BRANCH  33  34
ATOM     34  C   UNL A   1      42.569  25.322  28.509  1.00  0.00     0.031 A 
ATOM     35  C   UNL A   1      41.504  26.367  28.700  1.00  0.00     0.074 A 
ATOM     36  C   UNL A   1      43.853  25.588  28.819  1.00  0.00     0.049 A 
ATOM     37  N   UNL A   1      41.618  27.586  29.161  1.00  0.00    -0.248 NA
ATOM     38  C   UNL A   1      40.137  26.008  28.282  1.00  0.00     0.031 C 
ATOM     39  C   UNL A   1      44.984  24.677  28.620  1.00  0.00     0.029 A 
ATOM     40  N   UNL A   1      44.426  26.708  29.366  1.00  0.00    -0.354 N 
ATOM     41  C   UNL A   1      40.347  28.140  29.068  1.00  0.00     0.074 A 
ATOM     42  C   UNL A   1      39.496  27.154  28.443  1.00  0.00     0.031 C 
ATOM     43  C   UNL A   1      46.103  25.254  29.083  1.00  0.00     0.029 A 
ATOM     44  C   UNL A   1      45.781  26.593  29.564  1.00  0.00     0.049 A 
ATOM     45  H   UNL A   1      43.915  27.518  29.595  1.00  0.00     0.167 HD
ATOM     46  C   UNL A   1      39.919  29.352  29.492  1.00  0.00     0.031 A 
ATOM     47  C   UNL A   1      46.664  27.469  30.078  1.00  0.00     0.031 A 
ATOM     48  C   UNL A   1      40.771  30.324  30.123  1.00  0.00     0.049 A 
ATOM     49  C   UNL A   1      46.163  28.809  30.542  1.00  0.00     0.074 A 
ATOM     50  C   UNL A   1      40.434  31.562  30.639  1.00  0.00     0.029 A 
ATOM     51  N   UNL A   1      42.135  30.164  30.320  1.00  0.00    -0.354 N 
ATOM     52  N   UNL A   1      44.944  29.292  30.516  1.00  0.00    -0.248 NA
ATOM     53  C   UNL A   1      47.160  29.717  31.123  1.00  0.00     0.031 C 
ATOM     54  C   UNL A   1      41.604  32.174  31.098  1.00  0.00     0.029 A 
ATOM     55  C   UNL A   1      42.658  31.289  30.932  1.00  0.00     0.049 A 
ATOM     56  H   UNL A   1      42.653  29.367  30.063  1.00  0.00     0.167 HD
ATOM     57  C   UNL A   1      45.020  30.545  31.107  1.00  0.00     0.074 A 
ATOM     58  C   UNL A   1      46.403  30.736  31.501  1.00  0.00     0.031 C 
ATOM     59  C   UNL A   1      44.038  31.458  31.310  1.00  0.00     0.031 A 
BRANCH  46  60
ATOM     60  C   UNL A   1      38.467  29.686  29.279  1.00  0.00    -0.014 A 
ATOM     61  C   UNL A   1      38.006  30.191  28.050  1.00  0.00     0.009 A 
ATOM     62  C   UNL A   1      37.543  29.480  30.314  1.00  0.00     0.009 A 
ATOM     63  C   UNL A   1      36.662  30.526  27.879  1.00  0.00     0.001 A 
ATOM     64  C   UNL A   1      36.191  29.783  30.128  1.00  0.00     0.001 A 
ATOM     65  C   UNL A   1      35.755  30.316  28.917  1.00  0.00     0.000 A 
ENDBRANCH  46  60
BRANCH  47  66
ATOM     66  C   UNL A   1      48.099  27.101  30.209  1.00  0.00    -0.014 A 
ATOM     67  C   UNL A   1      48.589  26.553  31.405  1.00  0.00     0.009 A 
ATOM     68  C   UNL A   1      48.992  27.304  29.144  1.00  0.00     0.009 A 
ATOM     69  C   UNL A   1      49.945  26.249  31.544  1.00  0.00     0.001 A 
ATOM     70  C   UNL A   1      50.341  26.967  29.275  1.00  0.00     0.001 A 
ATOM     71  C   UNL A   1      50.819  26.451  30.478  1.00  0.00     0.000 A 
ENDBRANCH  47  66
BRANCH  59  72
ATOM     72  C   UNL A   1      44.420  32.721  32.030  1.00  0.00    -0.014 A 
ATOM     73  C   UNL A   1      44.841  33.865  31.336  1.00  0.00     0.009 A 
ATOM     74  C   UNL A   1      44.335  32.768  33.432  1.00  0.00     0.009 A 
ATOM     75  C   UNL A   1      45.220  35.015  32.033  1.00  0.00     0.001 A 
ATOM     76  C   UNL A   1      44.677  33.930  34.123  1.00  0.00     0.001 A 
ATOM     77  C   UNL A   1      45.132  35.047  33.426  1.00  0.00     0.000 A 
ENDBRANCH  59  72
ENDBRANCH  33  34
ENDBRANCH  25  28
ENDBRANCH  23  24
ENDBRANCH  22  23
ENDBRANCH   1  22
TORSDOF 13
ENDMDL
