MODEL 1
REMARK VINA RESULT:      -9.2      0.000      0.000
REMARK SMILES CCCC[C@H](C(=O)NCCCNC(=O)c1ccc(-c2c3nc(c(-c4ccccc4)c4ccc([nH]4)c(-c4ccccc4)c4nc(c(-c5ccccc5)c5ccc2[nH]5)C=C4)C=C3)cc1)[C@H](C)O
REMARK SMILES IDX 9 1 8 2 6 3 7 4 5 6 4 7 3 8 2 9 1 10 63 11 64 12 65 13 10 15
REMARK SMILES IDX 11 16 12 17 13 18 14 20 15 21 16 22 62 23 17 24 61 25 18 26
REMARK SMILES IDX 19 27 20 28 55 29 21 30 60 31 54 32 56 33 22 34 59 35 53 36
REMARK SMILES IDX 52 37 23 39 45 40 30 41 44 42 31 43 34 44 43 45 57 46 32 47
REMARK SMILES IDX 33 48 42 50 58 51 35 52 24 53 25 54 29 55 26 56 28 57 27 58
REMARK SMILES IDX 46 59 47 60 51 61 48 62 50 63 49 64 36 65 37 66 41 67 38 68
REMARK SMILES IDX 40 69 39 70
REMARK H PARENT 8 5 65 14 12 19 56 38 34 49
REMARK Flexibility Score: inf
ROOT
ATOM      1  C   UNL A   1      36.696  20.990  24.727  1.00  0.00     0.117 C 
ENDROOT
BRANCH   1   2
ATOM      2  N   UNL A   1      35.704  20.977  25.789  1.00  0.00    -0.356 N 
ATOM      3  C   UNL A   1      34.341  20.909  25.739  1.00  0.00     0.225 C 
ATOM      4  O   UNL A   1      33.743  20.729  26.800  1.00  0.00    -0.275 OA
ATOM      5  H   UNL A   1      36.079  21.025  26.699  1.00  0.00     0.163 HD
BRANCH   3   6
ATOM      6  C   UNL A   1      33.619  21.082  24.405  1.00  0.00     0.107 C 
BRANCH   6   7
ATOM      7  C   UNL A   1      32.401  20.128  24.374  1.00  0.00     0.016 C 
BRANCH   7   8
ATOM      8  C   UNL A   1      32.481  18.973  23.368  1.00  0.00     0.001 C 
BRANCH   8   9
ATOM      9  C   UNL A   1      32.825  17.599  23.948  1.00  0.00    -0.003 C 
ATOM     10  C   UNL A   1      34.115  17.009  23.406  1.00  0.00     0.004 C 
ENDBRANCH   8   9
ENDBRANCH   7   8
ENDBRANCH   6   7
BRANCH   6  11
ATOM     11  C   UNL A   1      33.215  22.556  24.140  1.00  0.00     0.123 C 
ATOM     12  C   UNL A   1      33.728  23.061  22.792  1.00  0.00     0.039 C 
BRANCH  11  13
ATOM     13  O   UNL A   1      33.680  23.471  25.131  1.00  0.00    -0.393 OA
ATOM     14  H   UNL A   1      34.420  23.986  24.773  1.00  0.00     0.210 HD
ENDBRANCH  11  13
ENDBRANCH   6  11
ENDBRANCH   3   6
ENDBRANCH   1   2
BRANCH   1  15
ATOM     15  C   UNL A   1      37.779  19.934  24.917  1.00  0.00     0.042 C 
BRANCH  15  16
ATOM     16  C   UNL A   1      38.956  20.386  25.776  1.00  0.00     0.118 C 
BRANCH  16  17
ATOM     17  N   UNL A   1      40.019  19.395  25.839  1.00  0.00    -0.352 N 
ATOM     18  C   UNL A   1      41.354  19.554  26.118  1.00  0.00     0.251 C 
ATOM     19  H   UNL A   1      39.739  18.469  25.654  1.00  0.00     0.163 HD
ATOM     20  O   UNL A   1      42.129  18.613  25.943  1.00  0.00    -0.269 OA
BRANCH  18  21
ATOM     21  C   UNL A   1      41.874  20.851  26.600  1.00  0.00     0.039 A 
ATOM     22  C   UNL A   1      42.316  21.792  25.666  1.00  0.00     0.014 A 
ATOM     23  C   UNL A   1      41.948  21.140  27.966  1.00  0.00     0.014 A 
ATOM     24  C   UNL A   1      42.762  23.045  26.095  1.00  0.00     0.010 A 
ATOM     25  C   UNL A   1      42.314  22.416  28.388  1.00  0.00     0.010 A 
ATOM     26  C   UNL A   1      42.728  23.382  27.458  1.00  0.00    -0.014 A 
BRANCH  26  27
ATOM     27  C   UNL A   1      43.127  24.733  27.933  1.00  0.00     0.031 A 
ATOM     28  C   UNL A   1      42.082  25.787  28.182  1.00  0.00     0.074 A 
ATOM     29  C   UNL A   1      44.433  25.031  28.086  1.00  0.00     0.049 A 
ATOM     30  N   UNL A   1      42.240  27.043  28.518  1.00  0.00    -0.248 NA
ATOM     31  C   UNL A   1      40.677  25.383  28.012  1.00  0.00     0.031 C 
ATOM     32  C   UNL A   1      45.549  24.111  27.861  1.00  0.00     0.029 A 
ATOM     33  N   UNL A   1      45.042  26.202  28.465  1.00  0.00    -0.354 N 
ATOM     34  C   UNL A   1      40.958  27.577  28.590  1.00  0.00     0.074 A 
ATOM     35  C   UNL A   1      40.040  26.527  28.209  1.00  0.00     0.031 C 
ATOM     36  C   UNL A   1      46.703  24.742  28.132  1.00  0.00     0.029 A 
ATOM     37  C   UNL A   1      46.414  26.124  28.505  1.00  0.00     0.049 A 
ATOM     38  H   UNL A   1      44.543  27.021  28.689  1.00  0.00     0.167 HD
ATOM     39  C   UNL A   1      40.576  28.822  28.963  1.00  0.00     0.031 A 
ATOM     40  C   UNL A   1      47.336  27.060  28.797  1.00  0.00     0.031 A 
ATOM     41  C   UNL A   1      41.484  29.869  29.346  1.00  0.00     0.049 A 
ATOM     42  C   UNL A   1      46.885  28.451  29.156  1.00  0.00     0.074 A 
ATOM     43  C   UNL A   1      41.190  31.156  29.762  1.00  0.00     0.029 A 
ATOM     44  N   UNL A   1      42.864  29.749  29.362  1.00  0.00    -0.354 N 
ATOM     45  N   UNL A   1      45.667  28.924  29.263  1.00  0.00    -0.248 NA
ATOM     46  C   UNL A   1      47.940  29.433  29.444  1.00  0.00     0.031 C 
ATOM     47  C   UNL A   1      42.395  31.829  29.988  1.00  0.00     0.029 A 
ATOM     48  C   UNL A   1      43.437  30.943  29.767  1.00  0.00     0.049 A 
ATOM     49  H   UNL A   1      43.365  28.935  29.122  1.00  0.00     0.167 HD
ATOM     50  C   UNL A   1      45.810  30.245  29.667  1.00  0.00     0.074 A 
ATOM     51  C   UNL A   1      47.231  30.494  29.800  1.00  0.00     0.031 C 
ATOM     52  C   UNL A   1      44.851  31.171  29.909  1.00  0.00     0.031 A 
BRANCH  39  53
ATOM     53  C   UNL A   1      39.102  29.117  28.980  1.00  0.00    -0.014 A 
ATOM     54  C   UNL A   1      38.446  29.586  27.829  1.00  0.00     0.009 A 
ATOM     55  C   UNL A   1      38.350  28.884  30.141  1.00  0.00     0.009 A 
ATOM     56  C   UNL A   1      37.075  29.845  27.852  1.00  0.00     0.001 A 
ATOM     57  C   UNL A   1      36.974  29.116  30.153  1.00  0.00     0.001 A 
ATOM     58  C   UNL A   1      36.339  29.605  29.012  1.00  0.00     0.000 A 
ENDBRANCH  39  53
BRANCH  40  59
ATOM     59  C   UNL A   1      48.785  26.727  28.773  1.00  0.00    -0.014 A 
ATOM     60  C   UNL A   1      49.515  26.810  27.577  1.00  0.00     0.009 A 
ATOM     61  C   UNL A   1      49.437  26.282  29.934  1.00  0.00     0.009 A 
ATOM     62  C   UNL A   1      50.855  26.419  27.534  1.00  0.00     0.001 A 
ATOM     63  C   UNL A   1      50.786  25.922  29.895  1.00  0.00     0.001 A 
ATOM     64  C   UNL A   1      51.490  25.977  28.693  1.00  0.00     0.000 A 
ENDBRANCH  40  59
BRANCH  52  65
ATOM     65  C   UNL A   1      45.300  32.519  30.398  1.00  0.00    -0.014 A 
ATOM     66  C   UNL A   1      45.557  33.573  29.508  1.00  0.00     0.009 A 
ATOM     67  C   UNL A   1      45.428  32.747  31.777  1.00  0.00     0.009 A 
ATOM     68  C   UNL A   1      45.966  34.818  29.989  1.00  0.00     0.001 A 
ATOM     69  C   UNL A   1      45.808  34.001  32.257  1.00  0.00     0.001 A 
ATOM     70  C   UNL A   1      46.086  35.032  31.362  1.00  0.00     0.000 A 
ENDBRANCH  52  65
ENDBRANCH  26  27
ENDBRANCH  18  21
ENDBRANCH  16  17
ENDBRANCH  15  16
ENDBRANCH   1  15
TORSDOF 15
ENDMDL
MODEL 2
REMARK VINA RESULT:      -9.2      4.874      9.489
REMARK SMILES CCCC[C@H](C(=O)NCCCNC(=O)c1ccc(-c2c3nc(c(-c4ccccc4)c4ccc([nH]4)c(-c4ccccc4)c4nc(c(-c5ccccc5)c5ccc2[nH]5)C=C4)C=C3)cc1)[C@H](C)O
REMARK SMILES IDX 9 1 8 2 6 3 7 4 5 6 4 7 3 8 2 9 1 10 63 11 64 12 65 13 10 15
REMARK SMILES IDX 11 16 12 17 13 18 14 20 15 21 16 22 62 23 17 24 61 25 18 26
REMARK SMILES IDX 19 27 20 28 55 29 21 30 60 31 54 32 56 33 22 34 59 35 53 36
REMARK SMILES IDX 52 37 23 39 45 40 30 41 44 42 31 43 34 44 43 45 57 46 32 47
REMARK SMILES IDX 33 48 42 50 58 51 35 52 24 53 25 54 29 55 26 56 28 57 27 58
REMARK SMILES IDX 46 59 47 60 51 61 48 62 50 63 49 64 36 65 37 66 41 67 38 68
REMARK SMILES IDX 40 69 39 70
REMARK H PARENT 8 5 65 14 12 19 56 38 34 49
REMARK Flexibility Score: inf
ROOT
ATOM      1  C   UNL A   1      31.673  30.033  25.699  1.00  0.00     0.117 C 
ENDROOT
BRANCH   1   2
ATOM      2  N   UNL A   1      31.036  30.067  24.394  1.00  0.00    -0.356 N 
ATOM      3  C   UNL A   1      30.671  29.057  23.550  1.00  0.00     0.225 C 
ATOM      4  O   UNL A   1      29.977  29.354  22.577  1.00  0.00    -0.275 OA
ATOM      5  H   UNL A   1      30.833  30.972  24.062  1.00  0.00     0.163 HD
BRANCH   3   6
ATOM      6  C   UNL A   1      31.147  27.632  23.818  1.00  0.00     0.107 C 
BRANCH   6   7
ATOM      7  C   UNL A   1      29.927  26.771  24.225  1.00  0.00     0.016 C 
BRANCH   7   8
ATOM      8  C   UNL A   1      30.077  25.971  25.526  1.00  0.00     0.001 C 
BRANCH   8   9
ATOM      9  C   UNL A   1      31.377  26.188  26.303  1.00  0.00    -0.003 C 
ATOM     10  C   UNL A   1      32.367  25.044  26.174  1.00  0.00     0.004 C 
ENDBRANCH   8   9
ENDBRANCH   7   8
ENDBRANCH   6   7
BRANCH   6  11
ATOM     11  C   UNL A   1      31.913  27.029  22.612  1.00  0.00     0.123 C 
ATOM     12  C   UNL A   1      33.274  27.691  22.403  1.00  0.00     0.039 C 
BRANCH  11  13
ATOM     13  O   UNL A   1      31.211  27.123  21.374  1.00  0.00    -0.393 OA
ATOM     14  H   UNL A   1      31.740  26.717  20.670  1.00  0.00     0.210 HD
ENDBRANCH  11  13
ENDBRANCH   6  11
ENDBRANCH   3   6
ENDBRANCH   1   2
BRANCH   1  15
ATOM     15  C   UNL A   1      31.424  31.299  26.511  1.00  0.00     0.042 C 
BRANCH  15  16
ATOM     16  C   UNL A   1      32.692  32.033  26.937  1.00  0.00     0.118 C 
BRANCH  16  17
ATOM     17  N   UNL A   1      32.428  33.389  27.397  1.00  0.00    -0.352 N 
ATOM     18  C   UNL A   1      33.116  34.160  28.300  1.00  0.00     0.251 C 
ATOM     19  H   UNL A   1      31.636  33.819  26.999  1.00  0.00     0.163 HD
ATOM     20  O   UNL A   1      32.628  35.220  28.693  1.00  0.00    -0.269 OA
BRANCH  18  21
ATOM     21  C   UNL A   1      34.425  33.717  28.827  1.00  0.00     0.039 A 
ATOM     22  C   UNL A   1      34.462  32.977  30.011  1.00  0.00     0.014 A 
ATOM     23  C   UNL A   1      35.617  34.042  28.173  1.00  0.00     0.014 A 
ATOM     24  C   UNL A   1      35.683  32.502  30.500  1.00  0.00     0.010 A 
ATOM     25  C   UNL A   1      36.822  33.501  28.614  1.00  0.00     0.010 A 
ATOM     26  C   UNL A   1      36.870  32.727  29.784  1.00  0.00    -0.014 A 
BRANCH  26  27
ATOM     27  C   UNL A   1      38.169  32.171  30.243  1.00  0.00     0.031 A 
ATOM     28  C   UNL A   1      38.658  30.850  29.711  1.00  0.00     0.074 A 
ATOM     29  C   UNL A   1      38.885  32.824  31.180  1.00  0.00     0.049 A 
ATOM     30  N   UNL A   1      39.721  30.165  30.050  1.00  0.00    -0.248 NA
ATOM     31  C   UNL A   1      37.833  30.205  28.676  1.00  0.00     0.031 C 
ATOM     32  C   UNL A   1      38.519  34.102  31.794  1.00  0.00     0.029 A 
ATOM     33  N   UNL A   1      40.074  32.496  31.785  1.00  0.00    -0.354 N 
ATOM     34  C   UNL A   1      39.686  29.010  29.279  1.00  0.00     0.074 A 
ATOM     35  C   UNL A   1      38.471  29.058  28.497  1.00  0.00     0.031 C 
ATOM     36  C   UNL A   1      39.475  34.462  32.666  1.00  0.00     0.029 A 
ATOM     37  C   UNL A   1      40.498  33.421  32.708  1.00  0.00     0.049 A 
ATOM     38  H   UNL A   1      40.576  31.675  31.575  1.00  0.00     0.167 HD
ATOM     39  C   UNL A   1      40.595  28.008  29.208  1.00  0.00     0.031 A 
ATOM     40  C   UNL A   1      41.581  33.426  33.508  1.00  0.00     0.031 A 
ATOM     41  C   UNL A   1      41.807  27.955  29.981  1.00  0.00     0.049 A 
ATOM     42  C   UNL A   1      42.546  32.274  33.447  1.00  0.00     0.074 A 
ATOM     43  C   UNL A   1      42.801  26.992  29.960  1.00  0.00     0.029 A 
ATOM     44  N   UNL A   1      42.191  28.908  30.910  1.00  0.00    -0.354 N 
ATOM     45  N   UNL A   1      42.520  31.212  32.679  1.00  0.00    -0.248 NA
ATOM     46  C   UNL A   1      43.698  32.328  34.359  1.00  0.00     0.031 C 
ATOM     47  C   UNL A   1      43.766  27.340  30.910  1.00  0.00     0.029 A 
ATOM     48  C   UNL A   1      43.401  28.548  31.481  1.00  0.00     0.049 A 
ATOM     49  H   UNL A   1      41.681  29.720  31.132  1.00  0.00     0.167 HD
ATOM     50  C   UNL A   1      43.668  30.493  32.989  1.00  0.00     0.074 A 
ATOM     51  C   UNL A   1      44.376  31.247  34.003  1.00  0.00     0.031 C 
ATOM     52  C   UNL A   1      44.100  29.316  32.478  1.00  0.00     0.031 A 
BRANCH  39  53
ATOM     53  C   UNL A   1      40.312  26.883  28.251  1.00  0.00    -0.014 A 
ATOM     54  C   UNL A   1      40.807  26.911  26.937  1.00  0.00     0.009 A 
ATOM     55  C   UNL A   1      39.583  25.763  28.677  1.00  0.00     0.009 A 
ATOM     56  C   UNL A   1      40.549  25.855  26.060  1.00  0.00     0.001 A 
ATOM     57  C   UNL A   1      39.351  24.695  27.808  1.00  0.00     0.001 A 
ATOM     58  C   UNL A   1      39.826  24.746  26.498  1.00  0.00     0.000 A 
ENDBRANCH  39  53
BRANCH  40  59
ATOM     59  C   UNL A   1      41.828  34.560  34.438  1.00  0.00    -0.014 A 
ATOM     60  C   UNL A   1      42.613  35.652  34.036  1.00  0.00     0.009 A 
ATOM     61  C   UNL A   1      41.318  34.539  35.746  1.00  0.00     0.009 A 
ATOM     62  C   UNL A   1      42.915  36.679  34.933  1.00  0.00     0.001 A 
ATOM     63  C   UNL A   1      41.595  35.583  36.632  1.00  0.00     0.001 A 
ATOM     64  C   UNL A   1      42.404  36.644  36.230  1.00  0.00     0.000 A 
ENDBRANCH  40  59
BRANCH  52  65
ATOM     65  C   UNL A   1      45.424  28.797  32.963  1.00  0.00    -0.014 A 
ATOM     66  C   UNL A   1      45.512  27.922  34.057  1.00  0.00     0.009 A 
ATOM     67  C   UNL A   1      46.599  29.159  32.285  1.00  0.00     0.009 A 
ATOM     68  C   UNL A   1      46.755  27.449  34.483  1.00  0.00     0.001 A 
ATOM     69  C   UNL A   1      47.836  28.662  32.694  1.00  0.00     0.001 A 
ATOM     70  C   UNL A   1      47.914  27.815  33.798  1.00  0.00     0.000 A 
ENDBRANCH  52  65
ENDBRANCH  26  27
ENDBRANCH  18  21
ENDBRANCH  16  17
ENDBRANCH  15  16
ENDBRANCH   1  15
TORSDOF 15
ENDMDL
MODEL 3
REMARK VINA RESULT:      -9.1      6.026     10.775
REMARK SMILES CCCC[C@H](C(=O)NCCCNC(=O)c1ccc(-c2c3nc(c(-c4ccccc4)c4ccc([nH]4)c(-c4ccccc4)c4nc(c(-c5ccccc5)c5ccc2[nH]5)C=C4)C=C3)cc1)[C@H](C)O
REMARK SMILES IDX 9 1 8 2 6 3 7 4 5 6 4 7 3 8 2 9 1 10 63 11 64 12 65 13 10 15
REMARK SMILES IDX 11 16 12 17 13 18 14 20 15 21 16 22 62 23 17 24 61 25 18 26
REMARK SMILES IDX 19 27 20 28 55 29 21 30 60 31 54 32 56 33 22 34 59 35 53 36
REMARK SMILES IDX 52 37 23 39 45 40 30 41 44 42 31 43 34 44 43 45 57 46 32 47
REMARK SMILES IDX 33 48 42 50 58 51 35 52 24 53 25 54 29 55 26 56 28 57 27 58
REMARK SMILES IDX 46 59 47 60 51 61 48 62 50 63 49 64 36 65 37 66 41 67 38 68
REMARK SMILES IDX 40 69 39 70
REMARK H PARENT 8 5 65 14 12 19 56 38 34 49
REMARK Flexibility Score: inf
ROOT
ATOM      1  C   UNL A   1      31.530  30.592  26.490  1.00  0.00     0.117 C 
ENDROOT
BRANCH   1   2
ATOM      2  N   UNL A   1      32.474  30.077  25.513  1.00  0.00    -0.356 N 
ATOM      3  C   UNL A   1      32.278  29.320  24.393  1.00  0.00     0.225 C 
ATOM      4  O   UNL A   1      33.237  29.173  23.634  1.00  0.00    -0.275 OA
ATOM      5  H   UNL A   1      33.414  30.314  25.688  1.00  0.00     0.163 HD
BRANCH   3   6
ATOM      6  C   UNL A   1      30.919  28.674  24.138  1.00  0.00     0.107 C 
BRANCH   6   7
ATOM      7  C   UNL A   1      30.559  28.850  22.644  1.00  0.00     0.016 C 
BRANCH   7   8
ATOM      8  C   UNL A   1      29.369  29.770  22.346  1.00  0.00     0.001 C 
BRANCH   8   9
ATOM      9  C   UNL A   1      29.117  30.892  23.356  1.00  0.00    -0.003 C 
ATOM     10  C   UNL A   1      27.653  31.270  23.501  1.00  0.00     0.004 C 
ENDBRANCH   8   9
ENDBRANCH   7   8
ENDBRANCH   6   7
BRANCH   6  11
ATOM     11  C   UNL A   1      30.881  27.187  24.579  1.00  0.00     0.123 C 
ATOM     12  C   UNL A   1      29.648  26.459  24.048  1.00  0.00     0.039 C 
BRANCH  11  13
ATOM     13  O   UNL A   1      30.897  27.002  25.993  1.00  0.00    -0.393 OA
ATOM     14  H   UNL A   1      31.484  27.659  26.399  1.00  0.00     0.210 HD
ENDBRANCH  11  13
ENDBRANCH   6  11
ENDBRANCH   3   6
ENDBRANCH   1   2
BRANCH   1  15
ATOM     15  C   UNL A   1      31.498  32.115  26.535  1.00  0.00     0.042 C 
BRANCH  15  16
ATOM     16  C   UNL A   1      32.687  32.748  27.251  1.00  0.00     0.118 C 
BRANCH  16  17
ATOM     17  N   UNL A   1      32.446  34.134  27.624  1.00  0.00    -0.352 N 
ATOM     18  C   UNL A   1      33.030  34.895  28.605  1.00  0.00     0.251 C 
ATOM     19  H   UNL A   1      31.759  34.597  27.090  1.00  0.00     0.163 HD
ATOM     20  O   UNL A   1      32.558  35.998  28.883  1.00  0.00    -0.269 OA
BRANCH  18  21
ATOM     21  C   UNL A   1      34.203  34.392  29.352  1.00  0.00     0.039 A 
ATOM     22  C   UNL A   1      34.005  33.781  30.593  1.00  0.00     0.014 A 
ATOM     23  C   UNL A   1      35.499  34.535  28.847  1.00  0.00     0.014 A 
ATOM     24  C   UNL A   1      35.093  33.251  31.291  1.00  0.00     0.010 A 
ATOM     25  C   UNL A   1      36.571  33.935  29.503  1.00  0.00     0.010 A 
ATOM     26  C   UNL A   1      36.381  33.288  30.734  1.00  0.00    -0.014 A 
BRANCH  26  27
ATOM     27  C   UNL A   1      37.542  32.666  31.423  1.00  0.00     0.031 A 
ATOM     28  C   UNL A   1      38.222  31.463  30.824  1.00  0.00     0.074 A 
ATOM     29  C   UNL A   1      37.952  33.146  32.614  1.00  0.00     0.049 A 
ATOM     30  N   UNL A   1      39.194  30.735  31.315  1.00  0.00    -0.248 NA
ATOM     31  C   UNL A   1      37.732  31.008  29.513  1.00  0.00     0.031 C 
ATOM     32  C   UNL A   1      37.370  34.292  33.316  1.00  0.00     0.029 A 
ATOM     33  N   UNL A   1      38.955  32.722  33.450  1.00  0.00    -0.354 N 
ATOM     34  C   UNL A   1      39.423  29.734  30.378  1.00  0.00     0.074 A 
ATOM     35  C   UNL A   1      38.455  29.915  29.319  1.00  0.00     0.031 C 
ATOM     36  C   UNL A   1      38.044  34.497  34.459  1.00  0.00     0.029 A 
ATOM     37  C   UNL A   1      39.073  33.471  34.596  1.00  0.00     0.049 A 
ATOM     38  H   UNL A   1      39.537  31.954  33.246  1.00  0.00     0.167 HD
ATOM     39  C   UNL A   1      40.370  28.766  30.383  1.00  0.00     0.031 A 
ATOM     40  C   UNL A   1      39.906  33.340  35.646  1.00  0.00     0.031 A 
ATOM     41  C   UNL A   1      41.338  28.583  31.432  1.00  0.00     0.049 A 
ATOM     42  C   UNL A   1      40.913  32.222  35.650  1.00  0.00     0.074 A 
ATOM     43  C   UNL A   1      42.351  27.645  31.515  1.00  0.00     0.029 A 
ATOM     44  N   UNL A   1      41.414  29.358  32.578  1.00  0.00    -0.354 N 
ATOM     45  N   UNL A   1      41.145  31.313  34.735  1.00  0.00    -0.248 NA
ATOM     46  C   UNL A   1      41.781  32.119  36.833  1.00  0.00     0.031 C 
ATOM     47  C   UNL A   1      43.014  27.824  32.733  1.00  0.00     0.029 A 
ATOM     48  C   UNL A   1      42.449  28.909  33.381  1.00  0.00     0.049 A 
ATOM     49  H   UNL A   1      40.822  30.115  32.790  1.00  0.00     0.167 HD
ATOM     50  C   UNL A   1      42.208  30.557  35.214  1.00  0.00     0.074 A 
ATOM     51  C   UNL A   1      42.584  31.122  36.493  1.00  0.00     0.031 C 
ATOM     52  C   UNL A   1      42.820  29.491  34.645  1.00  0.00     0.031 A 
BRANCH  39  53
ATOM     53  C   UNL A   1      40.407  27.828  29.209  1.00  0.00    -0.014 A 
ATOM     54  C   UNL A   1      39.622  26.663  29.191  1.00  0.00     0.009 A 
ATOM     55  C   UNL A   1      41.199  28.129  28.091  1.00  0.00     0.009 A 
ATOM     56  C   UNL A   1      39.654  25.805  28.091  1.00  0.00     0.001 A 
ATOM     57  C   UNL A   1      41.207  27.284  26.980  1.00  0.00     0.001 A 
ATOM     58  C   UNL A   1      40.442  26.119  26.984  1.00  0.00     0.000 A 
ENDBRANCH  39  53
BRANCH  40  59
ATOM     59  C   UNL A   1      39.841  34.292  36.786  1.00  0.00    -0.014 A 
ATOM     60  C   UNL A   1      39.033  34.013  37.900  1.00  0.00     0.009 A 
ATOM     61  C   UNL A   1      40.548  35.504  36.750  1.00  0.00     0.009 A 
ATOM     62  C   UNL A   1      38.905  34.942  38.935  1.00  0.00     0.001 A 
ATOM     63  C   UNL A   1      40.443  36.418  37.801  1.00  0.00     0.001 A 
ATOM     64  C   UNL A   1      39.612  36.143  38.886  1.00  0.00     0.000 A 
ENDBRANCH  40  59
BRANCH  52  65
ATOM     65  C   UNL A   1      43.996  28.901  35.371  1.00  0.00    -0.014 A 
ATOM     66  C   UNL A   1      43.839  27.857  36.294  1.00  0.00     0.009 A 
ATOM     67  C   UNL A   1      45.289  29.375  35.093  1.00  0.00     0.009 A 
ATOM     68  C   UNL A   1      44.950  27.322  36.950  1.00  0.00     0.001 A 
ATOM     69  C   UNL A   1      46.400  28.819  35.728  1.00  0.00     0.001 A 
ATOM     70  C   UNL A   1      46.228  27.799  36.662  1.00  0.00     0.000 A 
ENDBRANCH  52  65
ENDBRANCH  26  27
ENDBRANCH  18  21
ENDBRANCH  16  17
ENDBRANCH  15  16
ENDBRANCH   1  15
TORSDOF 15
ENDMDL
