MODEL 1
REMARK VINA RESULT:     -11.6      0.000      0.000
REMARK SMILES O=C(NCCCNC(=O)c1nccnc1C(=O)N1CCC(Cc2ccccc2)CC1)c1ccc(-c2c3nc(c(-c4ccccc4)c4ccc([nH]4)c(-c4ccccc4)c4nc(c(-c5ccccc5)c5ccc2[nH]5)C=C4)C=C3)cc1
REMARK SMILES IDX 5 1 4 2 3 3 1 4 2 5 31 7 32 8 78 9 33 10 77 11 34 12 35 13
REMARK SMILES IDX 36 14 71 15 37 16 76 17 70 18 72 19 38 20 75 21 69 22 68 23
REMARK SMILES IDX 39 25 61 26 46 27 60 28 47 29 50 30 59 31 73 32 48 33 49 34
REMARK SMILES IDX 58 36 74 37 51 38 40 39 41 40 45 41 42 42 44 43 43 44 62 45
REMARK SMILES IDX 63 46 67 47 64 48 66 49 65 50 52 51 53 52 57 53 54 54 56 55
REMARK SMILES IDX 55 56 6 57 7 58 8 59 9 61 10 62 11 63 15 64 12 65 14 66
REMARK SMILES IDX 13 67 16 68 17 69 18 70 19 71 30 72 20 73 29 74 21 75 22 76
REMARK SMILES IDX 23 77 24 78 28 79 25 80 27 81 26 82
REMARK H PARENT 3 6 72 24 50 35 7 60
REMARK Flexibility Score: inf
ROOT
ATOM      1  C   UNL A   1      34.087  28.317  26.025  1.00  0.00     0.042 C 
ENDROOT
BRANCH   1   2
ATOM      2  C   UNL A   1      33.473  28.623  27.388  1.00  0.00     0.118 C 
BRANCH   2   3
ATOM      3  N   UNL A   1      33.536  30.034  27.736  1.00  0.00    -0.352 N 
ATOM      4  O   UNL A   1      34.281  31.933  28.668  1.00  0.00    -0.269 OA
ATOM      5  C   UNL A   1      34.534  30.785  28.297  1.00  0.00     0.251 C 
ATOM      6  H   UNL A   1      32.715  30.539  27.532  1.00  0.00     0.163 HD
BRANCH   5   7
ATOM      7  C   UNL A   1      35.901  30.251  28.478  1.00  0.00     0.039 A 
ATOM      8  C   UNL A   1      36.858  30.329  27.466  1.00  0.00     0.014 A 
ATOM      9  C   UNL A   1      36.260  29.737  29.731  1.00  0.00     0.014 A 
ATOM     10  C   UNL A   1      38.128  29.791  27.661  1.00  0.00     0.010 A 
ATOM     11  C   UNL A   1      37.557  29.269  29.953  1.00  0.00     0.010 A 
ATOM     12  C   UNL A   1      38.498  29.275  28.913  1.00  0.00    -0.014 A 
BRANCH  12  13
ATOM     13  C   UNL A   1      39.895  28.830  29.143  1.00  0.00     0.031 A 
ATOM     14  C   UNL A   1      40.910  29.743  29.772  1.00  0.00     0.074 A 
ATOM     15  C   UNL A   1      40.247  27.584  28.769  1.00  0.00     0.049 A 
ATOM     16  N   UNL A   1      42.170  29.510  30.036  1.00  0.00    -0.248 NA
ATOM     17  C   UNL A   1      40.457  31.092  30.147  1.00  0.00     0.031 C 
ATOM     18  C   UNL A   1      39.357  26.611  28.131  1.00  0.00     0.029 A 
ATOM     19  N   UNL A   1      41.443  26.922  28.874  1.00  0.00    -0.354 N 
ATOM     20  C   UNL A   1      42.668  30.685  30.585  1.00  0.00     0.074 A 
ATOM     21  C   UNL A   1      41.577  31.636  30.604  1.00  0.00     0.031 C 
ATOM     22  C   UNL A   1      40.028  25.468  27.929  1.00  0.00     0.029 A 
ATOM     23  C   UNL A   1      41.408  25.645  28.369  1.00  0.00     0.049 A 
ATOM     24  H   UNL A   1      42.250  27.322  29.271  1.00  0.00     0.167 HD
ATOM     25  C   UNL A   1      43.918  30.943  31.036  1.00  0.00     0.031 A 
ATOM     26  C   UNL A   1      42.379  24.723  28.247  1.00  0.00     0.031 A 
ATOM     27  C   UNL A   1      45.000  29.993  31.026  1.00  0.00     0.049 A 
ATOM     28  C   UNL A   1      43.763  25.050  28.724  1.00  0.00     0.074 A 
ATOM     29  C   UNL A   1      46.283  30.143  31.526  1.00  0.00     0.029 A 
ATOM     30  N   UNL A   1      44.930  28.721  30.479  1.00  0.00    -0.354 N 
ATOM     31  N   UNL A   1      44.197  26.144  29.304  1.00  0.00    -0.248 NA
ATOM     32  C   UNL A   1      44.792  24.021  28.526  1.00  0.00     0.031 C 
ATOM     33  C   UNL A   1      47.005  28.982  31.231  1.00  0.00     0.029 A 
ATOM     34  C   UNL A   1      46.158  28.091  30.591  1.00  0.00     0.049 A 
ATOM     35  H   UNL A   1      44.126  28.325  30.072  1.00  0.00     0.167 HD
ATOM     36  C   UNL A   1      45.547  25.931  29.545  1.00  0.00     0.074 A 
ATOM     37  C   UNL A   1      45.855  24.597  29.073  1.00  0.00     0.031 C 
ATOM     38  C   UNL A   1      46.450  26.770  30.105  1.00  0.00     0.031 A 
BRANCH  25  39
ATOM     39  C   UNL A   1      44.203  32.322  31.559  1.00  0.00    -0.014 A 
ATOM     40  C   UNL A   1      44.067  32.629  32.921  1.00  0.00     0.009 A 
ATOM     41  C   UNL A   1      44.685  33.309  30.684  1.00  0.00     0.009 A 
ATOM     42  C   UNL A   1      44.386  33.905  33.392  1.00  0.00     0.001 A 
ATOM     43  C   UNL A   1      45.022  34.577  31.161  1.00  0.00     0.001 A 
ATOM     44  C   UNL A   1      44.868  34.875  32.514  1.00  0.00     0.000 A 
ENDBRANCH  25  39
BRANCH  26  45
ATOM     45  C   UNL A   1      42.080  23.413  27.615  1.00  0.00    -0.014 A 
ATOM     46  C   UNL A   1      41.504  22.373  28.358  1.00  0.00     0.009 A 
ATOM     47  C   UNL A   1      42.364  23.203  26.255  1.00  0.00     0.009 A 
ATOM     48  C   UNL A   1      41.235  21.141  27.756  1.00  0.00     0.001 A 
ATOM     49  C   UNL A   1      42.067  21.981  25.650  1.00  0.00     0.001 A 
ATOM     50  C   UNL A   1      41.511  20.949  26.403  1.00  0.00     0.000 A 
ENDBRANCH  26  45
BRANCH  38  51
ATOM     51  C   UNL A   1      47.856  26.262  30.242  1.00  0.00    -0.014 A 
ATOM     52  C   UNL A   1      48.309  25.710  31.449  1.00  0.00     0.009 A 
ATOM     53  C   UNL A   1      48.725  26.305  29.140  1.00  0.00     0.009 A 
ATOM     54  C   UNL A   1      49.616  25.234  31.559  1.00  0.00     0.001 A 
ATOM     55  C   UNL A   1      50.023  25.806  29.246  1.00  0.00     0.001 A 
ATOM     56  C   UNL A   1      50.470  25.277  30.457  1.00  0.00     0.000 A 
ENDBRANCH  38  51
ENDBRANCH  12  13
ENDBRANCH   5   7
ENDBRANCH   2   3
ENDBRANCH   1   2
BRANCH   1  57
ATOM     57  C   UNL A   1      33.634  29.243  24.903  1.00  0.00     0.118 C 
BRANCH  57  58
ATOM     58  N   UNL A   1      34.027  28.773  23.583  1.00  0.00    -0.351 N 
ATOM     59  C   UNL A   1      33.238  28.417  22.512  1.00  0.00     0.272 C 
ATOM     60  H   UNL A   1      34.997  28.698  23.434  1.00  0.00     0.163 HD
ATOM     61  O   UNL A   1      33.779  28.163  21.433  1.00  0.00    -0.267 OA
BRANCH  59  62
ATOM     62  C   UNL A   1      31.767  28.420  22.641  1.00  0.00     0.159 A 
ATOM     63  N   UNL A   1      31.222  29.650  22.345  1.00  0.00    -0.247 NA
ATOM     64  C   UNL A   1      30.987  27.318  22.978  1.00  0.00     0.159 A 
ATOM     65  C   UNL A   1      29.880  29.740  22.392  1.00  0.00     0.132 A 
ATOM     66  N   UNL A   1      29.621  27.458  23.047  1.00  0.00    -0.247 NA
ATOM     67  C   UNL A   1      29.094  28.664  22.741  1.00  0.00     0.132 A 
BRANCH  64  68
ATOM     68  C   UNL A   1      31.438  25.904  23.273  1.00  0.00     0.274 C 
ATOM     69  O   UNL A   1      31.054  24.973  22.564  1.00  0.00    -0.267 OA
ATOM     70  N   UNL A   1      32.349  25.655  24.285  1.00  0.00    -0.337 N 
ATOM     71  C   UNL A   1      33.705  25.267  23.899  1.00  0.00     0.120 C 
ATOM     72  C   UNL A   1      31.925  25.505  25.671  1.00  0.00     0.120 C 
ATOM     73  C   UNL A   1      34.213  24.012  24.600  1.00  0.00     0.025 C 
ATOM     74  C   UNL A   1      32.458  24.233  26.333  1.00  0.00     0.025 C 
ATOM     75  C   UNL A   1      33.975  24.120  26.113  1.00  0.00    -0.003 C 
BRANCH  75  76
ATOM     76  C   UNL A   1      34.577  22.940  26.893  1.00  0.00     0.039 C 
BRANCH  76  77
ATOM     77  C   UNL A   1      35.828  22.373  26.258  1.00  0.00    -0.048 A 
ATOM     78  C   UNL A   1      37.033  23.088  26.308  1.00  0.00     0.004 A 
ATOM     79  C   UNL A   1      35.811  21.127  25.613  1.00  0.00     0.004 A 
ATOM     80  C   UNL A   1      38.196  22.561  25.741  1.00  0.00     0.000 A 
ATOM     81  C   UNL A   1      36.976  20.599  25.052  1.00  0.00     0.000 A 
ATOM     82  C   UNL A   1      38.169  21.317  25.118  1.00  0.00     0.000 A 
ENDBRANCH  76  77
ENDBRANCH  75  76
ENDBRANCH  64  68
ENDBRANCH  59  62
ENDBRANCH  57  58
ENDBRANCH   1  57
TORSDOF 13
ENDMDL
MODEL 2
REMARK VINA RESULT:     -11.4      2.564      8.101
REMARK SMILES O=C(NCCCNC(=O)c1nccnc1C(=O)N1CCC(Cc2ccccc2)CC1)c1ccc(-c2c3nc(c(-c4ccccc4)c4ccc([nH]4)c(-c4ccccc4)c4nc(c(-c5ccccc5)c5ccc2[nH]5)C=C4)C=C3)cc1
REMARK SMILES IDX 5 1 4 2 3 3 1 4 2 5 31 7 32 8 78 9 33 10 77 11 34 12 35 13
REMARK SMILES IDX 36 14 71 15 37 16 76 17 70 18 72 19 38 20 75 21 69 22 68 23
REMARK SMILES IDX 39 25 61 26 46 27 60 28 47 29 50 30 59 31 73 32 48 33 49 34
REMARK SMILES IDX 58 36 74 37 51 38 40 39 41 40 45 41 42 42 44 43 43 44 62 45
REMARK SMILES IDX 63 46 67 47 64 48 66 49 65 50 52 51 53 52 57 53 54 54 56 55
REMARK SMILES IDX 55 56 6 57 7 58 8 59 9 61 10 62 11 63 15 64 12 65 14 66
REMARK SMILES IDX 13 67 16 68 17 69 18 70 19 71 30 72 20 73 29 74 21 75 22 76
REMARK SMILES IDX 23 77 24 78 28 79 25 80 27 81 26 82
REMARK H PARENT 3 6 72 24 50 35 7 60
REMARK Flexibility Score: inf
ROOT
ATOM      1  C   UNL A   1      37.945  19.861  24.902  1.00  0.00     0.042 C 
ENDROOT
BRANCH   1   2
ATOM      2  C   UNL A   1      38.958  20.093  26.019  1.00  0.00     0.118 C 
BRANCH   2   3
ATOM      3  N   UNL A   1      40.165  19.295  25.867  1.00  0.00    -0.352 N 
ATOM      4  O   UNL A   1      42.339  18.809  25.603  1.00  0.00    -0.269 OA
ATOM      5  C   UNL A   1      41.490  19.629  25.957  1.00  0.00     0.251 C 
ATOM      6  H   UNL A   1      40.001  18.346  25.663  1.00  0.00     0.163 HD
BRANCH   5   7
ATOM      7  C   UNL A   1      41.926  20.951  26.458  1.00  0.00     0.039 A 
ATOM      8  C   UNL A   1      42.221  22.002  25.588  1.00  0.00     0.014 A 
ATOM      9  C   UNL A   1      41.953  21.169  27.841  1.00  0.00     0.014 A 
ATOM     10  C   UNL A   1      42.656  23.225  26.093  1.00  0.00     0.010 A 
ATOM     11  C   UNL A   1      42.313  22.420  28.348  1.00  0.00     0.010 A 
ATOM     12  C   UNL A   1      42.685  23.455  27.477  1.00  0.00    -0.014 A 
BRANCH  12  13
ATOM     13  C   UNL A   1      43.020  24.805  27.994  1.00  0.00     0.031 A 
ATOM     14  C   UNL A   1      41.949  25.825  28.261  1.00  0.00     0.074 A 
ATOM     15  C   UNL A   1      44.313  25.111  28.216  1.00  0.00     0.049 A 
ATOM     16  N   UNL A   1      42.075  27.049  28.706  1.00  0.00    -0.248 NA
ATOM     17  C   UNL A   1      40.559  25.425  27.987  1.00  0.00     0.031 C 
ATOM     18  C   UNL A   1      45.446  24.212  27.977  1.00  0.00     0.029 A 
ATOM     19  N   UNL A   1      44.894  26.257  28.694  1.00  0.00    -0.354 N 
ATOM     20  C   UNL A   1      40.789  27.574  28.746  1.00  0.00     0.074 A 
ATOM     21  C   UNL A   1      39.897  26.540  28.265  1.00  0.00     0.031 C 
ATOM     22  C   UNL A   1      46.580  24.829  28.338  1.00  0.00     0.029 A 
ATOM     23  C   UNL A   1      46.264  26.183  28.778  1.00  0.00     0.049 A 
ATOM     24  H   UNL A   1      44.381  27.056  28.953  1.00  0.00     0.167 HD
ATOM     25  C   UNL A   1      40.391  28.804  29.150  1.00  0.00     0.031 A 
ATOM     26  C   UNL A   1      47.170  27.106  29.144  1.00  0.00     0.031 A 
ATOM     27  C   UNL A   1      41.278  29.828  29.638  1.00  0.00     0.049 A 
ATOM     28  C   UNL A   1      46.701  28.471  29.554  1.00  0.00     0.074 A 
ATOM     29  C   UNL A   1      40.958  31.080  30.135  1.00  0.00     0.029 A 
ATOM     30  N   UNL A   1      42.659  29.722  29.678  1.00  0.00    -0.354 N 
ATOM     31  N   UNL A   1      45.475  28.926  29.649  1.00  0.00    -0.248 NA
ATOM     32  C   UNL A   1      47.740  29.451  29.900  1.00  0.00     0.031 C 
ATOM     33  C   UNL A   1      42.148  31.753  30.424  1.00  0.00     0.029 A 
ATOM     34  C   UNL A   1      43.208  30.902  30.152  1.00  0.00     0.049 A 
ATOM     35  H   UNL A   1      43.174  28.927  29.410  1.00  0.00     0.167 HD
ATOM     36  C   UNL A   1      45.595  30.242  30.074  1.00  0.00     0.074 A 
ATOM     37  C   UNL A   1      47.009  30.505  30.240  1.00  0.00     0.031 C 
ATOM     38  C   UNL A   1      44.617  31.151  30.300  1.00  0.00     0.031 A 
BRANCH  25  39
ATOM     39  C   UNL A   1      38.927  29.130  29.061  1.00  0.00    -0.014 A 
ATOM     40  C   UNL A   1      38.071  28.951  30.158  1.00  0.00     0.009 A 
ATOM     41  C   UNL A   1      38.414  29.694  27.882  1.00  0.00     0.009 A 
ATOM     42  C   UNL A   1      36.724  29.309  30.067  1.00  0.00     0.001 A 
ATOM     43  C   UNL A   1      37.072  30.069  27.801  1.00  0.00     0.001 A 
ATOM     44  C   UNL A   1      36.227  29.873  28.892  1.00  0.00     0.000 A 
ENDBRANCH  25  39
BRANCH  26  45
ATOM     45  C   UNL A   1      48.618  26.778  29.104  1.00  0.00    -0.014 A 
ATOM     46  C   UNL A   1      49.257  26.217  30.219  1.00  0.00     0.009 A 
ATOM     47  C   UNL A   1      49.365  27.017  27.939  1.00  0.00     0.009 A 
ATOM     48  C   UNL A   1      50.621  25.919  30.174  1.00  0.00     0.001 A 
ATOM     49  C   UNL A   1      50.722  26.691  27.888  1.00  0.00     0.001 A 
ATOM     50  C   UNL A   1      51.350  26.151  29.008  1.00  0.00     0.000 A 
ENDBRANCH  26  45
BRANCH  38  51
ATOM     51  C   UNL A   1      45.049  32.513  30.760  1.00  0.00    -0.014 A 
ATOM     52  C   UNL A   1      45.184  33.572  29.849  1.00  0.00     0.009 A 
ATOM     53  C   UNL A   1      45.288  32.748  32.123  1.00  0.00     0.009 A 
ATOM     54  C   UNL A   1      45.577  34.836  30.292  1.00  0.00     0.001 A 
ATOM     55  C   UNL A   1      45.657  34.018  32.565  1.00  0.00     0.001 A 
ATOM     56  C   UNL A   1      45.809  35.059  31.649  1.00  0.00     0.000 A 
ENDBRANCH  38  51
ENDBRANCH  12  13
ENDBRANCH   5   7
ENDBRANCH   2   3
ENDBRANCH   1   2
BRANCH   1  57
ATOM     57  C   UNL A   1      36.965  21.008  24.687  1.00  0.00     0.118 C 
BRANCH  57  58
ATOM     58  N   UNL A   1      36.230  21.363  25.892  1.00  0.00    -0.351 N 
ATOM     59  C   UNL A   1      34.871  21.435  26.097  1.00  0.00     0.272 C 
ATOM     60  H   UNL A   1      36.786  21.584  26.674  1.00  0.00     0.163 HD
ATOM     61  O   UNL A   1      34.450  21.635  27.239  1.00  0.00    -0.267 OA
BRANCH  59  62
ATOM     62  C   UNL A   1      33.938  21.195  24.977  1.00  0.00     0.159 A 
ATOM     63  N   UNL A   1      33.499  19.889  24.938  1.00  0.00    -0.247 NA
ATOM     64  C   UNL A   1      33.500  22.159  24.075  1.00  0.00     0.159 A 
ATOM     65  C   UNL A   1      32.610  19.584  23.975  1.00  0.00     0.132 A 
ATOM     66  N   UNL A   1      32.615  21.800  23.086  1.00  0.00    -0.247 NA
ATOM     67  C   UNL A   1      32.179  20.521  23.063  1.00  0.00     0.132 A 
BRANCH  64  68
ATOM     68  C   UNL A   1      33.850  23.630  24.030  1.00  0.00     0.274 C 
ATOM     69  O   UNL A   1      35.028  23.986  24.093  1.00  0.00    -0.267 OA
ATOM     70  N   UNL A   1      32.865  24.581  23.832  1.00  0.00    -0.337 N 
ATOM     71  C   UNL A   1      32.825  25.262  22.539  1.00  0.00     0.120 C 
ATOM     72  C   UNL A   1      32.071  25.096  24.940  1.00  0.00     0.120 C 
ATOM     73  C   UNL A   1      32.765  26.781  22.641  1.00  0.00     0.025 C 
ATOM     74  C   UNL A   1      32.039  26.624  25.003  1.00  0.00     0.025 C 
ATOM     75  C   UNL A   1      31.666  27.201  23.628  1.00  0.00    -0.003 C 
BRANCH  75  76
ATOM     76  C   UNL A   1      31.470  28.725  23.684  1.00  0.00     0.039 C 
BRANCH  76  77
ATOM     77  C   UNL A   1      30.036  29.156  23.462  1.00  0.00    -0.048 A 
ATOM     78  C   UNL A   1      29.060  28.213  23.109  1.00  0.00     0.004 A 
ATOM     79  C   UNL A   1      29.654  30.498  23.605  1.00  0.00     0.004 A 
ATOM     80  C   UNL A   1      27.731  28.601  22.923  1.00  0.00     0.000 A 
ATOM     81  C   UNL A   1      28.324  30.884  23.424  1.00  0.00     0.000 A 
ATOM     82  C   UNL A   1      27.363  29.935  23.084  1.00  0.00     0.000 A 
ENDBRANCH  76  77
ENDBRANCH  75  76
ENDBRANCH  64  68
ENDBRANCH  59  62
ENDBRANCH  57  58
ENDBRANCH   1  57
TORSDOF 13
ENDMDL
MODEL 3
REMARK VINA RESULT:     -11.3      2.704      3.986
REMARK SMILES O=C(NCCCNC(=O)c1nccnc1C(=O)N1CCC(Cc2ccccc2)CC1)c1ccc(-c2c3nc(c(-c4ccccc4)c4ccc([nH]4)c(-c4ccccc4)c4nc(c(-c5ccccc5)c5ccc2[nH]5)C=C4)C=C3)cc1
REMARK SMILES IDX 5 1 4 2 3 3 1 4 2 5 31 7 32 8 78 9 33 10 77 11 34 12 35 13
REMARK SMILES IDX 36 14 71 15 37 16 76 17 70 18 72 19 38 20 75 21 69 22 68 23
REMARK SMILES IDX 39 25 61 26 46 27 60 28 47 29 50 30 59 31 73 32 48 33 49 34
REMARK SMILES IDX 58 36 74 37 51 38 40 39 41 40 45 41 42 42 44 43 43 44 62 45
REMARK SMILES IDX 63 46 67 47 64 48 66 49 65 50 52 51 53 52 57 53 54 54 56 55
REMARK SMILES IDX 55 56 6 57 7 58 8 59 9 61 10 62 11 63 15 64 12 65 14 66
REMARK SMILES IDX 13 67 16 68 17 69 18 70 19 71 30 72 20 73 29 74 21 75 22 76
REMARK SMILES IDX 23 77 24 78 28 79 25 80 27 81 26 82
REMARK H PARENT 3 6 72 24 50 35 7 60
REMARK Flexibility Score: inf
ROOT
ATOM      1  C   UNL A   1      31.402  31.943  26.655  1.00  0.00     0.042 C 
ENDROOT
BRANCH   1   2
ATOM      2  C   UNL A   1      32.714  32.639  27.003  1.00  0.00     0.118 C 
BRANCH   2   3
ATOM      3  N   UNL A   1      32.521  33.897  27.709  1.00  0.00    -0.352 N 
ATOM      4  O   UNL A   1      32.727  35.460  29.304  1.00  0.00    -0.269 OA
ATOM      5  C   UNL A   1      33.199  34.462  28.755  1.00  0.00     0.251 C 
ATOM      6  H   UNL A   1      31.768  34.438  27.375  1.00  0.00     0.163 HD
BRANCH   5   7
ATOM      7  C   UNL A   1      34.475  33.900  29.249  1.00  0.00     0.039 A 
ATOM      8  C   UNL A   1      34.516  33.014  30.326  1.00  0.00     0.014 A 
ATOM      9  C   UNL A   1      35.654  34.201  28.555  1.00  0.00     0.014 A 
ATOM     10  C   UNL A   1      35.739  32.525  30.782  1.00  0.00     0.010 A 
ATOM     11  C   UNL A   1      36.870  33.649  28.964  1.00  0.00     0.010 A 
ATOM     12  C   UNL A   1      36.925  32.820  30.094  1.00  0.00    -0.014 A 
BRANCH  12  13
ATOM     13  C   UNL A   1      38.198  32.182  30.512  1.00  0.00     0.031 A 
ATOM     14  C   UNL A   1      39.095  32.826  31.531  1.00  0.00     0.074 A 
ATOM     15  C   UNL A   1      38.546  31.005  29.954  1.00  0.00     0.049 A 
ATOM     16  N   UNL A   1      40.242  32.402  31.999  1.00  0.00    -0.248 NA
ATOM     17  C   UNL A   1      38.657  34.114  32.092  1.00  0.00     0.031 C 
ATOM     18  C   UNL A   1      37.768  30.290  28.939  1.00  0.00     0.029 A 
ATOM     19  N   UNL A   1      39.639  30.203  30.161  1.00  0.00    -0.354 N 
ATOM     20  C   UNL A   1      40.673  33.377  32.891  1.00  0.00     0.074 A 
ATOM     21  C   UNL A   1      39.672  34.422  32.888  1.00  0.00     0.031 C 
ATOM     22  C   UNL A   1      38.391  29.142  28.636  1.00  0.00     0.029 A 
ATOM     23  C   UNL A   1      39.639  29.067  29.388  1.00  0.00     0.049 A 
ATOM     24  H   UNL A   1      40.355  30.420  30.801  1.00  0.00     0.167 HD
ATOM     25  C   UNL A   1      41.798  33.393  33.644  1.00  0.00     0.031 A 
ATOM     26  C   UNL A   1      40.549  28.084  29.274  1.00  0.00     0.031 A 
ATOM     27  C   UNL A   1      42.787  32.348  33.654  1.00  0.00     0.049 A 
ATOM     28  C   UNL A   1      41.802  28.149  30.097  1.00  0.00     0.074 A 
ATOM     29  C   UNL A   1      43.925  32.246  34.437  1.00  0.00     0.029 A 
ATOM     30  N   UNL A   1      42.764  31.230  32.835  1.00  0.00    -0.354 N 
ATOM     31  N   UNL A   1      42.159  29.045  30.985  1.00  0.00    -0.248 NA
ATOM     32  C   UNL A   1      42.780  27.070  29.898  1.00  0.00     0.031 C 
ATOM     33  C   UNL A   1      44.619  31.095  34.052  1.00  0.00     0.029 A 
ATOM     34  C   UNL A   1      43.888  30.455  33.063  1.00  0.00     0.049 A 
ATOM     35  H   UNL A   1      42.053  31.019  32.187  1.00  0.00     0.167 HD
ATOM     36  C   UNL A   1      43.398  28.635  31.455  1.00  0.00     0.074 A 
ATOM     37  C   UNL A   1      43.720  27.398  30.774  1.00  0.00     0.031 C 
ATOM     38  C   UNL A   1      44.199  29.235  32.368  1.00  0.00     0.031 A 
BRANCH  25  39
ATOM     39  C   UNL A   1      42.042  34.596  34.510  1.00  0.00    -0.014 A 
ATOM     40  C   UNL A   1      41.636  34.624  35.853  1.00  0.00     0.009 A 
ATOM     41  C   UNL A   1      42.753  35.690  33.992  1.00  0.00     0.009 A 
ATOM     42  C   UNL A   1      41.919  35.734  36.653  1.00  0.00     0.001 A 
ATOM     43  C   UNL A   1      43.052  36.789  34.800  1.00  0.00     0.001 A 
ATOM     44  C   UNL A   1      42.631  36.812  36.128  1.00  0.00     0.000 A 
ENDBRANCH  25  39
BRANCH  26  45
ATOM     45  C   UNL A   1      40.322  26.973  28.317  1.00  0.00    -0.014 A 
ATOM     46  C   UNL A   1      40.854  27.022  27.021  1.00  0.00     0.009 A 
ATOM     47  C   UNL A   1      39.575  25.848  28.704  1.00  0.00     0.009 A 
ATOM     48  C   UNL A   1      40.627  25.976  26.124  1.00  0.00     0.001 A 
ATOM     49  C   UNL A   1      39.374  24.791  27.815  1.00  0.00     0.001 A 
ATOM     50  C   UNL A   1      39.893  24.859  26.524  1.00  0.00     0.000 A 
ENDBRANCH  26  45
BRANCH  38  51
ATOM     51  C   UNL A   1      45.498  28.553  32.686  1.00  0.00    -0.014 A 
ATOM     52  C   UNL A   1      45.574  27.580  33.693  1.00  0.00     0.009 A 
ATOM     53  C   UNL A   1      46.649  28.863  31.945  1.00  0.00     0.009 A 
ATOM     54  C   UNL A   1      46.787  26.947  33.971  1.00  0.00     0.001 A 
ATOM     55  C   UNL A   1      47.854  28.211  32.209  1.00  0.00     0.001 A 
ATOM     56  C   UNL A   1      47.924  27.260  33.226  1.00  0.00     0.000 A 
ENDBRANCH  38  51
ENDBRANCH  12  13
ENDBRANCH   5   7
ENDBRANCH   2   3
ENDBRANCH   1   2
BRANCH   1  57
ATOM     57  C   UNL A   1      31.469  30.420  26.668  1.00  0.00     0.118 C 
BRANCH  57  58
ATOM     58  N   UNL A   1      32.588  29.894  25.900  1.00  0.00    -0.351 N 
ATOM     59  C   UNL A   1      32.583  29.022  24.835  1.00  0.00     0.272 C 
ATOM     60  H   UNL A   1      33.477  30.205  26.185  1.00  0.00     0.163 HD
ATOM     61  O   UNL A   1      33.642  28.799  24.243  1.00  0.00    -0.267 OA
BRANCH  59  62
ATOM     62  C   UNL A   1      31.313  28.432  24.365  1.00  0.00     0.159 A 
ATOM     63  N   UNL A   1      30.647  29.262  23.489  1.00  0.00    -0.247 NA
ATOM     64  C   UNL A   1      30.835  27.172  24.712  1.00  0.00     0.159 A 
ATOM     65  C   UNL A   1      29.498  28.791  22.972  1.00  0.00     0.132 A 
ATOM     66  N   UNL A   1      29.640  26.740  24.187  1.00  0.00    -0.247 NA
ATOM     67  C   UNL A   1      29.001  27.554  23.318  1.00  0.00     0.132 A 
BRANCH  64  68
ATOM     68  C   UNL A   1      31.479  26.139  25.610  1.00  0.00     0.274 C 
ATOM     69  O   UNL A   1      31.583  26.351  26.819  1.00  0.00    -0.267 OA
ATOM     70  N   UNL A   1      31.878  24.916  25.100  1.00  0.00    -0.337 N 
ATOM     71  C   UNL A   1      31.096  23.737  25.468  1.00  0.00     0.120 C 
ATOM     72  C   UNL A   1      33.174  24.746  24.455  1.00  0.00     0.120 C 
ATOM     73  C   UNL A   1      31.935  22.578  25.994  1.00  0.00     0.025 C 
ATOM     74  C   UNL A   1      33.979  23.573  25.014  1.00  0.00     0.025 C 
ATOM     75  C   UNL A   1      33.111  22.305  25.045  1.00  0.00    -0.003 C 
BRANCH  75  76
ATOM     76  C   UNL A   1      33.926  21.066  25.453  1.00  0.00     0.039 C 
BRANCH  76  77
ATOM     77  C   UNL A   1      33.625  19.843  24.613  1.00  0.00    -0.048 A 
ATOM     78  C   UNL A   1      32.512  19.827  23.762  1.00  0.00     0.004 A 
ATOM     79  C   UNL A   1      34.450  18.710  24.666  1.00  0.00     0.004 A 
ATOM     80  C   UNL A   1      32.240  18.710  22.969  1.00  0.00     0.000 A 
ATOM     81  C   UNL A   1      34.180  17.595  23.868  1.00  0.00     0.000 A 
ATOM     82  C   UNL A   1      33.076  17.597  23.019  1.00  0.00     0.000 A 
ENDBRANCH  76  77
ENDBRANCH  75  76
ENDBRANCH  64  68
ENDBRANCH  59  62
ENDBRANCH  57  58
ENDBRANCH   1  57
TORSDOF 13
ENDMDL
