MODEL 1
REMARK VINA RESULT:     -11.1      0.000      0.000
REMARK SMILES COCCN1C(=O)CC[C@@H](C(=O)NCCCNC(=O)c2ccc(-c3c4nc(c(-c5ccccc5)c5ccc([nH]5)c(-c5ccccc5)c5nc(c(-c6ccccc6)c6ccc3[nH]6)C=C5)C=C4)cc2)[C@H]1c1ccccc1C
REMARK SMILES IDX 14 1 13 2 11 3 12 4 10 6 5 7 6 8 68 9 7 10 8 11 9 12 4 13
REMARK SMILES IDX 3 14 2 15 1 16 69 17 70 18 74 19 71 20 73 21 75 22 72 23
REMARK SMILES IDX 15 24 16 25 17 26 18 27 19 29 20 30 21 31 67 32 22 33 66 34
REMARK SMILES IDX 23 35 24 36 25 37 60 38 26 39 65 40 59 41 61 42 27 43 64 44
REMARK SMILES IDX 58 45 57 46 28 48 50 49 35 50 49 51 36 52 39 53 48 54 62 55
REMARK SMILES IDX 37 56 38 57 47 59 63 60 40 61 29 62 30 63 34 64 31 65 33 66
REMARK SMILES IDX 32 67 51 68 52 69 56 70 53 71 55 72 54 73 41 74 42 75 46 76
REMARK SMILES IDX 43 77 45 78 44 79
REMARK H PARENT 13 5 17 28 61 47 39 58
REMARK Flexibility Score: inf
ROOT
ATOM      1  C   UNL A   1      31.639  28.143  27.465  1.00  0.00     0.117 C 
ENDROOT
BRANCH   1   2
ATOM      2  N   UNL A   1      31.134  27.312  26.389  1.00  0.00    -0.356 N 
ATOM      3  C   UNL A   1      31.686  26.502  25.459  1.00  0.00     0.225 C 
ATOM      4  O   UNL A   1      30.870  25.718  24.945  1.00  0.00    -0.275 OA
ATOM      5  H   UNL A   1      30.152  27.346  26.320  1.00  0.00     0.163 HD
BRANCH   3   6
ATOM      6  C   UNL A   1      33.146  26.430  24.985  1.00  0.00     0.106 C 
ATOM      7  N   UNL A   1      33.229  24.762  23.144  1.00  0.00    -0.333 N 
ATOM      8  C   UNL A   1      33.360  25.752  22.152  1.00  0.00     0.223 C 
ATOM      9  C   UNL A   1      33.765  25.102  24.478  1.00  0.00     0.128 C 
ATOM     10  O   UNL A   1      33.317  25.496  20.946  1.00  0.00    -0.275 OA
ATOM     11  C   UNL A   1      33.498  27.213  22.568  1.00  0.00     0.101 C 
ATOM     12  C   UNL A   1      33.538  27.563  24.044  1.00  0.00     0.026 C 
BRANCH   7  13
ATOM     13  C   UNL A   1      33.088  23.392  22.594  1.00  0.00     0.148 C 
BRANCH  13  14
ATOM     14  C   UNL A   1      31.865  22.494  22.827  1.00  0.00     0.181 C 
BRANCH  14  15
ATOM     15  O   UNL A   1      32.178  21.102  22.853  1.00  0.00    -0.383 OA
ATOM     16  C   UNL A   1      32.874  20.734  24.030  1.00  0.00     0.194 C 
ENDBRANCH  14  15
ENDBRANCH  13  14
ENDBRANCH   7  13
BRANCH   9  17
ATOM     17  C   UNL A   1      34.002  23.987  25.506  1.00  0.00    -0.022 A 
ATOM     18  C   UNL A   1      33.012  23.643  26.449  1.00  0.00     0.006 A 
ATOM     19  C   UNL A   1      35.233  23.281  25.587  1.00  0.00    -0.046 A 
ATOM     20  C   UNL A   1      33.180  22.606  27.372  1.00  0.00     0.000 A 
ATOM     21  C   UNL A   1      35.379  22.222  26.513  1.00  0.00     0.004 A 
ATOM     22  C   UNL A   1      36.455  23.591  24.759  1.00  0.00     0.045 C 
ATOM     23  C   UNL A   1      34.355  21.876  27.386  1.00  0.00     0.000 A 
ENDBRANCH   9  17
ENDBRANCH   3   6
ENDBRANCH   1   2
BRANCH   1  24
ATOM     24  C   UNL A   1      31.868  29.621  27.124  1.00  0.00     0.042 C 
BRANCH  24  25
ATOM     25  C   UNL A   1      33.328  30.043  26.940  1.00  0.00     0.118 C 
BRANCH  25  26
ATOM     26  N   UNL A   1      33.710  31.074  27.892  1.00  0.00    -0.352 N 
ATOM     27  C   UNL A   1      34.747  31.211  28.770  1.00  0.00     0.251 C 
ATOM     28  H   UNL A   1      33.088  31.837  27.907  1.00  0.00     0.163 HD
ATOM     29  O   UNL A   1      34.626  32.075  29.648  1.00  0.00    -0.269 OA
BRANCH  27  30
ATOM     30  C   UNL A   1      36.012  30.432  28.729  1.00  0.00     0.039 A 
ATOM     31  C   UNL A   1      36.454  29.867  29.937  1.00  0.00     0.014 A 
ATOM     32  C   UNL A   1      36.876  30.418  27.632  1.00  0.00     0.014 A 
ATOM     33  C   UNL A   1      37.742  29.331  30.059  1.00  0.00     0.010 A 
ATOM     34  C   UNL A   1      38.155  29.838  27.741  1.00  0.00     0.010 A 
ATOM     35  C   UNL A   1      38.617  29.323  28.964  1.00  0.00    -0.014 A 
BRANCH  35  36
ATOM     36  C   UNL A   1      40.028  28.856  29.131  1.00  0.00     0.031 A 
ATOM     37  C   UNL A   1      41.063  29.750  29.771  1.00  0.00     0.074 A 
ATOM     38  C   UNL A   1      40.396  27.623  28.731  1.00  0.00     0.049 A 
ATOM     39  N   UNL A   1      42.339  29.525  29.981  1.00  0.00    -0.248 NA
ATOM     40  C   UNL A   1      40.608  31.072  30.228  1.00  0.00     0.031 C 
ATOM     41  C   UNL A   1      39.515  26.637  28.105  1.00  0.00     0.029 A 
ATOM     42  N   UNL A   1      41.613  26.986  28.801  1.00  0.00    -0.354 N 
ATOM     43  C   UNL A   1      42.841  30.683  30.565  1.00  0.00     0.074 A 
ATOM     44  C   UNL A   1      41.739  31.618  30.655  1.00  0.00     0.031 C 
ATOM     45  C   UNL A   1      40.215  25.515  27.864  1.00  0.00     0.029 A 
ATOM     46  C   UNL A   1      41.600  25.711  28.287  1.00  0.00     0.049 A 
ATOM     47  H   UNL A   1      42.419  27.404  29.182  1.00  0.00     0.167 HD
ATOM     48  C   UNL A   1      44.099  30.948  30.997  1.00  0.00     0.031 A 
ATOM     49  C   UNL A   1      42.586  24.802  28.162  1.00  0.00     0.031 A 
ATOM     50  C   UNL A   1      45.201  30.024  30.948  1.00  0.00     0.049 A 
ATOM     51  C   UNL A   1      43.975  25.121  28.642  1.00  0.00     0.074 A 
ATOM     52  C   UNL A   1      46.496  30.202  31.408  1.00  0.00     0.029 A 
ATOM     53  N   UNL A   1      45.140  28.748  30.416  1.00  0.00    -0.354 N 
ATOM     54  N   UNL A   1      44.420  26.212  29.215  1.00  0.00    -0.248 NA
ATOM     55  C   UNL A   1      44.996  24.076  28.464  1.00  0.00     0.031 C 
ATOM     56  C   UNL A   1      47.229  29.045  31.120  1.00  0.00     0.029 A 
ATOM     57  C   UNL A   1      46.377  28.134  30.520  1.00  0.00     0.049 A 
ATOM     58  H   UNL A   1      44.336  28.339  30.020  1.00  0.00     0.167 HD
ATOM     59  C   UNL A   1      45.762  25.975  29.487  1.00  0.00     0.074 A 
ATOM     60  C   UNL A   1      46.058  24.635  29.029  1.00  0.00     0.031 C 
ATOM     61  C   UNL A   1      46.667  26.799  30.068  1.00  0.00     0.031 A 
BRANCH  48  62
ATOM     62  C   UNL A   1      44.363  32.319  31.559  1.00  0.00    -0.014 A 
ATOM     63  C   UNL A   1      44.247  32.577  32.934  1.00  0.00     0.009 A 
ATOM     64  C   UNL A   1      44.787  33.350  30.706  1.00  0.00     0.009 A 
ATOM     65  C   UNL A   1      44.519  33.851  33.438  1.00  0.00     0.001 A 
ATOM     66  C   UNL A   1      45.082  34.615  31.217  1.00  0.00     0.001 A 
ATOM     67  C   UNL A   1      44.939  34.867  32.581  1.00  0.00     0.000 A 
ENDBRANCH  48  62
BRANCH  49  68
ATOM     68  C   UNL A   1      42.300  23.480  27.546  1.00  0.00    -0.014 A 
ATOM     69  C   UNL A   1      41.788  22.429  28.320  1.00  0.00     0.009 A 
ATOM     70  C   UNL A   1      42.556  23.260  26.183  1.00  0.00     0.009 A 
ATOM     71  C   UNL A   1      41.559  21.175  27.748  1.00  0.00     0.001 A 
ATOM     72  C   UNL A   1      42.303  22.014  25.608  1.00  0.00     0.001 A 
ATOM     73  C   UNL A   1      41.812  20.970  26.392  1.00  0.00     0.000 A 
ENDBRANCH  49  68
BRANCH  61  74
ATOM     74  C   UNL A   1      48.056  26.267  30.273  1.00  0.00    -0.014 A 
ATOM     75  C   UNL A   1      49.034  26.381  29.274  1.00  0.00     0.009 A 
ATOM     76  C   UNL A   1      48.402  25.678  31.500  1.00  0.00     0.009 A 
ATOM     77  C   UNL A   1      50.324  25.892  29.488  1.00  0.00     0.001 A 
ATOM     78  C   UNL A   1      49.698  25.209  31.720  1.00  0.00     0.001 A 
ATOM     79  C   UNL A   1      50.655  25.309  30.712  1.00  0.00     0.000 A 
ENDBRANCH  61  74
ENDBRANCH  35  36
ENDBRANCH  27  30
ENDBRANCH  25  26
ENDBRANCH  24  25
ENDBRANCH   1  24
TORSDOF 14
ENDMDL
MODEL 2
REMARK VINA RESULT:     -10.9      2.506      7.855
REMARK SMILES COCCN1C(=O)CC[C@@H](C(=O)NCCCNC(=O)c2ccc(-c3c4nc(c(-c5ccccc5)c5ccc([nH]5)c(-c5ccccc5)c5nc(c(-c6ccccc6)c6ccc3[nH]6)C=C5)C=C4)cc2)[C@H]1c1ccccc1C
REMARK SMILES IDX 14 1 13 2 11 3 12 4 10 6 5 7 6 8 68 9 7 10 8 11 9 12 4 13
REMARK SMILES IDX 3 14 2 15 1 16 69 17 70 18 74 19 71 20 73 21 75 22 72 23
REMARK SMILES IDX 15 24 16 25 17 26 18 27 19 29 20 30 21 31 67 32 22 33 66 34
REMARK SMILES IDX 23 35 24 36 25 37 60 38 26 39 65 40 59 41 61 42 27 43 64 44
REMARK SMILES IDX 58 45 57 46 28 48 50 49 35 50 49 51 36 52 39 53 48 54 62 55
REMARK SMILES IDX 37 56 38 57 47 59 63 60 40 61 29 62 30 63 34 64 31 65 33 66
REMARK SMILES IDX 32 67 51 68 52 69 56 70 53 71 55 72 54 73 41 74 42 75 46 76
REMARK SMILES IDX 43 77 45 78 44 79
REMARK H PARENT 13 5 17 28 61 47 39 58
REMARK Flexibility Score: inf
ROOT
ATOM      1  C   UNL A   1      36.686  22.821  23.485  1.00  0.00     0.117 C 
ENDROOT
BRANCH   1   2
ATOM      2  N   UNL A   1      35.324  22.340  23.619  1.00  0.00    -0.356 N 
ATOM      3  C   UNL A   1      34.230  22.731  24.308  1.00  0.00     0.225 C 
ATOM      4  O   UNL A   1      33.176  22.235  23.877  1.00  0.00    -0.275 OA
ATOM      5  H   UNL A   1      35.157  21.535  23.077  1.00  0.00     0.163 HD
BRANCH   3   6
ATOM      6  C   UNL A   1      34.135  23.686  25.509  1.00  0.00     0.106 C 
ATOM      7  N   UNL A   1      31.754  24.374  25.699  1.00  0.00    -0.333 N 
ATOM      8  C   UNL A   1      31.529  23.557  26.823  1.00  0.00     0.223 C 
ATOM      9  C   UNL A   1      33.134  24.870  25.520  1.00  0.00     0.128 C 
ATOM     10  O   UNL A   1      30.408  23.386  27.309  1.00  0.00    -0.275 OA
ATOM     11  C   UNL A   1      32.698  22.795  27.438  1.00  0.00     0.101 C 
ATOM     12  C   UNL A   1      34.088  22.971  26.854  1.00  0.00     0.026 C 
BRANCH   7  13
ATOM     13  C   UNL A   1      30.526  25.039  25.200  1.00  0.00     0.148 C 
BRANCH  13  14
ATOM     14  C   UNL A   1      30.068  26.438  25.637  1.00  0.00     0.181 C 
BRANCH  14  15
ATOM     15  O   UNL A   1      30.292  27.445  24.652  1.00  0.00    -0.383 OA
ATOM     16  C   UNL A   1      29.928  27.010  23.354  1.00  0.00     0.194 C 
ENDBRANCH  14  15
ENDBRANCH  13  14
ENDBRANCH   7  13
BRANCH   9  17
ATOM     17  C   UNL A   1      33.400  26.039  24.561  1.00  0.00    -0.022 A 
ATOM     18  C   UNL A   1      33.436  25.842  23.165  1.00  0.00     0.006 A 
ATOM     19  C   UNL A   1      33.665  27.355  25.027  1.00  0.00    -0.046 A 
ATOM     20  C   UNL A   1      33.635  26.892  22.263  1.00  0.00     0.000 A 
ATOM     21  C   UNL A   1      33.845  28.408  24.100  1.00  0.00     0.004 A 
ATOM     22  C   UNL A   1      33.802  27.739  26.478  1.00  0.00     0.045 C 
ATOM     23  C   UNL A   1      33.813  28.181  22.729  1.00  0.00     0.000 A 
ENDBRANCH   9  17
ENDBRANCH   3   6
ENDBRANCH   1   2
BRANCH   1  24
ATOM     24  C   UNL A   1      37.374  23.266  24.782  1.00  0.00     0.042 C 
BRANCH  24  25
ATOM     25  C   UNL A   1      37.776  22.142  25.740  1.00  0.00     0.118 C 
BRANCH  25  26
ATOM     26  N   UNL A   1      39.221  21.983  25.802  1.00  0.00    -0.352 N 
ATOM     27  C   UNL A   1      40.254  22.833  26.077  1.00  0.00     0.251 C 
ATOM     28  H   UNL A   1      39.519  21.067  25.601  1.00  0.00     0.163 HD
ATOM     29  O   UNL A   1      41.390  22.456  25.760  1.00  0.00    -0.269 OA
BRANCH  27  30
ATOM     30  C   UNL A   1      40.122  24.149  26.755  1.00  0.00     0.039 A 
ATOM     31  C   UNL A   1      40.860  25.219  26.222  1.00  0.00     0.014 A 
ATOM     32  C   UNL A   1      39.493  24.323  27.990  1.00  0.00     0.014 A 
ATOM     33  C   UNL A   1      40.998  26.424  26.922  1.00  0.00     0.010 A 
ATOM     34  C   UNL A   1      39.594  25.550  28.673  1.00  0.00     0.010 A 
ATOM     35  C   UNL A   1      40.379  26.601  28.166  1.00  0.00    -0.014 A 
BRANCH  35  36
ATOM     36  C   UNL A   1      40.624  27.844  28.961  1.00  0.00     0.031 A 
ATOM     37  C   UNL A   1      41.931  28.044  29.692  1.00  0.00     0.074 A 
ATOM     38  C   UNL A   1      39.693  28.816  29.022  1.00  0.00     0.049 A 
ATOM     39  N   UNL A   1      42.315  29.046  30.447  1.00  0.00    -0.248 NA
ATOM     40  C   UNL A   1      42.933  26.975  29.564  1.00  0.00     0.031 C 
ATOM     41  C   UNL A   1      38.386  28.780  28.366  1.00  0.00     0.029 A 
ATOM     42  N   UNL A   1      39.710  30.032  29.666  1.00  0.00    -0.354 N 
ATOM     43  C   UNL A   1      43.585  28.716  30.905  1.00  0.00     0.074 A 
ATOM     44  C   UNL A   1      43.899  27.410  30.363  1.00  0.00     0.031 C 
ATOM     45  C   UNL A   1      37.734  29.927  28.625  1.00  0.00     0.029 A 
ATOM     46  C   UNL A   1      38.560  30.765  29.491  1.00  0.00     0.049 A 
ATOM     47  H   UNL A   1      40.473  30.347  30.202  1.00  0.00     0.167 HD
ATOM     48  C   UNL A   1      44.424  29.431  31.695  1.00  0.00     0.031 A 
ATOM     49  C   UNL A   1      38.203  31.970  29.975  1.00  0.00     0.031 A 
ATOM     50  C   UNL A   1      44.147  30.742  32.218  1.00  0.00     0.049 A 
ATOM     51  C   UNL A   1      39.147  32.742  30.856  1.00  0.00     0.074 A 
ATOM     52  C   UNL A   1      44.965  31.553  32.990  1.00  0.00     0.029 A 
ATOM     53  N   UNL A   1      42.970  31.441  32.018  1.00  0.00    -0.354 N 
ATOM     54  N   UNL A   1      40.353  32.422  31.254  1.00  0.00    -0.248 NA
ATOM     55  C   UNL A   1      38.678  34.048  31.348  1.00  0.00     0.031 C 
ATOM     56  C   UNL A   1      44.267  32.728  33.288  1.00  0.00     0.029 A 
ATOM     57  C   UNL A   1      43.032  32.665  32.666  1.00  0.00     0.049 A 
ATOM     58  H   UNL A   1      42.201  31.116  31.495  1.00  0.00     0.167 HD
ATOM     59  C   UNL A   1      40.796  33.494  32.019  1.00  0.00     0.074 A 
ATOM     60  C   UNL A   1      39.736  34.480  32.022  1.00  0.00     0.031 C 
ATOM     61  C   UNL A   1      41.978  33.645  32.662  1.00  0.00     0.031 A 
BRANCH  48  62
ATOM     62  C   UNL A   1      45.737  28.796  32.064  1.00  0.00    -0.014 A 
ATOM     63  C   UNL A   1      46.887  28.997  31.284  1.00  0.00     0.009 A 
ATOM     64  C   UNL A   1      45.835  28.033  33.237  1.00  0.00     0.009 A 
ATOM     65  C   UNL A   1      48.102  28.417  31.657  1.00  0.00     0.001 A 
ATOM     66  C   UNL A   1      47.056  27.475  33.620  1.00  0.00     0.001 A 
ATOM     67  C   UNL A   1      48.187  27.661  32.825  1.00  0.00     0.000 A 
ENDBRANCH  48  62
BRANCH  49  68
ATOM     68  C   UNL A   1      36.872  32.538  29.639  1.00  0.00    -0.014 A 
ATOM     69  C   UNL A   1      35.788  32.383  30.515  1.00  0.00     0.009 A 
ATOM     70  C   UNL A   1      36.676  33.223  28.429  1.00  0.00     0.009 A 
ATOM     71  C   UNL A   1      34.528  32.882  30.177  1.00  0.00     0.001 A 
ATOM     72  C   UNL A   1      35.422  33.743  28.105  1.00  0.00     0.001 A 
ATOM     73  C   UNL A   1      34.347  33.565  28.975  1.00  0.00     0.000 A 
ENDBRANCH  49  68
BRANCH  61  74
ATOM     74  C   UNL A   1      42.209  34.935  33.395  1.00  0.00    -0.014 A 
ATOM     75  C   UNL A   1      42.975  35.966  32.830  1.00  0.00     0.009 A 
ATOM     76  C   UNL A   1      41.619  35.137  34.653  1.00  0.00     0.009 A 
ATOM     77  C   UNL A   1      43.167  37.164  33.522  1.00  0.00     0.001 A 
ATOM     78  C   UNL A   1      41.796  36.342  35.334  1.00  0.00     0.001 A 
ATOM     79  C   UNL A   1      42.575  37.351  34.771  1.00  0.00     0.000 A 
ENDBRANCH  61  74
ENDBRANCH  35  36
ENDBRANCH  27  30
ENDBRANCH  25  26
ENDBRANCH  24  25
ENDBRANCH   1  24
TORSDOF 14
ENDMDL
MODEL 3
REMARK VINA RESULT:     -10.9      2.435      6.934
REMARK SMILES COCCN1C(=O)CC[C@@H](C(=O)NCCCNC(=O)c2ccc(-c3c4nc(c(-c5ccccc5)c5ccc([nH]5)c(-c5ccccc5)c5nc(c(-c6ccccc6)c6ccc3[nH]6)C=C5)C=C4)cc2)[C@H]1c1ccccc1C
REMARK SMILES IDX 14 1 13 2 11 3 12 4 10 6 5 7 6 8 68 9 7 10 8 11 9 12 4 13
REMARK SMILES IDX 3 14 2 15 1 16 69 17 70 18 74 19 71 20 73 21 75 22 72 23
REMARK SMILES IDX 15 24 16 25 17 26 18 27 19 29 20 30 21 31 67 32 22 33 66 34
REMARK SMILES IDX 23 35 24 36 25 37 60 38 26 39 65 40 59 41 61 42 27 43 64 44
REMARK SMILES IDX 58 45 57 46 28 48 50 49 35 50 49 51 36 52 39 53 48 54 62 55
REMARK SMILES IDX 37 56 38 57 47 59 63 60 40 61 29 62 30 63 34 64 31 65 33 66
REMARK SMILES IDX 32 67 51 68 52 69 56 70 53 71 55 72 54 73 41 74 42 75 46 76
REMARK SMILES IDX 43 77 45 78 44 79
REMARK H PARENT 13 5 17 28 61 47 39 58
REMARK Flexibility Score: inf
ROOT
ATOM      1  C   UNL A   1      31.682  29.193  25.553  1.00  0.00     0.117 C 
ENDROOT
BRANCH   1   2
ATOM      2  N   UNL A   1      32.918  28.950  24.832  1.00  0.00    -0.356 N 
ATOM      3  C   UNL A   1      33.291  28.160  23.802  1.00  0.00     0.225 C 
ATOM      4  O   UNL A   1      34.364  28.508  23.281  1.00  0.00    -0.275 OA
ATOM      5  H   UNL A   1      33.664  29.492  25.177  1.00  0.00     0.163 HD
BRANCH   3   6
ATOM      6  C   UNL A   1      32.571  26.936  23.213  1.00  0.00     0.106 C 
ATOM      7  N   UNL A   1      31.548  25.712  25.120  1.00  0.00    -0.333 N 
ATOM      8  C   UNL A   1      30.249  26.148  24.800  1.00  0.00     0.223 C 
ATOM      9  C   UNL A   1      32.493  25.596  23.989  1.00  0.00     0.128 C 
ATOM     10  O   UNL A   1      29.277  25.937  25.530  1.00  0.00    -0.275 OA
ATOM     11  C   UNL A   1      30.027  26.969  23.534  1.00  0.00     0.101 C 
ATOM     12  C   UNL A   1      31.205  27.259  22.622  1.00  0.00     0.026 C 
BRANCH   7  13
ATOM     13  C   UNL A   1      31.616  24.939  26.383  1.00  0.00     0.148 C 
BRANCH  13  14
ATOM     14  C   UNL A   1      31.341  23.432  26.485  1.00  0.00     0.181 C 
BRANCH  14  15
ATOM     15  O   UNL A   1      30.556  23.072  27.620  1.00  0.00    -0.383 OA
ATOM     16  C   UNL A   1      29.255  22.646  27.255  1.00  0.00     0.194 C 
ENDBRANCH  14  15
ENDBRANCH  13  14
ENDBRANCH   7  13
BRANCH   9  17
ATOM     17  C   UNL A   1      33.791  24.797  24.167  1.00  0.00    -0.022 A 
ATOM     18  C   UNL A   1      34.702  25.106  25.198  1.00  0.00     0.006 A 
ATOM     19  C   UNL A   1      34.160  23.746  23.284  1.00  0.00    -0.046 A 
ATOM     20  C   UNL A   1      35.873  24.372  25.412  1.00  0.00     0.000 A 
ATOM     21  C   UNL A   1      35.337  23.002  23.527  1.00  0.00     0.004 A 
ATOM     22  C   UNL A   1      33.389  23.354  22.049  1.00  0.00     0.045 C 
ATOM     23  C   UNL A   1      36.178  23.301  24.592  1.00  0.00     0.000 A 
ENDBRANCH   9  17
ENDBRANCH   3   6
ENDBRANCH   1   2
BRANCH   1  24
ATOM     24  C   UNL A   1      31.459  30.629  26.044  1.00  0.00     0.042 C 
BRANCH  24  25
ATOM     25  C   UNL A   1      32.512  31.170  27.014  1.00  0.00     0.118 C 
BRANCH  25  26
ATOM     26  N   UNL A   1      32.352  32.599  27.235  1.00  0.00    -0.352 N 
ATOM     27  C   UNL A   1      32.977  33.506  28.042  1.00  0.00     0.251 C 
ATOM     28  H   UNL A   1      31.639  32.998  26.686  1.00  0.00     0.163 HD
ATOM     29  O   UNL A   1      32.407  34.593  28.209  1.00  0.00    -0.269 OA
BRANCH  27  30
ATOM     30  C   UNL A   1      34.294  33.302  28.701  1.00  0.00     0.039 A 
ATOM     31  C   UNL A   1      35.440  33.559  27.931  1.00  0.00     0.014 A 
ATOM     32  C   UNL A   1      34.449  32.674  29.939  1.00  0.00     0.014 A 
ATOM     33  C   UNL A   1      36.710  33.167  28.369  1.00  0.00     0.010 A 
ATOM     34  C   UNL A   1      35.732  32.321  30.400  1.00  0.00     0.010 A 
ATOM     35  C   UNL A   1      36.873  32.528  29.606  1.00  0.00    -0.014 A 
BRANCH  35  36
ATOM     36  C   UNL A   1      38.213  32.008  30.016  1.00  0.00     0.031 A 
ATOM     37  C   UNL A   1      38.728  30.696  29.474  1.00  0.00     0.074 A 
ATOM     38  C   UNL A   1      38.994  32.712  30.860  1.00  0.00     0.049 A 
ATOM     39  N   UNL A   1      39.857  30.077  29.732  1.00  0.00    -0.248 NA
ATOM     40  C   UNL A   1      37.860  29.983  28.526  1.00  0.00     0.031 C 
ATOM     41  C   UNL A   1      38.647  33.998  31.463  1.00  0.00     0.029 A 
ATOM     42  N   UNL A   1      40.250  32.441  31.352  1.00  0.00    -0.354 N 
ATOM     43  C   UNL A   1      39.819  28.893  29.003  1.00  0.00     0.074 A 
ATOM     44  C   UNL A   1      38.548  28.869  28.311  1.00  0.00     0.031 C 
ATOM     45  C   UNL A   1      39.670  34.414  32.228  1.00  0.00     0.029 A 
ATOM     46  C   UNL A   1      40.733  33.411  32.198  1.00  0.00     0.049 A 
ATOM     47  H   UNL A   1      40.756  31.629  31.120  1.00  0.00     0.167 HD
ATOM     48  C   UNL A   1      40.755  27.917  28.906  1.00  0.00     0.031 A 
ATOM     49  C   UNL A   1      41.892  33.487  32.880  1.00  0.00     0.031 A 
ATOM     50  C   UNL A   1      42.038  27.936  29.558  1.00  0.00     0.049 A 
ATOM     51  C   UNL A   1      42.912  32.389  32.762  1.00  0.00     0.074 A 
ATOM     52  C   UNL A   1      43.062  27.005  29.473  1.00  0.00     0.029 A 
ATOM     53  N   UNL A   1      42.479  28.936  30.407  1.00  0.00    -0.354 N 
ATOM     54  N   UNL A   1      42.867  31.293  32.046  1.00  0.00    -0.248 NA
ATOM     55  C   UNL A   1      44.150  32.546  33.543  1.00  0.00     0.031 C 
ATOM     56  C   UNL A   1      44.109  27.425  30.301  1.00  0.00     0.029 A 
ATOM     57  C   UNL A   1      43.751  28.637  30.866  1.00  0.00     0.049 A 
ATOM     58  H   UNL A   1      41.964  29.739  30.650  1.00  0.00     0.167 HD
ATOM     59  C   UNL A   1      44.075  30.644  32.270  1.00  0.00     0.074 A 
ATOM     60  C   UNL A   1      44.839  31.472  33.178  1.00  0.00     0.031 C 
ATOM     61  C   UNL A   1      44.511  29.465  31.765  1.00  0.00     0.031 A 
BRANCH  48  62
ATOM     62  C   UNL A   1      40.420  26.718  28.061  1.00  0.00    -0.014 A 
ATOM     63  C   UNL A   1      40.900  26.595  26.749  1.00  0.00     0.009 A 
ATOM     64  C   UNL A   1      39.659  25.673  28.609  1.00  0.00     0.009 A 
ATOM     65  C   UNL A   1      40.595  25.462  25.990  1.00  0.00     0.001 A 
ATOM     66  C   UNL A   1      39.378  24.532  27.857  1.00  0.00     0.001 A 
ATOM     67  C   UNL A   1      39.839  24.431  26.544  1.00  0.00     0.000 A 
ENDBRANCH  48  62
BRANCH  49  68
ATOM     68  C   UNL A   1      42.162  34.660  33.752  1.00  0.00    -0.014 A 
ATOM     69  C   UNL A   1      41.816  34.633  35.110  1.00  0.00     0.009 A 
ATOM     70  C   UNL A   1      42.752  35.819  33.223  1.00  0.00     0.009 A 
ATOM     71  C   UNL A   1      42.033  35.751  35.918  1.00  0.00     0.001 A 
ATOM     72  C   UNL A   1      42.992  36.926  34.038  1.00  0.00     0.001 A 
ATOM     73  C   UNL A   1      42.625  36.895  35.383  1.00  0.00     0.000 A 
ENDBRANCH  49  68
BRANCH  61  74
ATOM     74  C   UNL A   1      45.889  29.012  32.153  1.00  0.00    -0.014 A 
ATOM     75  C   UNL A   1      46.097  28.192  33.272  1.00  0.00     0.009 A 
ATOM     76  C   UNL A   1      46.991  29.380  31.365  1.00  0.00     0.009 A 
ATOM     77  C   UNL A   1      47.385  27.770  33.610  1.00  0.00     0.001 A 
ATOM     78  C   UNL A   1      48.275  28.940  31.692  1.00  0.00     0.001 A 
ATOM     79  C   UNL A   1      48.471  28.142  32.818  1.00  0.00     0.000 A 
ENDBRANCH  61  74
ENDBRANCH  35  36
ENDBRANCH  27  30
ENDBRANCH  25  26
ENDBRANCH  24  25
ENDBRANCH   1  24
TORSDOF 14
ENDMDL
