MODEL 1
REMARK VINA RESULT:     -10.1      0.000      0.000
REMARK SMILES O=C(NCCCNC(=O)c1ccccc1NCCCO)c1ccc(-c2c3nc(c(-c4ccccc4)c4ccc([nH]4)c(-c4ccccc4)c4nc(c(-c5ccccc5)c5ccc2[nH]5)C=C4)C=C3)cc1
REMARK SMILES IDX 7 1 8 2 9 3 6 5 5 6 4 7 3 8 1 9 2 10 21 12 22 13 68 14 23 15
REMARK SMILES IDX 67 16 24 17 25 18 26 19 61 20 27 21 66 22 60 23 62 24 28 25
REMARK SMILES IDX 65 26 59 27 58 28 29 30 51 31 36 32 50 33 37 34 40 35 49 36
REMARK SMILES IDX 63 37 38 38 39 39 48 41 64 42 41 43 30 44 31 45 35 46 32 47
REMARK SMILES IDX 34 48 33 49 52 50 53 51 57 52 54 53 56 54 55 55 42 56 43 57
REMARK SMILES IDX 47 58 44 59 46 60 45 61 10 62 11 63 15 64 12 65 14 66 13 67
REMARK SMILES IDX 16 68 17 70 18 71 19 72 20 73
REMARK H PARENT 7 4 3 11 62 29 40 40 16 69 20 74
REMARK Flexibility Score: inf
ROOT
ATOM      1  N   UNL A   1      32.621  29.956  25.121  1.00  0.00    -0.352 N 
ATOM      2  C   UNL A   1      32.452  29.192  23.993  1.00  0.00     0.253 C 
ATOM      3  O   UNL A   1      33.346  29.142  23.153  1.00  0.00    -0.269 OA
ATOM      4  H   UNL A   1      33.458  30.472  25.167  1.00  0.00     0.163 HD
ENDROOT
BRANCH   1   5
ATOM      5  C   UNL A   1      31.729  30.101  26.258  1.00  0.00     0.118 C 
BRANCH   5   6
ATOM      6  C   UNL A   1      31.496  31.542  26.664  1.00  0.00     0.042 C 
BRANCH   6   7
ATOM      7  C   UNL A   1      32.772  32.305  26.978  1.00  0.00     0.118 C 
BRANCH   7   8
ATOM      8  N   UNL A   1      32.535  33.636  27.529  1.00  0.00    -0.352 N 
ATOM      9  O   UNL A   1      32.739  35.404  28.910  1.00  0.00    -0.269 OA
ATOM     10  C   UNL A   1      33.210  34.349  28.493  1.00  0.00     0.251 C 
ATOM     11  H   UNL A   1      31.759  34.104  27.145  1.00  0.00     0.163 HD
BRANCH  10  12
ATOM     12  C   UNL A   1      34.478  33.835  29.055  1.00  0.00     0.039 A 
ATOM     13  C   UNL A   1      35.699  34.166  28.474  1.00  0.00     0.014 A 
ATOM     14  C   UNL A   1      34.450  33.012  30.187  1.00  0.00     0.014 A 
ATOM     15  C   UNL A   1      36.852  33.503  28.867  1.00  0.00     0.010 A 
ATOM     16  C   UNL A   1      35.638  32.450  30.671  1.00  0.00     0.010 A 
ATOM     17  C   UNL A   1      36.844  32.653  29.984  1.00  0.00    -0.014 A 
BRANCH  17  18
ATOM     18  C   UNL A   1      38.128  32.045  30.422  1.00  0.00     0.031 A 
ATOM     19  C   UNL A   1      38.630  30.757  29.830  1.00  0.00     0.074 A 
ATOM     20  C   UNL A   1      38.886  32.721  31.309  1.00  0.00     0.049 A 
ATOM     21  N   UNL A   1      39.766  30.141  30.052  1.00  0.00    -0.248 NA
ATOM     22  C   UNL A   1      37.754  30.064  28.874  1.00  0.00     0.031 C 
ATOM     23  C   UNL A   1      38.504  33.981  31.957  1.00  0.00     0.029 A 
ATOM     24  N   UNL A   1      40.147  32.475  31.785  1.00  0.00    -0.354 N 
ATOM     25  C   UNL A   1      39.732  28.985  29.283  1.00  0.00     0.074 A 
ATOM     26  C   UNL A   1      38.454  28.970  28.605  1.00  0.00     0.031 C 
ATOM     27  C   UNL A   1      39.537  34.436  32.678  1.00  0.00     0.029 A 
ATOM     28  C   UNL A   1      40.623  33.466  32.609  1.00  0.00     0.049 A 
ATOM     29  H   UNL A   1      40.662  31.667  31.559  1.00  0.00     0.167 HD
ATOM     30  C   UNL A   1      40.681  28.028  29.148  1.00  0.00     0.031 A 
ATOM     31  C   UNL A   1      41.798  33.583  33.253  1.00  0.00     0.031 A 
ATOM     32  C   UNL A   1      41.954  28.045  29.821  1.00  0.00     0.049 A 
ATOM     33  C   UNL A   1      42.821  32.499  33.097  1.00  0.00     0.074 A 
ATOM     34  C   UNL A   1      42.980  27.117  29.750  1.00  0.00     0.029 A 
ATOM     35  N   UNL A   1      42.377  29.042  30.685  1.00  0.00    -0.354 N 
ATOM     36  N   UNL A   1      42.767  31.417  32.362  1.00  0.00    -0.248 NA
ATOM     37  C   UNL A   1      44.063  32.654  33.864  1.00  0.00     0.031 C 
ATOM     38  C   UNL A   1      44.010  27.536  30.601  1.00  0.00     0.029 A 
ATOM     39  C   UNL A   1      43.644  28.748  31.164  1.00  0.00     0.049 A 
ATOM     40  H   UNL A   1      41.855  29.842  30.924  1.00  0.00     0.167 HD
ATOM     41  C   UNL A   1      43.971  30.760  32.574  1.00  0.00     0.074 A 
ATOM     42  C   UNL A   1      44.746  31.584  33.480  1.00  0.00     0.031 C 
ATOM     43  C   UNL A   1      44.394  29.575  32.071  1.00  0.00     0.031 A 
BRANCH  30  44
ATOM     44  C   UNL A   1      40.371  26.862  28.249  1.00  0.00    -0.014 A 
ATOM     45  C   UNL A   1      39.544  25.813  28.679  1.00  0.00     0.009 A 
ATOM     46  C   UNL A   1      40.871  26.840  26.938  1.00  0.00     0.009 A 
ATOM     47  C   UNL A   1      39.245  24.752  27.820  1.00  0.00     0.001 A 
ATOM     48  C   UNL A   1      40.550  25.791  26.074  1.00  0.00     0.001 A 
ATOM     49  C   UNL A   1      39.743  24.745  26.518  1.00  0.00     0.000 A 
ENDBRANCH  30  44
BRANCH  31  50
ATOM     50  C   UNL A   1      42.050  34.760  34.122  1.00  0.00    -0.014 A 
ATOM     51  C   UNL A   1      41.742  34.724  35.490  1.00  0.00     0.009 A 
ATOM     52  C   UNL A   1      42.615  35.928  33.583  1.00  0.00     0.009 A 
ATOM     53  C   UNL A   1      41.973  35.842  36.295  1.00  0.00     0.001 A 
ATOM     54  C   UNL A   1      42.876  37.031  34.397  1.00  0.00     0.001 A 
ATOM     55  C   UNL A   1      42.546  36.991  35.750  1.00  0.00     0.000 A 
ENDBRANCH  31  50
BRANCH  43  56
ATOM     56  C   UNL A   1      45.763  29.120  32.483  1.00  0.00    -0.014 A 
ATOM     57  C   UNL A   1      46.900  29.483  31.743  1.00  0.00     0.009 A 
ATOM     58  C   UNL A   1      45.918  28.325  33.628  1.00  0.00     0.009 A 
ATOM     59  C   UNL A   1      48.162  29.025  32.121  1.00  0.00     0.001 A 
ATOM     60  C   UNL A   1      47.184  27.889  34.018  1.00  0.00     0.001 A 
ATOM     61  C   UNL A   1      48.304  28.230  33.259  1.00  0.00     0.000 A 
ENDBRANCH  43  56
ENDBRANCH  17  18
ENDBRANCH  10  12
ENDBRANCH   7   8
ENDBRANCH   6   7
ENDBRANCH   5   6
ENDBRANCH   1   5
BRANCH   2  62
ATOM     62  C   UNL A   1      31.221  28.391  23.821  1.00  0.00     0.062 A 
ATOM     63  C   UNL A   1      31.329  27.045  24.210  1.00  0.00     0.016 A 
ATOM     64  C   UNL A   1      30.015  28.935  23.314  1.00  0.00     0.047 A 
ATOM     65  C   UNL A   1      30.217  26.214  24.153  1.00  0.00     0.001 A 
ATOM     66  C   UNL A   1      28.909  28.074  23.304  1.00  0.00     0.026 A 
ATOM     67  C   UNL A   1      29.006  26.734  23.712  1.00  0.00     0.002 A 
BRANCH  64  68
ATOM     68  N   UNL A   1      29.937  30.260  22.905  1.00  0.00    -0.384 N 
ATOM     69  H   UNL A   1      30.794  30.722  22.756  1.00  0.00     0.160 HD
BRANCH  68  70
ATOM     70  C   UNL A   1      28.734  31.044  22.671  1.00  0.00     0.115 C 
BRANCH  70  71
ATOM     71  C   UNL A   1      28.326  31.000  21.195  1.00  0.00     0.049 C 
BRANCH  71  72
ATOM     72  C   UNL A   1      27.932  32.362  20.637  1.00  0.00     0.158 C 
BRANCH  72  73
ATOM     73  O   UNL A   1      27.867  33.317  21.687  1.00  0.00    -0.396 OA
ATOM     74  H   UNL A   1      27.131  33.097  22.279  1.00  0.00     0.210 HD
ENDBRANCH  72  73
ENDBRANCH  71  72
ENDBRANCH  70  71
ENDBRANCH  68  70
ENDBRANCH  64  68
ENDBRANCH   2  62
TORSDOF 15
ENDMDL
MODEL 2
REMARK VINA RESULT:     -10.1      0.855      6.258
REMARK SMILES O=C(NCCCNC(=O)c1ccccc1NCCCO)c1ccc(-c2c3nc(c(-c4ccccc4)c4ccc([nH]4)c(-c4ccccc4)c4nc(c(-c5ccccc5)c5ccc2[nH]5)C=C4)C=C3)cc1
REMARK SMILES IDX 7 1 8 2 9 3 6 5 5 6 4 7 3 8 1 9 2 10 21 12 22 13 68 14 23 15
REMARK SMILES IDX 67 16 24 17 25 18 26 19 61 20 27 21 66 22 60 23 62 24 28 25
REMARK SMILES IDX 65 26 59 27 58 28 29 30 51 31 36 32 50 33 37 34 40 35 49 36
REMARK SMILES IDX 63 37 38 38 39 39 48 41 64 42 41 43 30 44 31 45 35 46 32 47
REMARK SMILES IDX 34 48 33 49 52 50 53 51 57 52 54 53 56 54 55 55 42 56 43 57
REMARK SMILES IDX 47 58 44 59 46 60 45 61 10 62 11 63 15 64 12 65 14 66 13 67
REMARK SMILES IDX 16 68 17 70 18 71 19 72 20 73
REMARK H PARENT 7 4 3 11 62 29 40 40 16 69 20 74
REMARK Flexibility Score: inf
ROOT
ATOM      1  N   UNL A   1      32.576  30.057  25.224  1.00  0.00    -0.352 N 
ATOM      2  C   UNL A   1      32.550  29.096  24.245  1.00  0.00     0.253 C 
ATOM      3  O   UNL A   1      33.493  28.995  23.465  1.00  0.00    -0.269 OA
ATOM      4  H   UNL A   1      33.354  30.660  25.211  1.00  0.00     0.163 HD
ENDROOT
BRANCH   1   5
ATOM      5  C   UNL A   1      31.607  30.303  26.277  1.00  0.00     0.118 C 
BRANCH   5   6
ATOM      6  C   UNL A   1      31.415  31.772  26.592  1.00  0.00     0.042 C 
BRANCH   6   7
ATOM      7  C   UNL A   1      32.665  32.456  27.120  1.00  0.00     0.118 C 
BRANCH   7   8
ATOM      8  N   UNL A   1      32.421  33.800  27.637  1.00  0.00    -0.352 N 
ATOM      9  O   UNL A   1      32.618  35.603  28.971  1.00  0.00    -0.269 OA
ATOM     10  C   UNL A   1      33.094  34.540  28.581  1.00  0.00     0.251 C 
ATOM     11  H   UNL A   1      31.643  34.253  27.241  1.00  0.00     0.163 HD
BRANCH  10  12
ATOM     12  C   UNL A   1      34.365  34.047  29.155  1.00  0.00     0.039 A 
ATOM     13  C   UNL A   1      35.587  34.419  28.601  1.00  0.00     0.014 A 
ATOM     14  C   UNL A   1      34.340  33.203  30.271  1.00  0.00     0.014 A 
ATOM     15  C   UNL A   1      36.749  33.778  29.001  1.00  0.00     0.010 A 
ATOM     16  C   UNL A   1      35.534  32.662  30.764  1.00  0.00     0.010 A 
ATOM     17  C   UNL A   1      36.745  32.907  30.101  1.00  0.00    -0.014 A 
BRANCH  17  18
ATOM     18  C   UNL A   1      38.037  32.324  30.549  1.00  0.00     0.031 A 
ATOM     19  C   UNL A   1      38.766  32.859  31.750  1.00  0.00     0.074 A 
ATOM     20  C   UNL A   1      38.506  31.238  29.902  1.00  0.00     0.049 A 
ATOM     21  N   UNL A   1      39.863  32.409  32.310  1.00  0.00    -0.248 NA
ATOM     22  C   UNL A   1      38.207  34.049  32.407  1.00  0.00     0.031 C 
ATOM     23  C   UNL A   1      37.889  30.628  28.719  1.00  0.00     0.029 A 
ATOM     24  N   UNL A   1      39.579  30.428  30.167  1.00  0.00    -0.354 N 
ATOM     25  C   UNL A   1      40.134  33.268  33.367  1.00  0.00     0.074 A 
ATOM     26  C   UNL A   1      39.102  34.282  33.359  1.00  0.00     0.031 C 
ATOM     27  C   UNL A   1      38.542  29.499  28.414  1.00  0.00     0.029 A 
ATOM     28  C   UNL A   1      39.669  29.346  29.325  1.00  0.00     0.049 A 
ATOM     29  H   UNL A   1      40.223  30.603  30.892  1.00  0.00     0.167 HD
ATOM     30  C   UNL A   1      41.145  33.213  34.266  1.00  0.00     0.031 A 
ATOM     31  C   UNL A   1      40.565  28.344  29.276  1.00  0.00     0.031 A 
ATOM     32  C   UNL A   1      42.171  32.203  34.277  1.00  0.00     0.049 A 
ATOM     33  C   UNL A   1      41.681  28.320  30.275  1.00  0.00     0.074 A 
ATOM     34  C   UNL A   1      43.240  32.066  35.147  1.00  0.00     0.029 A 
ATOM     35  N   UNL A   1      42.253  31.153  33.376  1.00  0.00    -0.354 N 
ATOM     36  N   UNL A   1      41.915  29.142  31.267  1.00  0.00    -0.248 NA
ATOM     37  C   UNL A   1      42.659  27.233  30.141  1.00  0.00     0.031 C 
ATOM     38  C   UNL A   1      43.989  30.953  34.749  1.00  0.00     0.029 A 
ATOM     39  C   UNL A   1      43.361  30.370  33.660  1.00  0.00     0.049 A 
ATOM     40  H   UNL A   1      41.619  30.987  32.642  1.00  0.00     0.167 HD
ATOM     41  C   UNL A   1      43.066  28.670  31.881  1.00  0.00     0.074 A 
ATOM     42  C   UNL A   1      43.462  27.471  31.169  1.00  0.00     0.031 C 
ATOM     43  C   UNL A   1      43.742  29.188  32.935  1.00  0.00     0.031 A 
BRANCH  30  44
ATOM     44  C   UNL A   1      41.207  34.294  35.311  1.00  0.00    -0.014 A 
ATOM     45  C   UNL A   1      41.918  35.483  35.085  1.00  0.00     0.009 A 
ATOM     46  C   UNL A   1      40.502  34.143  36.515  1.00  0.00     0.009 A 
ATOM     47  C   UNL A   1      41.941  36.489  36.056  1.00  0.00     0.001 A 
ATOM     48  C   UNL A   1      40.507  35.158  37.473  1.00  0.00     0.001 A 
ATOM     49  C   UNL A   1      41.232  36.328  37.245  1.00  0.00     0.000 A 
ENDBRANCH  30  44
BRANCH  31  50
ATOM     50  C   UNL A   1      40.449  27.300  28.226  1.00  0.00    -0.014 A 
ATOM     51  C   UNL A   1      41.053  27.471  26.972  1.00  0.00     0.009 A 
ATOM     52  C   UNL A   1      39.738  26.116  28.482  1.00  0.00     0.009 A 
ATOM     53  C   UNL A   1      40.928  26.488  25.989  1.00  0.00     0.001 A 
ATOM     54  C   UNL A   1      39.642  25.121  27.509  1.00  0.00     0.001 A 
ATOM     55  C   UNL A   1      40.229  25.312  26.260  1.00  0.00     0.000 A 
ENDBRANCH  31  50
BRANCH  43  56
ATOM     56  C   UNL A   1      44.965  28.442  33.382  1.00  0.00    -0.014 A 
ATOM     57  C   UNL A   1      46.238  28.782  32.896  1.00  0.00     0.009 A 
ATOM     58  C   UNL A   1      44.843  27.393  34.306  1.00  0.00     0.009 A 
ATOM     59  C   UNL A   1      47.361  28.057  33.297  1.00  0.00     0.001 A 
ATOM     60  C   UNL A   1      45.971  26.688  34.724  1.00  0.00     0.001 A 
ATOM     61  C   UNL A   1      47.227  27.013  34.212  1.00  0.00     0.000 A 
ENDBRANCH  43  56
ENDBRANCH  17  18
ENDBRANCH  10  12
ENDBRANCH   7   8
ENDBRANCH   6   7
ENDBRANCH   5   6
ENDBRANCH   1   5
BRANCH   2  62
ATOM     62  C   UNL A   1      31.415  28.151  24.168  1.00  0.00     0.062 A 
ATOM     63  C   UNL A   1      31.515  27.031  25.011  1.00  0.00     0.016 A 
ATOM     64  C   UNL A   1      30.299  28.357  23.318  1.00  0.00     0.047 A 
ATOM     65  C   UNL A   1      30.477  26.111  25.070  1.00  0.00     0.001 A 
ATOM     66  C   UNL A   1      29.260  27.424  23.432  1.00  0.00     0.026 A 
ATOM     67  C   UNL A   1      29.345  26.316  24.289  1.00  0.00     0.002 A 
BRANCH  64  68
ATOM     68  N   UNL A   1      30.233  29.453  22.467  1.00  0.00    -0.384 N 
ATOM     69  H   UNL A   1      31.085  29.906  22.273  1.00  0.00     0.160 HD
BRANCH  68  70
ATOM     70  C   UNL A   1      29.049  30.009  21.831  1.00  0.00     0.115 C 
BRANCH  70  71
ATOM     71  C   UNL A   1      28.647  31.337  22.480  1.00  0.00     0.049 C 
BRANCH  71  72
ATOM     72  C   UNL A   1      28.389  32.448  21.470  1.00  0.00     0.158 C 
BRANCH  72  73
ATOM     73  O   UNL A   1      28.087  33.660  22.147  1.00  0.00    -0.396 OA
ATOM     74  H   UNL A   1      27.232  33.576  22.597  1.00  0.00     0.210 HD
ENDBRANCH  72  73
ENDBRANCH  71  72
ENDBRANCH  70  71
ENDBRANCH  68  70
ENDBRANCH  64  68
ENDBRANCH   2  62
TORSDOF 15
ENDMDL
MODEL 3
REMARK VINA RESULT:      -9.9      1.340      6.379
REMARK SMILES O=C(NCCCNC(=O)c1ccccc1NCCCO)c1ccc(-c2c3nc(c(-c4ccccc4)c4ccc([nH]4)c(-c4ccccc4)c4nc(c(-c5ccccc5)c5ccc2[nH]5)C=C4)C=C3)cc1
REMARK SMILES IDX 7 1 8 2 9 3 6 5 5 6 4 7 3 8 1 9 2 10 21 12 22 13 68 14 23 15
REMARK SMILES IDX 67 16 24 17 25 18 26 19 61 20 27 21 66 22 60 23 62 24 28 25
REMARK SMILES IDX 65 26 59 27 58 28 29 30 51 31 36 32 50 33 37 34 40 35 49 36
REMARK SMILES IDX 63 37 38 38 39 39 48 41 64 42 41 43 30 44 31 45 35 46 32 47
REMARK SMILES IDX 34 48 33 49 52 50 53 51 57 52 54 53 56 54 55 55 42 56 43 57
REMARK SMILES IDX 47 58 44 59 46 60 45 61 10 62 11 63 15 64 12 65 14 66 13 67
REMARK SMILES IDX 16 68 17 70 18 71 19 72 20 73
REMARK H PARENT 7 4 3 11 62 29 40 40 16 69 20 74
REMARK Flexibility Score: inf
ROOT
ATOM      1  N   UNL A   1      31.399  27.730  27.368  1.00  0.00    -0.352 N 
ATOM      2  C   UNL A   1      31.152  26.804  26.385  1.00  0.00     0.253 C 
ATOM      3  O   UNL A   1      30.234  26.001  26.522  1.00  0.00    -0.269 OA
ATOM      4  H   UNL A   1      30.836  27.661  28.173  1.00  0.00     0.163 HD
ENDROOT
BRANCH   1   5
ATOM      5  C   UNL A   1      32.382  28.800  27.378  1.00  0.00     0.118 C 
BRANCH   5   6
ATOM      6  C   UNL A   1      31.777  30.178  27.204  1.00  0.00     0.042 C 
BRANCH   6   7
ATOM      7  C   UNL A   1      32.759  31.222  26.702  1.00  0.00     0.118 C 
BRANCH   7   8
ATOM      8  N   UNL A   1      32.433  32.581  27.123  1.00  0.00    -0.352 N 
ATOM      9  O   UNL A   1      32.539  34.494  28.307  1.00  0.00    -0.269 OA
ATOM     10  C   UNL A   1      33.081  33.441  27.981  1.00  0.00     0.251 C 
ATOM     11  H   UNL A   1      31.610  32.945  26.725  1.00  0.00     0.163 HD
BRANCH  10  12
ATOM     12  C   UNL A   1      34.403  33.088  28.540  1.00  0.00     0.039 A 
ATOM     13  C   UNL A   1      35.574  33.472  27.892  1.00  0.00     0.014 A 
ATOM     14  C   UNL A   1      34.480  32.366  29.736  1.00  0.00     0.014 A 
ATOM     15  C   UNL A   1      36.791  32.947  28.299  1.00  0.00     0.010 A 
ATOM     16  C   UNL A   1      35.725  31.952  30.224  1.00  0.00     0.010 A 
ATOM     17  C   UNL A   1      36.889  32.198  29.481  1.00  0.00    -0.014 A 
BRANCH  17  18
ATOM     18  C   UNL A   1      38.234  31.743  29.923  1.00  0.00     0.031 A 
ATOM     19  C   UNL A   1      38.992  32.465  31.002  1.00  0.00     0.074 A 
ATOM     20  C   UNL A   1      38.731  30.607  29.393  1.00  0.00     0.049 A 
ATOM     21  N   UNL A   1      40.140  32.147  31.549  1.00  0.00    -0.248 NA
ATOM     22  C   UNL A   1      38.401  33.702  31.535  1.00  0.00     0.031 C 
ATOM     23  C   UNL A   1      38.089  29.819  28.335  1.00  0.00     0.029 A 
ATOM     24  N   UNL A   1      39.861  29.893  29.696  1.00  0.00    -0.354 N 
ATOM     25  C   UNL A   1      40.416  33.149  32.472  1.00  0.00     0.074 A 
ATOM     26  C   UNL A   1      39.328  34.100  32.395  1.00  0.00     0.031 C 
ATOM     27  C   UNL A   1      38.789  28.694  28.138  1.00  0.00     0.029 A 
ATOM     28  C   UNL A   1      39.969  28.717  28.994  1.00  0.00     0.049 A 
ATOM     29  H   UNL A   1      40.529  30.192  30.354  1.00  0.00     0.167 HD
ATOM     30  C   UNL A   1      41.473  33.262  33.310  1.00  0.00     0.031 A 
ATOM     31  C   UNL A   1      40.916  27.763  29.020  1.00  0.00     0.031 A 
ATOM     32  C   UNL A   1      42.555  32.314  33.388  1.00  0.00     0.049 A 
ATOM     33  C   UNL A   1      42.082  27.925  29.947  1.00  0.00     0.074 A 
ATOM     34  C   UNL A   1      43.673  32.345  34.205  1.00  0.00     0.029 A 
ATOM     35  N   UNL A   1      42.650  31.162  32.625  1.00  0.00    -0.354 N 
ATOM     36  N   UNL A   1      42.320  28.880  30.812  1.00  0.00    -0.248 NA
ATOM     37  C   UNL A   1      43.112  26.880  29.895  1.00  0.00     0.031 C 
ATOM     38  C   UNL A   1      44.463  31.229  33.909  1.00  0.00     0.029 A 
ATOM     39  C   UNL A   1      43.814  30.479  32.941  1.00  0.00     0.049 A 
ATOM     40  H   UNL A   1      41.990  30.871  31.956  1.00  0.00     0.167 HD
ATOM     41  C   UNL A   1      43.526  28.549  31.412  1.00  0.00     0.074 A 
ATOM     42  C   UNL A   1      43.952  27.290  30.836  1.00  0.00     0.031 C 
ATOM     43  C   UNL A   1      44.224  29.233  32.351  1.00  0.00     0.031 A 
BRANCH  30  44
ATOM     44  C   UNL A   1      41.527  34.471  34.204  1.00  0.00    -0.014 A 
ATOM     45  C   UNL A   1      40.965  34.450  35.489  1.00  0.00     0.009 A 
ATOM     46  C   UNL A   1      42.194  35.629  33.773  1.00  0.00     0.009 A 
ATOM     47  C   UNL A   1      41.049  35.574  36.316  1.00  0.00     0.001 A 
ATOM     48  C   UNL A   1      42.297  36.741  34.610  1.00  0.00     0.001 A 
ATOM     49  C   UNL A   1      41.719  36.715  35.879  1.00  0.00     0.000 A 
ENDBRANCH  30  44
BRANCH  31  50
ATOM     50  C   UNL A   1      40.807  26.588  28.120  1.00  0.00    -0.014 A 
ATOM     51  C   UNL A   1      40.067  25.458  28.499  1.00  0.00     0.009 A 
ATOM     52  C   UNL A   1      41.438  26.597  26.865  1.00  0.00     0.009 A 
ATOM     53  C   UNL A   1      39.980  24.354  27.648  1.00  0.00     0.001 A 
ATOM     54  C   UNL A   1      41.322  25.506  26.004  1.00  0.00     0.001 A 
ATOM     55  C   UNL A   1      40.601  24.381  26.400  1.00  0.00     0.000 A 
ENDBRANCH  31  50
BRANCH  43  56
ATOM     56  C   UNL A   1      45.509  28.614  32.817  1.00  0.00    -0.014 A 
ATOM     57  C   UNL A   1      46.727  28.913  32.186  1.00  0.00     0.009 A 
ATOM     58  C   UNL A   1      45.502  27.728  33.904  1.00  0.00     0.009 A 
ATOM     59  C   UNL A   1      47.908  28.303  32.610  1.00  0.00     0.001 A 
ATOM     60  C   UNL A   1      46.689  27.140  34.343  1.00  0.00     0.001 A 
ATOM     61  C   UNL A   1      47.889  27.420  33.690  1.00  0.00     0.000 A 
ENDBRANCH  43  56
ENDBRANCH  17  18
ENDBRANCH  10  12
ENDBRANCH   7   8
ENDBRANCH   6   7
ENDBRANCH   5   6
ENDBRANCH   1   5
BRANCH   2  62
ATOM     62  C   UNL A   1      31.956  26.814  25.144  1.00  0.00     0.062 A 
ATOM     63  C   UNL A   1      33.155  26.084  25.207  1.00  0.00     0.016 A 
ATOM     64  C   UNL A   1      31.548  27.495  23.970  1.00  0.00     0.047 A 
ATOM     65  C   UNL A   1      33.958  25.970  24.079  1.00  0.00     0.001 A 
ATOM     66  C   UNL A   1      32.369  27.328  22.846  1.00  0.00     0.026 A 
ATOM     67  C   UNL A   1      33.557  26.581  22.897  1.00  0.00     0.002 A 
BRANCH  64  68
ATOM     68  N   UNL A   1      30.376  28.239  23.938  1.00  0.00    -0.384 N 
ATOM     69  H   UNL A   1      29.535  27.727  23.945  1.00  0.00     0.160 HD
BRANCH  68  70
ATOM     70  C   UNL A   1      30.248  29.688  23.893  1.00  0.00     0.115 C 
BRANCH  70  71
ATOM     71  C   UNL A   1      28.971  30.105  23.156  1.00  0.00     0.049 C 
BRANCH  71  72
ATOM     72  C   UNL A   1      29.212  30.476  21.697  1.00  0.00     0.158 C 
BRANCH  72  73
ATOM     73  O   UNL A   1      30.523  30.093  21.309  1.00  0.00    -0.396 OA
ATOM     74  H   UNL A   1      30.576  29.127  21.255  1.00  0.00     0.210 HD
ENDBRANCH  72  73
ENDBRANCH  71  72
ENDBRANCH  70  71
ENDBRANCH  68  70
ENDBRANCH  64  68
ENDBRANCH   2  62
TORSDOF 15
ENDMDL
