MODEL 1
REMARK VINA RESULT:     -11.4      0.000      0.000
REMARK SMILES CC(C)Cc1cc2c(cc1Cl)C=C(C(=O)NCCCNC(=O)c1ccc(-c3c4nc(c(-c5ccccc5)c5ccc([nH]5)c(-c5ccccc5)c5nc(c(-c6ccccc6)c6ccc3[nH]6)C=C5)C=C4)cc1)[C@H](C(F)(F)F)O2
REMARK SMILES IDX 18 1 17 2 16 3 14 4 15 5 13 7 5 8 6 9 10 10 7 11 9 12 11 13
REMARK SMILES IDX 8 14 76 15 12 16 71 17 4 18 2 19 1 20 3 21 72 22 73 23 74 24
REMARK SMILES IDX 75 25 19 26 20 27 21 28 22 30 23 31 24 32 70 33 25 34 69 35
REMARK SMILES IDX 26 36 27 37 28 38 63 39 29 40 68 41 62 42 64 43 30 44 67 45
REMARK SMILES IDX 61 46 60 47 31 49 53 50 38 51 52 52 39 53 42 54 51 55 65 56
REMARK SMILES IDX 40 57 41 58 50 60 66 61 43 62 32 63 33 64 37 65 34 66 36 67
REMARK SMILES IDX 35 68 54 69 55 70 59 71 56 72 58 73 57 74 44 75 45 76 49 77
REMARK SMILES IDX 46 78 48 79 47 80
REMARK H PARENT 16 6 20 29 64 48 42 59
REMARK Flexibility Score: inf
ROOT
ATOM      1  C   UNL A   1      33.949  28.734  25.831  1.00  0.00     0.042 C 
ENDROOT
BRANCH   1   2
ATOM      2  C   UNL A   1      33.034  29.502  24.885  1.00  0.00     0.118 C 
BRANCH   2   3
ATOM      3  N   UNL A   1      31.776  28.802  24.695  1.00  0.00    -0.352 N 
ATOM      4  C   UNL A   1      31.382  27.538  24.426  1.00  0.00     0.251 C 
ATOM      5  O   UNL A   1      30.160  27.372  24.358  1.00  0.00    -0.270 OA
ATOM      6  H   UNL A   1      31.006  29.409  24.787  1.00  0.00     0.163 HD
BRANCH   4   7
ATOM      7  C   UNL A   1      32.296  26.379  24.231  1.00  0.00     0.067 C 
ATOM      8  C   UNL A   1      34.923  22.118  25.066  1.00  0.00    -0.025 A 
ATOM      9  C   UNL A   1      34.824  23.047  24.005  1.00  0.00     0.052 A 
ATOM     10  C   UNL A   1      34.199  22.402  26.236  1.00  0.00     0.045 A 
ATOM     11  C   UNL A   1      34.004  24.171  24.086  1.00  0.00     0.128 A 
ATOM     12  C   UNL A   1      33.350  23.518  26.300  1.00  0.00     0.032 A 
ATOM     13  Cl  UNL A   1      34.319  21.489  27.694  1.00  0.00    -0.084 Cl
ATOM     14  C   UNL A   1      33.252  24.404  25.227  1.00  0.00     0.019 A 
ATOM     15  O   UNL A   1      34.035  25.028  23.026  1.00  0.00    -0.475 OA
ATOM     16  C   UNL A   1      32.422  25.592  25.314  1.00  0.00     0.025 C 
ATOM     17  C   UNL A   1      32.975  26.022  22.935  1.00  0.00     0.314 C 
BRANCH   8  18
ATOM     18  C   UNL A   1      35.890  20.968  24.839  1.00  0.00     0.040 C 
BRANCH  18  19
ATOM     19  C   UNL A   1      37.407  21.206  24.708  1.00  0.00    -0.013 C 
ATOM     20  C   UNL A   1      37.938  22.238  25.704  1.00  0.00     0.008 C 
ATOM     21  C   UNL A   1      38.154  19.880  24.901  1.00  0.00     0.008 C 
ENDBRANCH  18  19
ENDBRANCH   8  18
BRANCH  17  22
ATOM     22  C   UNL A   1      32.007  25.616  21.812  1.00  0.00     0.429 C 
ATOM     23  F   UNL A   1      31.398  26.677  21.234  1.00  0.00    -0.167 F 
ATOM     24  F   UNL A   1      32.609  24.919  20.822  1.00  0.00    -0.167 F 
ATOM     25  F   UNL A   1      31.029  24.816  22.310  1.00  0.00    -0.167 F 
ENDBRANCH  17  22
ENDBRANCH   4   7
ENDBRANCH   2   3
ENDBRANCH   1   2
BRANCH   1  26
ATOM     26  C   UNL A   1      33.543  28.890  27.292  1.00  0.00     0.118 C 
BRANCH  26  27
ATOM     27  N   UNL A   1      33.636  30.275  27.740  1.00  0.00    -0.352 N 
ATOM     28  C   UNL A   1      34.645  30.917  28.418  1.00  0.00     0.251 C 
ATOM     29  H   UNL A   1      32.857  30.837  27.523  1.00  0.00     0.163 HD
ATOM     30  O   UNL A   1      34.437  32.018  28.922  1.00  0.00    -0.269 OA
BRANCH  28  31
ATOM     31  C   UNL A   1      35.969  30.276  28.561  1.00  0.00     0.039 A 
ATOM     32  C   UNL A   1      36.326  29.649  29.755  1.00  0.00     0.014 A 
ATOM     33  C   UNL A   1      36.867  30.297  27.490  1.00  0.00     0.014 A 
ATOM     34  C   UNL A   1      37.636  29.233  29.949  1.00  0.00     0.010 A 
ATOM     35  C   UNL A   1      38.152  29.769  27.649  1.00  0.00     0.010 A 
ATOM     36  C   UNL A   1      38.565  29.279  28.898  1.00  0.00    -0.014 A 
BRANCH  36  37
ATOM     37  C   UNL A   1      39.952  28.800  29.137  1.00  0.00     0.031 A 
ATOM     38  C   UNL A   1      40.386  27.428  28.696  1.00  0.00     0.074 A 
ATOM     39  C   UNL A   1      40.845  29.640  29.698  1.00  0.00     0.049 A 
ATOM     40  N   UNL A   1      41.568  26.872  28.790  1.00  0.00    -0.248 NA
ATOM     41  C   UNL A   1      39.369  26.565  28.072  1.00  0.00     0.031 C 
ATOM     42  C   UNL A   1      40.549  31.002  30.150  1.00  0.00     0.029 A 
ATOM     43  N   UNL A   1      42.188  29.494  29.947  1.00  0.00    -0.354 N 
ATOM     44  C   UNL A   1      41.432  25.595  28.260  1.00  0.00     0.074 A 
ATOM     45  C   UNL A   1      40.047  25.442  27.874  1.00  0.00     0.031 C 
ATOM     46  C   UNL A   1      41.686  31.591  30.547  1.00  0.00     0.029 A 
ATOM     47  C   UNL A   1      42.776  30.625  30.461  1.00  0.00     0.049 A 
ATOM     48  H   UNL A   1      42.680  28.659  29.775  1.00  0.00     0.167 HD
ATOM     49  C   UNL A   1      42.380  24.641  28.096  1.00  0.00     0.031 A 
ATOM     50  C   UNL A   1      44.046  30.865  30.835  1.00  0.00     0.031 A 
ATOM     51  C   UNL A   1      43.763  24.805  28.467  1.00  0.00     0.049 A 
ATOM     52  C   UNL A   1      45.068  29.775  30.686  1.00  0.00     0.074 A 
ATOM     53  C   UNL A   1      44.799  23.899  28.323  1.00  0.00     0.029 A 
ATOM     54  N   UNL A   1      44.300  25.942  29.047  1.00  0.00    -0.354 N 
ATOM     55  N   UNL A   1      44.921  28.576  30.177  1.00  0.00    -0.248 NA
ATOM     56  C   UNL A   1      46.427  30.067  31.162  1.00  0.00     0.031 C 
ATOM     57  C   UNL A   1      45.950  24.463  28.878  1.00  0.00     0.029 A 
ATOM     58  C   UNL A   1      45.650  25.750  29.294  1.00  0.00     0.049 A 
ATOM     59  H   UNL A   1      43.799  26.765  29.253  1.00  0.00     0.167 HD
ATOM     60  C   UNL A   1      46.171  27.975  30.255  1.00  0.00     0.074 A 
ATOM     61  C   UNL A   1      47.068  28.950  30.839  1.00  0.00     0.031 C 
ATOM     62  C   UNL A   1      46.535  26.726  29.878  1.00  0.00     0.031 A 
BRANCH  49  63
ATOM     63  C   UNL A   1      41.970  23.321  27.499  1.00  0.00    -0.014 A 
ATOM     64  C   UNL A   1      41.442  22.317  28.328  1.00  0.00     0.009 A 
ATOM     65  C   UNL A   1      42.200  23.029  26.146  1.00  0.00     0.009 A 
ATOM     66  C   UNL A   1      41.172  21.045  27.820  1.00  0.00     0.001 A 
ATOM     67  C   UNL A   1      41.899  21.765  25.633  1.00  0.00     0.001 A 
ATOM     68  C   UNL A   1      41.397  20.771  26.472  1.00  0.00     0.000 A 
ENDBRANCH  49  63
BRANCH  50  69
ATOM     69  C   UNL A   1      44.405  32.202  31.378  1.00  0.00    -0.014 A 
ATOM     70  C   UNL A   1      44.268  32.477  32.749  1.00  0.00     0.009 A 
ATOM     71  C   UNL A   1      44.822  33.234  30.523  1.00  0.00     0.009 A 
ATOM     72  C   UNL A   1      44.501  33.760  33.247  1.00  0.00     0.001 A 
ATOM     73  C   UNL A   1      45.091  34.508  31.030  1.00  0.00     0.001 A 
ATOM     74  C   UNL A   1      44.916  34.774  32.387  1.00  0.00     0.000 A 
ENDBRANCH  50  69
BRANCH  62  75
ATOM     75  C   UNL A   1      47.973  26.326  30.066  1.00  0.00    -0.014 A 
ATOM     76  C   UNL A   1      48.865  26.414  28.985  1.00  0.00     0.009 A 
ATOM     77  C   UNL A   1      48.419  25.763  31.271  1.00  0.00     0.009 A 
ATOM     78  C   UNL A   1      50.168  25.928  29.099  1.00  0.00     0.001 A 
ATOM     79  C   UNL A   1      49.734  25.309  31.394  1.00  0.00     0.001 A 
ATOM     80  C   UNL A   1      50.603  25.381  30.305  1.00  0.00     0.000 A 
ENDBRANCH  62  75
ENDBRANCH  36  37
ENDBRANCH  28  31
ENDBRANCH  26  27
ENDBRANCH   1  26
TORSDOF 13
ENDMDL
MODEL 2
REMARK VINA RESULT:     -11.3      1.361      1.816
REMARK SMILES CC(C)Cc1cc2c(cc1Cl)C=C(C(=O)NCCCNC(=O)c1ccc(-c3c4nc(c(-c5ccccc5)c5ccc([nH]5)c(-c5ccccc5)c5nc(c(-c6ccccc6)c6ccc3[nH]6)C=C5)C=C4)cc1)[C@H](C(F)(F)F)O2
REMARK SMILES IDX 18 1 17 2 16 3 14 4 15 5 13 7 5 8 6 9 10 10 7 11 9 12 11 13
REMARK SMILES IDX 8 14 76 15 12 16 71 17 4 18 2 19 1 20 3 21 72 22 73 23 74 24
REMARK SMILES IDX 75 25 19 26 20 27 21 28 22 30 23 31 24 32 70 33 25 34 69 35
REMARK SMILES IDX 26 36 27 37 28 38 63 39 29 40 68 41 62 42 64 43 30 44 67 45
REMARK SMILES IDX 61 46 60 47 31 49 53 50 38 51 52 52 39 53 42 54 51 55 65 56
REMARK SMILES IDX 40 57 41 58 50 60 66 61 43 62 32 63 33 64 37 65 34 66 36 67
REMARK SMILES IDX 35 68 54 69 55 70 59 71 56 72 58 73 57 74 44 75 45 76 49 77
REMARK SMILES IDX 46 78 48 79 47 80
REMARK H PARENT 16 6 20 29 64 48 42 59
REMARK Flexibility Score: inf
ROOT
ATOM      1  C   UNL A   1      33.980  28.539  25.991  1.00  0.00     0.042 C 
ENDROOT
BRANCH   1   2
ATOM      2  C   UNL A   1      33.132  29.255  24.946  1.00  0.00     0.118 C 
BRANCH   2   3
ATOM      3  N   UNL A   1      33.640  29.010  23.608  1.00  0.00    -0.352 N 
ATOM      4  C   UNL A   1      33.687  27.970  22.746  1.00  0.00     0.251 C 
ATOM      5  O   UNL A   1      34.223  28.211  21.661  1.00  0.00    -0.270 OA
ATOM      6  H   UNL A   1      34.059  29.815  23.226  1.00  0.00     0.163 HD
BRANCH   4   7
ATOM      7  C   UNL A   1      33.140  26.610  23.013  1.00  0.00     0.067 C 
ATOM      8  C   UNL A   1      32.719  21.813  24.614  1.00  0.00    -0.025 A 
ATOM      9  C   UNL A   1      31.905  22.703  23.876  1.00  0.00     0.052 A 
ATOM     10  C   UNL A   1      33.997  22.267  24.977  1.00  0.00     0.045 A 
ATOM     11  C   UNL A   1      32.323  23.996  23.564  1.00  0.00     0.128 A 
ATOM     12  C   UNL A   1      34.400  23.580  24.689  1.00  0.00     0.032 A 
ATOM     13  Cl  UNL A   1      35.198  21.282  25.727  1.00  0.00    -0.084 Cl
ATOM     14  C   UNL A   1      33.565  24.445  23.982  1.00  0.00     0.019 A 
ATOM     15  O   UNL A   1      31.478  24.742  22.797  1.00  0.00    -0.475 OA
ATOM     16  C   UNL A   1      34.004  25.783  23.629  1.00  0.00     0.025 C 
ATOM     17  C   UNL A   1      31.729  26.174  22.722  1.00  0.00     0.314 C 
BRANCH   8  18
ATOM     18  C   UNL A   1      32.137  20.428  24.837  1.00  0.00     0.040 C 
BRANCH  18  19
ATOM     19  C   UNL A   1      32.906  19.157  24.425  1.00  0.00    -0.013 C 
ATOM     20  C   UNL A   1      32.833  18.048  25.475  1.00  0.00     0.008 C 
ATOM     21  C   UNL A   1      32.358  18.633  23.092  1.00  0.00     0.008 C 
ENDBRANCH  18  19
ENDBRANCH   8  18
BRANCH  17  22
ATOM     22  C   UNL A   1      30.662  26.909  23.551  1.00  0.00     0.429 C 
ATOM     23  F   UNL A   1      30.962  26.956  24.869  1.00  0.00    -0.167 F 
ATOM     24  F   UNL A   1      30.463  28.184  23.145  1.00  0.00    -0.167 F 
ATOM     25  F   UNL A   1      29.467  26.273  23.435  1.00  0.00    -0.167 F 
ENDBRANCH  17  22
ENDBRANCH   4   7
ENDBRANCH   2   3
ENDBRANCH   1   2
BRANCH   1  26
ATOM     26  C   UNL A   1      33.499  28.804  27.413  1.00  0.00     0.118 C 
BRANCH  26  27
ATOM     27  N   UNL A   1      33.598  30.215  27.769  1.00  0.00    -0.352 N 
ATOM     28  C   UNL A   1      34.617  30.900  28.387  1.00  0.00     0.251 C 
ATOM     29  H   UNL A   1      32.815  30.762  27.529  1.00  0.00     0.163 HD
ATOM     30  O   UNL A   1      34.416  32.031  28.823  1.00  0.00    -0.269 OA
BRANCH  28  31
ATOM     31  C   UNL A   1      35.944  30.270  28.550  1.00  0.00     0.039 A 
ATOM     32  C   UNL A   1      36.294  29.660  29.755  1.00  0.00     0.014 A 
ATOM     33  C   UNL A   1      36.852  30.285  27.488  1.00  0.00     0.014 A 
ATOM     34  C   UNL A   1      37.605  29.256  29.966  1.00  0.00     0.010 A 
ATOM     35  C   UNL A   1      38.139  29.768  27.665  1.00  0.00     0.010 A 
ATOM     36  C   UNL A   1      38.544  29.296  28.922  1.00  0.00    -0.014 A 
BRANCH  36  37
ATOM     37  C   UNL A   1      39.932  28.829  29.180  1.00  0.00     0.031 A 
ATOM     38  C   UNL A   1      40.388  27.466  28.734  1.00  0.00     0.074 A 
ATOM     39  C   UNL A   1      40.807  29.674  29.763  1.00  0.00     0.049 A 
ATOM     40  N   UNL A   1      41.574  26.921  28.843  1.00  0.00    -0.248 NA
ATOM     41  C   UNL A   1      39.391  26.598  28.086  1.00  0.00     0.031 C 
ATOM     42  C   UNL A   1      40.489  31.028  30.222  1.00  0.00     0.029 A 
ATOM     43  N   UNL A   1      42.146  29.540  30.033  1.00  0.00    -0.354 N 
ATOM     44  C   UNL A   1      41.461  25.648  28.299  1.00  0.00     0.074 A 
ATOM     45  C   UNL A   1      40.084  25.484  27.889  1.00  0.00     0.031 C 
ATOM     46  C   UNL A   1      41.613  31.626  30.643  1.00  0.00     0.029 A 
ATOM     47  C   UNL A   1      42.714  30.672  30.566  1.00  0.00     0.049 A 
ATOM     48  H   UNL A   1      42.651  28.712  29.861  1.00  0.00     0.167 HD
ATOM     49  C   UNL A   1      42.422  24.706  28.142  1.00  0.00     0.031 A 
ATOM     50  C   UNL A   1      43.975  30.922  30.963  1.00  0.00     0.031 A 
ATOM     51  C   UNL A   1      43.796  24.881  28.537  1.00  0.00     0.049 A 
ATOM     52  C   UNL A   1      45.011  29.844  30.822  1.00  0.00     0.074 A 
ATOM     53  C   UNL A   1      44.845  23.988  28.402  1.00  0.00     0.029 A 
ATOM     54  N   UNL A   1      44.311  26.019  29.137  1.00  0.00    -0.354 N 
ATOM     55  N   UNL A   1      44.885  28.649  30.299  1.00  0.00    -0.248 NA
ATOM     56  C   UNL A   1      46.359  30.147  31.322  1.00  0.00     0.031 C 
ATOM     57  C   UNL A   1      45.979  24.559  28.981  1.00  0.00     0.029 A 
ATOM     58  C   UNL A   1      45.659  25.839  29.404  1.00  0.00     0.049 A 
ATOM     59  H   UNL A   1      43.798  26.834  29.341  1.00  0.00     0.167 HD
ATOM     60  C   UNL A   1      46.140  28.061  30.393  1.00  0.00     0.074 A 
ATOM     61  C   UNL A   1      47.017  29.040  31.000  1.00  0.00     0.031 C 
ATOM     62  C   UNL A   1      46.524  26.819  30.011  1.00  0.00     0.031 A 
BRANCH  49  63
ATOM     63  C   UNL A   1      42.035  23.387  27.527  1.00  0.00    -0.014 A 
ATOM     64  C   UNL A   1      41.485  22.378  28.335  1.00  0.00     0.009 A 
ATOM     65  C   UNL A   1      42.309  23.102  26.181  1.00  0.00     0.009 A 
ATOM     66  C   UNL A   1      41.236  21.107  27.814  1.00  0.00     0.001 A 
ATOM     67  C   UNL A   1      42.030  21.839  25.653  1.00  0.00     0.001 A 
ATOM     68  C   UNL A   1      41.505  20.839  26.472  1.00  0.00     0.000 A 
ENDBRANCH  49  63
BRANCH  50  69
ATOM     69  C   UNL A   1      44.311  32.259  31.524  1.00  0.00    -0.014 A 
ATOM     70  C   UNL A   1      44.162  32.515  32.897  1.00  0.00     0.009 A 
ATOM     71  C   UNL A   1      44.717  33.306  30.683  1.00  0.00     0.009 A 
ATOM     72  C   UNL A   1      44.373  33.796  33.411  1.00  0.00     0.001 A 
ATOM     73  C   UNL A   1      44.964  34.578  31.207  1.00  0.00     0.001 A 
ATOM     74  C   UNL A   1      44.777  34.826  32.566  1.00  0.00     0.000 A 
ENDBRANCH  50  69
BRANCH  62  75
ATOM     75  C   UNL A   1      47.963  26.433  30.218  1.00  0.00    -0.014 A 
ATOM     76  C   UNL A   1      48.894  26.640  29.187  1.00  0.00     0.009 A 
ATOM     77  C   UNL A   1      48.376  25.768  31.383  1.00  0.00     0.009 A 
ATOM     78  C   UNL A   1      50.203  26.173  29.309  1.00  0.00     0.001 A 
ATOM     79  C   UNL A   1      49.696  25.332  31.516  1.00  0.00     0.001 A 
ATOM     80  C   UNL A   1      50.604  25.524  30.474  1.00  0.00     0.000 A 
ENDBRANCH  62  75
ENDBRANCH  36  37
ENDBRANCH  28  31
ENDBRANCH  26  27
ENDBRANCH   1  26
TORSDOF 13
ENDMDL
MODEL 3
REMARK VINA RESULT:     -11.2      3.564      7.509
REMARK SMILES CC(C)Cc1cc2c(cc1Cl)C=C(C(=O)NCCCNC(=O)c1ccc(-c3c4nc(c(-c5ccccc5)c5ccc([nH]5)c(-c5ccccc5)c5nc(c(-c6ccccc6)c6ccc3[nH]6)C=C5)C=C4)cc1)[C@H](C(F)(F)F)O2
REMARK SMILES IDX 18 1 17 2 16 3 14 4 15 5 13 7 5 8 6 9 10 10 7 11 9 12 11 13
REMARK SMILES IDX 8 14 76 15 12 16 71 17 4 18 2 19 1 20 3 21 72 22 73 23 74 24
REMARK SMILES IDX 75 25 19 26 20 27 21 28 22 30 23 31 24 32 70 33 25 34 69 35
REMARK SMILES IDX 26 36 27 37 28 38 63 39 29 40 68 41 62 42 64 43 30 44 67 45
REMARK SMILES IDX 61 46 60 47 31 49 53 50 38 51 52 52 39 53 42 54 51 55 65 56
REMARK SMILES IDX 40 57 41 58 50 60 66 61 43 62 32 63 33 64 37 65 34 66 36 67
REMARK SMILES IDX 35 68 54 69 55 70 59 71 56 72 58 73 57 74 44 75 45 76 49 77
REMARK SMILES IDX 46 78 48 79 47 80
REMARK H PARENT 16 6 20 29 64 48 42 59
REMARK Flexibility Score: inf
ROOT
ATOM      1  C   UNL A   1      31.483  32.163  26.640  1.00  0.00     0.042 C 
ENDROOT
BRANCH   1   2
ATOM      2  C   UNL A   1      31.711  30.700  26.278  1.00  0.00     0.118 C 
BRANCH   2   3
ATOM      3  N   UNL A   1      31.123  30.385  24.989  1.00  0.00    -0.352 N 
ATOM      4  C   UNL A   1      31.041  29.307  24.180  1.00  0.00     0.251 C 
ATOM      5  O   UNL A   1      30.409  29.481  23.133  1.00  0.00    -0.270 OA
ATOM      6  H   UNL A   1      30.661  31.164  24.601  1.00  0.00     0.163 HD
BRANCH   4   7
ATOM      7  C   UNL A   1      31.631  27.970  24.471  1.00  0.00     0.067 C 
ATOM      8  C   UNL A   1      32.152  23.164  26.016  1.00  0.00    -0.025 A 
ATOM      9  C   UNL A   1      33.008  24.138  25.453  1.00  0.00     0.052 A 
ATOM     10  C   UNL A   1      30.837  23.561  26.310  1.00  0.00     0.045 A 
ATOM     11  C   UNL A   1      32.560  25.423  25.148  1.00  0.00     0.128 A 
ATOM     12  C   UNL A   1      30.383  24.845  25.972  1.00  0.00     0.032 A 
ATOM     13  Cl  UNL A   1      29.694  22.579  27.149  1.00  0.00    -0.084 Cl
ATOM     14  C   UNL A   1      31.243  25.778  25.392  1.00  0.00     0.019 A 
ATOM     15  O   UNL A   1      33.491  26.295  24.665  1.00  0.00    -0.475 OA
ATOM     16  C   UNL A   1      30.793  27.126  25.098  1.00  0.00     0.025 C 
ATOM     17  C   UNL A   1      33.004  27.520  24.047  1.00  0.00     0.314 C 
BRANCH   8  18
ATOM     18  C   UNL A   1      32.800  21.827  26.327  1.00  0.00     0.040 C 
BRANCH  18  19
ATOM     19  C   UNL A   1      33.094  20.798  25.218  1.00  0.00    -0.013 C 
ATOM     20  C   UNL A   1      32.298  21.054  23.938  1.00  0.00     0.008 C 
ATOM     21  C   UNL A   1      34.594  20.804  24.895  1.00  0.00     0.008 C 
ENDBRANCH  18  19
ENDBRANCH   8  18
BRANCH  17  22
ATOM     22  C   UNL A   1      33.186  27.414  22.524  1.00  0.00     0.429 C 
ATOM     23  F   UNL A   1      33.586  28.577  21.961  1.00  0.00    -0.167 F 
ATOM     24  F   UNL A   1      34.086  26.472  22.163  1.00  0.00    -0.167 F 
ATOM     25  F   UNL A   1      32.009  27.071  21.939  1.00  0.00    -0.167 F 
ENDBRANCH  17  22
ENDBRANCH   4   7
ENDBRANCH   2   3
ENDBRANCH   1   2
BRANCH   1  26
ATOM     26  C   UNL A   1      32.705  32.800  27.292  1.00  0.00     0.118 C 
BRANCH  26  27
ATOM     27  N   UNL A   1      32.464  34.189  27.663  1.00  0.00    -0.352 N 
ATOM     28  C   UNL A   1      33.040  34.950  28.653  1.00  0.00     0.251 C 
ATOM     29  H   UNL A   1      31.786  34.654  27.121  1.00  0.00     0.163 HD
ATOM     30  O   UNL A   1      32.532  36.023  28.971  1.00  0.00    -0.269 OA
BRANCH  28  31
ATOM     31  C   UNL A   1      34.250  34.470  29.351  1.00  0.00     0.039 A 
ATOM     32  C   UNL A   1      35.516  34.695  28.810  1.00  0.00     0.014 A 
ATOM     33  C   UNL A   1      34.123  33.787  30.564  1.00  0.00     0.014 A 
ATOM     34  C   UNL A   1      36.623  34.067  29.363  1.00  0.00     0.010 A 
ATOM     35  C   UNL A   1      35.257  33.255  31.185  1.00  0.00     0.010 A 
ATOM     36  C   UNL A   1      36.512  33.345  30.562  1.00  0.00    -0.014 A 
BRANCH  36  37
ATOM     37  C   UNL A   1      37.726  32.709  31.138  1.00  0.00     0.031 A 
ATOM     38  C   UNL A   1      38.294  33.169  32.454  1.00  0.00     0.074 A 
ATOM     39  C   UNL A   1      38.279  31.659  30.497  1.00  0.00     0.049 A 
ATOM     40  N   UNL A   1      39.320  32.695  33.115  1.00  0.00    -0.248 NA
ATOM     41  C   UNL A   1      37.633  34.307  33.115  1.00  0.00     0.031 C 
ATOM     42  C   UNL A   1      37.807  31.108  29.224  1.00  0.00     0.029 A 
ATOM     43  N   UNL A   1      39.328  30.843  30.841  1.00  0.00    -0.354 N 
ATOM     44  C   UNL A   1      39.439  33.485  34.252  1.00  0.00     0.074 A 
ATOM     45  C   UNL A   1      38.404  34.491  34.179  1.00  0.00     0.031 C 
ATOM     46  C   UNL A   1      38.510  30.004  28.935  1.00  0.00     0.029 A 
ATOM     47  C   UNL A   1      39.537  29.816  29.953  1.00  0.00     0.049 A 
ATOM     48  H   UNL A   1      39.877  30.981  31.647  1.00  0.00     0.167 HD
ATOM     49  C   UNL A   1      40.324  33.372  35.272  1.00  0.00     0.031 A 
ATOM     50  C   UNL A   1      40.458  28.834  29.943  1.00  0.00     0.031 A 
ATOM     51  C   UNL A   1      41.343  32.357  35.348  1.00  0.00     0.049 A 
ATOM     52  C   UNL A   1      41.457  28.759  31.061  1.00  0.00     0.074 A 
ATOM     53  C   UNL A   1      42.275  32.154  36.351  1.00  0.00     0.029 A 
ATOM     54  N   UNL A   1      41.563  31.379  34.391  1.00  0.00    -0.354 N 
ATOM     55  N   UNL A   1      41.549  29.512  32.130  1.00  0.00    -0.248 NA
ATOM     56  C   UNL A   1      42.476  27.705  30.974  1.00  0.00     0.031 C 
ATOM     57  C   UNL A   1      43.101  31.096  35.971  1.00  0.00     0.029 A 
ATOM     58  C   UNL A   1      42.635  30.586  34.769  1.00  0.00     0.049 A 
ATOM     59  H   UNL A   1      41.037  31.263  33.568  1.00  0.00     0.167 HD
ATOM     60  C   UNL A   1      42.625  29.013  32.853  1.00  0.00     0.074 A 
ATOM     61  C   UNL A   1      43.138  27.880  32.111  1.00  0.00     0.031 C 
ATOM     62  C   UNL A   1      43.140  29.461  34.023  1.00  0.00     0.031 A 
BRANCH  49  63
ATOM     63  C   UNL A   1      40.250  34.372  36.395  1.00  0.00    -0.014 A 
ATOM     64  C   UNL A   1      39.413  34.122  37.495  1.00  0.00     0.009 A 
ATOM     65  C   UNL A   1      40.920  35.603  36.320  1.00  0.00     0.009 A 
ATOM     66  C   UNL A   1      39.233  35.089  38.486  1.00  0.00     0.001 A 
ATOM     67  C   UNL A   1      40.763  36.557  37.329  1.00  0.00     0.001 A 
ATOM     68  C   UNL A   1      39.911  36.304  38.404  1.00  0.00     0.000 A 
ENDBRANCH  49  63
BRANCH  50  69
ATOM     69  C   UNL A   1      40.457  27.846  28.830  1.00  0.00    -0.014 A 
ATOM     70  C   UNL A   1      41.149  28.114  27.637  1.00  0.00     0.009 A 
ATOM     71  C   UNL A   1      39.711  26.662  28.924  1.00  0.00     0.009 A 
ATOM     72  C   UNL A   1      41.064  27.241  26.551  1.00  0.00     0.001 A 
ATOM     73  C   UNL A   1      39.658  25.772  27.849  1.00  0.00     0.001 A 
ATOM     74  C   UNL A   1      40.321  26.068  26.659  1.00  0.00     0.000 A 
ENDBRANCH  50  69
BRANCH  62  75
ATOM     75  C   UNL A   1      44.316  28.723  34.602  1.00  0.00    -0.014 A 
ATOM     76  C   UNL A   1      44.101  27.682  35.520  1.00  0.00     0.009 A 
ATOM     77  C   UNL A   1      45.632  29.126  34.327  1.00  0.00     0.009 A 
ATOM     78  C   UNL A   1      45.177  27.072  36.165  1.00  0.00     0.001 A 
ATOM     79  C   UNL A   1      46.709  28.490  34.950  1.00  0.00     0.001 A 
ATOM     80  C   UNL A   1      46.480  27.472  35.876  1.00  0.00     0.000 A 
ENDBRANCH  62  75
ENDBRANCH  36  37
ENDBRANCH  28  31
ENDBRANCH  26  27
ENDBRANCH   1  26
TORSDOF 13
ENDMDL
