MODEL 1
REMARK VINA RESULT:     -11.9      0.000      0.000
REMARK SMILES CCc1c(Cl)ccc2c1C=C(C(=O)NCCCNC(=O)c1ccc(-c3c4nc(c(-c5ccccc5)c5ccc([nH]5)c(-c5ccccc5)c5nc(c(-c6ccccc6)c6ccc3[nH]6)C=C5)C=C4)cc1)[C@@H](C(F)(F)F)O2
REMARK SMILES IDX 16 1 15 2 14 3 12 4 13 5 11 7 3 8 4 9 9 10 5 11 6 12 8 13
REMARK SMILES IDX 10 14 7 15 74 16 69 17 2 18 1 19 70 20 71 21 72 22 73 23
REMARK SMILES IDX 17 24 18 25 19 26 20 28 21 29 22 30 68 31 23 32 67 33 24 34
REMARK SMILES IDX 25 35 26 36 61 37 27 38 66 39 60 40 62 41 28 42 65 43 59 44
REMARK SMILES IDX 58 45 29 47 51 48 36 49 50 50 37 51 40 52 49 53 63 54 38 55
REMARK SMILES IDX 39 56 48 58 64 59 41 60 30 61 31 62 35 63 32 64 34 65 33 66
REMARK SMILES IDX 52 67 53 68 57 69 54 70 56 71 55 72 42 73 43 74 47 75 44 76
REMARK SMILES IDX 46 77 45 78
REMARK H PARENT 14 6 18 27 62 46 40 57
REMARK Flexibility Score: inf
ROOT
ATOM      1  C   UNL A   1      37.911  19.937  24.972  1.00  0.00     0.042 C 
ENDROOT
BRANCH   1   2
ATOM      2  C   UNL A   1      37.080  21.154  24.597  1.00  0.00     0.118 C 
BRANCH   2   3
ATOM      3  N   UNL A   1      36.174  21.527  25.672  1.00  0.00    -0.352 N 
ATOM      4  C   UNL A   1      35.216  22.453  25.892  1.00  0.00     0.251 C 
ATOM      5  O   UNL A   1      34.742  22.447  27.033  1.00  0.00    -0.270 OA
ATOM      6  H   UNL A   1      36.294  20.944  26.457  1.00  0.00     0.163 HD
BRANCH   4   7
ATOM      7  C   UNL A   1      34.700  23.420  24.881  1.00  0.00     0.067 C 
ATOM      8  C   UNL A   1      33.338  26.928  24.883  1.00  0.00    -0.019 A 
ATOM      9  C   UNL A   1      32.836  27.798  23.869  1.00  0.00     0.045 A 
ATOM     10  C   UNL A   1      33.893  25.692  24.456  1.00  0.00     0.022 A 
ATOM     11  Cl  UNL A   1      32.107  29.333  24.238  1.00  0.00    -0.084 Cl
ATOM     12  C   UNL A   1      32.886  27.473  22.510  1.00  0.00     0.024 A 
ATOM     13  C   UNL A   1      33.901  25.382  23.076  1.00  0.00     0.128 A 
ATOM     14  C   UNL A   1      34.500  24.677  25.322  1.00  0.00     0.026 C 
ATOM     15  C   UNL A   1      33.423  26.264  22.114  1.00  0.00     0.048 A 
ATOM     16  O   UNL A   1      34.402  24.210  22.570  1.00  0.00    -0.475 OA
ATOM     17  C   UNL A   1      34.378  23.072  23.465  1.00  0.00     0.314 C 
BRANCH   8  18
ATOM     18  C   UNL A   1      33.162  27.419  26.318  1.00  0.00     0.034 C 
ATOM     19  C   UNL A   1      34.031  28.481  26.971  1.00  0.00     0.009 C 
ENDBRANCH   8  18
BRANCH  17  20
ATOM     20  C   UNL A   1      33.057  22.296  23.308  1.00  0.00     0.429 C 
ATOM     21  F   UNL A   1      32.669  22.286  22.009  1.00  0.00    -0.167 F 
ATOM     22  F   UNL A   1      33.173  20.998  23.681  1.00  0.00    -0.167 F 
ATOM     23  F   UNL A   1      32.046  22.823  24.032  1.00  0.00    -0.167 F 
ENDBRANCH  17  20
ENDBRANCH   4   7
ENDBRANCH   2   3
ENDBRANCH   1   2
BRANCH   1  24
ATOM     24  C   UNL A   1      39.044  20.286  25.929  1.00  0.00     0.118 C 
BRANCH  24  25
ATOM     25  N   UNL A   1      40.079  19.254  25.954  1.00  0.00    -0.352 N 
ATOM     26  C   UNL A   1      41.444  19.367  26.070  1.00  0.00     0.251 C 
ATOM     27  H   UNL A   1      39.745  18.331  25.876  1.00  0.00     0.163 HD
ATOM     28  O   UNL A   1      42.164  18.404  25.824  1.00  0.00    -0.269 OA
BRANCH  26  29
ATOM     29  C   UNL A   1      42.042  20.655  26.470  1.00  0.00     0.039 A 
ATOM     30  C   UNL A   1      42.225  20.949  27.821  1.00  0.00     0.014 A 
ATOM     31  C   UNL A   1      42.418  21.580  25.493  1.00  0.00     0.014 A 
ATOM     32  C   UNL A   1      42.579  22.236  28.199  1.00  0.00     0.010 A 
ATOM     33  C   UNL A   1      42.890  22.839  25.877  1.00  0.00     0.010 A 
ATOM     34  C   UNL A   1      42.922  23.196  27.234  1.00  0.00    -0.014 A 
BRANCH  34  35
ATOM     35  C   UNL A   1      43.313  24.557  27.683  1.00  0.00     0.031 A 
ATOM     36  C   UNL A   1      44.752  24.999  27.638  1.00  0.00     0.074 A 
ATOM     37  C   UNL A   1      42.349  25.424  28.051  1.00  0.00     0.049 A 
ATOM     38  N   UNL A   1      45.260  26.164  27.953  1.00  0.00    -0.248 NA
ATOM     39  C   UNL A   1      45.750  24.016  27.183  1.00  0.00     0.031 C 
ATOM     40  C   UNL A   1      40.917  25.118  28.100  1.00  0.00     0.029 A 
ATOM     41  N   UNL A   1      42.415  26.747  28.408  1.00  0.00    -0.354 N 
ATOM     42  C   UNL A   1      46.632  26.045  27.763  1.00  0.00     0.074 A 
ATOM     43  C   UNL A   1      46.884  24.691  27.324  1.00  0.00     0.031 C 
ATOM     44  C   UNL A   1      40.235  26.239  28.374  1.00  0.00     0.029 A 
ATOM     45  C   UNL A   1      41.183  27.322  28.612  1.00  0.00     0.049 A 
ATOM     46  H   UNL A   1      43.263  27.237  28.506  1.00  0.00     0.167 HD
ATOM     47  C   UNL A   1      47.590  26.985  27.934  1.00  0.00     0.031 A 
ATOM     48  C   UNL A   1      40.848  28.578  28.962  1.00  0.00     0.031 A 
ATOM     49  C   UNL A   1      47.330  28.340  28.345  1.00  0.00     0.049 A 
ATOM     50  C   UNL A   1      41.938  29.581  29.197  1.00  0.00     0.074 A 
ATOM     51  C   UNL A   1      48.237  29.368  28.525  1.00  0.00     0.029 A 
ATOM     52  N   UNL A   1      46.076  28.854  28.630  1.00  0.00    -0.354 N 
ATOM     53  N   UNL A   1      43.229  29.447  29.022  1.00  0.00    -0.248 NA
ATOM     54  C   UNL A   1      41.528  30.903  29.688  1.00  0.00     0.031 C 
ATOM     55  C   UNL A   1      47.540  30.490  28.977  1.00  0.00     0.029 A 
ATOM     56  C   UNL A   1      46.190  30.180  29.013  1.00  0.00     0.049 A 
ATOM     57  H   UNL A   1      45.230  28.353  28.569  1.00  0.00     0.167 HD
ATOM     58  C   UNL A   1      43.787  30.670  29.370  1.00  0.00     0.074 A 
ATOM     59  C   UNL A   1      42.691  31.539  29.745  1.00  0.00     0.031 C 
ATOM     60  C   UNL A   1      45.091  31.033  29.381  1.00  0.00     0.031 A 
BRANCH  47  61
ATOM     61  C   UNL A   1      49.024  26.598  27.696  1.00  0.00    -0.014 A 
ATOM     62  C   UNL A   1      49.543  26.637  26.391  1.00  0.00     0.009 A 
ATOM     63  C   UNL A   1      49.821  26.081  28.728  1.00  0.00     0.009 A 
ATOM     64  C   UNL A   1      50.822  26.148  26.120  1.00  0.00     0.001 A 
ATOM     65  C   UNL A   1      51.110  25.616  28.458  1.00  0.00     0.001 A 
ATOM     66  C   UNL A   1      51.605  25.640  27.153  1.00  0.00     0.000 A 
ENDBRANCH  47  61
BRANCH  48  67
ATOM     67  C   UNL A   1      39.414  28.941  29.111  1.00  0.00    -0.014 A 
ATOM     68  C   UNL A   1      38.751  28.758  30.336  1.00  0.00     0.009 A 
ATOM     69  C   UNL A   1      38.686  29.432  28.016  1.00  0.00     0.009 A 
ATOM     70  C   UNL A   1      37.385  29.027  30.454  1.00  0.00     0.001 A 
ATOM     71  C   UNL A   1      37.328  29.732  28.146  1.00  0.00     0.001 A 
ATOM     72  C   UNL A   1      36.676  29.519  29.360  1.00  0.00     0.000 A 
ENDBRANCH  48  67
BRANCH  60  73
ATOM     73  C   UNL A   1      45.422  32.438  29.798  1.00  0.00    -0.014 A 
ATOM     74  C   UNL A   1      45.632  32.728  31.156  1.00  0.00     0.009 A 
ATOM     75  C   UNL A   1      45.418  33.487  28.868  1.00  0.00     0.009 A 
ATOM     76  C   UNL A   1      45.815  34.045  31.576  1.00  0.00     0.001 A 
ATOM     77  C   UNL A   1      45.630  34.801  29.288  1.00  0.00     0.001 A 
ATOM     78  C   UNL A   1      45.818  35.080  30.642  1.00  0.00     0.000 A 
ENDBRANCH  60  73
ENDBRANCH  34  35
ENDBRANCH  26  29
ENDBRANCH  24  25
ENDBRANCH   1  24
TORSDOF 12
ENDMDL
MODEL 2
REMARK VINA RESULT:     -11.8      0.966      6.001
REMARK SMILES CCc1c(Cl)ccc2c1C=C(C(=O)NCCCNC(=O)c1ccc(-c3c4nc(c(-c5ccccc5)c5ccc([nH]5)c(-c5ccccc5)c5nc(c(-c6ccccc6)c6ccc3[nH]6)C=C5)C=C4)cc1)[C@@H](C(F)(F)F)O2
REMARK SMILES IDX 16 1 15 2 14 3 12 4 13 5 11 7 3 8 4 9 9 10 5 11 6 12 8 13
REMARK SMILES IDX 10 14 7 15 74 16 69 17 2 18 1 19 70 20 71 21 72 22 73 23
REMARK SMILES IDX 17 24 18 25 19 26 20 28 21 29 22 30 68 31 23 32 67 33 24 34
REMARK SMILES IDX 25 35 26 36 61 37 27 38 66 39 60 40 62 41 28 42 65 43 59 44
REMARK SMILES IDX 58 45 29 47 51 48 36 49 50 50 37 51 40 52 49 53 63 54 38 55
REMARK SMILES IDX 39 56 48 58 64 59 41 60 30 61 31 62 35 63 32 64 34 65 33 66
REMARK SMILES IDX 52 67 53 68 57 69 54 70 56 71 55 72 42 73 43 74 47 75 44 76
REMARK SMILES IDX 46 77 45 78
REMARK H PARENT 14 6 18 27 62 46 40 57
REMARK Flexibility Score: inf
ROOT
ATOM      1  C   UNL A   1      37.808  19.971  24.984  1.00  0.00     0.042 C 
ENDROOT
BRANCH   1   2
ATOM      2  C   UNL A   1      36.900  21.119  24.568  1.00  0.00     0.118 C 
BRANCH   2   3
ATOM      3  N   UNL A   1      36.075  21.568  25.679  1.00  0.00    -0.352 N 
ATOM      4  C   UNL A   1      35.154  22.528  25.912  1.00  0.00     0.251 C 
ATOM      5  O   UNL A   1      34.756  22.591  27.080  1.00  0.00    -0.270 OA
ATOM      6  H   UNL A   1      36.233  21.023  26.484  1.00  0.00     0.163 HD
BRANCH   4   7
ATOM      7  C   UNL A   1      34.595  23.456  24.888  1.00  0.00     0.067 C 
ATOM      8  C   UNL A   1      32.982  26.856  24.852  1.00  0.00    -0.019 A 
ATOM      9  C   UNL A   1      32.443  27.688  23.826  1.00  0.00     0.045 A 
ATOM     10  C   UNL A   1      33.635  25.664  24.440  1.00  0.00     0.022 A 
ATOM     11  Cl  UNL A   1      31.596  29.166  24.175  1.00  0.00    -0.084 Cl
ATOM     12  C   UNL A   1      32.551  27.369  22.469  1.00  0.00     0.024 A 
ATOM     13  C   UNL A   1      33.701  25.356  23.061  1.00  0.00     0.128 A 
ATOM     14  C   UNL A   1      34.293  24.694  25.322  1.00  0.00     0.026 C 
ATOM     15  C   UNL A   1      33.184  26.202  22.087  1.00  0.00     0.048 A 
ATOM     16  O   UNL A   1      34.297  24.225  22.569  1.00  0.00    -0.475 OA
ATOM     17  C   UNL A   1      34.334  23.086  23.465  1.00  0.00     0.314 C 
BRANCH   8  18
ATOM     18  C   UNL A   1      32.736  27.332  26.282  1.00  0.00     0.034 C 
ATOM     19  C   UNL A   1      33.636  28.303  27.028  1.00  0.00     0.009 C 
ENDBRANCH   8  18
BRANCH  17  20
ATOM     20  C   UNL A   1      33.077  22.217  23.276  1.00  0.00     0.429 C 
ATOM     21  F   UNL A   1      33.325  20.941  23.664  1.00  0.00    -0.167 F 
ATOM     22  F   UNL A   1      32.033  22.647  24.025  1.00  0.00    -0.167 F 
ATOM     23  F   UNL A   1      32.651  22.178  21.995  1.00  0.00    -0.167 F 
ENDBRANCH  17  20
ENDBRANCH   4   7
ENDBRANCH   2   3
ENDBRANCH   1   2
BRANCH   1  24
ATOM     24  C   UNL A   1      38.984  20.444  25.829  1.00  0.00     0.118 C 
BRANCH  24  25
ATOM     25  N   UNL A   1      40.051  19.447  25.892  1.00  0.00    -0.352 N 
ATOM     26  C   UNL A   1      41.401  19.603  26.093  1.00  0.00     0.251 C 
ATOM     27  H   UNL A   1      39.755  18.516  25.771  1.00  0.00     0.163 HD
ATOM     28  O   UNL A   1      42.168  18.671  25.868  1.00  0.00    -0.269 OA
BRANCH  26  29
ATOM     29  C   UNL A   1      41.929  20.898  26.561  1.00  0.00     0.039 A 
ATOM     30  C   UNL A   1      41.986  21.176  27.927  1.00  0.00     0.014 A 
ATOM     31  C   UNL A   1      42.364  21.848  25.633  1.00  0.00     0.014 A 
ATOM     32  C   UNL A   1      42.272  22.465  28.352  1.00  0.00     0.010 A 
ATOM     33  C   UNL A   1      42.767  23.112  26.074  1.00  0.00     0.010 A 
ATOM     34  C   UNL A   1      42.672  23.448  27.433  1.00  0.00    -0.014 A 
BRANCH  34  35
ATOM     35  C   UNL A   1      42.988  24.811  27.932  1.00  0.00     0.031 A 
ATOM     36  C   UNL A   1      41.891  25.809  28.195  1.00  0.00     0.074 A 
ATOM     37  C   UNL A   1      44.267  25.116  28.228  1.00  0.00     0.049 A 
ATOM     38  N   UNL A   1      41.988  27.026  28.669  1.00  0.00    -0.248 NA
ATOM     39  C   UNL A   1      40.510  25.396  27.891  1.00  0.00     0.031 C 
ATOM     40  C   UNL A   1      45.410  24.217  28.048  1.00  0.00     0.029 A 
ATOM     41  N   UNL A   1      44.819  26.242  28.786  1.00  0.00    -0.354 N 
ATOM     42  C   UNL A   1      40.694  27.530  28.693  1.00  0.00     0.074 A 
ATOM     43  C   UNL A   1      39.827  26.499  28.169  1.00  0.00     0.031 C 
ATOM     44  C   UNL A   1      46.506  24.787  28.568  1.00  0.00     0.029 A 
ATOM     45  C   UNL A   1      46.166  26.126  29.035  1.00  0.00     0.049 A 
ATOM     46  H   UNL A   1      44.300  27.053  28.990  1.00  0.00     0.167 HD
ATOM     47  C   UNL A   1      40.269  28.741  29.121  1.00  0.00     0.031 A 
ATOM     48  C   UNL A   1      47.039  27.001  29.569  1.00  0.00     0.031 A 
ATOM     49  C   UNL A   1      41.133  29.754  29.669  1.00  0.00     0.049 A 
ATOM     50  C   UNL A   1      46.545  28.355  29.983  1.00  0.00     0.074 A 
ATOM     51  C   UNL A   1      40.789  31.005  30.147  1.00  0.00     0.029 A 
ATOM     52  N   UNL A   1      42.505  29.629  29.817  1.00  0.00    -0.354 N 
ATOM     53  N   UNL A   1      45.320  28.817  29.988  1.00  0.00    -0.248 NA
ATOM     54  C   UNL A   1      47.555  29.314  30.453  1.00  0.00     0.031 C 
ATOM     55  C   UNL A   1      41.960  31.662  30.530  1.00  0.00     0.029 A 
ATOM     56  C   UNL A   1      43.026  30.794  30.354  1.00  0.00     0.049 A 
ATOM     57  H   UNL A   1      43.032  28.832  29.577  1.00  0.00     0.167 HD
ATOM     58  C   UNL A   1      45.407  30.116  30.472  1.00  0.00     0.074 A 
ATOM     59  C   UNL A   1      46.802  30.360  30.770  1.00  0.00     0.031 C 
ATOM     60  C   UNL A   1      44.416  31.022  30.647  1.00  0.00     0.031 A 
BRANCH  47  61
ATOM     61  C   UNL A   1      38.805  29.068  29.010  1.00  0.00    -0.014 A 
ATOM     62  C   UNL A   1      38.313  29.644  27.827  1.00  0.00     0.009 A 
ATOM     63  C   UNL A   1      37.941  28.925  30.106  1.00  0.00     0.009 A 
ATOM     64  C   UNL A   1      36.992  30.089  27.749  1.00  0.00     0.001 A 
ATOM     65  C   UNL A   1      36.613  29.348  30.017  1.00  0.00     0.001 A 
ATOM     66  C   UNL A   1      36.143  29.939  28.843  1.00  0.00     0.000 A 
ENDBRANCH  47  61
BRANCH  48  67
ATOM     67  C   UNL A   1      48.464  26.611  29.733  1.00  0.00    -0.014 A 
ATOM     68  C   UNL A   1      49.400  26.869  28.719  1.00  0.00     0.009 A 
ATOM     69  C   UNL A   1      48.888  25.937  30.889  1.00  0.00     0.009 A 
ATOM     70  C   UNL A   1      50.722  26.433  28.842  1.00  0.00     0.001 A 
ATOM     71  C   UNL A   1      50.218  25.532  31.024  1.00  0.00     0.001 A 
ATOM     72  C   UNL A   1      51.131  25.769  29.996  1.00  0.00     0.000 A 
ENDBRANCH  48  67
BRANCH  60  73
ATOM     73  C   UNL A   1      44.790  32.367  31.201  1.00  0.00    -0.014 A 
ATOM     74  C   UNL A   1      44.740  32.586  32.587  1.00  0.00     0.009 A 
ATOM     75  C   UNL A   1      45.084  33.443  30.350  1.00  0.00     0.009 A 
ATOM     76  C   UNL A   1      44.961  33.860  33.110  1.00  0.00     0.001 A 
ATOM     77  C   UNL A   1      45.333  34.711  30.878  1.00  0.00     0.001 A 
ATOM     78  C   UNL A   1      45.260  34.920  32.256  1.00  0.00     0.000 A 
ENDBRANCH  60  73
ENDBRANCH  34  35
ENDBRANCH  26  29
ENDBRANCH  24  25
ENDBRANCH   1  24
TORSDOF 12
ENDMDL
MODEL 3
REMARK VINA RESULT:     -11.8      4.998      9.708
REMARK SMILES CCc1c(Cl)ccc2c1C=C(C(=O)NCCCNC(=O)c1ccc(-c3c4nc(c(-c5ccccc5)c5ccc([nH]5)c(-c5ccccc5)c5nc(c(-c6ccccc6)c6ccc3[nH]6)C=C5)C=C4)cc1)[C@@H](C(F)(F)F)O2
REMARK SMILES IDX 16 1 15 2 14 3 12 4 13 5 11 7 3 8 4 9 9 10 5 11 6 12 8 13
REMARK SMILES IDX 10 14 7 15 74 16 69 17 2 18 1 19 70 20 71 21 72 22 73 23
REMARK SMILES IDX 17 24 18 25 19 26 20 28 21 29 22 30 68 31 23 32 67 33 24 34
REMARK SMILES IDX 25 35 26 36 61 37 27 38 66 39 60 40 62 41 28 42 65 43 59 44
REMARK SMILES IDX 58 45 29 47 51 48 36 49 50 50 37 51 40 52 49 53 63 54 38 55
REMARK SMILES IDX 39 56 48 58 64 59 41 60 30 61 31 62 35 63 32 64 34 65 33 66
REMARK SMILES IDX 52 67 53 68 57 69 54 70 56 71 55 72 42 73 43 74 47 75 44 76
REMARK SMILES IDX 46 77 45 78
REMARK H PARENT 14 6 18 27 62 46 40 57
REMARK Flexibility Score: inf
ROOT
ATOM      1  C   UNL A   1      31.457  31.923  26.507  1.00  0.00     0.042 C 
ENDROOT
BRANCH   1   2
ATOM      2  C   UNL A   1      31.532  30.405  26.448  1.00  0.00     0.118 C 
BRANCH   2   3
ATOM      3  N   UNL A   1      32.390  29.961  25.361  1.00  0.00    -0.352 N 
ATOM      4  C   UNL A   1      32.862  28.792  24.876  1.00  0.00     0.251 C 
ATOM      5  O   UNL A   1      33.661  28.903  23.941  1.00  0.00    -0.270 OA
ATOM      6  H   UNL A   1      32.720  30.724  24.832  1.00  0.00     0.163 HD
BRANCH   4   7
ATOM      7  C   UNL A   1      32.476  27.436  25.364  1.00  0.00     0.067 C 
ATOM      8  C   UNL A   1      34.110  24.061  25.670  1.00  0.00    -0.019 A 
ATOM      9  C   UNL A   1      33.670  22.783  26.131  1.00  0.00     0.045 A 
ATOM     10  C   UNL A   1      33.214  25.150  25.835  1.00  0.00     0.022 A 
ATOM     11  Cl  UNL A   1      34.646  21.352  25.977  1.00  0.00    -0.084 Cl
ATOM     12  C   UNL A   1      32.422  22.591  26.730  1.00  0.00     0.024 A 
ATOM     13  C   UNL A   1      31.946  24.916  26.418  1.00  0.00     0.128 A 
ATOM     14  C   UNL A   1      33.479  26.545  25.473  1.00  0.00     0.026 C 
ATOM     15  C   UNL A   1      31.560  23.662  26.876  1.00  0.00     0.048 A 
ATOM     16  O   UNL A   1      31.010  25.899  26.606  1.00  0.00    -0.475 OA
ATOM     17  C   UNL A   1      31.079  27.023  25.695  1.00  0.00     0.314 C 
BRANCH   8  18
ATOM     18  C   UNL A   1      35.482  24.082  25.000  1.00  0.00     0.034 C 
ATOM     19  C   UNL A   1      36.802  24.063  25.753  1.00  0.00     0.009 C 
ENDBRANCH   8  18
BRANCH  17  20
ATOM     20  C   UNL A   1      30.205  26.761  24.455  1.00  0.00     0.429 C 
ATOM     21  F   UNL A   1      29.113  26.032  24.795  1.00  0.00    -0.167 F 
ATOM     22  F   UNL A   1      29.741  27.906  23.898  1.00  0.00    -0.167 F 
ATOM     23  F   UNL A   1      30.858  26.089  23.482  1.00  0.00    -0.167 F 
ENDBRANCH  17  20
ENDBRANCH   4   7
ENDBRANCH   2   3
ENDBRANCH   1   2
BRANCH   1  24
ATOM     24  C   UNL A   1      32.658  32.531  27.220  1.00  0.00     0.118 C 
BRANCH  24  25
ATOM     25  N   UNL A   1      32.440  33.936  27.561  1.00  0.00    -0.352 N 
ATOM     26  C   UNL A   1      33.054  34.727  28.502  1.00  0.00     0.251 C 
ATOM     27  H   UNL A   1      31.744  34.387  27.031  1.00  0.00     0.163 HD
ATOM     28  O   UNL A   1      32.566  35.811  28.807  1.00  0.00    -0.269 OA
BRANCH  26  29
ATOM     29  C   UNL A   1      34.290  34.261  29.160  1.00  0.00     0.039 A 
ATOM     30  C   UNL A   1      35.531  34.538  28.590  1.00  0.00     0.014 A 
ATOM     31  C   UNL A   1      34.211  33.535  30.352  1.00  0.00     0.014 A 
ATOM     32  C   UNL A   1      36.667  33.915  29.086  1.00  0.00     0.010 A 
ATOM     33  C   UNL A   1      35.375  33.007  30.919  1.00  0.00     0.010 A 
ATOM     34  C   UNL A   1      36.606  33.147  30.259  1.00  0.00    -0.014 A 
BRANCH  34  35
ATOM     35  C   UNL A   1      37.849  32.513  30.768  1.00  0.00     0.031 A 
ATOM     36  C   UNL A   1      38.499  32.999  32.037  1.00  0.00     0.074 A 
ATOM     37  C   UNL A   1      38.343  31.438  30.123  1.00  0.00     0.049 A 
ATOM     38  N   UNL A   1      39.562  32.533  32.642  1.00  0.00    -0.248 NA
ATOM     39  C   UNL A   1      37.882  34.151  32.717  1.00  0.00     0.031 C 
ATOM     40  C   UNL A   1      37.777  30.856  28.903  1.00  0.00     0.029 A 
ATOM     41  N   UNL A   1      39.398  30.613  30.422  1.00  0.00    -0.354 N 
ATOM     42  C   UNL A   1      39.757  33.348  33.751  1.00  0.00     0.074 A 
ATOM     43  C   UNL A   1      38.717  34.350  33.729  1.00  0.00     0.031 C 
ATOM     44  C   UNL A   1      38.430  29.723  28.611  1.00  0.00     0.029 A 
ATOM     45  C   UNL A   1      39.519  29.544  29.566  1.00  0.00     0.049 A 
ATOM     46  H   UNL A   1      40.008  30.771  31.178  1.00  0.00     0.167 HD
ATOM     47  C   UNL A   1      40.715  33.259  34.703  1.00  0.00     0.031 A 
ATOM     48  C   UNL A   1      40.410  28.536  29.540  1.00  0.00     0.031 A 
ATOM     49  C   UNL A   1      41.732  32.241  34.734  1.00  0.00     0.049 A 
ATOM     50  C   UNL A   1      41.492  28.499  30.578  1.00  0.00     0.074 A 
ATOM     51  C   UNL A   1      42.733  32.061  35.672  1.00  0.00     0.029 A 
ATOM     52  N   UNL A   1      41.873  31.232  33.796  1.00  0.00    -0.354 N 
ATOM     53  N   UNL A   1      41.666  29.283  31.612  1.00  0.00    -0.248 NA
ATOM     54  C   UNL A   1      42.507  27.446  30.440  1.00  0.00     0.031 C 
ATOM     55  C   UNL A   1      43.517  30.978  35.269  1.00  0.00     0.029 A 
ATOM     56  C   UNL A   1      42.964  30.443  34.117  1.00  0.00     0.049 A 
ATOM     57  H   UNL A   1      41.286  31.097  33.016  1.00  0.00     0.167 HD
ATOM     58  C   UNL A   1      42.803  28.814  32.256  1.00  0.00     0.074 A 
ATOM     59  C   UNL A   1      43.264  27.663  31.508  1.00  0.00     0.031 C 
ATOM     60  C   UNL A   1      43.409  29.299  33.365  1.00  0.00     0.031 A 
BRANCH  47  61
ATOM     61  C   UNL A   1      40.737  34.293  35.795  1.00  0.00    -0.014 A 
ATOM     62  C   UNL A   1      39.942  34.107  36.939  1.00  0.00     0.009 A 
ATOM     63  C   UNL A   1      41.439  35.498  35.645  1.00  0.00     0.009 A 
ATOM     64  C   UNL A   1      39.833  35.114  37.900  1.00  0.00     0.001 A 
ATOM     65  C   UNL A   1      41.348  36.494  36.621  1.00  0.00     0.001 A 
ATOM     66  C   UNL A   1      40.537  36.305  37.740  1.00  0.00     0.000 A 
ENDBRANCH  47  61
BRANCH  48  67
ATOM     67  C   UNL A   1      40.307  27.490  28.488  1.00  0.00    -0.014 A 
ATOM     68  C   UNL A   1      39.612  26.294  28.732  1.00  0.00     0.009 A 
ATOM     69  C   UNL A   1      40.941  27.663  27.249  1.00  0.00     0.009 A 
ATOM     70  C   UNL A   1      39.581  25.280  27.772  1.00  0.00     0.001 A 
ATOM     71  C   UNL A   1      40.880  26.661  26.277  1.00  0.00     0.001 A 
ATOM     72  C   UNL A   1      40.211  25.466  26.543  1.00  0.00     0.000 A 
ENDBRANCH  48  67
BRANCH  60  73
ATOM     73  C   UNL A   1      44.635  28.587  33.860  1.00  0.00    -0.014 A 
ATOM     74  C   UNL A   1      44.503  27.535  34.782  1.00  0.00     0.009 A 
ATOM     75  C   UNL A   1      45.919  29.023  33.502  1.00  0.00     0.009 A 
ATOM     76  C   UNL A   1      45.632  26.945  35.348  1.00  0.00     0.001 A 
ATOM     77  C   UNL A   1      47.048  28.411  34.048  1.00  0.00     0.001 A 
ATOM     78  C   UNL A   1      46.904  27.382  34.978  1.00  0.00     0.000 A 
ENDBRANCH  60  73
ENDBRANCH  34  35
ENDBRANCH  26  29
ENDBRANCH  24  25
ENDBRANCH   1  24
TORSDOF 12
ENDMDL
