MODEL 1
REMARK VINA RESULT:     -11.3      0.000      0.000
REMARK SMILES C[C@H](Oc1ccccc1[N+](=O)[O-])C(=O)N1CCC[C@H](C(=O)NCCCNC(=O)c2ccc(-c3c4nc(c(-c5ccccc5)c5ccc([nH]5)c(-c5ccccc5)c5nc(c(-c6ccccc6)c6ccc3[nH]6)C=C5)C=C4)cc2)C1
REMARK SMILES IDX 20 1 21 2 22 3 19 5 15 6 16 7 77 8 17 9 18 10 13 11 14 12
REMARK SMILES IDX 2 13 1 14 3 15 4 16 5 17 9 18 6 19 8 20 7 21 10 22 11 23
REMARK SMILES IDX 12 24 23 25 24 26 25 27 26 28 27 29 28 31 29 32 30 33 76 34
REMARK SMILES IDX 31 35 75 36 32 37 33 38 34 39 69 40 35 41 74 42 68 43 70 44
REMARK SMILES IDX 36 45 73 46 67 47 66 48 37 50 59 51 44 52 58 53 45 54 48 55
REMARK SMILES IDX 57 56 71 57 46 58 47 59 56 61 72 62 49 63 38 64 39 65 43 66
REMARK SMILES IDX 40 67 42 68 41 69 60 70 61 71 65 72 62 73 64 74 63 75 50 76
REMARK SMILES IDX 51 77 55 78 52 79 54 80 53 81
REMARK H PARENT 22 4 26 30 70 49 48 60
REMARK Flexibility Score: inf
ROOT
ATOM      1  C   UNL A   1      32.587  29.188  24.749  1.00  0.00     0.224 C 
ATOM      2  O   UNL A   1      33.472  29.200  23.886  1.00  0.00    -0.275 OA
ATOM      3  N   UNL A   1      32.583  30.236  25.611  1.00  0.00    -0.356 N 
ATOM      4  H   UNL A   1      33.340  30.856  25.503  1.00  0.00     0.163 HD
ENDROOT
BRANCH   1   5
ATOM      5  C   UNL A   1      31.625  27.991  24.819  1.00  0.00     0.098 C 
ATOM      6  N   UNL A   1      32.389  25.871  23.689  1.00  0.00    -0.339 N 
ATOM      7  C   UNL A   1      31.256  25.892  22.773  1.00  0.00     0.119 C 
ATOM      8  C   UNL A   1      32.271  26.608  24.945  1.00  0.00     0.133 C 
ATOM      9  C   UNL A   1      30.681  27.281  22.538  1.00  0.00     0.022 C 
ATOM     10  C   UNL A   1      30.470  28.070  23.822  1.00  0.00     0.017 C 
BRANCH   6  11
ATOM     11  C   UNL A   1      33.537  25.154  23.337  1.00  0.00     0.263 C 
ATOM     12  O   UNL A   1      33.893  25.060  22.158  1.00  0.00    -0.271 OA
BRANCH  11  13
ATOM     13  C   UNL A   1      34.143  24.216  24.415  1.00  0.00     0.259 C 
ATOM     14  C   UNL A   1      35.368  23.645  23.684  1.00  0.00     0.064 C 
BRANCH  13  15
ATOM     15  O   UNL A   1      33.174  23.292  24.900  1.00  0.00    -0.474 OA
BRANCH  15  16
ATOM     16  C   UNL A   1      33.105  21.985  24.522  1.00  0.00     0.197 A 
ATOM     17  C   UNL A   1      32.553  21.540  23.323  1.00  0.00     0.054 A 
ATOM     18  C   UNL A   1      33.552  21.007  25.429  1.00  0.00     0.310 A 
ATOM     19  C   UNL A   1      32.242  20.189  23.133  1.00  0.00     0.004 A 
ATOM     20  C   UNL A   1      33.253  19.646  25.243  1.00  0.00     0.090 A 
ATOM     21  C   UNL A   1      32.552  19.248  24.110  1.00  0.00     0.007 A 
BRANCH  18  22
ATOM     22  N   UNL A   1      34.400  21.361  26.570  1.00  0.00     0.066 N 
ATOM     23  O   UNL A   1      35.617  21.467  26.361  1.00  0.00    -0.258 OA
ATOM     24  O   UNL A   1      33.855  21.587  27.659  1.00  0.00    -0.258 OA
ENDBRANCH  18  22
ENDBRANCH  15  16
ENDBRANCH  13  15
ENDBRANCH  11  13
ENDBRANCH   6  11
ENDBRANCH   1   5
BRANCH   3  25
ATOM     25  C   UNL A   1      31.659  30.598  26.658  1.00  0.00     0.117 C 
BRANCH  25  26
ATOM     26  C   UNL A   1      31.447  32.094  26.793  1.00  0.00     0.042 C 
BRANCH  26  27
ATOM     27  C   UNL A   1      32.728  32.845  27.085  1.00  0.00     0.118 C 
BRANCH  27  28
ATOM     28  N   UNL A   1      32.495  34.144  27.710  1.00  0.00    -0.352 N 
ATOM     29  C   UNL A   1      33.173  34.790  28.718  1.00  0.00     0.251 C 
ATOM     30  H   UNL A   1      31.724  34.639  27.351  1.00  0.00     0.163 HD
ATOM     31  O   UNL A   1      32.741  35.839  29.173  1.00  0.00    -0.269 OA
BRANCH  29  32
ATOM     32  C   UNL A   1      34.407  34.199  29.282  1.00  0.00     0.039 A 
ATOM     33  C   UNL A   1      34.312  33.396  30.422  1.00  0.00     0.014 A 
ATOM     34  C   UNL A   1      35.648  34.418  28.686  1.00  0.00     0.014 A 
ATOM     35  C   UNL A   1      35.450  32.752  30.912  1.00  0.00     0.010 A 
ATOM     36  C   UNL A   1      36.748  33.676  29.091  1.00  0.00     0.010 A 
ATOM     37  C   UNL A   1      36.668  32.852  30.222  1.00  0.00    -0.014 A 
BRANCH  37  38
ATOM     38  C   UNL A   1      37.887  32.142  30.679  1.00  0.00     0.031 A 
ATOM     39  C   UNL A   1      38.703  32.712  31.809  1.00  0.00     0.074 A 
ATOM     40  C   UNL A   1      38.306  31.038  30.031  1.00  0.00     0.049 A 
ATOM     41  N   UNL A   1      39.843  32.298  32.298  1.00  0.00    -0.248 NA
ATOM     42  C   UNL A   1      38.188  33.937  32.446  1.00  0.00     0.031 C 
ATOM     43  C   UNL A   1      37.630  30.411  28.891  1.00  0.00     0.029 A 
ATOM     44  N   UNL A   1      39.405  30.245  30.240  1.00  0.00    -0.354 N 
ATOM     45  C   UNL A   1      40.197  33.229  33.266  1.00  0.00     0.074 A 
ATOM     46  C   UNL A   1      39.185  34.261  33.254  1.00  0.00     0.031 C 
ATOM     47  C   UNL A   1      38.302  29.304  28.537  1.00  0.00     0.029 A 
ATOM     48  C   UNL A   1      39.478  29.169  29.389  1.00  0.00     0.049 A 
ATOM     49  H   UNL A   1      40.078  30.430  30.935  1.00  0.00     0.167 HD
ATOM     50  C   UNL A   1      41.255  33.218  34.110  1.00  0.00     0.031 A 
ATOM     51  C   UNL A   1      40.391  28.184  29.309  1.00  0.00     0.031 A 
ATOM     52  C   UNL A   1      42.239  32.171  34.146  1.00  0.00     0.049 A 
ATOM     53  C   UNL A   1      41.554  28.187  30.260  1.00  0.00     0.074 A 
ATOM     54  C   UNL A   1      43.304  32.017  35.015  1.00  0.00     0.029 A 
ATOM     55  N   UNL A   1      42.272  31.097  33.271  1.00  0.00    -0.354 N 
ATOM     56  N   UNL A   1      41.836  29.035  31.219  1.00  0.00    -0.248 NA
ATOM     57  C   UNL A   1      42.522  27.090  30.120  1.00  0.00     0.031 C 
ATOM     58  C   UNL A   1      44.013  30.873  34.633  1.00  0.00     0.029 A 
ATOM     59  C   UNL A   1      43.356  30.287  33.562  1.00  0.00     0.049 A 
ATOM     60  H   UNL A   1      41.622  30.934  32.549  1.00  0.00     0.167 HD
ATOM     61  C   UNL A   1      42.995  28.559  31.818  1.00  0.00     0.074 A 
ATOM     62  C   UNL A   1      43.356  27.341  31.120  1.00  0.00     0.031 C 
ATOM     63  C   UNL A   1      43.696  29.079  32.854  1.00  0.00     0.031 A 
BRANCH  50  64
ATOM     64  C   UNL A   1      41.396  34.381  35.053  1.00  0.00    -0.014 A 
ATOM     65  C   UNL A   1      42.179  35.501  34.726  1.00  0.00     0.009 A 
ATOM     66  C   UNL A   1      40.738  34.356  36.292  1.00  0.00     0.009 A 
ATOM     67  C   UNL A   1      42.344  36.544  35.641  1.00  0.00     0.001 A 
ATOM     68  C   UNL A   1      40.876  35.416  37.191  1.00  0.00     0.001 A 
ATOM     69  C   UNL A   1      41.689  36.501  36.870  1.00  0.00     0.000 A 
ENDBRANCH  50  64
BRANCH  51  70
ATOM     70  C   UNL A   1      40.217  27.086  28.323  1.00  0.00    -0.014 A 
ATOM     71  C   UNL A   1      39.485  25.939  28.669  1.00  0.00     0.009 A 
ATOM     72  C   UNL A   1      40.773  27.174  27.037  1.00  0.00     0.009 A 
ATOM     73  C   UNL A   1      39.331  24.894  27.756  1.00  0.00     0.001 A 
ATOM     74  C   UNL A   1      40.593  26.138  26.117  1.00  0.00     0.001 A 
ATOM     75  C   UNL A   1      39.880  24.996  26.480  1.00  0.00     0.000 A 
ENDBRANCH  51  70
BRANCH  63  76
ATOM     76  C   UNL A   1      44.902  28.314  33.318  1.00  0.00    -0.014 A 
ATOM     77  C   UNL A   1      46.181  28.591  32.811  1.00  0.00     0.009 A 
ATOM     78  C   UNL A   1      44.757  27.329  34.308  1.00  0.00     0.009 A 
ATOM     79  C   UNL A   1      47.289  27.872  33.266  1.00  0.00     0.001 A 
ATOM     80  C   UNL A   1      45.871  26.634  34.782  1.00  0.00     0.001 A 
ATOM     81  C   UNL A   1      47.132  26.900  34.254  1.00  0.00     0.000 A 
ENDBRANCH  63  76
ENDBRANCH  37  38
ENDBRANCH  29  32
ENDBRANCH  27  28
ENDBRANCH  26  27
ENDBRANCH  25  26
ENDBRANCH   3  25
TORSDOF 15
ENDMDL
MODEL 2
REMARK VINA RESULT:     -11.0      4.312      9.529
REMARK SMILES C[C@H](Oc1ccccc1[N+](=O)[O-])C(=O)N1CCC[C@H](C(=O)NCCCNC(=O)c2ccc(-c3c4nc(c(-c5ccccc5)c5ccc([nH]5)c(-c5ccccc5)c5nc(c(-c6ccccc6)c6ccc3[nH]6)C=C5)C=C4)cc2)C1
REMARK SMILES IDX 20 1 21 2 22 3 19 5 15 6 16 7 77 8 17 9 18 10 13 11 14 12
REMARK SMILES IDX 2 13 1 14 3 15 4 16 5 17 9 18 6 19 8 20 7 21 10 22 11 23
REMARK SMILES IDX 12 24 23 25 24 26 25 27 26 28 27 29 28 31 29 32 30 33 76 34
REMARK SMILES IDX 31 35 75 36 32 37 33 38 34 39 69 40 35 41 74 42 68 43 70 44
REMARK SMILES IDX 36 45 73 46 67 47 66 48 37 50 59 51 44 52 58 53 45 54 48 55
REMARK SMILES IDX 57 56 71 57 46 58 47 59 56 61 72 62 49 63 38 64 39 65 43 66
REMARK SMILES IDX 40 67 42 68 41 69 60 70 61 71 65 72 62 73 64 74 63 75 50 76
REMARK SMILES IDX 51 77 55 78 52 79 54 80 53 81
REMARK H PARENT 22 4 26 30 70 49 48 60
REMARK Flexibility Score: inf
ROOT
ATOM      1  C   UNL A   1      34.836  21.649  25.873  1.00  0.00     0.224 C 
ATOM      2  O   UNL A   1      34.156  21.438  26.884  1.00  0.00    -0.275 OA
ATOM      3  N   UNL A   1      36.096  21.144  25.889  1.00  0.00    -0.356 N 
ATOM      4  H   UNL A   1      36.359  20.731  26.742  1.00  0.00     0.163 HD
ENDROOT
BRANCH   1   5
ATOM      5  C   UNL A   1      34.244  22.494  24.734  1.00  0.00     0.098 C 
ATOM      6  N   UNL A   1      32.162  23.808  25.278  1.00  0.00    -0.339 N 
ATOM      7  C   UNL A   1      31.388  23.093  24.272  1.00  0.00     0.119 C 
ATOM      8  C   UNL A   1      33.616  23.832  25.137  1.00  0.00     0.133 C 
ATOM      9  C   UNL A   1      31.928  21.707  23.950  1.00  0.00     0.022 C 
ATOM     10  C   UNL A   1      33.432  21.685  23.723  1.00  0.00     0.017 C 
BRANCH   6  11
ATOM     11  C   UNL A   1      31.493  24.439  26.332  1.00  0.00     0.263 C 
ATOM     12  O   UNL A   1      30.990  23.784  27.250  1.00  0.00    -0.271 OA
BRANCH  11  13
ATOM     13  C   UNL A   1      31.117  25.931  26.139  1.00  0.00     0.259 C 
ATOM     14  C   UNL A   1      29.701  25.826  25.550  1.00  0.00     0.064 C 
BRANCH  13  15
ATOM     15  O   UNL A   1      32.101  26.618  25.371  1.00  0.00    -0.474 OA
BRANCH  15  16
ATOM     16  C   UNL A   1      32.701  27.779  25.756  1.00  0.00     0.197 A 
ATOM     17  C   UNL A   1      33.678  27.871  26.744  1.00  0.00     0.054 A 
ATOM     18  C   UNL A   1      32.258  28.980  25.173  1.00  0.00     0.310 A 
ATOM     19  C   UNL A   1      34.029  29.108  27.295  1.00  0.00     0.004 A 
ATOM     20  C   UNL A   1      32.610  30.228  25.713  1.00  0.00     0.090 A 
ATOM     21  C   UNL A   1      33.463  30.284  26.810  1.00  0.00     0.007 A 
BRANCH  18  22
ATOM     22  N   UNL A   1      31.461  28.978  23.943  1.00  0.00     0.066 N 
ATOM     23  O   UNL A   1      32.074  28.874  22.871  1.00  0.00    -0.258 OA
ATOM     24  O   UNL A   1      30.227  29.025  24.042  1.00  0.00    -0.258 OA
ENDBRANCH  18  22
ENDBRANCH  15  16
ENDBRANCH  13  15
ENDBRANCH  11  13
ENDBRANCH   6  11
ENDBRANCH   1   5
BRANCH   3  25
ATOM     25  C   UNL A   1      37.115  21.109  24.868  1.00  0.00     0.117 C 
BRANCH  25  26
ATOM     26  C   UNL A   1      38.059  19.927  24.990  1.00  0.00     0.042 C 
BRANCH  26  27
ATOM     27  C   UNL A   1      39.167  20.161  25.994  1.00  0.00     0.118 C 
BRANCH  27  28
ATOM     28  N   UNL A   1      40.209  19.141  25.936  1.00  0.00    -0.352 N 
ATOM     29  C   UNL A   1      41.575  19.244  26.068  1.00  0.00     0.251 C 
ATOM     30  H   UNL A   1      39.881  18.228  25.774  1.00  0.00     0.163 HD
ATOM     31  O   UNL A   1      42.285  18.268  25.876  1.00  0.00    -0.269 OA
BRANCH  29  32
ATOM     32  C   UNL A   1      42.193  20.545  26.408  1.00  0.00     0.039 A 
ATOM     33  C   UNL A   1      42.615  21.383  25.372  1.00  0.00     0.014 A 
ATOM     34  C   UNL A   1      42.343  20.948  27.734  1.00  0.00     0.014 A 
ATOM     35  C   UNL A   1      43.111  22.654  25.668  1.00  0.00     0.010 A 
ATOM     36  C   UNL A   1      42.711  22.254  28.020  1.00  0.00     0.010 A 
ATOM     37  C   UNL A   1      43.120  23.116  26.993  1.00  0.00    -0.014 A 
BRANCH  37  38
ATOM     38  C   UNL A   1      43.590  24.478  27.345  1.00  0.00     0.031 A 
ATOM     39  C   UNL A   1      42.597  25.512  27.809  1.00  0.00     0.074 A 
ATOM     40  C   UNL A   1      44.883  24.810  27.172  1.00  0.00     0.049 A 
ATOM     41  N   UNL A   1      42.785  26.778  28.078  1.00  0.00    -0.248 NA
ATOM     42  C   UNL A   1      41.198  25.072  27.947  1.00  0.00     0.031 C 
ATOM     43  C   UNL A   1      45.936  23.913  26.686  1.00  0.00     0.029 A 
ATOM     44  N   UNL A   1      45.535  25.997  27.386  1.00  0.00    -0.354 N 
ATOM     45  C   UNL A   1      41.529  27.289  28.375  1.00  0.00     0.074 A 
ATOM     46  C   UNL A   1      40.579  26.215  28.195  1.00  0.00     0.031 C 
ATOM     47  C   UNL A   1      47.107  24.569  26.688  1.00  0.00     0.029 A 
ATOM     48  C   UNL A   1      46.882  25.941  27.129  1.00  0.00     0.049 A 
ATOM     49  H   UNL A   1      45.078  26.814  27.696  1.00  0.00     0.167 HD
ATOM     50  C   UNL A   1      41.193  28.534  28.788  1.00  0.00     0.031 A 
ATOM     51  C   UNL A   1      47.830  26.891  27.239  1.00  0.00     0.031 A 
ATOM     52  C   UNL A   1      42.144  29.589  29.003  1.00  0.00     0.049 A 
ATOM     53  C   UNL A   1      47.436  28.264  27.705  1.00  0.00     0.074 A 
ATOM     54  C   UNL A   1      41.925  30.861  29.499  1.00  0.00     0.029 A 
ATOM     55  N   UNL A   1      43.501  29.487  28.736  1.00  0.00    -0.354 N 
ATOM     56  N   UNL A   1      46.255  28.712  28.053  1.00  0.00    -0.248 NA
ATOM     57  C   UNL A   1      48.513  29.260  27.799  1.00  0.00     0.031 C 
ATOM     58  C   UNL A   1      43.144  31.548  29.484  1.00  0.00     0.029 A 
ATOM     59  C   UNL A   1      44.129  30.685  29.031  1.00  0.00     0.049 A 
ATOM     60  H   UNL A   1      43.951  28.684  28.387  1.00  0.00     0.167 HD
ATOM     61  C   UNL A   1      46.448  30.033  28.437  1.00  0.00     0.074 A 
ATOM     62  C   UNL A   1      47.864  30.307  28.290  1.00  0.00     0.031 C 
ATOM     63  C   UNL A   1      45.539  30.936  28.877  1.00  0.00     0.031 A 
BRANCH  50  64
ATOM     64  C   UNL A   1      39.733  28.811  29.022  1.00  0.00    -0.014 A 
ATOM     65  C   UNL A   1      38.908  29.311  28.001  1.00  0.00     0.009 A 
ATOM     66  C   UNL A   1      39.175  28.573  30.287  1.00  0.00     0.009 A 
ATOM     67  C   UNL A   1      37.570  29.617  28.256  1.00  0.00     0.001 A 
ATOM     68  C   UNL A   1      37.827  28.848  30.530  1.00  0.00     0.001 A 
ATOM     69  C   UNL A   1      37.030  29.382  29.519  1.00  0.00     0.000 A 
ENDBRANCH  50  64
BRANCH  51  70
ATOM     70  C   UNL A   1      49.249  26.563  26.948  1.00  0.00    -0.014 A 
ATOM     71  C   UNL A   1      50.104  26.159  27.986  1.00  0.00     0.009 A 
ATOM     72  C   UNL A   1      49.759  26.646  25.643  1.00  0.00     0.009 A 
ATOM     73  C   UNL A   1      51.445  25.866  27.727  1.00  0.00     0.001 A 
ATOM     74  C   UNL A   1      51.094  26.326  25.383  1.00  0.00     0.001 A 
ATOM     75  C   UNL A   1      51.937  25.945  26.426  1.00  0.00     0.000 A 
ENDBRANCH  51  70
BRANCH  63  76
ATOM     76  C   UNL A   1      46.053  32.293  29.263  1.00  0.00    -0.014 A 
ATOM     77  C   UNL A   1      46.094  33.348  28.339  1.00  0.00     0.009 A 
ATOM     78  C   UNL A   1      46.464  32.526  30.586  1.00  0.00     0.009 A 
ATOM     79  C   UNL A   1      46.567  34.604  28.726  1.00  0.00     0.001 A 
ATOM     80  C   UNL A   1      46.908  33.790  30.975  1.00  0.00     0.001 A 
ATOM     81  C   UNL A   1      46.967  34.824  30.043  1.00  0.00     0.000 A 
ENDBRANCH  63  76
ENDBRANCH  37  38
ENDBRANCH  29  32
ENDBRANCH  27  28
ENDBRANCH  26  27
ENDBRANCH  25  26
ENDBRANCH   3  25
TORSDOF 15
ENDMDL
MODEL 3
REMARK VINA RESULT:     -10.9      1.433      2.106
REMARK SMILES C[C@H](Oc1ccccc1[N+](=O)[O-])C(=O)N1CCC[C@H](C(=O)NCCCNC(=O)c2ccc(-c3c4nc(c(-c5ccccc5)c5ccc([nH]5)c(-c5ccccc5)c5nc(c(-c6ccccc6)c6ccc3[nH]6)C=C5)C=C4)cc2)C1
REMARK SMILES IDX 20 1 21 2 22 3 19 5 15 6 16 7 77 8 17 9 18 10 13 11 14 12
REMARK SMILES IDX 2 13 1 14 3 15 4 16 5 17 9 18 6 19 8 20 7 21 10 22 11 23
REMARK SMILES IDX 12 24 23 25 24 26 25 27 26 28 27 29 28 31 29 32 30 33 76 34
REMARK SMILES IDX 31 35 75 36 32 37 33 38 34 39 69 40 35 41 74 42 68 43 70 44
REMARK SMILES IDX 36 45 73 46 67 47 66 48 37 50 59 51 44 52 58 53 45 54 48 55
REMARK SMILES IDX 57 56 71 57 46 58 47 59 56 61 72 62 49 63 38 64 39 65 43 66
REMARK SMILES IDX 40 67 42 68 41 69 60 70 61 71 65 72 62 73 64 74 63 75 50 76
REMARK SMILES IDX 51 77 55 78 52 79 54 80 53 81
REMARK H PARENT 22 4 26 30 70 49 48 60
REMARK Flexibility Score: inf
ROOT
ATOM      1  C   UNL A   1      33.478  28.698  25.308  1.00  0.00     0.224 C 
ATOM      2  O   UNL A   1      33.390  28.663  24.075  1.00  0.00    -0.275 OA
ATOM      3  N   UNL A   1      33.796  29.903  25.846  1.00  0.00    -0.356 N 
ATOM      4  H   UNL A   1      34.002  30.603  25.186  1.00  0.00     0.163 HD
ENDROOT
BRANCH   1   5
ATOM      5  C   UNL A   1      33.289  27.402  26.110  1.00  0.00     0.098 C 
ATOM      6  N   UNL A   1      32.458  25.398  24.824  1.00  0.00    -0.339 N 
ATOM      7  C   UNL A   1      31.256  25.309  25.642  1.00  0.00     0.119 C 
ATOM      8  C   UNL A   1      33.616  26.096  25.378  1.00  0.00     0.133 C 
ATOM      9  C   UNL A   1      30.845  26.629  26.277  1.00  0.00     0.022 C 
ATOM     10  C   UNL A   1      32.002  27.368  26.933  1.00  0.00     0.017 C 
BRANCH   6  11
ATOM     11  C   UNL A   1      32.462  24.819  23.551  1.00  0.00     0.263 C 
ATOM     12  O   UNL A   1      31.452  24.836  22.840  1.00  0.00    -0.271 OA
BRANCH  11  13
ATOM     13  C   UNL A   1      33.645  23.877  23.205  1.00  0.00     0.259 C 
ATOM     14  C   UNL A   1      33.297  23.444  21.773  1.00  0.00     0.064 C 
BRANCH  13  15
ATOM     15  O   UNL A   1      33.795  22.854  24.186  1.00  0.00    -0.474 OA
BRANCH  15  16
ATOM     16  C   UNL A   1      34.992  22.326  24.565  1.00  0.00     0.197 A 
ATOM     17  C   UNL A   1      36.192  23.032  24.590  1.00  0.00     0.054 A 
ATOM     18  C   UNL A   1      35.041  20.957  24.885  1.00  0.00     0.310 A 
ATOM     19  C   UNL A   1      37.417  22.363  24.695  1.00  0.00     0.004 A 
ATOM     20  C   UNL A   1      36.266  20.277  25.001  1.00  0.00     0.090 A 
ATOM     21  C   UNL A   1      37.457  20.982  24.857  1.00  0.00     0.007 A 
BRANCH  18  22
ATOM     22  N   UNL A   1      33.821  20.199  25.169  1.00  0.00     0.066 N 
ATOM     23  O   UNL A   1      33.402  20.215  26.336  1.00  0.00    -0.258 OA
ATOM     24  O   UNL A   1      33.247  19.633  24.228  1.00  0.00    -0.258 OA
ENDBRANCH  18  22
ENDBRANCH  15  16
ENDBRANCH  13  15
ENDBRANCH  11  13
ENDBRANCH   6  11
ENDBRANCH   1   5
BRANCH   3  25
ATOM     25  C   UNL A   1      33.885  30.333  27.221  1.00  0.00     0.117 C 
BRANCH  25  26
ATOM     26  C   UNL A   1      32.807  31.323  27.621  1.00  0.00     0.042 C 
BRANCH  26  27
ATOM     27  C   UNL A   1      32.918  32.640  26.883  1.00  0.00     0.118 C 
BRANCH  27  28
ATOM     28  N   UNL A   1      32.560  33.786  27.712  1.00  0.00    -0.352 N 
ATOM     29  C   UNL A   1      33.200  34.350  28.792  1.00  0.00     0.251 C 
ATOM     30  H   UNL A   1      31.719  34.230  27.458  1.00  0.00     0.163 HD
ATOM     31  O   UNL A   1      32.667  35.253  29.420  1.00  0.00    -0.269 OA
BRANCH  29  32
ATOM     32  C   UNL A   1      34.521  33.839  29.221  1.00  0.00     0.039 A 
ATOM     33  C   UNL A   1      34.590  32.988  30.329  1.00  0.00     0.014 A 
ATOM     34  C   UNL A   1      35.684  34.178  28.532  1.00  0.00     0.014 A 
ATOM     35  C   UNL A   1      35.812  32.420  30.691  1.00  0.00     0.010 A 
ATOM     36  C   UNL A   1      36.870  33.513  28.809  1.00  0.00     0.010 A 
ATOM     37  C   UNL A   1      36.954  32.643  29.905  1.00  0.00    -0.014 A 
BRANCH  37  38
ATOM     38  C   UNL A   1      38.259  32.017  30.224  1.00  0.00     0.031 A 
ATOM     39  C   UNL A   1      39.229  32.733  31.127  1.00  0.00     0.074 A 
ATOM     40  C   UNL A   1      38.607  30.853  29.642  1.00  0.00     0.049 A 
ATOM     41  N   UNL A   1      40.450  32.402  31.458  1.00  0.00    -0.248 NA
ATOM     42  C   UNL A   1      38.779  34.013  31.701  1.00  0.00     0.031 C 
ATOM     43  C   UNL A   1      37.776  30.082  28.713  1.00  0.00     0.029 A 
ATOM     44  N   UNL A   1      39.756  30.112  29.749  1.00  0.00    -0.354 N 
ATOM     45  C   UNL A   1      40.923  33.448  32.240  1.00  0.00     0.074 A 
ATOM     46  C   UNL A   1      39.883  34.450  32.284  1.00  0.00     0.031 C 
ATOM     47  C   UNL A   1      38.423  28.955  28.376  1.00  0.00     0.029 A 
ATOM     48  C   UNL A   1      39.730  28.946  29.025  1.00  0.00     0.049 A 
ATOM     49  H   UNL A   1      40.528  30.392  30.294  1.00  0.00     0.167 HD
ATOM     50  C   UNL A   1      42.107  33.557  32.887  1.00  0.00     0.031 A 
ATOM     51  C   UNL A   1      40.655  27.976  28.901  1.00  0.00     0.031 A 
ATOM     52  C   UNL A   1      43.124  32.543  32.873  1.00  0.00     0.049 A 
ATOM     53  C   UNL A   1      41.960  28.115  29.634  1.00  0.00     0.074 A 
ATOM     54  C   UNL A   1      44.325  32.513  33.559  1.00  0.00     0.029 A 
ATOM     55  N   UNL A   1      43.054  31.373  32.131  1.00  0.00    -0.354 N 
ATOM     56  N   UNL A   1      42.363  29.076  30.429  1.00  0.00    -0.248 NA
ATOM     57  C   UNL A   1      42.933  27.029  29.455  1.00  0.00     0.031 C 
ATOM     58  C   UNL A   1      45.005  31.346  33.193  1.00  0.00     0.029 A 
ATOM     59  C   UNL A   1      44.203  30.626  32.322  1.00  0.00     0.049 A 
ATOM     60  H   UNL A   1      42.299  31.113  31.554  1.00  0.00     0.167 HD
ATOM     61  C   UNL A   1      43.625  28.697  30.871  1.00  0.00     0.074 A 
ATOM     62  C   UNL A   1      43.912  27.413  30.263  1.00  0.00     0.031 C 
ATOM     63  C   UNL A   1      44.468  29.350  31.707  1.00  0.00     0.031 A 
BRANCH  50  64
ATOM     64  C   UNL A   1      42.357  34.826  33.656  1.00  0.00    -0.014 A 
ATOM     65  C   UNL A   1      41.953  34.965  34.994  1.00  0.00     0.009 A 
ATOM     66  C   UNL A   1      43.003  35.903  33.029  1.00  0.00     0.009 A 
ATOM     67  C   UNL A   1      42.142  36.172  35.671  1.00  0.00     0.001 A 
ATOM     68  C   UNL A   1      43.221  37.098  33.719  1.00  0.00     0.001 A 
ATOM     69  C   UNL A   1      42.779  37.235  35.034  1.00  0.00     0.000 A 
ENDBRANCH  50  64
BRANCH  51  70
ATOM     70  C   UNL A   1      40.363  26.767  28.089  1.00  0.00    -0.014 A 
ATOM     71  C   UNL A   1      40.857  26.663  26.780  1.00  0.00     0.009 A 
ATOM     72  C   UNL A   1      39.598  25.713  28.612  1.00  0.00     0.009 A 
ATOM     73  C   UNL A   1      40.573  25.538  26.002  1.00  0.00     0.001 A 
ATOM     74  C   UNL A   1      39.339  24.577  27.840  1.00  0.00     0.001 A 
ATOM     75  C   UNL A   1      39.819  24.495  26.534  1.00  0.00     0.000 A 
ENDBRANCH  51  70
BRANCH  63  76
ATOM     76  C   UNL A   1      45.763  28.669  32.041  1.00  0.00    -0.014 A 
ATOM     77  C   UNL A   1      45.848  27.738  33.088  1.00  0.00     0.009 A 
ATOM     78  C   UNL A   1      46.904  28.935  31.268  1.00  0.00     0.009 A 
ATOM     79  C   UNL A   1      47.063  27.110  33.374  1.00  0.00     0.001 A 
ATOM     80  C   UNL A   1      48.108  28.282  31.538  1.00  0.00     0.001 A 
ATOM     81  C   UNL A   1      48.188  27.378  32.595  1.00  0.00     0.000 A 
ENDBRANCH  63  76
ENDBRANCH  37  38
ENDBRANCH  29  32
ENDBRANCH  27  28
ENDBRANCH  26  27
ENDBRANCH  25  26
ENDBRANCH   3  25
TORSDOF 15
ENDMDL
