MODEL 1
REMARK VINA RESULT:     -11.9      0.000      0.000
REMARK SMILES NS(=O)(=O)c1ccc(-n2nc(C(=O)NCCCC(=O)NCCCNC(=O)c3ccc(-c4c5nc(c(-c6ccccc6)c6ccc([nH]6)c(-c6ccccc6)c6nc(c(-c7ccccc7)c7ccc4[nH]7)C=C6)C=C5)cc3)cc2-c2ccccc2)cc1
REMARK SMILES IDX 18 1 19 2 20 3 17 5 16 6 15 7 14 8 12 9 13 10 11 12 9 13
REMARK SMILES IDX 10 14 76 15 75 16 8 17 5 18 6 19 84 20 7 21 83 22 2 23 3 24
REMARK SMILES IDX 4 25 1 26 77 29 78 30 82 31 79 32 81 33 80 34 21 35 22 36
REMARK SMILES IDX 23 37 24 38 25 39 26 41 27 42 28 43 74 44 29 45 73 46 30 47
REMARK SMILES IDX 31 48 32 49 67 50 33 51 72 52 66 53 68 54 34 55 71 56 65 57
REMARK SMILES IDX 64 58 35 60 57 61 42 62 56 63 43 64 46 65 55 66 69 67 44 68
REMARK SMILES IDX 45 69 54 71 70 72 47 73 36 74 37 75 41 76 38 77 40 78 39 79
REMARK SMILES IDX 58 80 59 81 63 82 60 83 62 84 61 85 48 86 49 87 53 88 50 89
REMARK SMILES IDX 52 90 51 91
REMARK H PARENT 20 4 14 11 1 27 1 28 24 40 68 59 46 70
REMARK Flexibility Score: inf
ROOT
ATOM      1  C   UNL A   1      32.161  28.465  26.955  1.00  0.00     0.220 C 
ATOM      2  O   UNL A   1      31.376  27.838  27.669  1.00  0.00    -0.275 OA
ATOM      3  N   UNL A   1      32.771  29.561  27.483  1.00  0.00    -0.356 N 
ATOM      4  H   UNL A   1      32.585  29.711  28.438  1.00  0.00     0.163 HD
ENDROOT
BRANCH   1   5
ATOM      5  C   UNL A   1      32.439  28.023  25.533  1.00  0.00     0.102 C 
BRANCH   5   6
ATOM      6  C   UNL A   1      31.213  28.075  24.619  1.00  0.00     0.031 C 
BRANCH   6   7
ATOM      7  C   UNL A   1      30.595  26.725  24.272  1.00  0.00     0.116 C 
BRANCH   7   8
ATOM      8  N   UNL A   1      29.805  26.153  25.346  1.00  0.00    -0.351 N 
ATOM      9  C   UNL A   1      30.008  25.019  26.105  1.00  0.00     0.271 C 
ATOM     10  O   UNL A   1      29.151  24.765  26.954  1.00  0.00    -0.267 OA
ATOM     11  H   UNL A   1      28.989  26.656  25.569  1.00  0.00     0.163 HD
BRANCH   9  12
ATOM     12  C   UNL A   1      31.194  24.171  25.889  1.00  0.00     0.151 A 
ATOM     13  N   UNL A   1      32.323  22.431  25.332  1.00  0.00    -0.232 N 
ATOM     14  N   UNL A   1      31.070  22.945  25.344  1.00  0.00    -0.162 NA
ATOM     15  C   UNL A   1      33.271  23.400  25.628  1.00  0.00     0.075 A 
ATOM     16  C   UNL A   1      32.556  24.455  26.152  1.00  0.00     0.065 A 
BRANCH  13  17
ATOM     17  C   UNL A   1      32.559  21.068  25.010  1.00  0.00     0.065 A 
ATOM     18  C   UNL A   1      33.246  18.454  24.342  1.00  0.00     0.082 A 
ATOM     19  C   UNL A   1      33.403  18.890  25.658  1.00  0.00     0.024 A 
ATOM     20  C   UNL A   1      32.700  19.298  23.368  1.00  0.00     0.024 A 
ATOM     21  C   UNL A   1      33.068  20.200  25.989  1.00  0.00     0.030 A 
ATOM     22  C   UNL A   1      32.324  20.602  23.710  1.00  0.00     0.030 A 
BRANCH  18  23
ATOM     23  S   UNL A   1      33.812  16.843  23.886  1.00  0.00     0.238 S 
ATOM     24  O   UNL A   1      34.978  16.516  24.686  1.00  0.00    -0.207 OA
ATOM     25  O   UNL A   1      33.785  16.728  22.455  1.00  0.00    -0.207 OA
BRANCH  23  26
ATOM     26  N   UNL A   1      32.602  15.825  24.465  1.00  0.00    -0.225 NA
ATOM     27  H   UNL A   1      31.763  16.372  24.663  1.00  0.00     0.137 HD
ATOM     28  H   UNL A   1      32.920  15.370  25.320  1.00  0.00     0.137 HD
ENDBRANCH  23  26
ENDBRANCH  18  23
ENDBRANCH  13  17
BRANCH  15  29
ATOM     29  C   UNL A   1      34.683  23.355  25.256  1.00  0.00     0.000 A 
ATOM     30  C   UNL A   1      35.666  23.441  26.256  1.00  0.00     0.010 A 
ATOM     31  C   UNL A   1      35.076  23.165  23.928  1.00  0.00     0.010 A 
ATOM     32  C   UNL A   1      37.018  23.362  25.931  1.00  0.00     0.001 A 
ATOM     33  C   UNL A   1      36.432  23.086  23.605  1.00  0.00     0.001 A 
ATOM     34  C   UNL A   1      37.401  23.186  24.605  1.00  0.00     0.000 A 
ENDBRANCH  15  29
ENDBRANCH   9  12
ENDBRANCH   7   8
ENDBRANCH   6   7
ENDBRANCH   5   6
ENDBRANCH   1   5
BRANCH   3  35
ATOM     35  C   UNL A   1      33.653  30.547  26.875  1.00  0.00     0.117 C 
BRANCH  35  36
ATOM     36  C   UNL A   1      33.876  31.748  27.800  1.00  0.00     0.042 C 
BRANCH  36  37
ATOM     37  C   UNL A   1      35.001  31.536  28.799  1.00  0.00     0.118 C 
BRANCH  37  38
ATOM     38  N   UNL A   1      34.760  32.215  30.064  1.00  0.00    -0.352 N 
ATOM     39  C   UNL A   1      35.325  31.938  31.290  1.00  0.00     0.251 C 
ATOM     40  H   UNL A   1      34.117  32.961  30.041  1.00  0.00     0.163 HD
ATOM     41  O   UNL A   1      34.798  32.333  32.322  1.00  0.00    -0.269 OA
BRANCH  39  42
ATOM     42  C   UNL A   1      36.556  31.127  31.348  1.00  0.00     0.039 A 
ATOM     43  C   UNL A   1      36.470  29.734  31.336  1.00  0.00     0.014 A 
ATOM     44  C   UNL A   1      37.798  31.759  31.391  1.00  0.00     0.014 A 
ATOM     45  C   UNL A   1      37.641  28.984  31.277  1.00  0.00     0.010 A 
ATOM     46  C   UNL A   1      38.952  31.022  31.224  1.00  0.00     0.010 A 
ATOM     47  C   UNL A   1      38.885  29.630  31.190  1.00  0.00    -0.014 A 
BRANCH  47  48
ATOM     48  C   UNL A   1      40.091  28.839  30.938  1.00  0.00     0.031 A 
ATOM     49  C   UNL A   1      40.969  28.616  32.122  1.00  0.00     0.074 A 
ATOM     50  C   UNL A   1      40.339  28.161  29.797  1.00  0.00     0.049 A 
ATOM     51  N   UNL A   1      42.185  29.017  32.296  1.00  0.00    -0.248 NA
ATOM     52  C   UNL A   1      40.393  27.930  33.289  1.00  0.00     0.031 C 
ATOM     53  C   UNL A   1      39.457  27.977  28.641  1.00  0.00     0.029 A 
ATOM     54  N   UNL A   1      41.416  27.382  29.486  1.00  0.00    -0.354 N 
ATOM     55  C   UNL A   1      42.598  28.493  33.519  1.00  0.00     0.074 A 
ATOM     56  C   UNL A   1      41.416  27.955  34.146  1.00  0.00     0.031 C 
ATOM     57  C   UNL A   1      39.922  26.963  27.879  1.00  0.00     0.029 A 
ATOM     58  C   UNL A   1      41.215  26.549  28.394  1.00  0.00     0.049 A 
ATOM     59  H   UNL A   1      42.260  27.409  29.990  1.00  0.00     0.167 HD
ATOM     60  C   UNL A   1      43.918  28.348  33.829  1.00  0.00     0.031 A 
ATOM     61  C   UNL A   1      42.036  25.569  27.950  1.00  0.00     0.031 A 
ATOM     62  C   UNL A   1      44.761  29.105  32.941  1.00  0.00     0.049 A 
ATOM     63  C   UNL A   1      43.381  25.820  28.507  1.00  0.00     0.074 A 
ATOM     64  C   UNL A   1      44.895  30.437  32.606  1.00  0.00     0.029 A 
ATOM     65  N   UNL A   1      45.422  28.402  31.963  1.00  0.00    -0.354 N 
ATOM     66  N   UNL A   1      44.143  26.809  28.140  1.00  0.00    -0.248 NA
ATOM     67  C   UNL A   1      43.754  25.175  29.755  1.00  0.00     0.031 C 
ATOM     68  C   UNL A   1      45.215  30.437  31.217  1.00  0.00     0.029 A 
ATOM     69  C   UNL A   1      45.309  29.109  30.797  1.00  0.00     0.049 A 
ATOM     70  H   UNL A   1      45.890  27.544  32.078  1.00  0.00     0.167 HD
ATOM     71  C   UNL A   1      44.798  27.194  29.298  1.00  0.00     0.074 A 
ATOM     72  C   UNL A   1      44.630  26.071  30.215  1.00  0.00     0.031 C 
ATOM     73  C   UNL A   1      45.163  28.496  29.496  1.00  0.00     0.031 A 
BRANCH  60  74
ATOM     74  C   UNL A   1      44.472  27.204  34.652  1.00  0.00    -0.014 A 
ATOM     75  C   UNL A   1      45.347  27.505  35.717  1.00  0.00     0.009 A 
ATOM     76  C   UNL A   1      44.418  25.858  34.248  1.00  0.00     0.009 A 
ATOM     77  C   UNL A   1      46.193  26.533  36.266  1.00  0.00     0.001 A 
ATOM     78  C   UNL A   1      45.228  24.875  34.828  1.00  0.00     0.001 A 
ATOM     79  C   UNL A   1      46.142  25.221  35.812  1.00  0.00     0.000 A 
ENDBRANCH  60  74
BRANCH  61  80
ATOM     80  C   UNL A   1      41.712  24.332  27.213  1.00  0.00    -0.014 A 
ATOM     81  C   UNL A   1      42.411  23.995  26.043  1.00  0.00     0.009 A 
ATOM     82  C   UNL A   1      40.897  23.348  27.799  1.00  0.00     0.009 A 
ATOM     83  C   UNL A   1      42.333  22.704  25.506  1.00  0.00     0.001 A 
ATOM     84  C   UNL A   1      40.813  22.060  27.259  1.00  0.00     0.001 A 
ATOM     85  C   UNL A   1      41.547  21.734  26.122  1.00  0.00     0.000 A 
ENDBRANCH  61  80
BRANCH  73  86
ATOM     86  C   UNL A   1      45.141  29.429  28.312  1.00  0.00    -0.014 A 
ATOM     87  C   UNL A   1      43.999  30.149  27.918  1.00  0.00     0.009 A 
ATOM     88  C   UNL A   1      46.353  29.695  27.656  1.00  0.00     0.009 A 
ATOM     89  C   UNL A   1      44.064  31.079  26.874  1.00  0.00     0.001 A 
ATOM     90  C   UNL A   1      46.423  30.641  26.632  1.00  0.00     0.001 A 
ATOM     91  C   UNL A   1      45.277  31.326  26.236  1.00  0.00     0.000 A 
ENDBRANCH  73  86
ENDBRANCH  47  48
ENDBRANCH  39  42
ENDBRANCH  37  38
ENDBRANCH  36  37
ENDBRANCH  35  36
ENDBRANCH   3  35
TORSDOF 18
ENDMDL
MODEL 2
REMARK VINA RESULT:     -11.9      5.782     10.284
REMARK SMILES NS(=O)(=O)c1ccc(-n2nc(C(=O)NCCCC(=O)NCCCNC(=O)c3ccc(-c4c5nc(c(-c6ccccc6)c6ccc([nH]6)c(-c6ccccc6)c6nc(c(-c7ccccc7)c7ccc4[nH]7)C=C6)C=C5)cc3)cc2-c2ccccc2)cc1
REMARK SMILES IDX 18 1 19 2 20 3 17 5 16 6 15 7 14 8 12 9 13 10 11 12 9 13
REMARK SMILES IDX 10 14 76 15 75 16 8 17 5 18 6 19 84 20 7 21 83 22 2 23 3 24
REMARK SMILES IDX 4 25 1 26 77 29 78 30 82 31 79 32 81 33 80 34 21 35 22 36
REMARK SMILES IDX 23 37 24 38 25 39 26 41 27 42 28 43 74 44 29 45 73 46 30 47
REMARK SMILES IDX 31 48 32 49 67 50 33 51 72 52 66 53 68 54 34 55 71 56 65 57
REMARK SMILES IDX 64 58 35 60 57 61 42 62 56 63 43 64 46 65 55 66 69 67 44 68
REMARK SMILES IDX 45 69 54 71 70 72 47 73 36 74 37 75 41 76 38 77 40 78 39 79
REMARK SMILES IDX 58 80 59 81 63 82 60 83 62 84 61 85 48 86 49 87 53 88 50 89
REMARK SMILES IDX 52 90 51 91
REMARK H PARENT 20 4 14 11 1 27 1 28 24 40 68 59 46 70
REMARK Flexibility Score: inf
ROOT
ATOM      1  C   UNL A   1      44.984  33.166  25.627  1.00  0.00     0.220 C 
ATOM      2  O   UNL A   1      43.882  33.078  25.081  1.00  0.00    -0.275 OA
ATOM      3  N   UNL A   1      45.796  34.196  25.266  1.00  0.00    -0.356 N 
ATOM      4  H   UNL A   1      45.388  34.840  24.643  1.00  0.00     0.163 HD
ENDROOT
BRANCH   1   5
ATOM      5  C   UNL A   1      45.415  32.158  26.672  1.00  0.00     0.102 C 
BRANCH   5   6
ATOM      6  C   UNL A   1      44.910  30.738  26.405  1.00  0.00     0.031 C 
BRANCH   6   7
ATOM      7  C   UNL A   1      45.941  29.629  26.581  1.00  0.00     0.116 C 
BRANCH   7   8
ATOM      8  N   UNL A   1      46.621  29.267  25.351  1.00  0.00    -0.351 N 
ATOM      9  C   UNL A   1      46.502  28.147  24.556  1.00  0.00     0.271 C 
ATOM     10  O   UNL A   1      47.227  28.099  23.560  1.00  0.00    -0.267 OA
ATOM     11  H   UNL A   1      47.276  29.929  25.033  1.00  0.00     0.163 HD
BRANCH   9  12
ATOM     12  C   UNL A   1      45.553  27.074  24.903  1.00  0.00     0.151 A 
ATOM     13  N   UNL A   1      44.842  25.075  25.239  1.00  0.00    -0.232 N 
ATOM     14  N   UNL A   1      45.954  25.787  24.938  1.00  0.00    -0.162 NA
ATOM     15  C   UNL A   1      43.803  25.903  25.640  1.00  0.00     0.075 A 
ATOM     16  C   UNL A   1      44.186  27.170  25.262  1.00  0.00     0.065 A 
BRANCH  13  17
ATOM     17  C   UNL A   1      44.833  23.657  25.167  1.00  0.00     0.065 A 
ATOM     18  C   UNL A   1      44.843  20.898  24.794  1.00  0.00     0.082 A 
ATOM     19  C   UNL A   1      46.054  21.574  24.950  1.00  0.00     0.024 A 
ATOM     20  C   UNL A   1      43.625  21.583  24.874  1.00  0.00     0.024 A 
ATOM     21  C   UNL A   1      46.048  22.955  25.127  1.00  0.00     0.030 A 
ATOM     22  C   UNL A   1      43.617  22.965  25.094  1.00  0.00     0.030 A 
BRANCH  18  23
ATOM     23  S   UNL A   1      44.854  19.171  24.417  1.00  0.00     0.238 S 
ATOM     24  O   UNL A   1      43.599  18.591  24.857  1.00  0.00    -0.207 OA
ATOM     25  O   UNL A   1      46.136  18.627  24.768  1.00  0.00    -0.207 OA
BRANCH  23  26
ATOM     26  N   UNL A   1      44.771  19.138  22.735  1.00  0.00    -0.225 NA
ATOM     27  H   UNL A   1      45.172  18.265  22.392  1.00  0.00     0.137 HD
ATOM     28  H   UNL A   1      45.295  19.926  22.354  1.00  0.00     0.137 HD
ENDBRANCH  23  26
ENDBRANCH  18  23
ENDBRANCH  13  17
BRANCH  15  29
ATOM     29  C   UNL A   1      42.665  25.505  26.465  1.00  0.00     0.000 A 
ATOM     30  C   UNL A   1      42.884  25.073  27.784  1.00  0.00     0.010 A 
ATOM     31  C   UNL A   1      41.354  25.605  25.989  1.00  0.00     0.010 A 
ATOM     32  C   UNL A   1      41.813  24.724  28.603  1.00  0.00     0.001 A 
ATOM     33  C   UNL A   1      40.283  25.255  26.813  1.00  0.00     0.001 A 
ATOM     34  C   UNL A   1      40.512  24.815  28.117  1.00  0.00     0.000 A 
ENDBRANCH  15  29
ENDBRANCH   9  12
ENDBRANCH   7   8
ENDBRANCH   6   7
ENDBRANCH   5   6
ENDBRANCH   1   5
BRANCH   3  35
ATOM     35  C   UNL A   1      47.167  34.509  25.648  1.00  0.00     0.117 C 
BRANCH  35  36
ATOM     36  C   UNL A   1      47.320  35.982  26.040  1.00  0.00     0.042 C 
BRANCH  36  37
ATOM     37  C   UNL A   1      46.797  36.291  27.432  1.00  0.00     0.118 C 
BRANCH  37  38
ATOM     38  N   UNL A   1      46.166  37.599  27.514  1.00  0.00    -0.352 N 
ATOM     39  C   UNL A   1      44.840  37.882  27.762  1.00  0.00     0.251 C 
ATOM     40  H   UNL A   1      46.756  38.376  27.375  1.00  0.00     0.163 HD
ATOM     41  O   UNL A   1      44.369  38.973  27.466  1.00  0.00    -0.269 OA
BRANCH  39  42
ATOM     42  C   UNL A   1      43.981  36.840  28.357  1.00  0.00     0.039 A 
ATOM     43  C   UNL A   1      43.235  36.000  27.530  1.00  0.00     0.014 A 
ATOM     44  C   UNL A   1      43.942  36.687  29.743  1.00  0.00     0.014 A 
ATOM     45  C   UNL A   1      42.518  34.951  28.099  1.00  0.00     0.010 A 
ATOM     46  C   UNL A   1      43.322  35.585  30.297  1.00  0.00     0.010 A 
ATOM     47  C   UNL A   1      42.587  34.724  29.484  1.00  0.00    -0.014 A 
BRANCH  47  48
ATOM     48  C   UNL A   1      41.988  33.511  30.045  1.00  0.00     0.031 A 
ATOM     49  C   UNL A   1      42.800  32.269  29.898  1.00  0.00     0.074 A 
ATOM     50  C   UNL A   1      40.889  33.490  30.828  1.00  0.00     0.049 A 
ATOM     51  N   UNL A   1      42.503  31.199  29.237  1.00  0.00    -0.248 NA
ATOM     52  C   UNL A   1      44.145  32.249  30.495  1.00  0.00     0.031 C 
ATOM     53  C   UNL A   1      40.137  34.627  31.366  1.00  0.00     0.029 A 
ATOM     54  N   UNL A   1      40.280  32.418  31.412  1.00  0.00    -0.354 N 
ATOM     55  C   UNL A   1      43.539  30.297  29.468  1.00  0.00     0.074 A 
ATOM     56  C   UNL A   1      44.582  31.042  30.130  1.00  0.00     0.031 C 
ATOM     57  C   UNL A   1      39.340  34.203  32.371  1.00  0.00     0.029 A 
ATOM     58  C   UNL A   1      39.397  32.753  32.430  1.00  0.00     0.049 A 
ATOM     59  H   UNL A   1      40.451  31.489  31.137  1.00  0.00     0.167 HD
ATOM     60  C   UNL A   1      43.374  28.955  29.294  1.00  0.00     0.031 A 
ATOM     61  C   UNL A   1      38.769  31.909  33.280  1.00  0.00     0.031 A 
ATOM     62  C   UNL A   1      42.190  28.657  28.530  1.00  0.00     0.049 A 
ATOM     63  C   UNL A   1      38.795  30.560  32.679  1.00  0.00     0.074 A 
ATOM     64  C   UNL A   1      41.728  28.969  27.268  1.00  0.00     0.029 A 
ATOM     65  N   UNL A   1      41.099  28.201  29.229  1.00  0.00    -0.354 N 
ATOM     66  N   UNL A   1      38.108  30.224  31.626  1.00  0.00    -0.248 NA
ATOM     67  C   UNL A   1      39.877  29.656  33.031  1.00  0.00     0.031 C 
ATOM     68  C   UNL A   1      40.319  29.128  27.420  1.00  0.00     0.029 A 
ATOM     69  C   UNL A   1      39.997  28.855  28.750  1.00  0.00     0.049 A 
ATOM     70  H   UNL A   1      41.108  27.526  29.946  1.00  0.00     0.167 HD
ATOM     71  C   UNL A   1      38.927  29.342  30.940  1.00  0.00     0.074 A 
ATOM     72  C   UNL A   1      39.929  28.924  31.916  1.00  0.00     0.031 C 
ATOM     73  C   UNL A   1      38.882  29.262  29.577  1.00  0.00     0.031 A 
BRANCH  60  74
ATOM     74  C   UNL A   1      44.035  27.902  30.158  1.00  0.00    -0.014 A 
ATOM     75  C   UNL A   1      45.114  27.171  29.620  1.00  0.00     0.009 A 
ATOM     76  C   UNL A   1      43.463  27.395  31.339  1.00  0.00     0.009 A 
ATOM     77  C   UNL A   1      45.521  25.950  30.174  1.00  0.00     0.001 A 
ATOM     78  C   UNL A   1      43.898  26.199  31.921  1.00  0.00     0.001 A 
ATOM     79  C   UNL A   1      44.903  25.458  31.317  1.00  0.00     0.000 A 
ENDBRANCH  60  74
BRANCH  61  80
ATOM     80  C   UNL A   1      38.291  32.143  34.657  1.00  0.00    -0.014 A 
ATOM     81  C   UNL A   1      39.096  31.812  35.758  1.00  0.00     0.009 A 
ATOM     82  C   UNL A   1      37.151  32.933  34.889  1.00  0.00     0.009 A 
ATOM     83  C   UNL A   1      38.797  32.296  37.038  1.00  0.00     0.001 A 
ATOM     84  C   UNL A   1      36.848  33.410  36.168  1.00  0.00     0.001 A 
ATOM     85  C   UNL A   1      37.682  33.106  37.240  1.00  0.00     0.000 A 
ENDBRANCH  61  80
BRANCH  73  86
ATOM     86  C   UNL A   1      37.714  29.895  28.865  1.00  0.00    -0.014 A 
ATOM     87  C   UNL A   1      36.661  29.155  28.298  1.00  0.00     0.009 A 
ATOM     88  C   UNL A   1      37.604  31.294  28.890  1.00  0.00     0.009 A 
ATOM     89  C   UNL A   1      35.552  29.800  27.741  1.00  0.00     0.001 A 
ATOM     90  C   UNL A   1      36.485  31.936  28.356  1.00  0.00     0.001 A 
ATOM     91  C   UNL A   1      35.464  31.189  27.774  1.00  0.00     0.000 A 
ENDBRANCH  73  86
ENDBRANCH  47  48
ENDBRANCH  39  42
ENDBRANCH  37  38
ENDBRANCH  36  37
ENDBRANCH  35  36
ENDBRANCH   3  35
TORSDOF 18
ENDMDL
MODEL 3
REMARK VINA RESULT:     -11.5      2.782      5.240
REMARK SMILES NS(=O)(=O)c1ccc(-n2nc(C(=O)NCCCC(=O)NCCCNC(=O)c3ccc(-c4c5nc(c(-c6ccccc6)c6ccc([nH]6)c(-c6ccccc6)c6nc(c(-c7ccccc7)c7ccc4[nH]7)C=C6)C=C5)cc3)cc2-c2ccccc2)cc1
REMARK SMILES IDX 18 1 19 2 20 3 17 5 16 6 15 7 14 8 12 9 13 10 11 12 9 13
REMARK SMILES IDX 10 14 76 15 75 16 8 17 5 18 6 19 84 20 7 21 83 22 2 23 3 24
REMARK SMILES IDX 4 25 1 26 77 29 78 30 82 31 79 32 81 33 80 34 21 35 22 36
REMARK SMILES IDX 23 37 24 38 25 39 26 41 27 42 28 43 74 44 29 45 73 46 30 47
REMARK SMILES IDX 31 48 32 49 67 50 33 51 72 52 66 53 68 54 34 55 71 56 65 57
REMARK SMILES IDX 64 58 35 60 57 61 42 62 56 63 43 64 46 65 55 66 69 67 44 68
REMARK SMILES IDX 45 69 54 71 70 72 47 73 36 74 37 75 41 76 38 77 40 78 39 79
REMARK SMILES IDX 58 80 59 81 63 82 60 83 62 84 61 85 48 86 49 87 53 88 50 89
REMARK SMILES IDX 52 90 51 91
REMARK H PARENT 20 4 14 11 1 27 1 28 24 40 68 59 46 70
REMARK Flexibility Score: inf
ROOT
ATOM      1  C   UNL A   1      36.985  29.885  32.536  1.00  0.00     0.220 C 
ATOM      2  O   UNL A   1      37.157  28.701  32.831  1.00  0.00    -0.275 OA
ATOM      3  N   UNL A   1      37.314  30.828  33.461  1.00  0.00    -0.356 N 
ATOM      4  H   UNL A   1      37.744  30.474  34.272  1.00  0.00     0.163 HD
ENDROOT
BRANCH   1   5
ATOM      5  C   UNL A   1      36.428  30.274  31.183  1.00  0.00     0.102 C 
BRANCH   5   6
ATOM      6  C   UNL A   1      36.722  29.258  30.078  1.00  0.00     0.031 C 
BRANCH   6   7
ATOM      7  C   UNL A   1      36.144  29.592  28.707  1.00  0.00     0.116 C 
BRANCH   7   8
ATOM      8  N   UNL A   1      35.321  30.787  28.699  1.00  0.00    -0.351 N 
ATOM      9  C   UNL A   1      34.185  31.091  27.979  1.00  0.00     0.271 C 
ATOM     10  O   UNL A   1      33.696  32.206  28.167  1.00  0.00    -0.267 OA
ATOM     11  H   UNL A   1      35.625  31.499  29.306  1.00  0.00     0.163 HD
BRANCH   9  12
ATOM     12  C   UNL A   1      33.608  30.116  27.036  1.00  0.00     0.151 A 
ATOM     13  N   UNL A   1      32.988  28.203  26.279  1.00  0.00    -0.232 N 
ATOM     14  N   UNL A   1      33.507  28.814  27.370  1.00  0.00    -0.162 NA
ATOM     15  C   UNL A   1      32.527  29.128  25.353  1.00  0.00     0.075 A 
ATOM     16  C   UNL A   1      33.073  30.331  25.742  1.00  0.00     0.065 A 
BRANCH  13  17
ATOM     17  C   UNL A   1      32.924  26.788  26.186  1.00  0.00     0.065 A 
ATOM     18  C   UNL A   1      32.847  24.005  26.232  1.00  0.00     0.082 A 
ATOM     19  C   UNL A   1      31.702  24.729  26.567  1.00  0.00     0.024 A 
ATOM     20  C   UNL A   1      34.015  24.661  25.825  1.00  0.00     0.024 A 
ATOM     21  C   UNL A   1      31.744  26.120  26.553  1.00  0.00     0.030 A 
ATOM     22  C   UNL A   1      34.045  26.058  25.771  1.00  0.00     0.030 A 
BRANCH  18  23
ATOM     23  S   UNL A   1      32.842  22.245  26.397  1.00  0.00     0.238 S 
ATOM     24  O   UNL A   1      34.190  21.754  26.181  1.00  0.00    -0.207 OA
ATOM     25  O   UNL A   1      31.695  21.718  25.712  1.00  0.00    -0.207 OA
BRANCH  23  26
ATOM     26  N   UNL A   1      32.562  22.008  28.041  1.00  0.00    -0.225 NA
ATOM     27  H   UNL A   1      31.622  22.328  28.275  1.00  0.00     0.137 HD
ATOM     28  H   UNL A   1      33.246  22.536  28.582  1.00  0.00     0.137 HD
ENDBRANCH  23  26
ENDBRANCH  18  23
ENDBRANCH  13  17
BRANCH  15  29
ATOM     29  C   UNL A   1      31.517  28.878  24.327  1.00  0.00     0.000 A 
ATOM     30  C   UNL A   1      30.423  29.751  24.205  1.00  0.00     0.010 A 
ATOM     31  C   UNL A   1      31.649  27.820  23.423  1.00  0.00     0.010 A 
ATOM     32  C   UNL A   1      29.467  29.556  23.212  1.00  0.00     0.001 A 
ATOM     33  C   UNL A   1      30.689  27.627  22.428  1.00  0.00     0.001 A 
ATOM     34  C   UNL A   1      29.599  28.493  22.324  1.00  0.00     0.000 A 
ENDBRANCH  15  29
ENDBRANCH   9  12
ENDBRANCH   7   8
ENDBRANCH   6   7
ENDBRANCH   5   6
ENDBRANCH   1   5
BRANCH   3  35
ATOM     35  C   UNL A   1      37.138  32.274  33.451  1.00  0.00     0.117 C 
BRANCH  35  36
ATOM     36  C   UNL A   1      38.278  32.984  34.189  1.00  0.00     0.042 C 
BRANCH  36  37
ATOM     37  C   UNL A   1      39.577  33.010  33.403  1.00  0.00     0.118 C 
BRANCH  37  38
ATOM     38  N   UNL A   1      39.550  33.971  32.310  1.00  0.00    -0.352 N 
ATOM     39  C   UNL A   1      40.164  33.867  31.081  1.00  0.00     0.251 C 
ATOM     40  H   UNL A   1      39.032  34.794  32.468  1.00  0.00     0.163 HD
ATOM     41  O   UNL A   1      40.359  34.863  30.395  1.00  0.00    -0.269 OA
BRANCH  39  42
ATOM     42  C   UNL A   1      40.618  32.543  30.613  1.00  0.00     0.039 A 
ATOM     43  C   UNL A   1      41.982  32.250  30.577  1.00  0.00     0.014 A 
ATOM     44  C   UNL A   1      39.678  31.586  30.233  1.00  0.00     0.014 A 
ATOM     45  C   UNL A   1      42.389  30.962  30.242  1.00  0.00     0.010 A 
ATOM     46  C   UNL A   1      40.074  30.284  30.007  1.00  0.00     0.010 A 
ATOM     47  C   UNL A   1      41.431  29.967  29.986  1.00  0.00    -0.014 A 
BRANCH  47  48
ATOM     48  C   UNL A   1      41.863  28.578  29.823  1.00  0.00     0.031 A 
ATOM     49  C   UNL A   1      42.612  28.001  30.977  1.00  0.00     0.074 A 
ATOM     50  C   UNL A   1      41.467  27.764  28.822  1.00  0.00     0.049 A 
ATOM     51  N   UNL A   1      43.835  27.583  31.000  1.00  0.00    -0.248 NA
ATOM     52  C   UNL A   1      41.940  27.960  32.285  1.00  0.00     0.031 C 
ATOM     53  C   UNL A   1      40.476  28.029  27.776  1.00  0.00     0.029 A 
ATOM     54  N   UNL A   1      41.795  26.457  28.606  1.00  0.00    -0.354 N 
ATOM     55  C   UNL A   1      44.045  27.064  32.277  1.00  0.00     0.074 A 
ATOM     56  C   UNL A   1      42.898  27.448  33.061  1.00  0.00     0.031 C 
ATOM     57  C   UNL A   1      40.110  26.864  27.198  1.00  0.00     0.029 A 
ATOM     58  C   UNL A   1      40.961  25.805  27.709  1.00  0.00     0.049 A 
ATOM     59  H   UNL A   1      42.556  26.016  29.048  1.00  0.00     0.167 HD
ATOM     60  C   UNL A   1      45.044  26.173  32.533  1.00  0.00     0.031 A 
ATOM     61  C   UNL A   1      40.947  24.484  27.416  1.00  0.00     0.031 A 
ATOM     62  C   UNL A   1      46.014  26.137  31.469  1.00  0.00     0.049 A 
ATOM     63  C   UNL A   1      42.243  23.914  27.837  1.00  0.00     0.074 A 
ATOM     64  C   UNL A   1      46.861  27.052  30.877  1.00  0.00     0.029 A 
ATOM     65  N   UNL A   1      45.952  25.068  30.609  1.00  0.00    -0.354 N 
ATOM     66  N   UNL A   1      43.373  24.170  27.244  1.00  0.00    -0.248 NA
ATOM     67  C   UNL A   1      42.354  23.328  29.162  1.00  0.00     0.031 C 
ATOM     68  C   UNL A   1      46.885  26.692  29.498  1.00  0.00     0.029 A 
ATOM     69  C   UNL A   1      46.097  25.552  29.337  1.00  0.00     0.049 A 
ATOM     70  H   UNL A   1      45.826  24.125  30.861  1.00  0.00     0.167 HD
ATOM     71  C   UNL A   1      44.306  24.201  28.267  1.00  0.00     0.074 A 
ATOM     72  C   UNL A   1      43.653  23.539  29.391  1.00  0.00     0.031 C 
ATOM     73  C   UNL A   1      45.404  25.012  28.189  1.00  0.00     0.031 A 
BRANCH  60  74
ATOM     74  C   UNL A   1      44.930  25.038  33.528  1.00  0.00    -0.014 A 
ATOM     75  C   UNL A   1      44.156  23.912  33.178  1.00  0.00     0.009 A 
ATOM     76  C   UNL A   1      45.288  25.153  34.883  1.00  0.00     0.009 A 
ATOM     77  C   UNL A   1      43.681  23.019  34.147  1.00  0.00     0.001 A 
ATOM     78  C   UNL A   1      44.853  24.236  35.847  1.00  0.00     0.001 A 
ATOM     79  C   UNL A   1      44.020  23.189  35.483  1.00  0.00     0.000 A 
ENDBRANCH  60  74
BRANCH  61  80
ATOM     80  C   UNL A   1      39.833  23.634  26.950  1.00  0.00    -0.014 A 
ATOM     81  C   UNL A   1      38.602  24.205  26.592  1.00  0.00     0.009 A 
ATOM     82  C   UNL A   1      40.060  22.290  26.606  1.00  0.00     0.009 A 
ATOM     83  C   UNL A   1      37.651  23.469  25.873  1.00  0.00     0.001 A 
ATOM     84  C   UNL A   1      39.108  21.553  25.895  1.00  0.00     0.001 A 
ATOM     85  C   UNL A   1      37.911  22.150  25.512  1.00  0.00     0.000 A 
ENDBRANCH  61  80
BRANCH  73  86
ATOM     86  C   UNL A   1      45.750  25.613  26.850  1.00  0.00    -0.014 A 
ATOM     87  C   UNL A   1      45.157  26.787  26.353  1.00  0.00     0.009 A 
ATOM     88  C   UNL A   1      46.815  25.050  26.128  1.00  0.00     0.009 A 
ATOM     89  C   UNL A   1      45.592  27.355  25.152  1.00  0.00     0.001 A 
ATOM     90  C   UNL A   1      47.266  25.632  24.943  1.00  0.00     0.001 A 
ATOM     91  C   UNL A   1      46.648  26.779  24.450  1.00  0.00     0.000 A 
ENDBRANCH  73  86
ENDBRANCH  47  48
ENDBRANCH  39  42
ENDBRANCH  37  38
ENDBRANCH  36  37
ENDBRANCH  35  36
ENDBRANCH   3  35
TORSDOF 18
ENDMDL
