MODEL 1
REMARK VINA RESULT:     -10.2      0.000      0.000
REMARK SMILES COc1ncccc1CS(=O)(=O)[C@@H](C)CC(=O)NCCCNC(=O)c1ccc(-c2c3nc(c(-c4ccccc4)c4ccc([nH]4)c(-c4ccccc4)c4nc(c(-c5ccccc5)c5ccc2[nH]5)C=C4)C=C3)cc1
REMARK SMILES IDX 16 1 17 2 18 3 15 5 13 6 14 7 10 8 11 9 12 10 9 11 8 12 3 13
REMARK SMILES IDX 4 14 5 15 7 16 6 17 2 18 1 19 19 20 20 21 21 22 22 23 23 24
REMARK SMILES IDX 24 26 25 27 26 28 72 29 27 30 71 31 28 32 29 33 30 34 65 35
REMARK SMILES IDX 31 36 70 37 64 38 66 39 32 40 69 41 63 42 62 43 33 45 55 46
REMARK SMILES IDX 40 47 54 48 41 49 44 50 53 51 67 52 42 53 43 54 52 56 68 57
REMARK SMILES IDX 45 58 34 59 35 60 39 61 36 62 38 63 37 64 56 65 57 66 61 67
REMARK SMILES IDX 58 68 60 69 59 70 46 71 47 72 51 73 48 74 50 75 49 76
REMARK H PARENT 18 4 22 25 66 44 44 55
REMARK Flexibility Score: inf
ROOT
ATOM      1  C   UNL A   1      34.237  22.061  26.876  1.00  0.00     0.221 C 
ATOM      2  O   UNL A   1      34.132  22.556  28.005  1.00  0.00    -0.275 OA
ATOM      3  N   UNL A   1      35.496  21.760  26.486  1.00  0.00    -0.356 N 
ATOM      4  H   UNL A   1      36.190  22.074  27.110  1.00  0.00     0.163 HD
ENDROOT
BRANCH   1   5
ATOM      5  C   UNL A   1      32.973  21.777  26.078  1.00  0.00     0.119 C 
BRANCH   5   6
ATOM      6  C   UNL A   1      32.420  22.849  25.160  1.00  0.00     0.115 C 
ATOM      7  C   UNL A   1      33.421  23.136  24.020  1.00  0.00     0.025 C 
BRANCH   6   8
ATOM      8  S   UNL A   1      31.940  24.454  25.903  1.00  0.00     0.157 S 
ATOM      9  O   UNL A   1      31.440  24.110  27.230  1.00  0.00    -0.228 OA
ATOM     10  O   UNL A   1      31.022  25.110  24.984  1.00  0.00    -0.228 OA
BRANCH   8  11
ATOM     11  C   UNL A   1      33.255  25.637  26.206  1.00  0.00     0.178 C 
BRANCH  11  12
ATOM     12  C   UNL A   1      32.904  27.081  26.036  1.00  0.00     0.029 A 
ATOM     13  C   UNL A   1      33.316  27.831  24.927  1.00  0.00     0.217 A 
ATOM     14  N   UNL A   1      33.096  29.154  24.792  1.00  0.00    -0.222 NA
ATOM     15  C   UNL A   1      32.434  29.777  25.784  1.00  0.00     0.115 A 
ATOM     16  C   UNL A   1      32.208  27.767  27.037  1.00  0.00     0.012 A 
ATOM     17  C   UNL A   1      31.963  29.131  26.908  1.00  0.00     0.021 A 
BRANCH  13  18
ATOM     18  O   UNL A   1      33.936  27.176  23.881  1.00  0.00    -0.481 OA
ATOM     19  C   UNL A   1      33.119  27.122  22.707  1.00  0.00     0.280 C 
ENDBRANCH  13  18
ENDBRANCH  11  12
ENDBRANCH   8  11
ENDBRANCH   6   8
ENDBRANCH   5   6
ENDBRANCH   1   5
BRANCH   3  20
ATOM     20  C   UNL A   1      36.023  21.065  25.332  1.00  0.00     0.117 C 
BRANCH  20  21
ATOM     21  C   UNL A   1      37.300  21.670  24.766  1.00  0.00     0.042 C 
BRANCH  21  22
ATOM     22  C   UNL A   1      38.505  21.571  25.700  1.00  0.00     0.118 C 
BRANCH  22  23
ATOM     23  N   UNL A   1      39.287  20.342  25.582  1.00  0.00    -0.352 N 
ATOM     24  C   UNL A   1      40.567  20.025  25.997  1.00  0.00     0.251 C 
ATOM     25  H   UNL A   1      38.819  19.607  25.124  1.00  0.00     0.163 HD
ATOM     26  O   UNL A   1      41.020  18.908  25.807  1.00  0.00    -0.269 OA
BRANCH  24  27
ATOM     27  C   UNL A   1      41.428  21.078  26.580  1.00  0.00     0.039 A 
ATOM     28  C   UNL A   1      42.122  21.924  25.712  1.00  0.00     0.014 A 
ATOM     29  C   UNL A   1      41.445  21.315  27.949  1.00  0.00     0.014 A 
ATOM     30  C   UNL A   1      42.665  23.112  26.202  1.00  0.00     0.010 A 
ATOM     31  C   UNL A   1      41.861  22.555  28.412  1.00  0.00     0.010 A 
ATOM     32  C   UNL A   1      42.438  23.488  27.535  1.00  0.00    -0.014 A 
BRANCH  32  33
ATOM     33  C   UNL A   1      42.717  24.866  28.021  1.00  0.00     0.031 A 
ATOM     34  C   UNL A   1      44.100  25.246  28.471  1.00  0.00     0.074 A 
ATOM     35  C   UNL A   1      41.696  25.735  28.183  1.00  0.00     0.049 A 
ATOM     36  N   UNL A   1      44.500  26.338  29.073  1.00  0.00    -0.248 NA
ATOM     37  C   UNL A   1      45.163  24.250  28.263  1.00  0.00     0.031 C 
ATOM     38  C   UNL A   1      40.289  25.475  27.857  1.00  0.00     0.029 A 
ATOM     39  N   UNL A   1      41.681  27.016  28.678  1.00  0.00    -0.354 N 
ATOM     40  C   UNL A   1      45.846  26.139  29.351  1.00  0.00     0.074 A 
ATOM     41  C   UNL A   1      46.180  24.806  28.903  1.00  0.00     0.031 C 
ATOM     42  C   UNL A   1      39.562  26.572  28.118  1.00  0.00     0.029 A 
ATOM     43  C   UNL A   1      40.434  27.595  28.681  1.00  0.00     0.049 A 
ATOM     44  H   UNL A   1      42.490  27.477  29.001  1.00  0.00     0.167 HD
ATOM     45  C   UNL A   1      46.734  26.998  29.906  1.00  0.00     0.031 A 
ATOM     46  C   UNL A   1      40.032  28.810  29.099  1.00  0.00     0.031 A 
ATOM     47  C   UNL A   1      46.417  28.341  30.305  1.00  0.00     0.049 A 
ATOM     48  C   UNL A   1      41.040  29.754  29.692  1.00  0.00     0.074 A 
ATOM     49  C   UNL A   1      47.269  29.321  30.783  1.00  0.00     0.029 A 
ATOM     50  N   UNL A   1      45.149  28.895  30.263  1.00  0.00    -0.354 N 
ATOM     51  N   UNL A   1      42.325  29.576  29.875  1.00  0.00    -0.248 NA
ATOM     52  C   UNL A   1      40.541  31.062  30.138  1.00  0.00     0.031 C 
ATOM     53  C   UNL A   1      46.508  30.458  31.069  1.00  0.00     0.029 A 
ATOM     54  C   UNL A   1      45.189  30.197  30.731  1.00  0.00     0.049 A 
ATOM     55  H   UNL A   1      44.339  28.433  29.948  1.00  0.00     0.167 HD
ATOM     56  C   UNL A   1      42.791  30.754  30.443  1.00  0.00     0.074 A 
ATOM     57  C   UNL A   1      41.655  31.645  30.558  1.00  0.00     0.031 C 
ATOM     58  C   UNL A   1      44.048  31.067  30.839  1.00  0.00     0.031 A 
BRANCH  45  59
ATOM     59  C   UNL A   1      48.138  26.502  30.100  1.00  0.00    -0.014 A 
ATOM     60  C   UNL A   1      49.107  26.652  29.095  1.00  0.00     0.009 A 
ATOM     61  C   UNL A   1      48.503  25.891  31.310  1.00  0.00     0.009 A 
ATOM     62  C   UNL A   1      50.399  26.158  29.279  1.00  0.00     0.001 A 
ATOM     63  C   UNL A   1      49.804  25.424  31.501  1.00  0.00     0.001 A 
ATOM     64  C   UNL A   1      50.748  25.547  30.482  1.00  0.00     0.000 A 
ENDBRANCH  45  59
BRANCH  46  65
ATOM     65  C   UNL A   1      38.608  29.217  28.962  1.00  0.00    -0.014 A 
ATOM     66  C   UNL A   1      37.731  29.086  30.050  1.00  0.00     0.009 A 
ATOM     67  C   UNL A   1      38.117  29.725  27.750  1.00  0.00     0.009 A 
ATOM     68  C   UNL A   1      36.384  29.433  29.918  1.00  0.00     0.001 A 
ATOM     69  C   UNL A   1      36.776  30.094  27.630  1.00  0.00     0.001 A 
ATOM     70  C   UNL A   1      35.909  29.941  28.710  1.00  0.00     0.000 A 
ENDBRANCH  46  65
BRANCH  58  71
ATOM     71  C   UNL A   1      44.265  32.433  31.420  1.00  0.00    -0.014 A 
ATOM     72  C   UNL A   1      44.554  33.529  30.595  1.00  0.00     0.009 A 
ATOM     73  C   UNL A   1      44.118  32.636  32.801  1.00  0.00     0.009 A 
ATOM     74  C   UNL A   1      44.708  34.802  31.144  1.00  0.00     0.001 A 
ATOM     75  C   UNL A   1      44.250  33.914  33.344  1.00  0.00     0.001 A 
ATOM     76  C   UNL A   1      44.549  34.994  32.517  1.00  0.00     0.000 A 
ENDBRANCH  58  71
ENDBRANCH  32  33
ENDBRANCH  24  27
ENDBRANCH  22  23
ENDBRANCH  21  22
ENDBRANCH  20  21
ENDBRANCH   3  20
TORSDOF 15
ENDMDL
MODEL 2
REMARK VINA RESULT:     -10.0      1.394      7.535
REMARK SMILES COc1ncccc1CS(=O)(=O)[C@@H](C)CC(=O)NCCCNC(=O)c1ccc(-c2c3nc(c(-c4ccccc4)c4ccc([nH]4)c(-c4ccccc4)c4nc(c(-c5ccccc5)c5ccc2[nH]5)C=C4)C=C3)cc1
REMARK SMILES IDX 16 1 17 2 18 3 15 5 13 6 14 7 10 8 11 9 12 10 9 11 8 12 3 13
REMARK SMILES IDX 4 14 5 15 7 16 6 17 2 18 1 19 19 20 20 21 21 22 22 23 23 24
REMARK SMILES IDX 24 26 25 27 26 28 72 29 27 30 71 31 28 32 29 33 30 34 65 35
REMARK SMILES IDX 31 36 70 37 64 38 66 39 32 40 69 41 63 42 62 43 33 45 55 46
REMARK SMILES IDX 40 47 54 48 41 49 44 50 53 51 67 52 42 53 43 54 52 56 68 57
REMARK SMILES IDX 45 58 34 59 35 60 39 61 36 62 38 63 37 64 56 65 57 66 61 67
REMARK SMILES IDX 58 68 60 69 59 70 46 71 47 72 51 73 48 74 50 75 49 76
REMARK H PARENT 18 4 22 25 66 44 44 55
REMARK Flexibility Score: inf
ROOT
ATOM      1  C   UNL A   1      32.825  26.646  24.728  1.00  0.00     0.221 C 
ATOM      2  O   UNL A   1      33.956  26.345  24.327  1.00  0.00    -0.275 OA
ATOM      3  N   UNL A   1      32.716  27.861  25.311  1.00  0.00    -0.356 N 
ATOM      4  H   UNL A   1      33.580  28.315  25.444  1.00  0.00     0.163 HD
ENDROOT
BRANCH   1   5
ATOM      5  C   UNL A   1      31.675  25.682  24.473  1.00  0.00     0.119 C 
BRANCH   5   6
ATOM      6  C   UNL A   1      31.890  24.198  24.692  1.00  0.00     0.115 C 
ATOM      7  C   UNL A   1      31.107  23.389  23.635  1.00  0.00     0.025 C 
BRANCH   6   8
ATOM      8  S   UNL A   1      31.490  23.505  26.341  1.00  0.00     0.157 S 
ATOM      9  O   UNL A   1      30.507  22.462  26.073  1.00  0.00    -0.228 OA
ATOM     10  O   UNL A   1      31.086  24.610  27.198  1.00  0.00    -0.228 OA
BRANCH   8  11
ATOM     11  C   UNL A   1      32.814  22.668  27.216  1.00  0.00     0.178 C 
BRANCH  11  12
ATOM     12  C   UNL A   1      34.031  22.327  26.414  1.00  0.00     0.029 A 
ATOM     13  C   UNL A   1      34.198  21.084  25.790  1.00  0.00     0.217 A 
ATOM     14  N   UNL A   1      35.320  20.714  25.142  1.00  0.00    -0.222 NA
ATOM     15  C   UNL A   1      36.329  21.603  25.093  1.00  0.00     0.115 A 
ATOM     16  C   UNL A   1      35.100  23.225  26.327  1.00  0.00     0.012 A 
ATOM     17  C   UNL A   1      36.262  22.863  25.653  1.00  0.00     0.021 A 
BRANCH  13  18
ATOM     18  O   UNL A   1      33.136  20.201  25.786  1.00  0.00    -0.481 OA
ATOM     19  C   UNL A   1      32.570  20.032  24.482  1.00  0.00     0.280 C 
ENDBRANCH  13  18
ENDBRANCH  11  12
ENDBRANCH   8  11
ENDBRANCH   6   8
ENDBRANCH   5   6
ENDBRANCH   1   5
BRANCH   3  20
ATOM     20  C   UNL A   1      31.580  28.624  25.778  1.00  0.00     0.117 C 
BRANCH  20  21
ATOM     21  C   UNL A   1      31.945  29.856  26.595  1.00  0.00     0.042 C 
BRANCH  21  22
ATOM     22  C   UNL A   1      33.409  29.906  27.027  1.00  0.00     0.118 C 
BRANCH  22  23
ATOM     23  N   UNL A   1      33.759  31.011  27.917  1.00  0.00    -0.352 N 
ATOM     24  C   UNL A   1      34.912  31.286  28.630  1.00  0.00     0.251 C 
ATOM     25  H   UNL A   1      33.047  31.681  28.030  1.00  0.00     0.163 HD
ATOM     26  O   UNL A   1      34.994  32.297  29.307  1.00  0.00    -0.269 OA
BRANCH  24  27
ATOM     27  C   UNL A   1      36.010  30.294  28.654  1.00  0.00     0.039 A 
ATOM     28  C   UNL A   1      36.855  30.211  27.545  1.00  0.00     0.014 A 
ATOM     29  C   UNL A   1      36.285  29.556  29.799  1.00  0.00     0.014 A 
ATOM     30  C   UNL A   1      38.073  29.543  27.660  1.00  0.00     0.010 A 
ATOM     31  C   UNL A   1      37.552  29.012  29.960  1.00  0.00     0.010 A 
ATOM     32  C   UNL A   1      38.478  29.037  28.905  1.00  0.00    -0.014 A 
BRANCH  32  33
ATOM     33  C   UNL A   1      39.878  28.602  29.159  1.00  0.00     0.031 A 
ATOM     34  C   UNL A   1      40.877  29.562  29.744  1.00  0.00     0.074 A 
ATOM     35  C   UNL A   1      40.285  27.384  28.738  1.00  0.00     0.049 A 
ATOM     36  N   UNL A   1      42.170  29.421  29.886  1.00  0.00    -0.248 NA
ATOM     37  C   UNL A   1      40.362  30.870  30.180  1.00  0.00     0.031 C 
ATOM     38  C   UNL A   1      39.440  26.376  28.087  1.00  0.00     0.029 A 
ATOM     39  N   UNL A   1      41.522  26.789  28.785  1.00  0.00    -0.354 N 
ATOM     40  C   UNL A   1      42.625  30.634  30.386  1.00  0.00     0.074 A 
ATOM     41  C   UNL A   1      41.482  31.514  30.471  1.00  0.00     0.031 C 
ATOM     42  C   UNL A   1      40.171  25.279  27.838  1.00  0.00     0.029 A 
ATOM     43  C   UNL A   1      41.545  25.519  28.257  1.00  0.00     0.049 A 
ATOM     44  H   UNL A   1      42.317  27.230  29.161  1.00  0.00     0.167 HD
ATOM     45  C   UNL A   1      43.878  30.978  30.767  1.00  0.00     0.031 A 
ATOM     46  C   UNL A   1      42.561  24.646  28.116  1.00  0.00     0.031 A 
ATOM     47  C   UNL A   1      45.006  30.089  30.731  1.00  0.00     0.049 A 
ATOM     48  C   UNL A   1      43.939  25.045  28.565  1.00  0.00     0.074 A 
ATOM     49  C   UNL A   1      46.293  30.313  31.189  1.00  0.00     0.029 A 
ATOM     50  N   UNL A   1      44.979  28.804  30.216  1.00  0.00    -0.354 N 
ATOM     51  N   UNL A   1      44.334  26.169  29.108  1.00  0.00    -0.248 NA
ATOM     52  C   UNL A   1      45.009  24.054  28.378  1.00  0.00     0.031 C 
ATOM     53  C   UNL A   1      47.056  29.174  30.914  1.00  0.00     0.029 A 
ATOM     54  C   UNL A   1      46.233  28.229  30.321  1.00  0.00     0.049 A 
ATOM     55  H   UNL A   1      44.186  28.365  29.833  1.00  0.00     0.167 HD
ATOM     56  C   UNL A   1      45.694  26.017  29.342  1.00  0.00     0.074 A 
ATOM     57  C   UNL A   1      46.052  24.685  28.899  1.00  0.00     0.031 C 
ATOM     58  C   UNL A   1      46.570  26.904  29.873  1.00  0.00     0.031 A 
BRANCH  45  59
ATOM     59  C   UNL A   1      44.083  32.380  31.264  1.00  0.00    -0.014 A 
ATOM     60  C   UNL A   1      44.365  33.431  30.376  1.00  0.00     0.009 A 
ATOM     61  C   UNL A   1      43.978  32.658  32.636  1.00  0.00     0.009 A 
ATOM     62  C   UNL A   1      44.584  34.723  30.857  1.00  0.00     0.001 A 
ATOM     63  C   UNL A   1      44.169  33.957  33.110  1.00  0.00     0.001 A 
ATOM     64  C   UNL A   1      44.483  34.986  32.223  1.00  0.00     0.000 A 
ENDBRANCH  45  59
BRANCH  46  65
ATOM     65  C   UNL A   1      42.318  23.300  27.534  1.00  0.00    -0.014 A 
ATOM     66  C   UNL A   1      42.584  23.060  26.177  1.00  0.00     0.009 A 
ATOM     67  C   UNL A   1      41.811  22.256  28.322  1.00  0.00     0.009 A 
ATOM     68  C   UNL A   1      42.325  21.808  25.616  1.00  0.00     0.001 A 
ATOM     69  C   UNL A   1      41.577  20.998  27.763  1.00  0.00     0.001 A 
ATOM     70  C   UNL A   1      41.825  20.777  26.410  1.00  0.00     0.000 A 
ENDBRANCH  46  65
BRANCH  58  71
ATOM     71  C   UNL A   1      47.996  26.460  30.016  1.00  0.00    -0.014 A 
ATOM     72  C   UNL A   1      48.442  25.841  31.192  1.00  0.00     0.009 A 
ATOM     73  C   UNL A   1      48.884  26.608  28.939  1.00  0.00     0.009 A 
ATOM     74  C   UNL A   1      49.759  25.391  31.293  1.00  0.00     0.001 A 
ATOM     75  C   UNL A   1      50.194  26.138  29.037  1.00  0.00     0.001 A 
ATOM     76  C   UNL A   1      50.631  25.534  30.214  1.00  0.00     0.000 A 
ENDBRANCH  58  71
ENDBRANCH  32  33
ENDBRANCH  24  27
ENDBRANCH  22  23
ENDBRANCH  21  22
ENDBRANCH  20  21
ENDBRANCH   3  20
TORSDOF 15
ENDMDL
MODEL 3
REMARK VINA RESULT:     -10.0      2.642      8.406
REMARK SMILES COc1ncccc1CS(=O)(=O)[C@@H](C)CC(=O)NCCCNC(=O)c1ccc(-c2c3nc(c(-c4ccccc4)c4ccc([nH]4)c(-c4ccccc4)c4nc(c(-c5ccccc5)c5ccc2[nH]5)C=C4)C=C3)cc1
REMARK SMILES IDX 16 1 17 2 18 3 15 5 13 6 14 7 10 8 11 9 12 10 9 11 8 12 3 13
REMARK SMILES IDX 4 14 5 15 7 16 6 17 2 18 1 19 19 20 20 21 21 22 22 23 23 24
REMARK SMILES IDX 24 26 25 27 26 28 72 29 27 30 71 31 28 32 29 33 30 34 65 35
REMARK SMILES IDX 31 36 70 37 64 38 66 39 32 40 69 41 63 42 62 43 33 45 55 46
REMARK SMILES IDX 40 47 54 48 41 49 44 50 53 51 67 52 42 53 43 54 52 56 68 57
REMARK SMILES IDX 45 58 34 59 35 60 39 61 36 62 38 63 37 64 56 65 57 66 61 67
REMARK SMILES IDX 58 68 60 69 59 70 46 71 47 72 51 73 48 74 50 75 49 76
REMARK H PARENT 18 4 22 25 66 44 44 55
REMARK Flexibility Score: inf
ROOT
ATOM      1  C   UNL A   1      30.973  28.585  23.412  1.00  0.00     0.221 C 
ATOM      2  O   UNL A   1      30.571  28.700  22.248  1.00  0.00    -0.275 OA
ATOM      3  N   UNL A   1      31.112  29.741  24.098  1.00  0.00    -0.356 N 
ATOM      4  H   UNL A   1      30.979  30.546  23.548  1.00  0.00     0.163 HD
ENDROOT
BRANCH   1   5
ATOM      5  C   UNL A   1      31.200  27.189  23.976  1.00  0.00     0.119 C 
BRANCH   5   6
ATOM      6  C   UNL A   1      31.470  26.041  23.024  1.00  0.00     0.115 C 
ATOM      7  C   UNL A   1      30.678  24.791  23.465  1.00  0.00     0.025 C 
BRANCH   6   8
ATOM      8  S   UNL A   1      33.212  25.537  22.759  1.00  0.00     0.157 S 
ATOM      9  O   UNL A   1      33.939  26.121  23.880  1.00  0.00    -0.228 OA
ATOM     10  O   UNL A   1      33.593  25.952  21.417  1.00  0.00    -0.228 OA
BRANCH   8  11
ATOM     11  C   UNL A   1      33.574  23.781  22.847  1.00  0.00     0.178 C 
BRANCH  11  12
ATOM     12  C   UNL A   1      34.623  23.366  23.831  1.00  0.00     0.029 A 
ATOM     13  C   UNL A   1      34.363  23.241  25.201  1.00  0.00     0.217 A 
ATOM     14  N   UNL A   1      35.307  22.960  26.122  1.00  0.00    -0.222 NA
ATOM     15  C   UNL A   1      36.567  22.785  25.684  1.00  0.00     0.115 A 
ATOM     16  C   UNL A   1      35.944  23.162  23.418  1.00  0.00     0.012 A 
ATOM     17  C   UNL A   1      36.929  22.862  24.354  1.00  0.00     0.021 A 
BRANCH  13  18
ATOM     18  O   UNL A   1      33.058  23.356  25.638  1.00  0.00    -0.481 OA
ATOM     19  C   UNL A   1      32.808  22.593  26.823  1.00  0.00     0.280 C 
ENDBRANCH  13  18
ENDBRANCH  11  12
ENDBRANCH   8  11
ENDBRANCH   6   8
ENDBRANCH   5   6
ENDBRANCH   1   5
BRANCH   3  20
ATOM     20  C   UNL A   1      31.417  30.026  25.484  1.00  0.00     0.117 C 
BRANCH  20  21
ATOM     21  C   UNL A   1      32.904  30.038  25.807  1.00  0.00     0.042 C 
BRANCH  21  22
ATOM     22  C   UNL A   1      33.252  30.741  27.118  1.00  0.00     0.118 C 
BRANCH  22  23
ATOM     23  N   UNL A   1      32.633  32.051  27.306  1.00  0.00    -0.352 N 
ATOM     24  C   UNL A   1      33.098  33.208  27.904  1.00  0.00     0.251 C 
ATOM     25  H   UNL A   1      31.721  32.124  26.943  1.00  0.00     0.163 HD
ATOM     26  O   UNL A   1      32.404  34.212  27.931  1.00  0.00    -0.269 OA
BRANCH  24  27
ATOM     27  C   UNL A   1      34.399  33.196  28.607  1.00  0.00     0.039 A 
ATOM     28  C   UNL A   1      34.448  32.689  29.907  1.00  0.00     0.014 A 
ATOM     29  C   UNL A   1      35.572  33.550  27.951  1.00  0.00     0.014 A 
ATOM     30  C   UNL A   1      35.681  32.356  30.468  1.00  0.00     0.010 A 
ATOM     31  C   UNL A   1      36.785  33.093  28.448  1.00  0.00     0.010 A 
ATOM     32  C   UNL A   1      36.849  32.451  29.695  1.00  0.00    -0.014 A 
BRANCH  32  33
ATOM     33  C   UNL A   1      38.127  31.824  30.124  1.00  0.00     0.031 A 
ATOM     34  C   UNL A   1      39.065  32.561  31.040  1.00  0.00     0.074 A 
ATOM     35  C   UNL A   1      38.507  30.646  29.583  1.00  0.00     0.049 A 
ATOM     36  N   UNL A   1      40.287  32.252  31.392  1.00  0.00    -0.248 NA
ATOM     37  C   UNL A   1      38.585  33.838  31.593  1.00  0.00     0.031 C 
ATOM     38  C   UNL A   1      37.730  29.854  28.623  1.00  0.00     0.029 A 
ATOM     39  N   UNL A   1      39.655  29.911  29.753  1.00  0.00    -0.354 N 
ATOM     40  C   UNL A   1      40.732  33.313  32.169  1.00  0.00     0.074 A 
ATOM     41  C   UNL A   1      39.673  34.296  32.192  1.00  0.00     0.031 C 
ATOM     42  C   UNL A   1      38.401  28.731  28.328  1.00  0.00     0.029 A 
ATOM     43  C   UNL A   1      39.678  28.743  29.028  1.00  0.00     0.049 A 
ATOM     44  H   UNL A   1      40.393  30.195  30.341  1.00  0.00     0.167 HD
ATOM     45  C   UNL A   1      41.907  33.448  32.828  1.00  0.00     0.031 A 
ATOM     46  C   UNL A   1      40.625  27.791  28.929  1.00  0.00     0.031 A 
ATOM     47  C   UNL A   1      42.941  32.451  32.849  1.00  0.00     0.049 A 
ATOM     48  C   UNL A   1      41.913  27.954  29.687  1.00  0.00     0.074 A 
ATOM     49  C   UNL A   1      44.123  32.451  33.568  1.00  0.00     0.029 A 
ATOM     50  N   UNL A   1      42.910  31.271  32.124  1.00  0.00    -0.354 N 
ATOM     51  N   UNL A   1      42.283  28.929  30.479  1.00  0.00    -0.248 NA
ATOM     52  C   UNL A   1      42.911  26.886  29.532  1.00  0.00     0.031 C 
ATOM     53  C   UNL A   1      44.828  31.287  33.246  1.00  0.00     0.029 A 
ATOM     54  C   UNL A   1      44.065  30.546  32.358  1.00  0.00     0.049 A 
ATOM     55  H   UNL A   1      42.177  30.990  31.531  1.00  0.00     0.167 HD
ATOM     56  C   UNL A   1      43.551  28.586  30.930  1.00  0.00     0.074 A 
ATOM     57  C   UNL A   1      43.878  27.305  30.338  1.00  0.00     0.031 C 
ATOM     58  C   UNL A   1      44.373  29.275  31.758  1.00  0.00     0.031 A 
BRANCH  45  59
ATOM     59  C   UNL A   1      42.124  34.724  33.589  1.00  0.00    -0.014 A 
ATOM     60  C   UNL A   1      41.677  34.865  34.913  1.00  0.00     0.009 A 
ATOM     61  C   UNL A   1      42.797  35.796  32.981  1.00  0.00     0.009 A 
ATOM     62  C   UNL A   1      41.859  36.068  35.596  1.00  0.00     0.001 A 
ATOM     63  C   UNL A   1      43.002  36.988  33.678  1.00  0.00     0.001 A 
ATOM     64  C   UNL A   1      42.523  37.127  34.980  1.00  0.00     0.000 A 
ENDBRANCH  45  59
BRANCH  46  65
ATOM     65  C   UNL A   1      40.391  26.587  28.089  1.00  0.00    -0.014 A 
ATOM     66  C   UNL A   1      40.962  26.498  26.810  1.00  0.00     0.009 A 
ATOM     67  C   UNL A   1      39.594  25.529  28.552  1.00  0.00     0.009 A 
ATOM     68  C   UNL A   1      40.719  25.385  26.001  1.00  0.00     0.001 A 
ATOM     69  C   UNL A   1      39.373  24.407  27.750  1.00  0.00     0.001 A 
ATOM     70  C   UNL A   1      39.928  24.339  26.474  1.00  0.00     0.000 A 
ENDBRANCH  46  65
BRANCH  58  71
ATOM     71  C   UNL A   1      45.698  28.652  32.083  1.00  0.00    -0.014 A 
ATOM     72  C   UNL A   1      46.835  28.935  31.313  1.00  0.00     0.009 A 
ATOM     73  C   UNL A   1      45.822  27.823  33.209  1.00  0.00     0.009 A 
ATOM     74  C   UNL A   1      48.071  28.385  31.655  1.00  0.00     0.001 A 
ATOM     75  C   UNL A   1      47.064  27.293  33.561  1.00  0.00     0.001 A 
ATOM     76  C   UNL A   1      48.186  27.570  32.782  1.00  0.00     0.000 A 
ENDBRANCH  58  71
ENDBRANCH  32  33
ENDBRANCH  24  27
ENDBRANCH  22  23
ENDBRANCH  21  22
ENDBRANCH  20  21
ENDBRANCH   3  20
TORSDOF 15
ENDMDL
