MODEL 1
REMARK VINA RESULT:     -11.9      0.000      0.000
REMARK SMILES O=C(NCCCNC(=O)C1(NC(=O)c2ccncc2Cl)CCCCC1)c1ccc(-c2c3nc(c(-c4ccccc4)c4ccc([nH]4)c(-c4ccccc4)c4nc(c(-c5ccccc5)c5ccc2[nH]5)C=C4)C=C3)cc1
REMARK SMILES IDX 5 1 4 2 3 3 1 4 2 5 26 7 27 8 73 9 28 10 72 11 29 12 30 13
REMARK SMILES IDX 31 14 66 15 32 16 71 17 65 18 67 19 33 20 70 21 64 22 63 23
REMARK SMILES IDX 34 25 56 26 41 27 55 28 42 29 45 30 54 31 68 32 43 33 44 34
REMARK SMILES IDX 53 36 69 37 46 38 35 39 36 40 40 41 37 42 39 43 38 44 57 45
REMARK SMILES IDX 58 46 62 47 59 48 61 49 60 50 47 51 48 52 52 53 49 54 51 55
REMARK SMILES IDX 50 56 6 57 7 58 8 59 9 61 10 62 21 63 25 64 22 65 24 66
REMARK SMILES IDX 23 67 11 68 12 69 13 71 14 72 15 73 19 74 16 75 18 76 20 77
REMARK SMILES IDX 17 78
REMARK H PARENT 3 6 67 24 45 35 7 60 11 70
REMARK Flexibility Score: inf
ROOT
ATOM      1  C   UNL A   1      37.788  20.019  24.884  1.00  0.00     0.042 C 
ENDROOT
BRANCH   1   2
ATOM      2  C   UNL A   1      38.981  20.308  25.782  1.00  0.00     0.118 C 
BRANCH   2   3
ATOM      3  N   UNL A   1      39.970  19.252  25.809  1.00  0.00    -0.352 N 
ATOM      4  O   UNL A   1      42.031  18.356  25.961  1.00  0.00    -0.269 OA
ATOM      5  C   UNL A   1      41.318  19.341  26.069  1.00  0.00     0.251 C 
ATOM      6  H   UNL A   1      39.632  18.348  25.615  1.00  0.00     0.163 HD
BRANCH   5   7
ATOM      7  C   UNL A   1      41.915  20.641  26.459  1.00  0.00     0.039 A 
ATOM      8  C   UNL A   1      42.318  21.575  25.499  1.00  0.00     0.014 A 
ATOM      9  C   UNL A   1      42.005  20.950  27.818  1.00  0.00     0.014 A 
ATOM     10  C   UNL A   1      42.861  22.798  25.905  1.00  0.00     0.010 A 
ATOM     11  C   UNL A   1      42.512  22.189  28.221  1.00  0.00     0.010 A 
ATOM     12  C   UNL A   1      42.943  23.127  27.269  1.00  0.00    -0.014 A 
BRANCH  12  13
ATOM     13  C   UNL A   1      43.363  24.488  27.701  1.00  0.00     0.031 A 
ATOM     14  C   UNL A   1      42.354  25.546  28.060  1.00  0.00     0.074 A 
ATOM     15  C   UNL A   1      44.677  24.790  27.702  1.00  0.00     0.049 A 
ATOM     16  N   UNL A   1      42.556  26.802  28.373  1.00  0.00    -0.248 NA
ATOM     17  C   UNL A   1      40.939  25.147  28.060  1.00  0.00     0.031 C 
ATOM     18  C   UNL A   1      45.756  23.862  27.355  1.00  0.00     0.029 A 
ATOM     19  N   UNL A   1      45.329  25.965  27.985  1.00  0.00    -0.354 N 
ATOM     20  C   UNL A   1      41.297  27.350  28.586  1.00  0.00     0.074 A 
ATOM     21  C   UNL A   1      40.335  26.291  28.356  1.00  0.00     0.031 C 
ATOM     22  C   UNL A   1      46.932  24.500  27.451  1.00  0.00     0.029 A 
ATOM     23  C   UNL A   1      46.691  25.894  27.805  1.00  0.00     0.049 A 
ATOM     24  H   UNL A   1      44.867  26.780  28.286  1.00  0.00     0.167 HD
ATOM     25  C   UNL A   1      40.975  28.618  28.940  1.00  0.00     0.031 A 
ATOM     26  C   UNL A   1      47.639  26.846  27.877  1.00  0.00     0.031 A 
ATOM     27  C   UNL A   1      41.934  29.669  29.171  1.00  0.00     0.049 A 
ATOM     28  C   UNL A   1      47.244  28.255  28.218  1.00  0.00     0.074 A 
ATOM     29  C   UNL A   1      41.702  30.963  29.608  1.00  0.00     0.029 A 
ATOM     30  N   UNL A   1      43.299  29.557  28.966  1.00  0.00    -0.354 N 
ATOM     31  N   UNL A   1      46.057  28.733  28.504  1.00  0.00    -0.248 NA
ATOM     32  C   UNL A   1      48.319  29.258  28.244  1.00  0.00     0.031 C 
ATOM     33  C   UNL A   1      42.916  31.655  29.596  1.00  0.00     0.029 A 
ATOM     34  C   UNL A   1      43.914  30.773  29.216  1.00  0.00     0.049 A 
ATOM     35  H   UNL A   1      43.764  28.736  28.685  1.00  0.00     0.167 HD
ATOM     36  C   UNL A   1      46.245  30.085  28.758  1.00  0.00     0.074 A 
ATOM     37  C   UNL A   1      47.662  30.346  28.620  1.00  0.00     0.031 C 
ATOM     38  C   UNL A   1      45.323  31.026  29.070  1.00  0.00     0.031 A 
BRANCH  25  39
ATOM     39  C   UNL A   1      39.519  28.973  29.074  1.00  0.00    -0.014 A 
ATOM     40  C   UNL A   1      38.767  29.409  27.974  1.00  0.00     0.009 A 
ATOM     41  C   UNL A   1      38.867  28.763  30.301  1.00  0.00     0.009 A 
ATOM     42  C   UNL A   1      37.396  29.646  28.104  1.00  0.00     0.001 A 
ATOM     43  C   UNL A   1      37.492  28.976  30.422  1.00  0.00     0.001 A 
ATOM     44  C   UNL A   1      36.759  29.423  29.325  1.00  0.00     0.000 A 
ENDBRANCH  25  39
BRANCH  26  45
ATOM     45  C   UNL A   1      49.055  26.514  27.565  1.00  0.00    -0.014 A 
ATOM     46  C   UNL A   1      49.547  26.622  26.255  1.00  0.00     0.009 A 
ATOM     47  C   UNL A   1      49.917  26.065  28.577  1.00  0.00     0.009 A 
ATOM     48  C   UNL A   1      50.862  26.256  25.962  1.00  0.00     0.001 A 
ATOM     49  C   UNL A   1      51.242  25.734  28.288  1.00  0.00     0.001 A 
ATOM     50  C   UNL A   1      51.710  25.817  26.978  1.00  0.00     0.000 A 
ENDBRANCH  26  45
BRANCH  38  51
ATOM     51  C   UNL A   1      45.818  32.426  29.300  1.00  0.00    -0.014 A 
ATOM     52  C   UNL A   1      45.873  33.358  28.251  1.00  0.00     0.009 A 
ATOM     53  C   UNL A   1      46.190  32.833  30.592  1.00  0.00     0.009 A 
ATOM     54  C   UNL A   1      46.314  34.661  28.487  1.00  0.00     0.001 A 
ATOM     55  C   UNL A   1      46.602  34.145  30.830  1.00  0.00     0.001 A 
ATOM     56  C   UNL A   1      46.671  35.055  29.777  1.00  0.00     0.000 A 
ENDBRANCH  38  51
ENDBRANCH  12  13
ENDBRANCH   5   7
ENDBRANCH   2   3
ENDBRANCH   1   2
BRANCH   1  57
ATOM     57  C   UNL A   1      36.540  20.910  24.938  1.00  0.00     0.117 C 
BRANCH  57  58
ATOM     58  N   UNL A   1      35.866  21.223  26.201  1.00  0.00    -0.354 N 
ATOM     59  C   UNL A   1      34.638  21.743  26.572  1.00  0.00     0.245 C 
ATOM     60  H   UNL A   1      36.429  21.011  26.981  1.00  0.00     0.163 HD
ATOM     61  O   UNL A   1      34.257  21.562  27.733  1.00  0.00    -0.272 OA
BRANCH  59  62
ATOM     62  C   UNL A   1      33.710  22.396  25.545  1.00  0.00     0.119 C 
ATOM     63  C   UNL A   1      34.625  23.566  25.033  1.00  0.00     0.038 C 
ATOM     64  C   UNL A   1      33.286  21.533  24.329  1.00  0.00     0.038 C 
ATOM     65  C   UNL A   1      34.230  24.303  23.766  1.00  0.00     0.003 C 
ATOM     66  C   UNL A   1      32.845  22.363  23.102  1.00  0.00     0.003 C 
ATOM     67  C   UNL A   1      33.928  23.332  22.647  1.00  0.00     0.000 C 
BRANCH  62  68
ATOM     68  N   UNL A   1      32.519  22.791  26.317  1.00  0.00    -0.338 N 
ATOM     69  C   UNL A   1      31.683  23.893  26.389  1.00  0.00     0.253 C 
ATOM     70  H   UNL A   1      32.245  22.085  26.947  1.00  0.00     0.164 HD
ATOM     71  O   UNL A   1      30.887  23.793  27.341  1.00  0.00    -0.269 OA
BRANCH  69  72
ATOM     72  C   UNL A   1      31.532  25.183  25.586  1.00  0.00     0.061 A 
ATOM     73  C   UNL A   1      31.869  26.296  26.404  1.00  0.00     0.035 A 
ATOM     74  C   UNL A   1      30.912  25.535  24.369  1.00  0.00     0.072 A 
ATOM     75  C   UNL A   1      31.584  27.606  26.033  1.00  0.00     0.112 A 
ATOM     76  C   UNL A   1      30.717  26.898  24.067  1.00  0.00     0.132 A 
ATOM     77  Cl  UNL A   1      30.125  24.584  23.184  1.00  0.00    -0.082 Cl
ATOM     78  N   UNL A   1      31.026  27.934  24.866  1.00  0.00    -0.263 NA
ENDBRANCH  69  72
ENDBRANCH  62  68
ENDBRANCH  59  62
ENDBRANCH  57  58
ENDBRANCH   1  57
TORSDOF 12
ENDMDL
MODEL 2
REMARK VINA RESULT:     -11.7      1.124      6.045
REMARK SMILES O=C(NCCCNC(=O)C1(NC(=O)c2ccncc2Cl)CCCCC1)c1ccc(-c2c3nc(c(-c4ccccc4)c4ccc([nH]4)c(-c4ccccc4)c4nc(c(-c5ccccc5)c5ccc2[nH]5)C=C4)C=C3)cc1
REMARK SMILES IDX 5 1 4 2 3 3 1 4 2 5 26 7 27 8 73 9 28 10 72 11 29 12 30 13
REMARK SMILES IDX 31 14 66 15 32 16 71 17 65 18 67 19 33 20 70 21 64 22 63 23
REMARK SMILES IDX 34 25 56 26 41 27 55 28 42 29 45 30 54 31 68 32 43 33 44 34
REMARK SMILES IDX 53 36 69 37 46 38 35 39 36 40 40 41 37 42 39 43 38 44 57 45
REMARK SMILES IDX 58 46 62 47 59 48 61 49 60 50 47 51 48 52 52 53 49 54 51 55
REMARK SMILES IDX 50 56 6 57 7 58 8 59 9 61 10 62 21 63 25 64 22 65 24 66
REMARK SMILES IDX 23 67 11 68 12 69 13 71 14 72 15 73 19 74 16 75 18 76 20 77
REMARK SMILES IDX 17 78
REMARK H PARENT 3 6 67 24 45 35 7 60 11 70
REMARK Flexibility Score: inf
ROOT
ATOM      1  C   UNL A   1      37.719  19.984  24.889  1.00  0.00     0.042 C 
ENDROOT
BRANCH   1   2
ATOM      2  C   UNL A   1      38.920  20.391  25.729  1.00  0.00     0.118 C 
BRANCH   2   3
ATOM      3  N   UNL A   1      39.963  19.390  25.793  1.00  0.00    -0.352 N 
ATOM      4  O   UNL A   1      42.060  18.605  26.037  1.00  0.00    -0.269 OA
ATOM      5  C   UNL A   1      41.290  19.549  26.120  1.00  0.00     0.251 C 
ATOM      6  H   UNL A   1      39.684  18.471  25.574  1.00  0.00     0.163 HD
BRANCH   5   7
ATOM      7  C   UNL A   1      41.795  20.873  26.552  1.00  0.00     0.039 A 
ATOM      8  C   UNL A   1      42.285  21.803  25.629  1.00  0.00     0.014 A 
ATOM      9  C   UNL A   1      41.709  21.209  27.905  1.00  0.00     0.014 A 
ATOM     10  C   UNL A   1      42.736  23.050  26.071  1.00  0.00     0.010 A 
ATOM     11  C   UNL A   1      42.124  22.471  28.341  1.00  0.00     0.010 A 
ATOM     12  C   UNL A   1      42.640  23.406  27.428  1.00  0.00    -0.014 A 
BRANCH  12  13
ATOM     13  C   UNL A   1      42.963  24.787  27.879  1.00  0.00     0.031 A 
ATOM     14  C   UNL A   1      44.360  25.177  28.281  1.00  0.00     0.074 A 
ATOM     15  C   UNL A   1      41.961  25.682  27.991  1.00  0.00     0.049 A 
ATOM     16  N   UNL A   1      44.787  26.313  28.775  1.00  0.00    -0.248 NA
ATOM     17  C   UNL A   1      45.411  24.162  28.115  1.00  0.00     0.031 C 
ATOM     18  C   UNL A   1      40.559  25.425  27.654  1.00  0.00     0.029 A 
ATOM     19  N   UNL A   1      41.962  26.981  28.438  1.00  0.00    -0.354 N 
ATOM     20  C   UNL A   1      46.148  26.145  29.001  1.00  0.00     0.074 A 
ATOM     21  C   UNL A   1      46.474  24.792  28.598  1.00  0.00     0.031 C 
ATOM     22  C   UNL A   1      39.838  26.529  27.900  1.00  0.00     0.029 A 
ATOM     23  C   UNL A   1      40.711  27.551  28.468  1.00  0.00     0.049 A 
ATOM     24  H   UNL A   1      42.778  27.458  28.711  1.00  0.00     0.167 HD
ATOM     25  C   UNL A   1      47.039  27.037  29.497  1.00  0.00     0.031 A 
ATOM     26  C   UNL A   1      40.299  28.745  28.933  1.00  0.00     0.031 A 
ATOM     27  C   UNL A   1      46.712  28.383  29.894  1.00  0.00     0.049 A 
ATOM     28  C   UNL A   1      41.303  29.691  29.528  1.00  0.00     0.074 A 
ATOM     29  C   UNL A   1      47.567  29.380  30.335  1.00  0.00     0.029 A 
ATOM     30  N   UNL A   1      45.433  28.915  29.918  1.00  0.00    -0.354 N 
ATOM     31  N   UNL A   1      42.600  29.547  29.648  1.00  0.00    -0.248 NA
ATOM     32  C   UNL A   1      40.786  30.963  30.053  1.00  0.00     0.031 C 
ATOM     33  C   UNL A   1      46.797  30.489  30.696  1.00  0.00     0.029 A 
ATOM     34  C   UNL A   1      45.470  30.206  30.418  1.00  0.00     0.049 A 
ATOM     35  H   UNL A   1      44.619  28.445  29.625  1.00  0.00     0.167 HD
ATOM     36  C   UNL A   1      43.055  30.714  30.248  1.00  0.00     0.074 A 
ATOM     37  C   UNL A   1      41.901  31.566  30.442  1.00  0.00     0.031 C 
ATOM     38  C   UNL A   1      44.317  31.045  30.612  1.00  0.00     0.031 A 
BRANCH  25  39
ATOM     39  C   UNL A   1      48.465  26.592  29.678  1.00  0.00    -0.014 A 
ATOM     40  C   UNL A   1      49.439  26.836  28.698  1.00  0.00     0.009 A 
ATOM     41  C   UNL A   1      48.860  26.016  30.898  1.00  0.00     0.009 A 
ATOM     42  C   UNL A   1      50.775  26.493  28.929  1.00  0.00     0.001 A 
ATOM     43  C   UNL A   1      50.198  25.698  31.135  1.00  0.00     0.001 A 
ATOM     44  C   UNL A   1      51.154  25.932  30.148  1.00  0.00     0.000 A 
ENDBRANCH  25  39
BRANCH  26  45
ATOM     45  C   UNL A   1      38.854  29.096  28.909  1.00  0.00    -0.014 A 
ATOM     46  C   UNL A   1      38.260  29.618  27.749  1.00  0.00     0.009 A 
ATOM     47  C   UNL A   1      38.064  28.931  30.057  1.00  0.00     0.009 A 
ATOM     48  C   UNL A   1      36.915  29.996  27.753  1.00  0.00     0.001 A 
ATOM     49  C   UNL A   1      36.711  29.275  30.048  1.00  0.00     0.001 A 
ATOM     50  C   UNL A   1      36.141  29.820  28.899  1.00  0.00     0.000 A 
ENDBRANCH  26  45
BRANCH  38  51
ATOM     51  C   UNL A   1      44.521  32.393  31.244  1.00  0.00    -0.014 A 
ATOM     52  C   UNL A   1      44.485  32.554  32.639  1.00  0.00     0.009 A 
ATOM     53  C   UNL A   1      44.799  33.508  30.437  1.00  0.00     0.009 A 
ATOM     54  C   UNL A   1      44.699  33.809  33.210  1.00  0.00     0.001 A 
ATOM     55  C   UNL A   1      45.042  34.756  31.014  1.00  0.00     0.001 A 
ATOM     56  C   UNL A   1      44.984  34.907  32.398  1.00  0.00     0.000 A 
ENDBRANCH  38  51
ENDBRANCH  12  13
ENDBRANCH   5   7
ENDBRANCH   2   3
ENDBRANCH   1   2
BRANCH   1  57
ATOM     57  C   UNL A   1      36.422  20.802  24.938  1.00  0.00     0.117 C 
BRANCH  57  58
ATOM     58  N   UNL A   1      35.805  21.198  26.208  1.00  0.00    -0.354 N 
ATOM     59  C   UNL A   1      34.624  21.810  26.592  1.00  0.00     0.245 C 
ATOM     60  H   UNL A   1      36.373  20.973  26.980  1.00  0.00     0.163 HD
ATOM     61  O   UNL A   1      34.264  21.691  27.767  1.00  0.00    -0.272 OA
BRANCH  59  62
ATOM     62  C   UNL A   1      33.713  22.491  25.567  1.00  0.00     0.119 C 
ATOM     63  C   UNL A   1      34.640  23.670  25.097  1.00  0.00     0.038 C 
ATOM     64  C   UNL A   1      33.304  21.660  24.325  1.00  0.00     0.038 C 
ATOM     65  C   UNL A   1      34.267  24.438  23.843  1.00  0.00     0.003 C 
ATOM     66  C   UNL A   1      32.884  22.521  23.113  1.00  0.00     0.003 C 
ATOM     67  C   UNL A   1      33.977  23.496  22.696  1.00  0.00     0.000 C 
BRANCH  62  68
ATOM     68  N   UNL A   1      32.513  22.873  26.331  1.00  0.00    -0.338 N 
ATOM     69  C   UNL A   1      31.674  23.973  26.411  1.00  0.00     0.253 C 
ATOM     70  H   UNL A   1      32.233  22.157  26.947  1.00  0.00     0.164 HD
ATOM     71  O   UNL A   1      30.867  23.857  27.352  1.00  0.00    -0.269 OA
BRANCH  69  72
ATOM     72  C   UNL A   1      31.530  25.275  25.626  1.00  0.00     0.061 A 
ATOM     73  C   UNL A   1      31.866  26.375  26.462  1.00  0.00     0.035 A 
ATOM     74  C   UNL A   1      30.918  25.646  24.411  1.00  0.00     0.072 A 
ATOM     75  C   UNL A   1      31.587  27.691  26.108  1.00  0.00     0.112 A 
ATOM     76  C   UNL A   1      30.727  27.013  24.128  1.00  0.00     0.132 A 
ATOM     77  Cl  UNL A   1      30.134  24.714  23.208  1.00  0.00    -0.082 Cl
ATOM     78  N   UNL A   1      31.035  28.037  24.944  1.00  0.00    -0.263 NA
ENDBRANCH  69  72
ENDBRANCH  62  68
ENDBRANCH  59  62
ENDBRANCH  57  58
ENDBRANCH   1  57
TORSDOF 12
ENDMDL
MODEL 3
REMARK VINA RESULT:     -11.7      3.267      7.742
REMARK SMILES O=C(NCCCNC(=O)C1(NC(=O)c2ccncc2Cl)CCCCC1)c1ccc(-c2c3nc(c(-c4ccccc4)c4ccc([nH]4)c(-c4ccccc4)c4nc(c(-c5ccccc5)c5ccc2[nH]5)C=C4)C=C3)cc1
REMARK SMILES IDX 5 1 4 2 3 3 1 4 2 5 26 7 27 8 73 9 28 10 72 11 29 12 30 13
REMARK SMILES IDX 31 14 66 15 32 16 71 17 65 18 67 19 33 20 70 21 64 22 63 23
REMARK SMILES IDX 34 25 56 26 41 27 55 28 42 29 45 30 54 31 68 32 43 33 44 34
REMARK SMILES IDX 53 36 69 37 46 38 35 39 36 40 40 41 37 42 39 43 38 44 57 45
REMARK SMILES IDX 58 46 62 47 59 48 61 49 60 50 47 51 48 52 52 53 49 54 51 55
REMARK SMILES IDX 50 56 6 57 7 58 8 59 9 61 10 62 21 63 25 64 22 65 24 66
REMARK SMILES IDX 23 67 11 68 12 69 13 71 14 72 15 73 19 74 16 75 18 76 20 77
REMARK SMILES IDX 17 78
REMARK H PARENT 3 6 67 24 45 35 7 60 11 70
REMARK Flexibility Score: inf
ROOT
ATOM      1  C   UNL A   1      35.862  23.755  25.664  1.00  0.00     0.042 C 
ENDROOT
BRANCH   1   2
ATOM      2  C   UNL A   1      37.145  23.630  24.857  1.00  0.00     0.118 C 
BRANCH   2   3
ATOM      3  N   UNL A   1      38.074  22.648  25.373  1.00  0.00    -0.352 N 
ATOM      4  O   UNL A   1      39.865  21.899  26.515  1.00  0.00    -0.269 OA
ATOM      5  C   UNL A   1      39.116  22.827  26.252  1.00  0.00     0.251 C 
ATOM      6  H   UNL A   1      37.941  21.727  25.050  1.00  0.00     0.163 HD
BRANCH   5   7
ATOM      7  C   UNL A   1      39.349  24.156  26.867  1.00  0.00     0.039 A 
ATOM      8  C   UNL A   1      38.898  24.451  28.157  1.00  0.00     0.014 A 
ATOM      9  C   UNL A   1      40.097  25.096  26.154  1.00  0.00     0.014 A 
ATOM     10  C   UNL A   1      39.152  25.710  28.712  1.00  0.00     0.010 A 
ATOM     11  C   UNL A   1      40.384  26.340  26.726  1.00  0.00     0.010 A 
ATOM     12  C   UNL A   1      39.916  26.659  28.011  1.00  0.00    -0.014 A 
BRANCH  12  13
ATOM     13  C   UNL A   1      40.330  27.933  28.659  1.00  0.00     0.031 A 
ATOM     14  C   UNL A   1      41.673  28.077  29.324  1.00  0.00     0.074 A 
ATOM     15  C   UNL A   1      39.448  28.952  28.706  1.00  0.00     0.049 A 
ATOM     16  N   UNL A   1      42.149  29.091  30.004  1.00  0.00    -0.248 NA
ATOM     17  C   UNL A   1      42.596  26.938  29.219  1.00  0.00     0.031 C 
ATOM     18  C   UNL A   1      38.107  28.933  28.118  1.00  0.00     0.029 A 
ATOM     19  N   UNL A   1      39.538  30.193  29.288  1.00  0.00    -0.354 N 
ATOM     20  C   UNL A   1      43.415  28.706  30.428  1.00  0.00     0.074 A 
ATOM     21  C   UNL A   1      43.630  27.361  29.936  1.00  0.00     0.031 C 
ATOM     22  C   UNL A   1      37.503  30.106  28.365  1.00  0.00     0.029 A 
ATOM     23  C   UNL A   1      38.386  30.935  29.177  1.00  0.00     0.049 A 
ATOM     24  H   UNL A   1      40.348  30.519  29.742  1.00  0.00     0.167 HD
ATOM     25  C   UNL A   1      44.313  29.411  31.158  1.00  0.00     0.031 A 
ATOM     26  C   UNL A   1      38.056  32.131  29.699  1.00  0.00     0.031 A 
ATOM     27  C   UNL A   1      44.098  30.751  31.644  1.00  0.00     0.049 A 
ATOM     28  C   UNL A   1      39.054  32.864  30.551  1.00  0.00     0.074 A 
ATOM     29  C   UNL A   1      44.982  31.570  32.327  1.00  0.00     0.029 A 
ATOM     30  N   UNL A   1      42.914  31.460  31.520  1.00  0.00    -0.354 N 
ATOM     31  N   UNL A   1      40.279  32.522  30.864  1.00  0.00    -0.248 NA
ATOM     32  C   UNL A   1      38.621  34.148  31.123  1.00  0.00     0.031 C 
ATOM     33  C   UNL A   1      44.311  32.744  32.679  1.00  0.00     0.029 A 
ATOM     34  C   UNL A   1      43.029  32.683  32.159  1.00  0.00     0.049 A 
ATOM     35  H   UNL A   1      42.111  31.142  31.047  1.00  0.00     0.167 HD
ATOM     36  C   UNL A   1      40.768  33.552  31.656  1.00  0.00     0.074 A 
ATOM     37  C   UNL A   1      39.718  34.544  31.752  1.00  0.00     0.031 C 
ATOM     38  C   UNL A   1      41.978  33.661  32.255  1.00  0.00     0.031 A 
BRANCH  25  39
ATOM     39  C   UNL A   1      45.615  28.749  31.519  1.00  0.00    -0.014 A 
ATOM     40  C   UNL A   1      46.762  28.910  30.729  1.00  0.00     0.009 A 
ATOM     41  C   UNL A   1      45.718  28.040  32.728  1.00  0.00     0.009 A 
ATOM     42  C   UNL A   1      47.981  28.358  31.133  1.00  0.00     0.001 A 
ATOM     43  C   UNL A   1      46.942  27.511  33.142  1.00  0.00     0.001 A 
ATOM     44  C   UNL A   1      48.072  27.666  32.341  1.00  0.00     0.000 A 
ENDBRANCH  25  39
BRANCH  26  45
ATOM     45  C   UNL A   1      36.696  32.691  29.479  1.00  0.00    -0.014 A 
ATOM     46  C   UNL A   1      36.406  33.447  28.332  1.00  0.00     0.009 A 
ATOM     47  C   UNL A   1      35.684  32.490  30.430  1.00  0.00     0.009 A 
ATOM     48  C   UNL A   1      35.141  34.014  28.161  1.00  0.00     0.001 A 
ATOM     49  C   UNL A   1      34.410  33.027  30.239  1.00  0.00     0.001 A 
ATOM     50  C   UNL A   1      34.143  33.800  29.111  1.00  0.00     0.000 A 
ENDBRANCH  26  45
BRANCH  38  51
ATOM     51  C   UNL A   1      42.239  34.904  33.058  1.00  0.00    -0.014 A 
ATOM     52  C   UNL A   1      41.764  35.033  34.373  1.00  0.00     0.009 A 
ATOM     53  C   UNL A   1      43.011  35.941  32.509  1.00  0.00     0.009 A 
ATOM     54  C   UNL A   1      42.036  36.185  35.112  1.00  0.00     0.001 A 
ATOM     55  C   UNL A   1      43.306  37.079  33.261  1.00  0.00     0.001 A 
ATOM     56  C   UNL A   1      42.812  37.204  34.558  1.00  0.00     0.000 A 
ENDBRANCH  38  51
ENDBRANCH  12  13
ENDBRANCH   5   7
ENDBRANCH   2   3
ENDBRANCH   1   2
BRANCH   1  57
ATOM     57  C   UNL A   1      34.821  24.826  25.310  1.00  0.00     0.117 C 
BRANCH  57  58
ATOM     58  N   UNL A   1      33.605  25.015  26.106  1.00  0.00    -0.354 N 
ATOM     59  C   UNL A   1      32.733  26.061  26.357  1.00  0.00     0.245 C 
ATOM     60  H   UNL A   1      33.344  24.194  26.581  1.00  0.00     0.163 HD
ATOM     61  O   UNL A   1      31.617  25.790  26.809  1.00  0.00    -0.272 OA
BRANCH  59  62
ATOM     62  C   UNL A   1      33.079  27.497  25.953  1.00  0.00     0.119 C 
ATOM     63  C   UNL A   1      31.762  28.240  26.379  1.00  0.00     0.038 C 
ATOM     64  C   UNL A   1      34.277  28.164  26.676  1.00  0.00     0.038 C 
ATOM     65  C   UNL A   1      31.768  29.756  26.453  1.00  0.00     0.003 C 
ATOM     66  C   UNL A   1      34.234  29.708  26.654  1.00  0.00     0.003 C 
ATOM     67  C   UNL A   1      32.947  30.253  27.259  1.00  0.00     0.000 C 
BRANCH  62  68
ATOM     68  N   UNL A   1      33.346  27.423  24.507  1.00  0.00    -0.338 N 
ATOM     69  C   UNL A   1      32.605  27.492  23.338  1.00  0.00     0.253 C 
ATOM     70  H   UNL A   1      34.305  27.290  24.321  1.00  0.00     0.164 HD
ATOM     71  O   UNL A   1      33.301  27.210  22.345  1.00  0.00    -0.269 OA
BRANCH  69  72
ATOM     72  C   UNL A   1      31.150  27.816  23.004  1.00  0.00     0.061 A 
ATOM     73  C   UNL A   1      31.077  29.091  22.379  1.00  0.00     0.035 A 
ATOM     74  C   UNL A   1      29.897  27.295  23.390  1.00  0.00     0.072 A 
ATOM     75  C   UNL A   1      29.871  29.761  22.195  1.00  0.00     0.112 A 
ATOM     76  C   UNL A   1      28.731  28.034  23.110  1.00  0.00     0.132 A 
ATOM     77  Cl  UNL A   1      29.483  25.948  24.362  1.00  0.00    -0.082 Cl
ATOM     78  N   UNL A   1      28.687  29.249  22.535  1.00  0.00    -0.263 NA
ENDBRANCH  69  72
ENDBRANCH  62  68
ENDBRANCH  59  62
ENDBRANCH  57  58
ENDBRANCH   1  57
TORSDOF 12
ENDMDL
