MODEL 1
REMARK VINA RESULT:      -8.1      0.000      0.000
REMARK SMILES CCCCCCNC(=O)Oc1cccc(-c2ccc([C@@H](C)C(=O)NCCCNC(=O)c3ccc(-c4c5nc(c(-c6ccccc6)c6ccc([nH]6)c(-c6ccccc6)c6nc(c(-c7ccccc7)c7ccc4[nH]7)C=C6)C=C5)cc3)cc2)c1
REMARK SMILES IDX 16 1 17 2 18 3 19 4 79 5 80 6 15 7 11 8 12 9 81 10 13 11
REMARK SMILES IDX 14 12 10 13 8 14 7 15 9 17 6 18 5 19 4 20 3 21 2 22 1 23
REMARK SMILES IDX 20 24 21 25 22 26 23 27 24 28 25 30 26 31 27 32 28 33 29 34
REMARK SMILES IDX 30 36 31 37 32 38 78 39 33 40 77 41 34 42 35 43 36 44 71 45
REMARK SMILES IDX 37 46 76 47 70 48 72 49 38 50 75 51 69 52 68 53 39 55 61 56
REMARK SMILES IDX 46 57 60 58 47 59 50 60 59 61 73 62 48 63 49 64 58 66 74 67
REMARK SMILES IDX 51 68 40 69 41 70 45 71 42 72 44 73 43 74 62 75 63 76 67 77
REMARK SMILES IDX 64 78 66 79 65 80 52 81 53 82 57 83 54 84 56 85 55 86
REMARK H PARENT 7 16 24 29 28 35 72 54 50 65
REMARK Flexibility Score: inf
ROOT
ATOM      1  C   UNL A   1      39.674  28.200  28.274  1.00  0.00    -0.018 A 
ATOM      2  C   UNL A   1      40.034  27.863  26.960  1.00  0.00     0.009 A 
ATOM      3  C   UNL A   1      40.799  26.729  26.668  1.00  0.00     0.005 A 
ATOM      4  C   UNL A   1      41.304  25.919  27.687  1.00  0.00    -0.036 A 
ATOM      5  C   UNL A   1      40.949  26.240  29.005  1.00  0.00     0.005 A 
ATOM      6  C   UNL A   1      40.133  27.345  29.290  1.00  0.00     0.009 A 
ENDROOT
BRANCH   1   7
ATOM      7  C   UNL A   1      38.850  29.400  28.557  1.00  0.00    -0.015 A 
ATOM      8  C   UNL A   1      38.493  31.539  29.663  1.00  0.00     0.133 A 
ATOM      9  C   UNL A   1      37.252  31.692  29.054  1.00  0.00     0.047 A 
ATOM     10  C   UNL A   1      39.289  30.413  29.427  1.00  0.00     0.056 A 
ATOM     11  C   UNL A   1      36.800  30.706  28.188  1.00  0.00     0.004 A 
ATOM     12  C   UNL A   1      37.585  29.572  27.954  1.00  0.00     0.009 A 
BRANCH   8  13
ATOM     13  O   UNL A   1      38.840  32.498  30.627  1.00  0.00    -0.410 OA
BRANCH  13  14
ATOM     14  C   UNL A   1      38.861  33.834  30.262  1.00  0.00     0.412 C 
ATOM     15  N   UNL A   1      37.878  34.563  30.874  1.00  0.00    -0.321 N 
ATOM     16  H   UNL A   1      37.830  35.520  30.647  1.00  0.00     0.167 HD
ATOM     17  O   UNL A   1      39.640  34.356  29.474  1.00  0.00    -0.224 OA
BRANCH  15  18
ATOM     18  C   UNL A   1      36.901  34.069  31.823  1.00  0.00     0.119 C 
BRANCH  18  19
ATOM     19  C   UNL A   1      37.410  34.149  33.263  1.00  0.00     0.021 C 
BRANCH  19  20
ATOM     20  C   UNL A   1      36.928  33.015  34.176  1.00  0.00     0.002 C 
BRANCH  20  21
ATOM     21  C   UNL A   1      37.190  31.596  33.660  1.00  0.00    -0.000 C 
BRANCH  21  22
ATOM     22  C   UNL A   1      38.613  31.071  33.875  1.00  0.00    -0.003 C 
ATOM     23  C   UNL A   1      38.910  29.802  33.091  1.00  0.00     0.004 C 
ENDBRANCH  21  22
ENDBRANCH  20  21
ENDBRANCH  19  20
ENDBRANCH  18  19
ENDBRANCH  15  18
ENDBRANCH  13  14
ENDBRANCH   8  13
ENDBRANCH   1   7
BRANCH   4  24
ATOM     24  C   UNL A   1      42.228  24.743  27.420  1.00  0.00     0.105 C 
ATOM     25  C   UNL A   1      42.961  24.189  28.640  1.00  0.00     0.023 C 
BRANCH  24  26
ATOM     26  C   UNL A   1      41.612  23.671  26.508  1.00  0.00     0.227 C 
ATOM     27  O   UNL A   1      40.501  23.197  26.779  1.00  0.00    -0.274 OA
ATOM     28  N   UNL A   1      42.204  23.192  25.380  1.00  0.00    -0.356 N 
ATOM     29  H   UNL A   1      41.649  22.551  24.880  1.00  0.00     0.163 HD
BRANCH  28  30
ATOM     30  C   UNL A   1      43.497  23.446  24.774  1.00  0.00     0.117 C 
BRANCH  30  31
ATOM     31  C   UNL A   1      44.617  22.636  25.427  1.00  0.00     0.042 C 
BRANCH  31  32
ATOM     32  C   UNL A   1      45.676  23.488  26.119  1.00  0.00     0.118 C 
BRANCH  32  33
ATOM     33  N   UNL A   1      46.441  24.295  25.176  1.00  0.00    -0.352 N 
ATOM     34  C   UNL A   1      46.532  25.656  25.024  1.00  0.00     0.251 C 
ATOM     35  H   UNL A   1      46.984  23.775  24.540  1.00  0.00     0.163 HD
ATOM     36  O   UNL A   1      47.073  26.112  24.018  1.00  0.00    -0.269 OA
BRANCH  34  37
ATOM     37  C   UNL A   1      45.979  26.586  26.036  1.00  0.00     0.039 A 
ATOM     38  C   UNL A   1      44.685  27.085  25.853  1.00  0.00     0.014 A 
ATOM     39  C   UNL A   1      46.735  27.009  27.131  1.00  0.00     0.014 A 
ATOM     40  C   UNL A   1      44.122  27.939  26.807  1.00  0.00     0.010 A 
ATOM     41  C   UNL A   1      46.152  27.806  28.116  1.00  0.00     0.010 A 
ATOM     42  C   UNL A   1      44.835  28.269  27.969  1.00  0.00    -0.014 A 
BRANCH  42  43
ATOM     43  C   UNL A   1      44.214  29.059  29.063  1.00  0.00     0.031 A 
ATOM     44  C   UNL A   1      44.036  30.544  28.930  1.00  0.00     0.074 A 
ATOM     45  C   UNL A   1      43.893  28.444  30.218  1.00  0.00     0.049 A 
ATOM     46  N   UNL A   1      43.618  31.409  29.820  1.00  0.00    -0.248 NA
ATOM     47  C   UNL A   1      44.391  31.141  27.633  1.00  0.00     0.031 C 
ATOM     48  C   UNL A   1      44.045  27.013  30.486  1.00  0.00     0.029 A 
ATOM     49  N   UNL A   1      43.392  28.951  31.392  1.00  0.00    -0.354 N 
ATOM     50  C   UNL A   1      43.676  32.650  29.200  1.00  0.00     0.074 A 
ATOM     51  C   UNL A   1      44.203  32.432  27.870  1.00  0.00     0.031 C 
ATOM     52  C   UNL A   1      43.634  26.754  31.738  1.00  0.00     0.029 A 
ATOM     53  C   UNL A   1      43.239  28.004  32.376  1.00  0.00     0.049 A 
ATOM     54  H   UNL A   1      43.164  29.900  31.515  1.00  0.00     0.167 HD
ATOM     55  C   UNL A   1      43.315  33.860  29.690  1.00  0.00     0.031 A 
ATOM     56  C   UNL A   1      42.849  28.129  33.658  1.00  0.00     0.031 A 
ATOM     57  C   UNL A   1      42.790  34.077  31.012  1.00  0.00     0.049 A 
ATOM     58  C   UNL A   1      42.502  29.490  34.193  1.00  0.00     0.074 A 
ATOM     59  C   UNL A   1      42.333  35.255  31.576  1.00  0.00     0.029 A 
ATOM     60  N   UNL A   1      42.665  33.095  31.982  1.00  0.00    -0.354 N 
ATOM     61  N   UNL A   1      42.496  30.644  33.572  1.00  0.00    -0.248 NA
ATOM     62  C   UNL A   1      42.112  29.565  35.609  1.00  0.00     0.031 C 
ATOM     63  C   UNL A   1      41.982  34.997  32.905  1.00  0.00     0.029 A 
ATOM     64  C   UNL A   1      42.174  33.647  33.153  1.00  0.00     0.049 A 
ATOM     65  H   UNL A   1      42.892  32.144  31.858  1.00  0.00     0.167 HD
ATOM     66  C   UNL A   1      42.091  31.579  34.514  1.00  0.00     0.074 A 
ATOM     67  C   UNL A   1      41.840  30.856  35.744  1.00  0.00     0.031 C 
ATOM     68  C   UNL A   1      41.943  32.918  34.373  1.00  0.00     0.031 A 
BRANCH  55  69
ATOM     69  C   UNL A   1      43.490  35.052  28.791  1.00  0.00    -0.014 A 
ATOM     70  C   UNL A   1      44.636  35.858  28.866  1.00  0.00     0.009 A 
ATOM     71  C   UNL A   1      42.513  35.348  27.826  1.00  0.00     0.009 A 
ATOM     72  C   UNL A   1      44.783  36.959  28.019  1.00  0.00     0.001 A 
ATOM     73  C   UNL A   1      42.676  36.432  26.962  1.00  0.00     0.001 A 
ATOM     74  C   UNL A   1      43.806  37.242  27.065  1.00  0.00     0.000 A 
ENDBRANCH  55  69
BRANCH  56  75
ATOM     75  C   UNL A   1      42.777  26.929  34.531  1.00  0.00    -0.014 A 
ATOM     76  C   UNL A   1      43.939  26.412  35.122  1.00  0.00     0.009 A 
ATOM     77  C   UNL A   1      41.547  26.302  34.786  1.00  0.00     0.009 A 
ATOM     78  C   UNL A   1      43.873  25.279  35.937  1.00  0.00     0.001 A 
ATOM     79  C   UNL A   1      41.480  25.187  35.622  1.00  0.00     0.001 A 
ATOM     80  C   UNL A   1      42.644  24.671  36.190  1.00  0.00     0.000 A 
ENDBRANCH  56  75
BRANCH  68  81
ATOM     81  C   UNL A   1      41.483  33.689  35.576  1.00  0.00    -0.014 A 
ATOM     82  C   UNL A   1      42.408  34.267  36.460  1.00  0.00     0.009 A 
ATOM     83  C   UNL A   1      40.111  33.881  35.803  1.00  0.00     0.009 A 
ATOM     84  C   UNL A   1      41.966  35.005  37.559  1.00  0.00     0.001 A 
ATOM     85  C   UNL A   1      39.674  34.640  36.889  1.00  0.00     0.001 A 
ATOM     86  C   UNL A   1      40.600  35.195  37.769  1.00  0.00     0.000 A 
ENDBRANCH  68  81
ENDBRANCH  42  43
ENDBRANCH  34  37
ENDBRANCH  32  33
ENDBRANCH  31  32
ENDBRANCH  30  31
ENDBRANCH  28  30
ENDBRANCH  24  26
ENDBRANCH   4  24
TORSDOF 19
ENDMDL
MODEL 2
REMARK VINA RESULT:      -8.1      3.946      9.439
REMARK SMILES CCCCCCNC(=O)Oc1cccc(-c2ccc([C@@H](C)C(=O)NCCCNC(=O)c3ccc(-c4c5nc(c(-c6ccccc6)c6ccc([nH]6)c(-c6ccccc6)c6nc(c(-c7ccccc7)c7ccc4[nH]7)C=C6)C=C5)cc3)cc2)c1
REMARK SMILES IDX 16 1 17 2 18 3 19 4 79 5 80 6 15 7 11 8 12 9 81 10 13 11
REMARK SMILES IDX 14 12 10 13 8 14 7 15 9 17 6 18 5 19 4 20 3 21 2 22 1 23
REMARK SMILES IDX 20 24 21 25 22 26 23 27 24 28 25 30 26 31 27 32 28 33 29 34
REMARK SMILES IDX 30 36 31 37 32 38 78 39 33 40 77 41 34 42 35 43 36 44 71 45
REMARK SMILES IDX 37 46 76 47 70 48 72 49 38 50 75 51 69 52 68 53 39 55 61 56
REMARK SMILES IDX 46 57 60 58 47 59 50 60 59 61 73 62 48 63 49 64 58 66 74 67
REMARK SMILES IDX 51 68 40 69 41 70 45 71 42 72 44 73 43 74 62 75 63 76 67 77
REMARK SMILES IDX 64 78 66 79 65 80 52 81 53 82 57 83 54 84 56 85 55 86
REMARK H PARENT 7 16 24 29 28 35 72 54 50 65
REMARK Flexibility Score: inf
ROOT
ATOM      1  C   UNL A   1      36.736  23.500  25.215  1.00  0.00    -0.018 A 
ATOM      2  C   UNL A   1      36.423  22.957  23.959  1.00  0.00     0.009 A 
ATOM      3  C   UNL A   1      35.239  23.278  23.287  1.00  0.00     0.005 A 
ATOM      4  C   UNL A   1      34.277  24.100  23.876  1.00  0.00    -0.036 A 
ATOM      5  C   UNL A   1      34.577  24.654  25.129  1.00  0.00     0.005 A 
ATOM      6  C   UNL A   1      35.791  24.376  25.774  1.00  0.00     0.009 A 
ENDROOT
BRANCH   1   7
ATOM      7  C   UNL A   1      38.005  23.156  25.902  1.00  0.00    -0.015 A 
ATOM      8  C   UNL A   1      39.861  21.642  26.334  1.00  0.00     0.133 A 
ATOM      9  C   UNL A   1      40.444  22.545  27.217  1.00  0.00     0.047 A 
ATOM     10  C   UNL A   1      38.659  21.931  25.680  1.00  0.00     0.056 A 
ATOM     11  C   UNL A   1      39.818  23.762  27.447  1.00  0.00     0.004 A 
ATOM     12  C   UNL A   1      38.610  24.055  26.806  1.00  0.00     0.009 A 
BRANCH   8  13
ATOM     13  O   UNL A   1      40.465  20.379  26.241  1.00  0.00    -0.410 OA
BRANCH  13  14
ATOM     14  C   UNL A   1      41.314  19.968  27.256  1.00  0.00     0.412 C 
ATOM     15  N   UNL A   1      42.612  19.848  26.840  1.00  0.00    -0.321 N 
ATOM     16  H   UNL A   1      43.266  19.546  27.512  1.00  0.00     0.167 HD
ATOM     17  O   UNL A   1      40.991  19.714  28.410  1.00  0.00    -0.224 OA
BRANCH  15  18
ATOM     18  C   UNL A   1      43.123  20.120  25.512  1.00  0.00     0.119 C 
BRANCH  18  19
ATOM     19  C   UNL A   1      44.339  21.046  25.545  1.00  0.00     0.021 C 
BRANCH  19  20
ATOM     20  C   UNL A   1      44.079  22.423  26.168  1.00  0.00     0.002 C 
BRANCH  20  21
ATOM     21  C   UNL A   1      45.240  23.012  26.976  1.00  0.00    -0.000 C 
BRANCH  21  22
ATOM     22  C   UNL A   1      44.871  23.553  28.360  1.00  0.00    -0.003 C 
ATOM     23  C   UNL A   1      43.594  22.947  28.921  1.00  0.00     0.004 C 
ENDBRANCH  21  22
ENDBRANCH  20  21
ENDBRANCH  19  20
ENDBRANCH  18  19
ENDBRANCH  15  18
ENDBRANCH  13  14
ENDBRANCH   8  13
ENDBRANCH   1   7
BRANCH   4  24
ATOM     24  C   UNL A   1      32.932  24.385  23.228  1.00  0.00     0.105 C 
ATOM     25  C   UNL A   1      32.079  23.158  22.911  1.00  0.00     0.023 C 
BRANCH  24  26
ATOM     26  C   UNL A   1      32.164  25.541  23.886  1.00  0.00     0.227 C 
ATOM     27  O   UNL A   1      31.293  25.299  24.731  1.00  0.00    -0.274 OA
ATOM     28  N   UNL A   1      32.379  26.857  23.614  1.00  0.00    -0.356 N 
ATOM     29  H   UNL A   1      31.843  27.471  24.166  1.00  0.00     0.163 HD
BRANCH  28  30
ATOM     30  C   UNL A   1      33.249  27.528  22.667  1.00  0.00     0.117 C 
BRANCH  30  31
ATOM     31  C   UNL A   1      33.858  28.808  23.238  1.00  0.00     0.042 C 
BRANCH  31  32
ATOM     32  C   UNL A   1      33.876  28.858  24.763  1.00  0.00     0.118 C 
BRANCH  32  33
ATOM     33  N   UNL A   1      33.003  29.899  25.293  1.00  0.00    -0.352 N 
ATOM     34  C   UNL A   1      33.075  30.627  26.456  1.00  0.00     0.251 C 
ATOM     35  H   UNL A   1      32.232  30.116  24.722  1.00  0.00     0.163 HD
ATOM     36  O   UNL A   1      32.107  31.301  26.802  1.00  0.00    -0.269 OA
BRANCH  34  37
ATOM     37  C   UNL A   1      34.286  30.603  27.309  1.00  0.00     0.039 A 
ATOM     38  C   UNL A   1      34.668  29.393  27.901  1.00  0.00     0.014 A 
ATOM     39  C   UNL A   1      35.018  31.762  27.573  1.00  0.00     0.014 A 
ATOM     40  C   UNL A   1      35.823  29.330  28.685  1.00  0.00     0.010 A 
ATOM     41  C   UNL A   1      36.207  31.687  28.298  1.00  0.00     0.010 A 
ATOM     42  C   UNL A   1      36.627  30.468  28.852  1.00  0.00    -0.014 A 
BRANCH  42  43
ATOM     43  C   UNL A   1      37.930  30.400  29.562  1.00  0.00     0.031 A 
ATOM     44  C   UNL A   1      39.103  29.693  28.945  1.00  0.00     0.074 A 
ATOM     45  C   UNL A   1      38.026  30.900  30.809  1.00  0.00     0.049 A 
ATOM     46  N   UNL A   1      40.278  29.437  29.462  1.00  0.00    -0.248 NA
ATOM     47  C   UNL A   1      38.927  29.189  27.574  1.00  0.00     0.031 C 
ATOM     48  C   UNL A   1      36.953  31.584  31.533  1.00  0.00     0.029 A 
ATOM     49  N   UNL A   1      39.073  30.892  31.698  1.00  0.00    -0.354 N 
ATOM     50  C   UNL A   1      40.975  28.731  28.491  1.00  0.00     0.074 A 
ATOM     51  C   UNL A   1      40.079  28.566  27.366  1.00  0.00     0.031 C 
ATOM     52  C   UNL A   1      37.399  31.940  32.748  1.00  0.00     0.029 A 
ATOM     53  C   UNL A   1      38.769  31.467  32.908  1.00  0.00     0.049 A 
ATOM     54  H   UNL A   1      39.956  30.511  31.487  1.00  0.00     0.167 HD
ATOM     55  C   UNL A   1      42.248  28.269  28.528  1.00  0.00     0.031 A 
ATOM     56  C   UNL A   1      39.501  31.580  34.032  1.00  0.00     0.031 A 
ATOM     57  C   UNL A   1      43.139  28.433  29.646  1.00  0.00     0.049 A 
ATOM     58  C   UNL A   1      40.893  31.015  34.065  1.00  0.00     0.074 A 
ATOM     59  C   UNL A   1      44.468  28.061  29.752  1.00  0.00     0.029 A 
ATOM     60  N   UNL A   1      42.788  29.009  30.857  1.00  0.00    -0.354 N 
ATOM     61  N   UNL A   1      41.561  30.411  33.113  1.00  0.00    -0.248 NA
ATOM     62  C   UNL A   1      41.629  31.144  35.331  1.00  0.00     0.031 C 
ATOM     63  C   UNL A   1      44.904  28.360  31.047  1.00  0.00     0.029 A 
ATOM     64  C   UNL A   1      43.862  28.966  31.730  1.00  0.00     0.049 A 
ATOM     65  H   UNL A   1      41.904  29.391  31.067  1.00  0.00     0.167 HD
ATOM     66  C   UNL A   1      42.799  30.099  33.659  1.00  0.00     0.074 A 
ATOM     67  C   UNL A   1      42.797  30.598  35.018  1.00  0.00     0.031 C 
ATOM     68  C   UNL A   1      43.841  29.454  33.084  1.00  0.00     0.031 A 
BRANCH  55  69
ATOM     69  C   UNL A   1      42.750  27.525  27.323  1.00  0.00    -0.014 A 
ATOM     70  C   UNL A   1      43.693  28.097  26.455  1.00  0.00     0.009 A 
ATOM     71  C   UNL A   1      42.305  26.216  27.075  1.00  0.00     0.009 A 
ATOM     72  C   UNL A   1      44.153  27.388  25.343  1.00  0.00     0.001 A 
ATOM     73  C   UNL A   1      42.788  25.500  25.977  1.00  0.00     0.001 A 
ATOM     74  C   UNL A   1      43.703  26.089  25.107  1.00  0.00     0.000 A 
ENDBRANCH  55  69
BRANCH  56  75
ATOM     75  C   UNL A   1      38.924  32.249  35.227  1.00  0.00    -0.014 A 
ATOM     76  C   UNL A   1      38.937  33.648  35.331  1.00  0.00     0.009 A 
ATOM     77  C   UNL A   1      38.348  31.495  36.262  1.00  0.00     0.009 A 
ATOM     78  C   UNL A   1      38.401  34.277  36.457  1.00  0.00     0.001 A 
ATOM     79  C   UNL A   1      37.790  32.128  37.374  1.00  0.00     0.001 A 
ATOM     80  C   UNL A   1      37.824  33.518  37.474  1.00  0.00     0.000 A 
ENDBRANCH  56  75
BRANCH  68  81
ATOM     81  C   UNL A   1      45.072  29.256  33.922  1.00  0.00    -0.014 A 
ATOM     82  C   UNL A   1      45.312  28.036  34.574  1.00  0.00     0.009 A 
ATOM     83  C   UNL A   1      46.025  30.281  34.020  1.00  0.00     0.009 A 
ATOM     84  C   UNL A   1      46.474  27.856  35.326  1.00  0.00     0.001 A 
ATOM     85  C   UNL A   1      47.197  30.088  34.752  1.00  0.00     0.001 A 
ATOM     86  C   UNL A   1      47.417  28.880  35.410  1.00  0.00     0.000 A 
ENDBRANCH  68  81
ENDBRANCH  42  43
ENDBRANCH  34  37
ENDBRANCH  32  33
ENDBRANCH  31  32
ENDBRANCH  30  31
ENDBRANCH  28  30
ENDBRANCH  24  26
ENDBRANCH   4  24
TORSDOF 19
ENDMDL
MODEL 3
REMARK VINA RESULT:      -8.0      4.046     10.132
REMARK SMILES CCCCCCNC(=O)Oc1cccc(-c2ccc([C@@H](C)C(=O)NCCCNC(=O)c3ccc(-c4c5nc(c(-c6ccccc6)c6ccc([nH]6)c(-c6ccccc6)c6nc(c(-c7ccccc7)c7ccc4[nH]7)C=C6)C=C5)cc3)cc2)c1
REMARK SMILES IDX 16 1 17 2 18 3 19 4 79 5 80 6 15 7 11 8 12 9 81 10 13 11
REMARK SMILES IDX 14 12 10 13 8 14 7 15 9 17 6 18 5 19 4 20 3 21 2 22 1 23
REMARK SMILES IDX 20 24 21 25 22 26 23 27 24 28 25 30 26 31 27 32 28 33 29 34
REMARK SMILES IDX 30 36 31 37 32 38 78 39 33 40 77 41 34 42 35 43 36 44 71 45
REMARK SMILES IDX 37 46 76 47 70 48 72 49 38 50 75 51 69 52 68 53 39 55 61 56
REMARK SMILES IDX 46 57 60 58 47 59 50 60 59 61 73 62 48 63 49 64 58 66 74 67
REMARK SMILES IDX 51 68 40 69 41 70 45 71 42 72 44 73 43 74 62 75 63 76 67 77
REMARK SMILES IDX 64 78 66 79 65 80 52 81 53 82 57 83 54 84 56 85 55 86
REMARK H PARENT 7 16 24 29 28 35 72 54 50 65
REMARK Flexibility Score: inf
ROOT
ATOM      1  C   UNL A   1      34.881  23.461  24.790  1.00  0.00    -0.018 A 
ATOM      2  C   UNL A   1      35.022  24.581  25.624  1.00  0.00     0.009 A 
ATOM      3  C   UNL A   1      34.174  25.689  25.526  1.00  0.00     0.005 A 
ATOM      4  C   UNL A   1      33.191  25.759  24.537  1.00  0.00    -0.036 A 
ATOM      5  C   UNL A   1      33.035  24.646  23.699  1.00  0.00     0.005 A 
ATOM      6  C   UNL A   1      33.850  23.511  23.838  1.00  0.00     0.009 A 
ENDROOT
BRANCH   1   7
ATOM      7  C   UNL A   1      35.783  22.292  24.923  1.00  0.00    -0.015 A 
ATOM      8  C   UNL A   1      37.941  21.305  25.468  1.00  0.00     0.133 A 
ATOM      9  C   UNL A   1      37.472  20.026  25.187  1.00  0.00     0.047 A 
ATOM     10  C   UNL A   1      37.119  22.429  25.341  1.00  0.00     0.056 A 
ATOM     11  C   UNL A   1      36.156  19.865  24.778  1.00  0.00     0.004 A 
ATOM     12  C   UNL A   1      35.330  20.986  24.637  1.00  0.00     0.009 A 
BRANCH   8  13
ATOM     13  O   UNL A   1      39.311  21.422  25.748  1.00  0.00    -0.410 OA
BRANCH  13  14
ATOM     14  C   UNL A   1      40.019  20.285  26.105  1.00  0.00     0.412 C 
ATOM     15  N   UNL A   1      40.856  20.498  27.167  1.00  0.00    -0.321 N 
ATOM     16  H   UNL A   1      41.399  19.732  27.463  1.00  0.00     0.167 HD
ATOM     17  O   UNL A   1      39.952  19.191  25.559  1.00  0.00    -0.224 OA
BRANCH  15  18
ATOM     18  C   UNL A   1      41.024  21.736  27.900  1.00  0.00     0.119 C 
BRANCH  18  19
ATOM     19  C   UNL A   1      42.496  22.128  28.034  1.00  0.00     0.021 C 
BRANCH  19  20
ATOM     20  C   UNL A   1      42.796  23.105  29.177  1.00  0.00     0.002 C 
BRANCH  20  21
ATOM     21  C   UNL A   1      44.071  23.940  29.014  1.00  0.00    -0.000 C 
BRANCH  21  22
ATOM     22  C   UNL A   1      44.515  24.186  27.569  1.00  0.00    -0.003 C 
ATOM     23  C   UNL A   1      44.431  25.646  27.154  1.00  0.00     0.004 C 
ENDBRANCH  21  22
ENDBRANCH  20  21
ENDBRANCH  19  20
ENDBRANCH  18  19
ENDBRANCH  15  18
ENDBRANCH  13  14
ENDBRANCH   8  13
ENDBRANCH   1   7
BRANCH   4  24
ATOM     24  C   UNL A   1      32.323  26.988  24.327  1.00  0.00     0.105 C 
ATOM     25  C   UNL A   1      31.483  26.992  23.050  1.00  0.00     0.023 C 
BRANCH  24  26
ATOM     26  C   UNL A   1      31.565  27.429  25.588  1.00  0.00     0.227 C 
ATOM     27  O   UNL A   1      31.043  26.579  26.321  1.00  0.00    -0.274 OA
ATOM     28  N   UNL A   1      31.426  28.723  25.985  1.00  0.00    -0.356 N 
ATOM     29  H   UNL A   1      30.962  28.828  26.847  1.00  0.00     0.163 HD
BRANCH  28  30
ATOM     30  C   UNL A   1      31.832  29.978  25.382  1.00  0.00     0.117 C 
BRANCH  30  31
ATOM     31  C   UNL A   1      31.395  31.189  26.203  1.00  0.00     0.042 C 
BRANCH  31  32
ATOM     32  C   UNL A   1      32.478  31.732  27.131  1.00  0.00     0.118 C 
BRANCH  32  33
ATOM     33  N   UNL A   1      32.318  33.157  27.397  1.00  0.00    -0.352 N 
ATOM     34  C   UNL A   1      33.049  34.013  28.183  1.00  0.00     0.251 C 
ATOM     35  H   UNL A   1      31.556  33.575  26.935  1.00  0.00     0.163 HD
ATOM     36  O   UNL A   1      32.600  35.131  28.430  1.00  0.00    -0.269 OA
BRANCH  34  37
ATOM     37  C   UNL A   1      34.356  33.613  28.753  1.00  0.00     0.039 A 
ATOM     38  C   UNL A   1      34.374  32.885  29.948  1.00  0.00     0.014 A 
ATOM     39  C   UNL A   1      35.561  33.987  28.153  1.00  0.00     0.014 A 
ATOM     40  C   UNL A   1      35.590  32.465  30.495  1.00  0.00     0.010 A 
ATOM     41  C   UNL A   1      36.770  33.511  28.660  1.00  0.00     0.010 A 
ATOM     42  C   UNL A   1      36.796  32.736  29.829  1.00  0.00    -0.014 A 
BRANCH  42  43
ATOM     43  C   UNL A   1      38.088  32.185  30.310  1.00  0.00     0.031 A 
ATOM     44  C   UNL A   1      38.633  30.904  29.745  1.00  0.00     0.074 A 
ATOM     45  C   UNL A   1      38.727  32.796  31.327  1.00  0.00     0.049 A 
ATOM     46  N   UNL A   1      39.683  30.217  30.119  1.00  0.00    -0.248 NA
ATOM     47  C   UNL A   1      37.891  30.305  28.626  1.00  0.00     0.031 C 
ATOM     48  C   UNL A   1      38.287  34.029  31.984  1.00  0.00     0.029 A 
ATOM     49  N   UNL A   1      39.873  32.452  32.000  1.00  0.00    -0.354 N 
ATOM     50  C   UNL A   1      39.719  29.100  29.296  1.00  0.00     0.074 A 
ATOM     51  C   UNL A   1      38.566  29.181  28.425  1.00  0.00     0.031 C 
ATOM     52  C   UNL A   1      39.158  34.344  32.956  1.00  0.00     0.029 A 
ATOM     53  C   UNL A   1      40.186  33.312  33.024  1.00  0.00     0.049 A 
ATOM     54  H   UNL A   1      40.417  31.664  31.771  1.00  0.00     0.167 HD
ATOM     55  C   UNL A   1      40.634  28.102  29.261  1.00  0.00     0.031 A 
ATOM     56  C   UNL A   1      41.176  33.265  33.935  1.00  0.00     0.031 A 
ATOM     57  C   UNL A   1      41.782  28.022  30.126  1.00  0.00     0.049 A 
ATOM     58  C   UNL A   1      42.150  32.120  33.907  1.00  0.00     0.074 A 
ATOM     59  C   UNL A   1      42.801  27.086  30.120  1.00  0.00     0.029 A 
ATOM     60  N   UNL A   1      42.055  28.905  31.158  1.00  0.00    -0.354 N 
ATOM     61  N   UNL A   1      42.209  31.108  33.077  1.00  0.00    -0.248 NA
ATOM     62  C   UNL A   1      43.190  32.110  34.947  1.00  0.00     0.031 C 
ATOM     63  C   UNL A   1      43.662  27.370  31.185  1.00  0.00     0.029 A 
ATOM     64  C   UNL A   1      43.206  28.514  31.822  1.00  0.00     0.049 A 
ATOM     65  H   UNL A   1      41.511  29.693  31.386  1.00  0.00     0.167 HD
ATOM     66  C   UNL A   1      43.298  30.348  33.484  1.00  0.00     0.074 A 
ATOM     67  C   UNL A   1      43.882  31.027  34.622  1.00  0.00     0.031 C 
ATOM     68  C   UNL A   1      43.768  29.191  32.962  1.00  0.00     0.031 A 
BRANCH  55  69
ATOM     69  C   UNL A   1      40.422  27.002  28.258  1.00  0.00    -0.014 A 
ATOM     70  C   UNL A   1      41.017  27.049  26.989  1.00  0.00     0.009 A 
ATOM     71  C   UNL A   1      39.649  25.881  28.605  1.00  0.00     0.009 A 
ATOM     72  C   UNL A   1      40.813  26.016  26.073  1.00  0.00     0.001 A 
ATOM     73  C   UNL A   1      39.469  24.837  27.696  1.00  0.00     0.001 A 
ATOM     74  C   UNL A   1      40.043  24.908  26.428  1.00  0.00     0.000 A 
ENDBRANCH  55  69
BRANCH  56  75
ATOM     75  C   UNL A   1      41.290  34.333  34.961  1.00  0.00    -0.014 A 
ATOM     76  C   UNL A   1      42.049  35.484  34.704  1.00  0.00     0.009 A 
ATOM     77  C   UNL A   1      40.632  34.215  36.196  1.00  0.00     0.009 A 
ATOM     78  C   UNL A   1      42.162  36.486  35.671  1.00  0.00     0.001 A 
ATOM     79  C   UNL A   1      40.725  35.230  37.149  1.00  0.00     0.001 A 
ATOM     80  C   UNL A   1      41.497  36.361  36.889  1.00  0.00     0.000 A 
ENDBRANCH  56  75
BRANCH  68  81
ATOM     81  C   UNL A   1      44.978  28.586  33.612  1.00  0.00    -0.014 A 
ATOM     82  C   UNL A   1      46.273  28.965  33.223  1.00  0.00     0.009 A 
ATOM     83  C   UNL A   1      44.823  27.664  34.659  1.00  0.00     0.009 A 
ATOM     84  C   UNL A   1      47.388  28.416  33.857  1.00  0.00     0.001 A 
ATOM     85  C   UNL A   1      45.941  27.136  35.306  1.00  0.00     0.001 A 
ATOM     86  C   UNL A   1      47.222  27.506  34.900  1.00  0.00     0.000 A 
ENDBRANCH  68  81
ENDBRANCH  42  43
ENDBRANCH  34  37
ENDBRANCH  32  33
ENDBRANCH  31  32
ENDBRANCH  30  31
ENDBRANCH  28  30
ENDBRANCH  24  26
ENDBRANCH   4  24
TORSDOF 19
ENDMDL
