MODEL 1
REMARK VINA RESULT:      -9.1      0.000      0.000
REMARK SMILES CC[C@@H](Oc1ccccc1/C=C1\S/C(=[NH+]\c2cccc(O)c2)N(CC)C1=O)C(=O)NCCCNC(=O)c1ccc(-c2c3nc(c(-c4ccccc4)c4ccc([nH]4)c(-c4ccccc4)c4nc(c(-c5ccccc5)c5ccc2[nH]5)C=C4)C=C3)cc1
REMARK SMILES IDX 28 1 29 2 30 3 3 5 2 6 1 7 4 8 5 9 6 10 10 11 7 12 9 13 8 14
REMARK SMILES IDX 11 15 12 16 13 17 26 18 14 19 23 20 27 21 15 22 24 24 25 25
REMARK SMILES IDX 16 26 17 27 22 28 18 29 20 30 19 31 21 32 31 34 32 35 33 36
REMARK SMILES IDX 34 37 35 38 36 40 37 41 38 42 84 43 39 44 83 45 40 46 41 47
REMARK SMILES IDX 42 48 77 49 43 50 82 51 76 52 78 53 44 54 81 55 75 56 74 57
REMARK SMILES IDX 45 59 67 60 52 61 66 62 53 63 56 64 65 65 79 66 54 67 55 68
REMARK SMILES IDX 64 70 80 71 57 72 46 73 47 74 51 75 48 76 50 77 49 78 68 79
REMARK SMILES IDX 69 80 73 81 70 82 72 83 71 84 58 85 59 86 63 87 60 88 62 89
REMARK SMILES IDX 61 90
REMARK H PARENT 30 4 15 23 21 33 34 39 78 58 56 69
REMARK Flexibility Score: inf
ROOT
ATOM      1  C   UNL A   1      36.809  32.239  29.166  1.00  0.00     0.261 C 
ATOM      2  O   UNL A   1      37.795  32.834  28.710  1.00  0.00    -0.271 OA
ATOM      3  N   UNL A   1      36.085  32.917  30.104  1.00  0.00    -0.353 N 
ATOM      4  H   UNL A   1      36.526  33.728  30.444  1.00  0.00     0.163 HD
ENDROOT
BRANCH   1   5
ATOM      5  C   UNL A   1      36.559  30.762  28.761  1.00  0.00     0.261 C 
BRANCH   5   6
ATOM      6  C   UNL A   1      35.486  30.786  27.652  1.00  0.00     0.052 C 
ATOM      7  C   UNL A   1      34.814  29.432  27.446  1.00  0.00     0.008 C 
ENDBRANCH   5   6
BRANCH   5   8
ATOM      8  O   UNL A   1      37.707  30.057  28.295  1.00  0.00    -0.480 OA
BRANCH   8   9
ATOM      9  C   UNL A   1      38.286  29.191  29.193  1.00  0.00     0.127 A 
ATOM     10  C   UNL A   1      37.642  28.933  30.404  1.00  0.00     0.047 A 
ATOM     11  C   UNL A   1      39.595  28.708  28.968  1.00  0.00     0.018 A 
ATOM     12  C   UNL A   1      38.289  28.178  31.385  1.00  0.00     0.004 A 
ATOM     13  C   UNL A   1      40.231  27.952  29.957  1.00  0.00     0.012 A 
ATOM     14  C   UNL A   1      39.580  27.694  31.165  1.00  0.00     0.001 A 
BRANCH  11  15
ATOM     15  C   UNL A   1      40.269  28.931  27.683  1.00  0.00     0.036 C 
ATOM     16  C   UNL A   1      40.830  27.963  26.949  1.00  0.00     0.110 C 
ATOM     17  S   UNL A   1      40.661  26.278  27.154  1.00  0.00     0.007 SA
ATOM     18  C   UNL A   1      41.905  28.263  25.970  1.00  0.00     0.348 C 
ATOM     19  C   UNL A   1      41.938  25.917  26.012  1.00  0.00     0.324 C 
ATOM     20  N   UNL A   1      42.517  27.088  25.575  1.00  0.00    -0.186 N 
ATOM     21  O   UNL A   1      42.255  29.399  25.681  1.00  0.00    -0.240 OA
ATOM     22  N   UNL A   1      42.347  24.745  25.646  1.00  0.00    -0.234 N 
ATOM     23  H   UNL A   1      43.011  24.663  24.924  1.00  0.00     0.313 HD
BRANCH  20  24
ATOM     24  C   UNL A   1      43.855  27.131  24.996  1.00  0.00     0.244 C 
ATOM     25  C   UNL A   1      44.984  27.018  26.004  1.00  0.00     0.055 C 
ENDBRANCH  20  24
BRANCH  22  26
ATOM     26  C   UNL A   1      41.849  23.584  26.272  1.00  0.00     0.129 A 
ATOM     27  C   UNL A   1      42.630  23.030  27.286  1.00  0.00     0.052 A 
ATOM     28  C   UNL A   1      40.617  22.993  25.990  1.00  0.00     0.097 A 
ATOM     29  C   UNL A   1      42.169  21.984  28.085  1.00  0.00     0.008 A 
ATOM     30  C   UNL A   1      40.139  21.970  26.810  1.00  0.00     0.119 A 
ATOM     31  C   UNL A   1      40.903  21.464  27.855  1.00  0.00     0.046 A 
BRANCH  30  32
ATOM     32  O   UNL A   1      38.886  21.457  26.642  1.00  0.00    -0.508 OA
ATOM     33  H   UNL A   1      38.146  21.898  27.009  1.00  0.00     0.293 HD
ENDBRANCH  30  32
ENDBRANCH  22  26
ENDBRANCH  11  15
ENDBRANCH   8   9
ENDBRANCH   5   8
ENDBRANCH   1   5
BRANCH   3  34
ATOM     34  C   UNL A   1      34.781  32.657  30.689  1.00  0.00     0.118 C 
BRANCH  34  35
ATOM     35  C   UNL A   1      34.572  33.342  32.037  1.00  0.00     0.042 C 
BRANCH  35  36
ATOM     36  C   UNL A   1      35.788  34.051  32.644  1.00  0.00     0.118 C 
BRANCH  36  37
ATOM     37  N   UNL A   1      35.961  33.846  34.080  1.00  0.00    -0.352 N 
ATOM     38  C   UNL A   1      36.952  33.270  34.843  1.00  0.00     0.251 C 
ATOM     39  H   UNL A   1      35.211  34.193  34.614  1.00  0.00     0.163 HD
ATOM     40  O   UNL A   1      36.778  33.198  36.059  1.00  0.00    -0.269 OA
BRANCH  38  41
ATOM     41  C   UNL A   1      38.188  32.672  34.269  1.00  0.00     0.039 A 
ATOM     42  C   UNL A   1      38.043  31.674  33.289  1.00  0.00     0.014 A 
ATOM     43  C   UNL A   1      39.471  33.025  34.684  1.00  0.00     0.014 A 
ATOM     44  C   UNL A   1      39.161  31.088  32.682  1.00  0.00     0.010 A 
ATOM     45  C   UNL A   1      40.590  32.463  34.058  1.00  0.00     0.010 A 
ATOM     46  C   UNL A   1      40.448  31.486  33.057  1.00  0.00    -0.014 A 
BRANCH  46  47
ATOM     47  C   UNL A   1      41.653  30.802  32.518  1.00  0.00     0.031 A 
ATOM     48  C   UNL A   1      42.326  31.368  31.296  1.00  0.00     0.074 A 
ATOM     49  C   UNL A   1      42.133  29.676  33.080  1.00  0.00     0.049 A 
ATOM     50  N   UNL A   1      43.313  30.880  30.588  1.00  0.00    -0.248 NA
ATOM     51  C   UNL A   1      41.803  32.651  30.798  1.00  0.00     0.031 C 
ATOM     52  C   UNL A   1      41.601  29.027  34.278  1.00  0.00     0.029 A 
ATOM     53  N   UNL A   1      43.177  28.867  32.697  1.00  0.00    -0.354 N 
ATOM     54  C   UNL A   1      43.517  31.785  29.554  1.00  0.00     0.074 A 
ATOM     55  C   UNL A   1      42.527  32.830  29.703  1.00  0.00     0.031 C 
ATOM     56  C   UNL A   1      42.321  27.918  34.529  1.00  0.00     0.029 A 
ATOM     57  C   UNL A   1      43.337  27.757  33.492  1.00  0.00     0.049 A 
ATOM     58  H   UNL A   1      43.755  29.064  31.925  1.00  0.00     0.167 HD
ATOM     59  C   UNL A   1      44.449  31.762  28.572  1.00  0.00     0.031 A 
ATOM     60  C   UNL A   1      44.193  26.720  33.383  1.00  0.00     0.031 A 
ATOM     61  C   UNL A   1      45.440  30.731  28.416  1.00  0.00     0.049 A 
ATOM     62  C   UNL A   1      45.182  26.685  32.245  1.00  0.00     0.074 A 
ATOM     63  C   UNL A   1      46.438  30.634  27.462  1.00  0.00     0.029 A 
ATOM     64  N   UNL A   1      45.559  29.621  29.236  1.00  0.00    -0.354 N 
ATOM     65  N   UNL A   1      45.378  27.560  31.288  1.00  0.00    -0.248 NA
ATOM     66  C   UNL A   1      46.074  25.517  32.178  1.00  0.00     0.031 C 
ATOM     67  C   UNL A   1      47.133  29.438  27.675  1.00  0.00     0.029 A 
ATOM     68  C   UNL A   1      46.601  28.821  28.797  1.00  0.00     0.049 A 
ATOM     69  H   UNL A   1      44.988  29.429  30.014  1.00  0.00     0.167 HD
ATOM     70  C   UNL A   1      46.433  27.064  30.530  1.00  0.00     0.074 A 
ATOM     71  C   UNL A   1      46.846  25.822  31.146  1.00  0.00     0.031 C 
ATOM     72  C   UNL A   1      47.008  27.590  29.420  1.00  0.00     0.031 A 
BRANCH  59  73
ATOM     73  C   UNL A   1      44.428  32.883  27.573  1.00  0.00    -0.014 A 
ATOM     74  C   UNL A   1      45.019  34.123  27.862  1.00  0.00     0.009 A 
ATOM     75  C   UNL A   1      43.838  32.686  26.316  1.00  0.00     0.009 A 
ATOM     76  C   UNL A   1      44.992  35.155  26.921  1.00  0.00     0.001 A 
ATOM     77  C   UNL A   1      43.838  33.710  25.367  1.00  0.00     0.001 A 
ATOM     78  C   UNL A   1      44.406  34.946  25.673  1.00  0.00     0.000 A 
ENDBRANCH  59  73
BRANCH  60  79
ATOM     79  C   UNL A   1      44.152  25.601  34.363  1.00  0.00    -0.014 A 
ATOM     80  C   UNL A   1      44.919  25.651  35.538  1.00  0.00     0.009 A 
ATOM     81  C   UNL A   1      43.393  24.450  34.100  1.00  0.00     0.009 A 
ATOM     82  C   UNL A   1      44.955  24.559  36.408  1.00  0.00     0.001 A 
ATOM     83  C   UNL A   1      43.406  23.372  34.988  1.00  0.00     0.001 A 
ATOM     84  C   UNL A   1      44.197  23.421  36.134  1.00  0.00     0.000 A 
ENDBRANCH  60  79
BRANCH  72  85
ATOM     85  C   UNL A   1      48.174  26.850  28.825  1.00  0.00    -0.014 A 
ATOM     86  C   UNL A   1      49.493  27.131  29.211  1.00  0.00     0.009 A 
ATOM     87  C   UNL A   1      47.942  25.825  27.894  1.00  0.00     0.009 A 
ATOM     88  C   UNL A   1      50.560  26.424  28.649  1.00  0.00     0.001 A 
ATOM     89  C   UNL A   1      49.006  25.100  27.356  1.00  0.00     0.001 A 
ATOM     90  C   UNL A   1      50.315  25.407  27.727  1.00  0.00     0.000 A 
ENDBRANCH  72  85
ENDBRANCH  46  47
ENDBRANCH  38  41
ENDBRANCH  36  37
ENDBRANCH  35  36
ENDBRANCH  34  35
ENDBRANCH   3  34
TORSDOF 17
ENDMDL
MODEL 2
REMARK VINA RESULT:      -9.0      4.635     10.534
REMARK SMILES CC[C@@H](Oc1ccccc1/C=C1\S/C(=[NH+]\c2cccc(O)c2)N(CC)C1=O)C(=O)NCCCNC(=O)c1ccc(-c2c3nc(c(-c4ccccc4)c4ccc([nH]4)c(-c4ccccc4)c4nc(c(-c5ccccc5)c5ccc2[nH]5)C=C4)C=C3)cc1
REMARK SMILES IDX 28 1 29 2 30 3 3 5 2 6 1 7 4 8 5 9 6 10 10 11 7 12 9 13 8 14
REMARK SMILES IDX 11 15 12 16 13 17 26 18 14 19 23 20 27 21 15 22 24 24 25 25
REMARK SMILES IDX 16 26 17 27 22 28 18 29 20 30 19 31 21 32 31 34 32 35 33 36
REMARK SMILES IDX 34 37 35 38 36 40 37 41 38 42 84 43 39 44 83 45 40 46 41 47
REMARK SMILES IDX 42 48 77 49 43 50 82 51 76 52 78 53 44 54 81 55 75 56 74 57
REMARK SMILES IDX 45 59 67 60 52 61 66 62 53 63 56 64 65 65 79 66 54 67 55 68
REMARK SMILES IDX 64 70 80 71 57 72 46 73 47 74 51 75 48 76 50 77 49 78 68 79
REMARK SMILES IDX 69 80 73 81 70 82 72 83 71 84 58 85 59 86 63 87 60 88 62 89
REMARK SMILES IDX 61 90
REMARK H PARENT 30 4 15 23 21 33 34 39 78 58 56 69
REMARK Flexibility Score: inf
ROOT
ATOM      1  C   UNL A   1      33.606  20.400  24.831  1.00  0.00     0.261 C 
ATOM      2  O   UNL A   1      32.763  19.518  24.615  1.00  0.00    -0.271 OA
ATOM      3  N   UNL A   1      34.895  19.972  24.969  1.00  0.00    -0.353 N 
ATOM      4  H   UNL A   1      34.987  18.996  25.061  1.00  0.00     0.163 HD
ENDROOT
BRANCH   1   5
ATOM      5  C   UNL A   1      33.135  21.860  25.065  1.00  0.00     0.261 C 
BRANCH   5   6
ATOM      6  C   UNL A   1      33.035  22.050  26.593  1.00  0.00     0.052 C 
ATOM      7  C   UNL A   1      34.161  22.908  27.160  1.00  0.00     0.008 C 
ENDBRANCH   5   6
BRANCH   5   8
ATOM      8  O   UNL A   1      33.982  22.866  24.516  1.00  0.00    -0.480 OA
BRANCH   8   9
ATOM      9  C   UNL A   1      33.524  23.483  23.375  1.00  0.00     0.127 A 
ATOM     10  C   UNL A   1      33.364  22.729  22.212  1.00  0.00     0.047 A 
ATOM     11  C   UNL A   1      33.385  24.889  23.336  1.00  0.00     0.018 A 
ATOM     12  C   UNL A   1      33.046  23.369  21.011  1.00  0.00     0.004 A 
ATOM     13  C   UNL A   1      33.064  25.517  22.129  1.00  0.00     0.012 A 
ATOM     14  C   UNL A   1      32.902  24.757  20.968  1.00  0.00     0.001 A 
BRANCH  11  15
ATOM     15  C   UNL A   1      33.504  25.691  24.560  1.00  0.00     0.036 C 
ATOM     16  C   UNL A   1      32.832  26.826  24.784  1.00  0.00     0.110 C 
ATOM     17  S   UNL A   1      31.519  27.446  23.890  1.00  0.00     0.007 SA
ATOM     18  C   UNL A   1      33.334  27.842  25.744  1.00  0.00     0.348 C 
ATOM     19  C   UNL A   1      31.573  28.994  24.707  1.00  0.00     0.324 C 
ATOM     20  N   UNL A   1      32.644  29.028  25.572  1.00  0.00    -0.186 N 
ATOM     21  O   UNL A   1      34.301  27.660  26.472  1.00  0.00    -0.240 OA
ATOM     22  N   UNL A   1      30.783  30.002  24.519  1.00  0.00    -0.234 N 
ATOM     23  H   UNL A   1      30.849  30.790  25.105  1.00  0.00     0.313 HD
BRANCH  20  24
ATOM     24  C   UNL A   1      33.227  30.276  26.049  1.00  0.00     0.244 C 
ATOM     25  C   UNL A   1      32.529  30.880  27.254  1.00  0.00     0.055 C 
ENDBRANCH  20  24
BRANCH  22  26
ATOM     26  C   UNL A   1      29.827  29.980  23.484  1.00  0.00     0.129 A 
ATOM     27  C   UNL A   1      28.765  29.086  23.623  1.00  0.00     0.052 A 
ATOM     28  C   UNL A   1      29.838  30.823  22.371  1.00  0.00     0.097 A 
ATOM     29  C   UNL A   1      27.678  29.089  22.751  1.00  0.00     0.008 A 
ATOM     30  C   UNL A   1      28.735  30.852  21.517  1.00  0.00     0.119 A 
ATOM     31  C   UNL A   1      27.655  29.995  21.700  1.00  0.00     0.046 A 
BRANCH  30  32
ATOM     32  O   UNL A   1      28.656  31.751  20.495  1.00  0.00    -0.508 OA
ATOM     33  H   UNL A   1      28.742  32.668  20.669  1.00  0.00     0.293 HD
ENDBRANCH  30  32
ENDBRANCH  22  26
ENDBRANCH  11  15
ENDBRANCH   8   9
ENDBRANCH   5   8
ENDBRANCH   1   5
BRANCH   3  34
ATOM     34  C   UNL A   1      36.154  20.695  25.005  1.00  0.00     0.118 C 
BRANCH  34  35
ATOM     35  C   UNL A   1      37.379  19.786  25.001  1.00  0.00     0.042 C 
BRANCH  35  36
ATOM     36  C   UNL A   1      38.636  20.325  25.695  1.00  0.00     0.118 C 
BRANCH  36  37
ATOM     37  N   UNL A   1      39.753  19.385  25.751  1.00  0.00    -0.352 N 
ATOM     38  C   UNL A   1      41.096  19.523  26.020  1.00  0.00     0.251 C 
ATOM     39  H   UNL A   1      39.489  18.457  25.555  1.00  0.00     0.163 HD
ATOM     40  O   UNL A   1      41.810  18.524  25.933  1.00  0.00    -0.269 OA
BRANCH  38  41
ATOM     41  C   UNL A   1      41.739  20.825  26.345  1.00  0.00     0.039 A 
ATOM     42  C   UNL A   1      41.948  21.137  27.700  1.00  0.00     0.014 A 
ATOM     43  C   UNL A   1      42.105  21.758  25.376  1.00  0.00     0.014 A 
ATOM     44  C   UNL A   1      42.576  22.330  28.080  1.00  0.00     0.010 A 
ATOM     45  C   UNL A   1      42.760  22.938  25.751  1.00  0.00     0.010 A 
ATOM     46  C   UNL A   1      42.996  23.239  27.104  1.00  0.00    -0.014 A 
BRANCH  46  47
ATOM     47  C   UNL A   1      43.558  24.564  27.476  1.00  0.00     0.031 A 
ATOM     48  C   UNL A   1      42.618  25.660  27.904  1.00  0.00     0.074 A 
ATOM     49  C   UNL A   1      44.880  24.811  27.406  1.00  0.00     0.049 A 
ATOM     50  N   UNL A   1      42.869  26.919  28.161  1.00  0.00    -0.248 NA
ATOM     51  C   UNL A   1      41.201  25.286  28.047  1.00  0.00     0.031 C 
ATOM     52  C   UNL A   1      45.910  23.843  27.033  1.00  0.00     0.029 A 
ATOM     53  N   UNL A   1      45.580  25.973  27.637  1.00  0.00    -0.354 N 
ATOM     54  C   UNL A   1      41.643  27.489  28.478  1.00  0.00     0.074 A 
ATOM     55  C   UNL A   1      40.644  26.451  28.344  1.00  0.00     0.031 C 
ATOM     56  C   UNL A   1      47.110  24.453  27.055  1.00  0.00     0.029 A 
ATOM     57  C   UNL A   1      46.931  25.859  27.407  1.00  0.00     0.049 A 
ATOM     58  H   UNL A   1      45.153  26.807  27.937  1.00  0.00     0.167 HD
ATOM     59  C   UNL A   1      41.367  28.758  28.860  1.00  0.00     0.031 A 
ATOM     60  C   UNL A   1      47.907  26.788  27.457  1.00  0.00     0.031 A 
ATOM     61  C   UNL A   1      42.351  29.797  29.002  1.00  0.00     0.049 A 
ATOM     62  C   UNL A   1      47.565  28.210  27.825  1.00  0.00     0.074 A 
ATOM     63  C   UNL A   1      42.166  31.109  29.403  1.00  0.00     0.029 A 
ATOM     64  N   UNL A   1      43.704  29.642  28.749  1.00  0.00    -0.354 N 
ATOM     65  N   UNL A   1      46.405  28.729  28.145  1.00  0.00    -0.248 NA
ATOM     66  C   UNL A   1      48.677  29.175  27.844  1.00  0.00     0.031 C 
ATOM     67  C   UNL A   1      43.402  31.763  29.346  1.00  0.00     0.029 A 
ATOM     68  C   UNL A   1      44.364  30.840  28.964  1.00  0.00     0.049 A 
ATOM     69  H   UNL A   1      44.132  28.805  28.460  1.00  0.00     0.167 HD
ATOM     70  C   UNL A   1      46.653  30.067  28.433  1.00  0.00     0.074 A 
ATOM     71  C   UNL A   1      48.074  30.277  28.267  1.00  0.00     0.031 C 
ATOM     72  C   UNL A   1      45.779  31.036  28.802  1.00  0.00     0.031 A 
BRANCH  59  73
ATOM     73  C   UNL A   1      39.930  29.099  29.136  1.00  0.00    -0.014 A 
ATOM     74  C   UNL A   1      39.395  28.996  30.430  1.00  0.00     0.009 A 
ATOM     75  C   UNL A   1      39.110  29.560  28.094  1.00  0.00     0.009 A 
ATOM     76  C   UNL A   1      38.057  29.319  30.668  1.00  0.00     0.001 A 
ATOM     77  C   UNL A   1      37.781  29.909  28.342  1.00  0.00     0.001 A 
ATOM     78  C   UNL A   1      37.254  29.779  29.626  1.00  0.00     0.000 A 
ENDBRANCH  59  73
BRANCH  60  79
ATOM     79  C   UNL A   1      49.313  26.425  27.129  1.00  0.00    -0.014 A 
ATOM     80  C   UNL A   1      50.216  26.073  28.145  1.00  0.00     0.009 A 
ATOM     81  C   UNL A   1      49.775  26.488  25.806  1.00  0.00     0.009 A 
ATOM     82  C   UNL A   1      51.558  25.828  27.846  1.00  0.00     0.001 A 
ATOM     83  C   UNL A   1      51.111  26.211  25.506  1.00  0.00     0.001 A 
ATOM     84  C   UNL A   1      52.004  25.895  26.527  1.00  0.00     0.000 A 
ENDBRANCH  60  79
BRANCH  72  85
ATOM     85  C   UNL A   1      46.340  32.401  29.094  1.00  0.00    -0.014 A 
ATOM     86  C   UNL A   1      46.491  33.362  28.082  1.00  0.00     0.009 A 
ATOM     87  C   UNL A   1      46.685  32.743  30.411  1.00  0.00     0.009 A 
ATOM     88  C   UNL A   1      47.007  34.626  28.378  1.00  0.00     0.001 A 
ATOM     89  C   UNL A   1      47.173  34.016  30.710  1.00  0.00     0.001 A 
ATOM     90  C   UNL A   1      47.342  34.953  29.692  1.00  0.00     0.000 A 
ENDBRANCH  72  85
ENDBRANCH  46  47
ENDBRANCH  38  41
ENDBRANCH  36  37
ENDBRANCH  35  36
ENDBRANCH  34  35
ENDBRANCH   3  34
TORSDOF 17
ENDMDL
MODEL 3
REMARK VINA RESULT:      -9.0      8.277     14.865
REMARK SMILES CC[C@@H](Oc1ccccc1/C=C1\S/C(=[NH+]\c2cccc(O)c2)N(CC)C1=O)C(=O)NCCCNC(=O)c1ccc(-c2c3nc(c(-c4ccccc4)c4ccc([nH]4)c(-c4ccccc4)c4nc(c(-c5ccccc5)c5ccc2[nH]5)C=C4)C=C3)cc1
REMARK SMILES IDX 28 1 29 2 30 3 3 5 2 6 1 7 4 8 5 9 6 10 10 11 7 12 9 13 8 14
REMARK SMILES IDX 11 15 12 16 13 17 26 18 14 19 23 20 27 21 15 22 24 24 25 25
REMARK SMILES IDX 16 26 17 27 22 28 18 29 20 30 19 31 21 32 31 34 32 35 33 36
REMARK SMILES IDX 34 37 35 38 36 40 37 41 38 42 84 43 39 44 83 45 40 46 41 47
REMARK SMILES IDX 42 48 77 49 43 50 82 51 76 52 78 53 44 54 81 55 75 56 74 57
REMARK SMILES IDX 45 59 67 60 52 61 66 62 53 63 56 64 65 65 79 66 54 67 55 68
REMARK SMILES IDX 64 70 80 71 57 72 46 73 47 74 51 75 48 76 50 77 49 78 68 79
REMARK SMILES IDX 69 80 73 81 70 82 72 83 71 84 58 85 59 86 63 87 60 88 62 89
REMARK SMILES IDX 61 90
REMARK H PARENT 30 4 15 23 21 33 34 39 78 58 56 69
REMARK Flexibility Score: inf
ROOT
ATOM      1  C   UNL A   1      46.402  20.446  39.465  1.00  0.00     0.261 C 
ATOM      2  O   UNL A   1      46.164  20.931  40.580  1.00  0.00    -0.271 OA
ATOM      3  N   UNL A   1      46.227  21.282  38.401  1.00  0.00    -0.353 N 
ATOM      4  H   UNL A   1      45.760  22.121  38.620  1.00  0.00     0.163 HD
ENDROOT
BRANCH   1   5
ATOM      5  C   UNL A   1      46.732  18.933  39.349  1.00  0.00     0.261 C 
BRANCH   5   6
ATOM      6  C   UNL A   1      48.257  18.831  39.138  1.00  0.00     0.052 C 
ATOM      7  C   UNL A   1      49.036  19.888  39.916  1.00  0.00     0.008 C 
ENDBRANCH   5   6
BRANCH   5   8
ATOM      8  O   UNL A   1      46.354  18.142  40.473  1.00  0.00    -0.480 OA
BRANCH   8   9
ATOM      9  C   UNL A   1      45.244  17.348  40.304  1.00  0.00     0.127 A 
ATOM     10  C   UNL A   1      44.922  16.892  39.024  1.00  0.00     0.047 A 
ATOM     11  C   UNL A   1      44.350  17.141  41.378  1.00  0.00     0.018 A 
ATOM     12  C   UNL A   1      43.719  16.213  38.815  1.00  0.00     0.004 A 
ATOM     13  C   UNL A   1      43.150  16.458  41.155  1.00  0.00     0.012 A 
ATOM     14  C   UNL A   1      42.834  16.002  39.874  1.00  0.00     0.001 A 
BRANCH  11  15
ATOM     15  C   UNL A   1      44.695  17.572  42.738  1.00  0.00     0.036 C 
ATOM     16  C   UNL A   1      44.866  16.740  43.771  1.00  0.00     0.110 C 
ATOM     17  S   UNL A   1      45.014  15.041  43.719  1.00  0.00     0.007 SA
ATOM     18  C   UNL A   1      44.703  17.206  45.172  1.00  0.00     0.348 C 
ATOM     19  C   UNL A   1      44.875  14.883  45.458  1.00  0.00     0.324 C 
ATOM     20  N   UNL A   1      44.630  16.116  46.020  1.00  0.00    -0.186 N 
ATOM     21  O   UNL A   1      44.531  18.378  45.476  1.00  0.00    -0.240 OA
ATOM     22  N   UNL A   1      44.931  13.789  46.146  1.00  0.00    -0.234 N 
ATOM     23  H   UNL A   1      44.935  13.830  47.130  1.00  0.00     0.313 HD
BRANCH  20  24
ATOM     24  C   UNL A   1      44.030  16.269  47.340  1.00  0.00     0.244 C 
ATOM     25  C   UNL A   1      45.018  16.568  48.453  1.00  0.00     0.055 C 
ENDBRANCH  20  24
BRANCH  22  26
ATOM     26  C   UNL A   1      44.988  12.537  45.501  1.00  0.00     0.129 A 
ATOM     27  C   UNL A   1      43.771  11.921  45.210  1.00  0.00     0.052 A 
ATOM     28  C   UNL A   1      46.163  11.908  45.087  1.00  0.00     0.097 A 
ATOM     29  C   UNL A   1      43.696  10.766  44.432  1.00  0.00     0.008 A 
ATOM     30  C   UNL A   1      46.088  10.771  44.279  1.00  0.00     0.119 A 
ATOM     31  C   UNL A   1      44.866  10.199  43.947  1.00  0.00     0.046 A 
BRANCH  30  32
ATOM     32  O   UNL A   1      47.211  10.205  43.751  1.00  0.00    -0.508 OA
ATOM     33  H   UNL A   1      47.501   9.367  44.054  1.00  0.00     0.293 HD
ENDBRANCH  30  32
ENDBRANCH  22  26
ENDBRANCH  11  15
ENDBRANCH   8   9
ENDBRANCH   5   8
ENDBRANCH   1   5
BRANCH   3  34
ATOM     34  C   UNL A   1      46.605  21.159  37.004  1.00  0.00     0.118 C 
BRANCH  34  35
ATOM     35  C   UNL A   1      45.654  21.876  36.050  1.00  0.00     0.042 C 
BRANCH  35  36
ATOM     36  C   UNL A   1      46.161  23.183  35.428  1.00  0.00     0.118 C 
BRANCH  36  37
ATOM     37  N   UNL A   1      46.690  24.151  36.386  1.00  0.00    -0.352 N 
ATOM     38  C   UNL A   1      46.431  25.481  36.632  1.00  0.00     0.251 C 
ATOM     39  H   UNL A   1      47.376  23.772  36.982  1.00  0.00     0.163 HD
ATOM     40  O   UNL A   1      47.098  26.051  37.495  1.00  0.00    -0.269 OA
BRANCH  38  41
ATOM     41  C   UNL A   1      45.436  26.279  35.866  1.00  0.00     0.039 A 
ATOM     42  C   UNL A   1      44.090  25.874  35.912  1.00  0.00     0.014 A 
ATOM     43  C   UNL A   1      45.781  27.377  35.080  1.00  0.00     0.014 A 
ATOM     44  C   UNL A   1      43.094  26.594  35.241  1.00  0.00     0.010 A 
ATOM     45  C   UNL A   1      44.784  28.117  34.433  1.00  0.00     0.010 A 
ATOM     46  C   UNL A   1      43.434  27.731  34.500  1.00  0.00    -0.014 A 
BRANCH  46  47
ATOM     47  C   UNL A   1      42.420  28.449  33.683  1.00  0.00     0.031 A 
ATOM     48  C   UNL A   1      41.514  29.445  34.356  1.00  0.00     0.074 A 
ATOM     49  C   UNL A   1      42.277  28.203  32.366  1.00  0.00     0.049 A 
ATOM     50  N   UNL A   1      40.489  30.099  33.870  1.00  0.00    -0.248 NA
ATOM     51  C   UNL A   1      41.794  29.729  35.773  1.00  0.00     0.031 C 
ATOM     52  C   UNL A   1      43.097  27.285  31.576  1.00  0.00     0.029 A 
ATOM     53  N   UNL A   1      41.368  28.703  31.463  1.00  0.00    -0.354 N 
ATOM     54  C   UNL A   1      39.994  30.857  34.925  1.00  0.00     0.074 A 
ATOM     55  C   UNL A   1      40.804  30.553  36.084  1.00  0.00     0.031 C 
ATOM     56  C   UNL A   1      42.649  27.285  30.306  1.00  0.00     0.029 A 
ATOM     57  C   UNL A   1      41.492  28.170  30.202  1.00  0.00     0.049 A 
ATOM     58  H   UNL A   1      40.691  29.377  31.698  1.00  0.00     0.167 HD
ATOM     59  C   UNL A   1      38.965  31.737  34.931  1.00  0.00     0.031 A 
ATOM     60  C   UNL A   1      40.745  28.361  29.095  1.00  0.00     0.031 A 
ATOM     61  C   UNL A   1      38.156  32.051  33.784  1.00  0.00     0.049 A 
ATOM     62  C   UNL A   1      39.566  29.301  29.143  1.00  0.00     0.074 A 
ATOM     63  C   UNL A   1      37.104  32.946  33.692  1.00  0.00     0.029 A 
ATOM     64  N   UNL A   1      38.309  31.482  32.531  1.00  0.00    -0.354 N 
ATOM     65  N   UNL A   1      39.124  30.028  30.141  1.00  0.00    -0.248 NA
ATOM     66  C   UNL A   1      38.786  29.449  27.904  1.00  0.00     0.031 C 
ATOM     67  C   UNL A   1      36.588  32.883  32.394  1.00  0.00     0.029 A 
ATOM     68  C   UNL A   1      37.357  31.990  31.664  1.00  0.00     0.049 A 
ATOM     69  H   UNL A   1      38.993  30.815  32.293  1.00  0.00     0.167 HD
ATOM     70  C   UNL A   1      38.040  30.740  29.641  1.00  0.00     0.074 A 
ATOM     71  C   UNL A   1      37.900  30.372  28.249  1.00  0.00     0.031 C 
ATOM     72  C   UNL A   1      37.230  31.621  30.279  1.00  0.00     0.031 A 
BRANCH  59  73
ATOM     73  C   UNL A   1      38.645  32.415  36.233  1.00  0.00    -0.014 A 
ATOM     74  C   UNL A   1      37.781  31.821  37.166  1.00  0.00     0.009 A 
ATOM     75  C   UNL A   1      39.241  33.646  36.544  1.00  0.00     0.009 A 
ATOM     76  C   UNL A   1      37.495  32.463  38.373  1.00  0.00     0.001 A 
ATOM     77  C   UNL A   1      38.976  34.272  37.764  1.00  0.00     0.001 A 
ATOM     78  C   UNL A   1      38.097  33.685  38.672  1.00  0.00     0.000 A 
ENDBRANCH  59  73
BRANCH  60  79
ATOM     79  C   UNL A   1      41.062  27.635  27.835  1.00  0.00    -0.014 A 
ATOM     80  C   UNL A   1      41.874  28.225  26.854  1.00  0.00     0.009 A 
ATOM     81  C   UNL A   1      40.504  26.372  27.580  1.00  0.00     0.009 A 
ATOM     82  C   UNL A   1      42.091  27.583  25.632  1.00  0.00     0.001 A 
ATOM     83  C   UNL A   1      40.748  25.719  26.371  1.00  0.00     0.001 A 
ATOM     84  C   UNL A   1      41.529  26.330  25.392  1.00  0.00     0.000 A 
ENDBRANCH  60  79
BRANCH  72  85
ATOM     85  C   UNL A   1      36.148  32.282  29.469  1.00  0.00    -0.014 A 
ATOM     86  C   UNL A   1      34.950  31.616  29.170  1.00  0.00     0.009 A 
ATOM     87  C   UNL A   1      36.317  33.606  29.035  1.00  0.00     0.009 A 
ATOM     88  C   UNL A   1      33.956  32.253  28.422  1.00  0.00     0.001 A 
ATOM     89  C   UNL A   1      35.311  34.250  28.314  1.00  0.00     0.001 A 
ATOM     90  C   UNL A   1      34.135  33.571  28.000  1.00  0.00     0.000 A 
ENDBRANCH  72  85
ENDBRANCH  46  47
ENDBRANCH  38  41
ENDBRANCH  36  37
ENDBRANCH  35  36
ENDBRANCH  34  35
ENDBRANCH   3  34
TORSDOF 17
ENDMDL
