MODEL 1
REMARK VINA RESULT:     -13.0      0.000      0.000
REMARK SMILES CC(C)[C@H](NC(=O)N1c2ccccc2[NH+]=C(NCCCNC(=O)c2ccc(-c3c4nc(c(-c5ccccc5)c5ccc([nH]5)c(-c5ccccc5)c5nc(c(-c6ccccc6)c6ccc3[nH]6)C=C5)C=C4)cc2)[C@@H]1C(C)C)C(=O)N1CCC(C(=O)[O-])CC1
REMARK SMILES IDX 18 1 17 2 8 3 9 4 72 5 10 6 14 7 16 8 11 9 13 10 15 11 12 12
REMARK SMILES IDX 6 15 5 16 7 18 4 19 2 20 1 21 3 22 76 23 77 24 78 25 79 26
REMARK SMILES IDX 86 27 80 28 85 29 81 30 82 31 83 32 84 33 73 34 74 35 75 36
REMARK SMILES IDX 19 37 20 38 21 39 22 40 23 42 24 43 25 44 71 45 26 46 70 47
REMARK SMILES IDX 27 48 28 49 29 50 64 51 30 52 69 53 63 54 65 55 31 56 68 57
REMARK SMILES IDX 62 58 61 59 32 61 54 62 39 63 53 64 40 65 43 66 52 67 66 68
REMARK SMILES IDX 41 69 42 70 51 72 67 73 44 74 33 75 34 76 38 77 35 78 37 79
REMARK SMILES IDX 36 80 55 81 56 82 60 83 57 84 59 85 58 86 45 87 46 88 50 89
REMARK SMILES IDX 47 90 49 91 48 92
REMARK H PARENT 15 13 17 14 5 17 21 41 65 60 43 71
REMARK Flexibility Score: inf
ROOT
ATOM      1  C   UNL A   1      31.756  27.158  26.011  1.00  0.00     0.235 C 
ENDROOT
BRANCH   1   2
ATOM      2  N   UNL A   1      32.693  26.070  26.125  1.00  0.00    -0.276 N 
ATOM      3  N   UNL A   1      34.146  24.299  23.399  1.00  0.00    -0.275 N 
ATOM      4  C   UNL A   1      35.343  23.799  24.014  1.00  0.00     0.093 A 
ATOM      5  C   UNL A   1      33.891  25.726  23.763  1.00  0.00     0.208 C 
ATOM      6  C   UNL A   1      36.164  22.848  23.399  1.00  0.00     0.031 A 
ATOM      7  C   UNL A   1      35.619  24.246  25.326  1.00  0.00     0.148 A 
ATOM      8  C   UNL A   1      33.747  25.645  25.338  1.00  0.00     0.271 C 
ATOM      9  C   UNL A   1      37.247  22.314  24.099  1.00  0.00     0.002 A 
ATOM     10  C   UNL A   1      36.690  23.682  26.020  1.00  0.00     0.054 A 
ATOM     11  N   UNL A   1      34.674  25.022  26.037  1.00  0.00    -0.241 N 
ATOM     12  C   UNL A   1      37.500  22.718  25.411  1.00  0.00     0.005 A 
ATOM     13  H   UNL A   1      34.709  25.094  27.019  1.00  0.00     0.312 HD
ATOM     14  H   UNL A   1      32.555  25.516  26.927  1.00  0.00     0.304 HD
BRANCH   3  15
ATOM     15  C   UNL A   1      33.522  23.583  22.432  1.00  0.00     0.323 C 
ATOM     16  N   UNL A   1      32.817  22.468  22.748  1.00  0.00    -0.326 N 
ATOM     17  H   UNL A   1      32.208  22.219  22.015  1.00  0.00     0.166 HD
ATOM     18  O   UNL A   1      33.543  23.882  21.239  1.00  0.00    -0.248 OA
BRANCH  16  19
ATOM     19  C   UNL A   1      32.698  21.522  23.875  1.00  0.00     0.175 C 
BRANCH  19  20
ATOM     20  C   UNL A   1      31.808  21.874  25.101  1.00  0.00     0.015 C 
ATOM     21  C   UNL A   1      32.484  22.191  26.436  1.00  0.00     0.010 C 
ATOM     22  C   UNL A   1      30.882  23.051  24.752  1.00  0.00     0.010 C 
ENDBRANCH  19  20
BRANCH  19  23
ATOM     23  C   UNL A   1      32.394  20.059  23.439  1.00  0.00     0.245 C 
ATOM     24  O   UNL A   1      31.878  19.870  22.330  1.00  0.00    -0.272 OA
ATOM     25  N   UNL A   1      32.992  19.004  24.124  1.00  0.00    -0.341 N 
ATOM     26  C   UNL A   1      33.590  17.937  23.325  1.00  0.00     0.120 C 
ATOM     27  C   UNL A   1      33.199  18.898  25.567  1.00  0.00     0.120 C 
ATOM     28  C   UNL A   1      33.133  16.566  23.771  1.00  0.00     0.031 C 
ATOM     29  C   UNL A   1      32.738  17.530  26.075  1.00  0.00     0.031 C 
ATOM     30  C   UNL A   1      33.361  16.385  25.272  1.00  0.00     0.038 C 
BRANCH  30  31
ATOM     31  C   UNL A   1      32.820  15.053  25.718  1.00  0.00     0.045 C 
ATOM     32  O   UNL A   1      33.295  13.962  25.436  1.00  0.00    -0.550 OA
ATOM     33  O   UNL A   1      31.720  15.144  26.485  1.00  0.00    -0.550 OA
ENDBRANCH  30  31
ENDBRANCH  19  23
ENDBRANCH  16  19
ENDBRANCH   3  15
BRANCH   5  34
ATOM     34  C   UNL A   1      32.829  26.598  23.038  1.00  0.00     0.018 C 
ATOM     35  C   UNL A   1      33.495  27.223  21.782  1.00  0.00     0.010 C 
ATOM     36  C   UNL A   1      31.556  25.943  22.505  1.00  0.00     0.010 C 
ENDBRANCH   5  34
ENDBRANCH   1   2
BRANCH   1  37
ATOM     37  C   UNL A   1      32.438  28.517  26.077  1.00  0.00     0.067 C 
BRANCH  37  38
ATOM     38  C   UNL A   1      33.335  28.696  27.290  1.00  0.00     0.120 C 
BRANCH  38  39
ATOM     39  N   UNL A   1      33.479  30.095  27.692  1.00  0.00    -0.352 N 
ATOM     40  C   UNL A   1      34.510  30.779  28.289  1.00  0.00     0.251 C 
ATOM     41  H   UNL A   1      32.689  30.650  27.499  1.00  0.00     0.163 HD
ATOM     42  O   UNL A   1      34.314  31.918  28.703  1.00  0.00    -0.269 OA
BRANCH  40  43
ATOM     43  C   UNL A   1      35.843  30.160  28.458  1.00  0.00     0.039 A 
ATOM     44  C   UNL A   1      36.745  30.172  27.387  1.00  0.00     0.014 A 
ATOM     45  C   UNL A   1      36.206  29.546  29.655  1.00  0.00     0.014 A 
ATOM     46  C   UNL A   1      38.030  29.650  27.554  1.00  0.00     0.010 A 
ATOM     47  C   UNL A   1      37.519  29.147  29.861  1.00  0.00     0.010 A 
ATOM     48  C   UNL A   1      38.445  29.180  28.810  1.00  0.00    -0.014 A 
BRANCH  48  49
ATOM     49  C   UNL A   1      39.829  28.700  29.054  1.00  0.00     0.031 A 
ATOM     50  C   UNL A   1      40.846  29.617  29.679  1.00  0.00     0.074 A 
ATOM     51  C   UNL A   1      40.195  27.472  28.636  1.00  0.00     0.049 A 
ATOM     52  N   UNL A   1      42.121  29.415  29.897  1.00  0.00    -0.248 NA
ATOM     53  C   UNL A   1      40.377  30.955  30.080  1.00  0.00     0.031 C 
ATOM     54  C   UNL A   1      39.317  26.500  27.980  1.00  0.00     0.029 A 
ATOM     55  N   UNL A   1      41.406  26.833  28.701  1.00  0.00    -0.354 N 
ATOM     56  C   UNL A   1      42.606  30.604  30.429  1.00  0.00     0.074 A 
ATOM     57  C   UNL A   1      41.507  31.542  30.436  1.00  0.00     0.031 C 
ATOM     58  C   UNL A   1      40.006  25.372  27.749  1.00  0.00     0.029 A 
ATOM     59  C   UNL A   1      41.384  25.557  28.190  1.00  0.00     0.049 A 
ATOM     60  H   UNL A   1      42.215  27.248  29.079  1.00  0.00     0.167 HD
ATOM     61  C   UNL A   1      43.846  30.884  30.895  1.00  0.00     0.031 A 
ATOM     62  C   UNL A   1      42.364  24.641  28.089  1.00  0.00     0.031 A 
ATOM     63  C   UNL A   1      44.935  29.945  30.897  1.00  0.00     0.049 A 
ATOM     64  C   UNL A   1      43.741  24.985  28.584  1.00  0.00     0.074 A 
ATOM     65  C   UNL A   1      46.213  30.104  31.401  1.00  0.00     0.029 A 
ATOM     66  N   UNL A   1      44.873  28.668  30.360  1.00  0.00    -0.354 N 
ATOM     67  N   UNL A   1      44.165  26.086  29.153  1.00  0.00    -0.248 NA
ATOM     68  C   UNL A   1      44.773  23.950  28.427  1.00  0.00     0.031 C 
ATOM     69  C   UNL A   1      46.943  28.947  31.112  1.00  0.00     0.029 A 
ATOM     70  C   UNL A   1      46.100  28.040  30.491  1.00  0.00     0.049 A 
ATOM     71  H   UNL A   1      44.074  28.266  29.946  1.00  0.00     0.167 HD
ATOM     72  C   UNL A   1      45.503  25.866  29.455  1.00  0.00     0.074 A 
ATOM     73  C   UNL A   1      45.813  24.520  29.017  1.00  0.00     0.031 C 
ATOM     74  C   UNL A   1      46.393  26.701  30.047  1.00  0.00     0.031 A 
BRANCH  61  75
ATOM     75  C   UNL A   1      44.085  32.274  31.423  1.00  0.00    -0.014 A 
ATOM     76  C   UNL A   1      44.459  33.328  30.572  1.00  0.00     0.009 A 
ATOM     77  C   UNL A   1      43.937  32.534  32.794  1.00  0.00     0.009 A 
ATOM     78  C   UNL A   1      44.738  34.595  31.090  1.00  0.00     0.001 A 
ATOM     79  C   UNL A   1      44.178  33.812  33.305  1.00  0.00     0.001 A 
ATOM     80  C   UNL A   1      44.594  34.836  32.456  1.00  0.00     0.000 A 
ENDBRANCH  61  75
BRANCH  62  81
ATOM     81  C   UNL A   1      42.071  23.293  27.533  1.00  0.00    -0.014 A 
ATOM     82  C   UNL A   1      41.466  22.315  28.338  1.00  0.00     0.009 A 
ATOM     83  C   UNL A   1      42.387  22.974  26.203  1.00  0.00     0.009 A 
ATOM     84  C   UNL A   1      41.207  21.040  27.832  1.00  0.00     0.001 A 
ATOM     85  C   UNL A   1      42.100  21.707  25.691  1.00  0.00     0.001 A 
ATOM     86  C   UNL A   1      41.519  20.738  26.508  1.00  0.00     0.000 A 
ENDBRANCH  62  81
BRANCH  74  87
ATOM     87  C   UNL A   1      47.777  26.167  30.292  1.00  0.00    -0.014 A 
ATOM     88  C   UNL A   1      48.720  26.069  29.258  1.00  0.00     0.009 A 
ATOM     89  C   UNL A   1      48.153  25.793  31.593  1.00  0.00     0.009 A 
ATOM     90  C   UNL A   1      50.001  25.573  29.515  1.00  0.00     0.001 A 
ATOM     91  C   UNL A   1      49.443  25.330  31.853  1.00  0.00     0.001 A 
ATOM     92  C   UNL A   1      50.362  25.210  30.812  1.00  0.00     0.000 A 
ENDBRANCH  74  87
ENDBRANCH  48  49
ENDBRANCH  40  43
ENDBRANCH  38  39
ENDBRANCH  37  38
ENDBRANCH   1  37
TORSDOF 15
ENDMDL
MODEL 2
REMARK VINA RESULT:     -12.1      2.727      5.933
REMARK SMILES CC(C)[C@H](NC(=O)N1c2ccccc2[NH+]=C(NCCCNC(=O)c2ccc(-c3c4nc(c(-c5ccccc5)c5ccc([nH]5)c(-c5ccccc5)c5nc(c(-c6ccccc6)c6ccc3[nH]6)C=C5)C=C4)cc2)[C@@H]1C(C)C)C(=O)N1CCC(C(=O)[O-])CC1
REMARK SMILES IDX 18 1 17 2 8 3 9 4 72 5 10 6 14 7 16 8 11 9 13 10 15 11 12 12
REMARK SMILES IDX 6 15 5 16 7 18 4 19 2 20 1 21 3 22 76 23 77 24 78 25 79 26
REMARK SMILES IDX 86 27 80 28 85 29 81 30 82 31 83 32 84 33 73 34 74 35 75 36
REMARK SMILES IDX 19 37 20 38 21 39 22 40 23 42 24 43 25 44 71 45 26 46 70 47
REMARK SMILES IDX 27 48 28 49 29 50 64 51 30 52 69 53 63 54 65 55 31 56 68 57
REMARK SMILES IDX 62 58 61 59 32 61 54 62 39 63 53 64 40 65 43 66 52 67 66 68
REMARK SMILES IDX 41 69 42 70 51 72 67 73 44 74 33 75 34 76 38 77 35 78 37 79
REMARK SMILES IDX 36 80 55 81 56 82 60 83 57 84 59 85 58 86 45 87 46 88 50 89
REMARK SMILES IDX 47 90 49 91 48 92
REMARK H PARENT 15 13 17 14 5 17 21 41 65 60 43 71
REMARK Flexibility Score: inf
ROOT
ATOM      1  C   UNL A   1      31.410  27.120  25.868  1.00  0.00     0.235 C 
ENDROOT
BRANCH   1   2
ATOM      2  N   UNL A   1      32.394  26.077  26.014  1.00  0.00    -0.276 N 
ATOM      3  N   UNL A   1      34.027  24.387  23.339  1.00  0.00    -0.275 N 
ATOM      4  C   UNL A   1      35.223  23.942  23.997  1.00  0.00     0.093 A 
ATOM      5  C   UNL A   1      33.691  25.799  23.697  1.00  0.00     0.208 C 
ATOM      6  C   UNL A   1      36.110  23.033  23.410  1.00  0.00     0.031 A 
ATOM      7  C   UNL A   1      35.430  24.396  25.319  1.00  0.00     0.148 A 
ATOM      8  C   UNL A   1      33.495  25.705  25.266  1.00  0.00     0.271 C 
ATOM      9  C   UNL A   1      37.192  22.549  24.148  1.00  0.00     0.002 A 
ATOM     10  C   UNL A   1      36.501  23.882  26.050  1.00  0.00     0.054 A 
ATOM     11  N   UNL A   1      34.424  25.125  25.996  1.00  0.00    -0.241 N 
ATOM     12  C   UNL A   1      37.377  22.959  25.470  1.00  0.00     0.005 A 
ATOM     13  H   UNL A   1      34.419  25.194  26.979  1.00  0.00     0.312 HD
ATOM     14  H   UNL A   1      32.253  25.514  26.810  1.00  0.00     0.304 HD
BRANCH   3  15
ATOM     15  C   UNL A   1      33.473  23.646  22.349  1.00  0.00     0.323 C 
ATOM     16  N   UNL A   1      32.804  22.502  22.638  1.00  0.00    -0.326 N 
ATOM     17  H   UNL A   1      32.237  22.227  21.881  1.00  0.00     0.166 HD
ATOM     18  O   UNL A   1      33.530  23.947  21.158  1.00  0.00    -0.248 OA
BRANCH  16  19
ATOM     19  C   UNL A   1      32.681  21.550  23.760  1.00  0.00     0.175 C 
BRANCH  19  20
ATOM     20  C   UNL A   1      31.790  21.898  24.986  1.00  0.00     0.015 C 
ATOM     21  C   UNL A   1      32.463  22.217  26.321  1.00  0.00     0.010 C 
ATOM     22  C   UNL A   1      30.859  23.071  24.637  1.00  0.00     0.010 C 
ENDBRANCH  19  20
BRANCH  19  23
ATOM     23  C   UNL A   1      32.375  20.090  23.316  1.00  0.00     0.245 C 
ATOM     24  O   UNL A   1      31.850  19.908  22.210  1.00  0.00    -0.272 OA
ATOM     25  N   UNL A   1      32.979  19.031  23.989  1.00  0.00    -0.341 N 
ATOM     26  C   UNL A   1      33.572  17.970  23.178  1.00  0.00     0.120 C 
ATOM     27  C   UNL A   1      33.197  18.915  25.430  1.00  0.00     0.120 C 
ATOM     28  C   UNL A   1      33.120  16.595  23.618  1.00  0.00     0.031 C 
ATOM     29  C   UNL A   1      32.741  17.543  25.931  1.00  0.00     0.031 C 
ATOM     30  C   UNL A   1      33.359  16.404  25.116  1.00  0.00     0.038 C 
BRANCH  30  31
ATOM     31  C   UNL A   1      32.822  15.068  25.556  1.00  0.00     0.045 C 
ATOM     32  O   UNL A   1      33.412  14.001  25.468  1.00  0.00    -0.550 OA
ATOM     33  O   UNL A   1      31.586  15.127  26.080  1.00  0.00    -0.550 OA
ENDBRANCH  30  31
ENDBRANCH  19  23
ENDBRANCH  16  19
ENDBRANCH   3  15
BRANCH   5  34
ATOM     34  C   UNL A   1      32.617  26.622  22.936  1.00  0.00     0.018 C 
ATOM     35  C   UNL A   1      33.291  27.263  21.692  1.00  0.00     0.010 C 
ATOM     36  C   UNL A   1      31.385  25.913  22.374  1.00  0.00     0.010 C 
ENDBRANCH   5  34
ENDBRANCH   1   2
BRANCH   1  37
ATOM     37  C   UNL A   1      32.042  28.501  25.784  1.00  0.00     0.067 C 
BRANCH  37  38
ATOM     38  C   UNL A   1      31.911  29.317  27.059  1.00  0.00     0.120 C 
BRANCH  38  39
ATOM     39  N   UNL A   1      31.892  30.759  26.816  1.00  0.00    -0.352 N 
ATOM     40  C   UNL A   1      32.757  31.763  27.174  1.00  0.00     0.251 C 
ATOM     41  H   UNL A   1      31.113  31.066  26.297  1.00  0.00     0.163 HD
ATOM     42  O   UNL A   1      32.418  32.933  27.013  1.00  0.00    -0.269 OA
BRANCH  40  43
ATOM     43  C   UNL A   1      34.077  31.462  27.769  1.00  0.00     0.039 A 
ATOM     44  C   UNL A   1      34.967  32.510  28.030  1.00  0.00     0.014 A 
ATOM     45  C   UNL A   1      34.458  30.151  28.050  1.00  0.00     0.014 A 
ATOM     46  C   UNL A   1      36.191  32.247  28.651  1.00  0.00     0.010 A 
ATOM     47  C   UNL A   1      35.611  29.904  28.781  1.00  0.00     0.010 A 
ATOM     48  C   UNL A   1      36.500  30.946  29.079  1.00  0.00    -0.014 A 
BRANCH  48  49
ATOM     49  C   UNL A   1      37.748  30.638  29.823  1.00  0.00     0.031 A 
ATOM     50  C   UNL A   1      38.842  29.840  29.164  1.00  0.00     0.074 A 
ATOM     51  C   UNL A   1      37.863  31.001  31.115  1.00  0.00     0.049 A 
ATOM     52  N   UNL A   1      39.966  29.400  29.671  1.00  0.00    -0.248 NA
ATOM     53  C   UNL A   1      38.627  29.453  27.759  1.00  0.00     0.031 C 
ATOM     54  C   UNL A   1      36.860  31.743  31.884  1.00  0.00     0.029 A 
ATOM     55  N   UNL A   1      38.879  30.793  32.013  1.00  0.00    -0.354 N 
ATOM     56  C   UNL A   1      40.572  28.664  28.660  1.00  0.00     0.074 A 
ATOM     57  C   UNL A   1      39.662  28.659  27.537  1.00  0.00     0.031 C 
ATOM     58  C   UNL A   1      37.332  31.970  33.119  1.00  0.00     0.029 A 
ATOM     59  C   UNL A   1      38.644  31.346  33.249  1.00  0.00     0.049 A 
ATOM     60  H   UNL A   1      39.699  30.295  31.792  1.00  0.00     0.167 HD
ATOM     61  C   UNL A   1      41.787  28.067  28.653  1.00  0.00     0.031 A 
ATOM     62  C   UNL A   1      39.402  31.349  34.361  1.00  0.00     0.031 A 
ATOM     63  C   UNL A   1      42.696  28.082  29.768  1.00  0.00     0.049 A 
ATOM     64  C   UNL A   1      40.734  30.653  34.341  1.00  0.00     0.074 A 
ATOM     65  C   UNL A   1      43.976  27.564  29.846  1.00  0.00     0.029 A 
ATOM     66  N   UNL A   1      42.414  28.644  31.004  1.00  0.00    -0.354 N 
ATOM     67  N   UNL A   1      41.326  30.027  33.354  1.00  0.00    -0.248 NA
ATOM     68  C   UNL A   1      41.506  30.675  35.592  1.00  0.00     0.031 C 
ATOM     69  C   UNL A   1      44.444  27.755  31.150  1.00  0.00     0.029 A 
ATOM     70  C   UNL A   1      43.483  28.455  31.863  1.00  0.00     0.049 A 
ATOM     71  H   UNL A   1      41.578  29.108  31.237  1.00  0.00     0.167 HD
ATOM     72  C   UNL A   1      42.554  29.610  33.852  1.00  0.00     0.074 A 
ATOM     73  C   UNL A   1      42.624  30.067  35.225  1.00  0.00     0.031 C 
ATOM     74  C   UNL A   1      43.537  28.915  33.228  1.00  0.00     0.031 A 
BRANCH  61  75
ATOM     75  C   UNL A   1      42.187  27.333  27.400  1.00  0.00    -0.014 A 
ATOM     76  C   UNL A   1      41.930  25.960  27.240  1.00  0.00     0.009 A 
ATOM     77  C   UNL A   1      42.835  28.023  26.364  1.00  0.00     0.009 A 
ATOM     78  C   UNL A   1      42.365  25.284  26.098  1.00  0.00     0.001 A 
ATOM     79  C   UNL A   1      43.234  27.353  25.205  1.00  0.00     0.001 A 
ATOM     80  C   UNL A   1      43.014  25.982  25.081  1.00  0.00     0.000 A 
ENDBRANCH  61  75
BRANCH  62  81
ATOM     81  C   UNL A   1      38.939  32.071  35.576  1.00  0.00    -0.014 A 
ATOM     82  C   UNL A   1      39.298  33.413  35.779  1.00  0.00     0.009 A 
ATOM     83  C   UNL A   1      38.140  31.431  36.537  1.00  0.00     0.009 A 
ATOM     84  C   UNL A   1      38.888  34.092  36.928  1.00  0.00     0.001 A 
ATOM     85  C   UNL A   1      37.706  32.122  37.670  1.00  0.00     0.001 A 
ATOM     86  C   UNL A   1      38.088  33.448  37.870  1.00  0.00     0.000 A 
ENDBRANCH  62  81
BRANCH  74  87
ATOM     87  C   UNL A   1      44.790  28.642  34.012  1.00  0.00    -0.014 A 
ATOM     88  C   UNL A   1      44.951  27.463  34.754  1.00  0.00     0.009 A 
ATOM     89  C   UNL A   1      45.845  29.570  33.973  1.00  0.00     0.009 A 
ATOM     90  C   UNL A   1      46.128  27.235  35.470  1.00  0.00     0.001 A 
ATOM     91  C   UNL A   1      47.032  29.323  34.662  1.00  0.00     0.001 A 
ATOM     92  C   UNL A   1      47.169  28.161  35.419  1.00  0.00     0.000 A 
ENDBRANCH  74  87
ENDBRANCH  48  49
ENDBRANCH  40  43
ENDBRANCH  38  39
ENDBRANCH  37  38
ENDBRANCH   1  37
TORSDOF 15
ENDMDL
MODEL 3
REMARK VINA RESULT:     -12.0      2.705      3.557
REMARK SMILES CC(C)[C@H](NC(=O)N1c2ccccc2[NH+]=C(NCCCNC(=O)c2ccc(-c3c4nc(c(-c5ccccc5)c5ccc([nH]5)c(-c5ccccc5)c5nc(c(-c6ccccc6)c6ccc3[nH]6)C=C5)C=C4)cc2)[C@@H]1C(C)C)C(=O)N1CCC(C(=O)[O-])CC1
REMARK SMILES IDX 18 1 17 2 8 3 9 4 72 5 10 6 14 7 16 8 11 9 13 10 15 11 12 12
REMARK SMILES IDX 6 15 5 16 7 18 4 19 2 20 1 21 3 22 76 23 77 24 78 25 79 26
REMARK SMILES IDX 86 27 80 28 85 29 81 30 82 31 83 32 84 33 73 34 74 35 75 36
REMARK SMILES IDX 19 37 20 38 21 39 22 40 23 42 24 43 25 44 71 45 26 46 70 47
REMARK SMILES IDX 27 48 28 49 29 50 64 51 30 52 69 53 63 54 65 55 31 56 68 57
REMARK SMILES IDX 62 58 61 59 32 61 54 62 39 63 53 64 40 65 43 66 52 67 66 68
REMARK SMILES IDX 41 69 42 70 51 72 67 73 44 74 33 75 34 76 38 77 35 78 37 79
REMARK SMILES IDX 36 80 55 81 56 82 60 83 57 84 59 85 58 86 45 87 46 88 50 89
REMARK SMILES IDX 47 90 49 91 48 92
REMARK H PARENT 15 13 17 14 5 17 21 41 65 60 43 71
REMARK Flexibility Score: inf
ROOT
ATOM      1  C   UNL A   1      31.521  27.355  25.802  1.00  0.00     0.235 C 
ENDROOT
BRANCH   1   2
ATOM      2  N   UNL A   1      32.449  26.266  25.976  1.00  0.00    -0.276 N 
ATOM      3  N   UNL A   1      34.023  24.452  23.347  1.00  0.00    -0.275 N 
ATOM      4  C   UNL A   1      35.188  23.958  24.026  1.00  0.00     0.093 A 
ATOM      5  C   UNL A   1      33.755  25.885  23.679  1.00  0.00     0.208 C 
ATOM      6  C   UNL A   1      36.034  22.996  23.464  1.00  0.00     0.031 A 
ATOM      7  C   UNL A   1      35.403  24.423  25.342  1.00  0.00     0.148 A 
ATOM      8  C   UNL A   1      33.537  25.827  25.246  1.00  0.00     0.271 C 
ATOM      9  C   UNL A   1      37.081  22.470  24.222  1.00  0.00     0.002 A 
ATOM     10  C   UNL A   1      36.439  23.867  26.094  1.00  0.00     0.054 A 
ATOM     11  N   UNL A   1      34.428  25.213  25.997  1.00  0.00    -0.241 N 
ATOM     12  C   UNL A   1      37.273  22.892  25.539  1.00  0.00     0.005 A 
ATOM     13  H   UNL A   1      34.417  25.299  26.978  1.00  0.00     0.312 HD
ATOM     14  H   UNL A   1      32.271  25.725  26.779  1.00  0.00     0.304 HD
BRANCH   3  15
ATOM     15  C   UNL A   1      33.442  23.723  22.363  1.00  0.00     0.323 C 
ATOM     16  N   UNL A   1      32.783  22.575  22.654  1.00  0.00    -0.326 N 
ATOM     17  H   UNL A   1      32.195  22.310  21.910  1.00  0.00     0.166 HD
ATOM     18  O   UNL A   1      33.466  24.040  21.175  1.00  0.00    -0.248 OA
BRANCH  16  19
ATOM     19  C   UNL A   1      32.692  21.608  23.766  1.00  0.00     0.175 C 
BRANCH  19  20
ATOM     20  C   UNL A   1      31.833  21.938  25.021  1.00  0.00     0.015 C 
ATOM     21  C   UNL A   1      32.539  22.175  26.357  1.00  0.00     0.010 C 
ATOM     22  C   UNL A   1      30.944  23.160  24.736  1.00  0.00     0.010 C 
ENDBRANCH  19  20
BRANCH  19  23
ATOM     23  C   UNL A   1      32.375  20.153  23.311  1.00  0.00     0.245 C 
ATOM     24  O   UNL A   1      31.830  19.985  22.213  1.00  0.00    -0.272 OA
ATOM     25  N   UNL A   1      32.990  19.086  23.961  1.00  0.00    -0.341 N 
ATOM     26  C   UNL A   1      33.567  18.034  23.128  1.00  0.00     0.120 C 
ATOM     27  C   UNL A   1      33.234  18.953  25.396  1.00  0.00     0.120 C 
ATOM     28  C   UNL A   1      33.121  16.655  23.559  1.00  0.00     0.031 C 
ATOM     29  C   UNL A   1      32.786  17.576  25.890  1.00  0.00     0.031 C 
ATOM     30  C   UNL A   1      33.388  16.446  25.050  1.00  0.00     0.038 C 
BRANCH  30  31
ATOM     31  C   UNL A   1      32.857  15.106  25.486  1.00  0.00     0.045 C 
ATOM     32  O   UNL A   1      33.482  14.055  25.471  1.00  0.00    -0.550 OA
ATOM     33  O   UNL A   1      31.583  15.140  25.913  1.00  0.00    -0.550 OA
ENDBRANCH  30  31
ENDBRANCH  19  23
ENDBRANCH  16  19
ENDBRANCH   3  15
BRANCH   5  34
ATOM     34  C   UNL A   1      32.732  26.748  22.892  1.00  0.00     0.018 C 
ATOM     35  C   UNL A   1      33.452  27.336  21.648  1.00  0.00     0.010 C 
ATOM     36  C   UNL A   1      31.473  26.093  22.325  1.00  0.00     0.010 C 
ENDBRANCH   5  34
ENDBRANCH   1   2
BRANCH   1  37
ATOM     37  C   UNL A   1      32.213  28.710  25.811  1.00  0.00     0.067 C 
BRANCH  37  38
ATOM     38  C   UNL A   1      31.979  29.512  27.080  1.00  0.00     0.120 C 
BRANCH  38  39
ATOM     39  N   UNL A   1      32.130  30.953  26.881  1.00  0.00    -0.352 N 
ATOM     40  C   UNL A   1      33.113  31.836  27.258  1.00  0.00     0.251 C 
ATOM     41  H   UNL A   1      31.389  31.368  26.383  1.00  0.00     0.163 HD
ATOM     42  O   UNL A   1      32.915  33.042  27.137  1.00  0.00    -0.269 OA
BRANCH  40  43
ATOM     43  C   UNL A   1      34.393  31.360  27.825  1.00  0.00     0.039 A 
ATOM     44  C   UNL A   1      35.403  32.286  28.110  1.00  0.00     0.014 A 
ATOM     45  C   UNL A   1      34.619  30.004  28.056  1.00  0.00     0.014 A 
ATOM     46  C   UNL A   1      36.593  31.859  28.705  1.00  0.00     0.010 A 
ATOM     47  C   UNL A   1      35.742  29.598  28.764  1.00  0.00     0.010 A 
ATOM     48  C   UNL A   1      36.750  30.516  29.085  1.00  0.00    -0.014 A 
BRANCH  48  49
ATOM     49  C   UNL A   1      37.959  30.038  29.802  1.00  0.00     0.031 A 
ATOM     50  C   UNL A   1      38.181  30.414  31.243  1.00  0.00     0.074 A 
ATOM     51  C   UNL A   1      38.898  29.338  29.135  1.00  0.00     0.049 A 
ATOM     52  N   UNL A   1      39.209  30.165  32.015  1.00  0.00    -0.248 NA
ATOM     53  C   UNL A   1      37.124  31.207  31.892  1.00  0.00     0.031 C 
ATOM     54  C   UNL A   1      38.825  28.942  27.726  1.00  0.00     0.029 A 
ATOM     55  N   UNL A   1      40.103  28.835  29.557  1.00  0.00    -0.354 N 
ATOM     56  C   UNL A   1      38.933  30.794  33.223  1.00  0.00     0.074 A 
ATOM     57  C   UNL A   1      37.678  31.492  33.059  1.00  0.00     0.031 C 
ATOM     58  C   UNL A   1      39.911  28.217  27.417  1.00  0.00     0.029 A 
ATOM     59  C   UNL A   1      40.782  28.142  28.584  1.00  0.00     0.049 A 
ATOM     60  H   UNL A   1      40.449  28.960  30.470  1.00  0.00     0.167 HD
ATOM     61  C   UNL A   1      39.645  30.774  34.375  1.00  0.00     0.031 A 
ATOM     62  C   UNL A   1      41.972  27.515  28.629  1.00  0.00     0.031 A 
ATOM     63  C   UNL A   1      40.889  30.070  34.539  1.00  0.00     0.049 A 
ATOM     64  C   UNL A   1      42.760  27.532  29.909  1.00  0.00     0.074 A 
ATOM     65  C   UNL A   1      41.659  29.931  35.679  1.00  0.00     0.029 A 
ATOM     66  N   UNL A   1      41.546  29.389  33.525  1.00  0.00    -0.354 N 
ATOM     67  N   UNL A   1      42.450  28.067  31.065  1.00  0.00    -0.248 NA
ATOM     68  C   UNL A   1      44.060  26.848  29.889  1.00  0.00     0.031 C 
ATOM     69  C   UNL A   1      42.815  29.222  35.339  1.00  0.00     0.029 A 
ATOM     70  C   UNL A   1      42.730  28.857  34.005  1.00  0.00     0.049 A 
ATOM     71  H   UNL A   1      41.219  29.298  32.601  1.00  0.00     0.167 HD
ATOM     72  C   UNL A   1      43.500  27.755  31.919  1.00  0.00     0.074 A 
ATOM     73  C   UNL A   1      44.446  26.973  31.150  1.00  0.00     0.031 C 
ATOM     74  C   UNL A   1      43.663  28.083  33.225  1.00  0.00     0.031 A 
BRANCH  61  75
ATOM     75  C   UNL A   1      39.093  31.555  35.538  1.00  0.00    -0.014 A 
ATOM     76  C   UNL A   1      38.204  30.973  36.457  1.00  0.00     0.009 A 
ATOM     77  C   UNL A   1      39.465  32.896  35.717  1.00  0.00     0.009 A 
ATOM     78  C   UNL A   1      37.654  31.732  37.493  1.00  0.00     0.001 A 
ATOM     79  C   UNL A   1      38.945  33.643  36.776  1.00  0.00     0.001 A 
ATOM     80  C   UNL A   1      38.028  33.065  37.653  1.00  0.00     0.000 A 
ENDBRANCH  61  75
BRANCH  62  81
ATOM     81  C   UNL A   1      42.474  26.783  27.436  1.00  0.00    -0.014 A 
ATOM     82  C   UNL A   1      42.063  25.462  27.196  1.00  0.00     0.009 A 
ATOM     83  C   UNL A   1      43.360  27.391  26.534  1.00  0.00     0.009 A 
ATOM     84  C   UNL A   1      42.548  24.758  26.092  1.00  0.00     0.001 A 
ATOM     85  C   UNL A   1      43.820  26.694  25.414  1.00  0.00     0.001 A 
ATOM     86  C   UNL A   1      43.421  25.375  25.199  1.00  0.00     0.000 A 
ENDBRANCH  62  81
BRANCH  74  87
ATOM     87  C   UNL A   1      44.892  27.560  33.916  1.00  0.00    -0.014 A 
ATOM     88  C   UNL A   1      46.078  28.307  33.969  1.00  0.00     0.009 A 
ATOM     89  C   UNL A   1      44.845  26.312  34.559  1.00  0.00     0.009 A 
ATOM     90  C   UNL A   1      47.204  27.798  34.621  1.00  0.00     0.001 A 
ATOM     91  C   UNL A   1      45.960  25.822  35.239  1.00  0.00     0.001 A 
ATOM     92  C   UNL A   1      47.142  26.560  35.260  1.00  0.00     0.000 A 
ENDBRANCH  74  87
ENDBRANCH  48  49
ENDBRANCH  40  43
ENDBRANCH  38  39
ENDBRANCH  37  38
ENDBRANCH   1  37
TORSDOF 15
ENDMDL
