MODEL 1
REMARK VINA RESULT:     -12.9      0.000      0.000
REMARK SMILES CC1=C[C@@H](C)[C@H]2C(=O)N([C@H](Cc3ccccc3)C(=O)NCCCNC(=O)c3ccc(-c4c5nc(c(-c6ccccc6)c6ccc([nH]6)c(-c6ccccc6)c6nc(c(-c7ccccc7)c7ccc4[nH]7)C=C6)C=C5)cc3)C(=O)[C@H]2C1
REMARK SMILES IDX 22 1 21 2 20 3 18 4 19 5 10 7 9 8 1 9 2 10 3 11 78 12 4 13
REMARK SMILES IDX 77 14 6 15 5 16 75 17 7 18 76 19 8 20 11 21 12 22 13 23
REMARK SMILES IDX 17 24 14 25 16 26 15 27 23 28 24 29 25 30 26 32 27 33 28 34
REMARK SMILES IDX 74 35 29 36 73 37 30 38 31 39 32 40 67 41 33 42 72 43 66 44
REMARK SMILES IDX 68 45 34 46 71 47 65 48 64 49 35 51 57 52 42 53 56 54 43 55
REMARK SMILES IDX 46 56 55 57 69 58 44 59 45 60 54 62 70 63 47 64 36 65 37 66
REMARK SMILES IDX 41 67 38 68 40 69 39 70 58 71 59 72 63 73 60 74 62 75 61 76
REMARK SMILES IDX 48 77 49 78 53 79 50 80 52 81 51 82
REMARK H PARENT 20 6 24 31 68 50 46 61
REMARK Flexibility Score: inf
ROOT
ATOM      1  C   UNL A   1      31.525  31.310  26.245  1.00  0.00     0.042 C 
ENDROOT
BRANCH   1   2
ATOM      2  C   UNL A   1      31.795  29.902  25.758  1.00  0.00     0.117 C 
BRANCH   2   3
ATOM      3  N   UNL A   1      32.875  29.761  24.807  1.00  0.00    -0.354 N 
ATOM      4  C   UNL A   1      33.101  28.779  23.879  1.00  0.00     0.243 C 
ATOM      5  O   UNL A   1      34.107  28.894  23.171  1.00  0.00    -0.273 OA
ATOM      6  H   UNL A   1      33.549  30.479  24.830  1.00  0.00     0.163 HD
BRANCH   4   7
ATOM      7  C   UNL A   1      32.232  27.506  23.803  1.00  0.00     0.186 C 
BRANCH   7   8
ATOM      8  N   UNL A   1      33.037  26.239  23.712  1.00  0.00    -0.269 N 
ATOM      9  C   UNL A   1      34.423  20.661  25.232  1.00  0.00     0.039 C 
ATOM     10  C   UNL A   1      34.140  21.935  24.490  1.00  0.00    -0.076 C 
ATOM     11  C   UNL A   1      33.358  21.922  23.398  1.00  0.00    -0.024 C 
ATOM     12  C   UNL A   1      34.716  23.211  25.076  1.00  0.00     0.044 C 
ATOM     13  C   UNL A   1      32.832  23.192  22.801  1.00  0.00     0.022 C 
ATOM     14  C   UNL A   1      34.510  24.490  24.261  1.00  0.00     0.096 C 
ATOM     15  C   UNL A   1      33.945  24.268  22.872  1.00  0.00     0.098 C 
ATOM     16  C   UNL A   1      31.492  23.404  23.539  1.00  0.00     0.013 C 
ATOM     17  C   UNL A   1      33.577  25.572  24.796  1.00  0.00     0.234 C 
ATOM     18  C   UNL A   1      33.516  25.672  22.560  1.00  0.00     0.234 C 
ATOM     19  O   UNL A   1      33.420  25.843  25.971  1.00  0.00    -0.274 OA
ATOM     20  O   UNL A   1      33.618  26.168  21.448  1.00  0.00    -0.274 OA
ENDBRANCH   7   8
BRANCH   7  21
ATOM     21  C   UNL A   1      31.135  27.594  22.686  1.00  0.00     0.071 C 
BRANCH  21  22
ATOM     22  C   UNL A   1      30.007  28.628  22.626  1.00  0.00    -0.045 A 
ATOM     23  C   UNL A   1      28.733  28.272  23.108  1.00  0.00     0.004 A 
ATOM     24  C   UNL A   1      30.086  29.842  21.930  1.00  0.00     0.004 A 
ATOM     25  C   UNL A   1      27.607  29.076  22.875  1.00  0.00     0.000 A 
ATOM     26  C   UNL A   1      28.963  30.639  21.674  1.00  0.00     0.000 A 
ATOM     27  C   UNL A   1      27.718  30.251  22.141  1.00  0.00     0.000 A 
ENDBRANCH  21  22
ENDBRANCH   7  21
ENDBRANCH   4   7
ENDBRANCH   2   3
ENDBRANCH   1   2
BRANCH   1  28
ATOM     28  C   UNL A   1      32.697  31.907  26.989  1.00  0.00     0.118 C 
BRANCH  28  29
ATOM     29  N   UNL A   1      32.435  33.289  27.364  1.00  0.00    -0.352 N 
ATOM     30  C   UNL A   1      33.092  34.071  28.281  1.00  0.00     0.251 C 
ATOM     31  H   UNL A   1      31.685  33.722  26.895  1.00  0.00     0.163 HD
ATOM     32  O   UNL A   1      32.586  35.114  28.680  1.00  0.00    -0.269 OA
BRANCH  30  33
ATOM     33  C   UNL A   1      34.406  33.634  28.798  1.00  0.00     0.039 A 
ATOM     34  C   UNL A   1      34.463  32.866  29.961  1.00  0.00     0.014 A 
ATOM     35  C   UNL A   1      35.581  33.981  28.125  1.00  0.00     0.014 A 
ATOM     36  C   UNL A   1      35.697  32.393  30.414  1.00  0.00     0.010 A 
ATOM     37  C   UNL A   1      36.791  33.423  28.515  1.00  0.00     0.010 A 
ATOM     38  C   UNL A   1      36.864  32.639  29.675  1.00  0.00    -0.014 A 
BRANCH  38  39
ATOM     39  C   UNL A   1      38.185  32.119  30.106  1.00  0.00     0.031 A 
ATOM     40  C   UNL A   1      38.678  30.801  29.571  1.00  0.00     0.074 A 
ATOM     41  C   UNL A   1      38.903  32.786  31.028  1.00  0.00     0.049 A 
ATOM     42  N   UNL A   1      39.755  30.130  29.891  1.00  0.00    -0.248 NA
ATOM     43  C   UNL A   1      37.832  30.133  28.566  1.00  0.00     0.031 C 
ATOM     44  C   UNL A   1      38.519  34.055  31.652  1.00  0.00     0.029 A 
ATOM     45  N   UNL A   1      40.109  32.483  31.610  1.00  0.00    -0.354 N 
ATOM     46  C   UNL A   1      39.703  28.958  29.147  1.00  0.00     0.074 A 
ATOM     47  C   UNL A   1      38.464  28.981  28.404  1.00  0.00     0.031 C 
ATOM     48  C   UNL A   1      39.483  34.434  32.507  1.00  0.00     0.029 A 
ATOM     49  C   UNL A   1      40.527  33.414  32.528  1.00  0.00     0.049 A 
ATOM     50  H   UNL A   1      40.626  31.674  31.389  1.00  0.00     0.167 HD
ATOM     51  C   UNL A   1      40.614  27.960  29.072  1.00  0.00     0.031 A 
ATOM     52  C   UNL A   1      41.624  33.439  33.311  1.00  0.00     0.031 A 
ATOM     53  C   UNL A   1      41.854  27.946  29.800  1.00  0.00     0.049 A 
ATOM     54  C   UNL A   1      42.611  32.309  33.224  1.00  0.00     0.074 A 
ATOM     55  C   UNL A   1      42.872  27.011  29.746  1.00  0.00     0.029 A 
ATOM     56  N   UNL A   1      42.243  28.913  30.713  1.00  0.00    -0.354 N 
ATOM     57  N   UNL A   1      42.580  31.240  32.466  1.00  0.00    -0.248 NA
ATOM     58  C   UNL A   1      43.790  32.393  34.097  1.00  0.00     0.031 C 
ATOM     59  C   UNL A   1      43.853  27.383  30.672  1.00  0.00     0.029 A 
ATOM     60  C   UNL A   1      43.474  28.582  31.253  1.00  0.00     0.049 A 
ATOM     61  H   UNL A   1      41.721  29.715  30.944  1.00  0.00     0.167 HD
ATOM     62  C   UNL A   1      43.747  30.542  32.747  1.00  0.00     0.074 A 
ATOM     63  C   UNL A   1      44.470  31.314  33.735  1.00  0.00     0.031 C 
ATOM     64  C   UNL A   1      44.182  29.366  32.232  1.00  0.00     0.031 A 
BRANCH  51  65
ATOM     65  C   UNL A   1      40.296  26.795  28.176  1.00  0.00    -0.014 A 
ATOM     66  C   UNL A   1      40.780  26.733  26.859  1.00  0.00     0.009 A 
ATOM     67  C   UNL A   1      39.526  25.729  28.666  1.00  0.00     0.009 A 
ATOM     68  C   UNL A   1      40.468  25.646  26.040  1.00  0.00     0.001 A 
ATOM     69  C   UNL A   1      39.242  24.628  27.856  1.00  0.00     0.001 A 
ATOM     70  C   UNL A   1      39.704  24.592  26.541  1.00  0.00     0.000 A 
ENDBRANCH  51  65
BRANCH  52  71
ATOM     71  C   UNL A   1      41.852  34.578  34.239  1.00  0.00    -0.014 A 
ATOM     72  C   UNL A   1      41.376  34.526  35.559  1.00  0.00     0.009 A 
ATOM     73  C   UNL A   1      42.540  35.724  33.811  1.00  0.00     0.009 A 
ATOM     74  C   UNL A   1      41.559  35.611  36.420  1.00  0.00     0.001 A 
ATOM     75  C   UNL A   1      42.749  36.794  34.684  1.00  0.00     0.001 A 
ATOM     76  C   UNL A   1      42.249  36.740  35.984  1.00  0.00     0.000 A 
ENDBRANCH  52  71
BRANCH  64  77
ATOM     77  C   UNL A   1      45.519  28.860  32.694  1.00  0.00    -0.014 A 
ATOM     78  C   UNL A   1      45.632  27.973  33.776  1.00  0.00     0.009 A 
ATOM     79  C   UNL A   1      46.679  29.235  31.997  1.00  0.00     0.009 A 
ATOM     80  C   UNL A   1      46.885  27.494  34.166  1.00  0.00     0.001 A 
ATOM     81  C   UNL A   1      47.924  28.731  32.371  1.00  0.00     0.001 A 
ATOM     82  C   UNL A   1      48.027  27.868  33.460  1.00  0.00     0.000 A 
ENDBRANCH  64  77
ENDBRANCH  38  39
ENDBRANCH  30  33
ENDBRANCH  28  29
ENDBRANCH   1  28
TORSDOF 13
ENDMDL
MODEL 2
REMARK VINA RESULT:     -12.9      3.442      9.023
REMARK SMILES CC1=C[C@@H](C)[C@H]2C(=O)N([C@H](Cc3ccccc3)C(=O)NCCCNC(=O)c3ccc(-c4c5nc(c(-c6ccccc6)c6ccc([nH]6)c(-c6ccccc6)c6nc(c(-c7ccccc7)c7ccc4[nH]7)C=C6)C=C5)cc3)C(=O)[C@H]2C1
REMARK SMILES IDX 22 1 21 2 20 3 18 4 19 5 10 7 9 8 1 9 2 10 3 11 78 12 4 13
REMARK SMILES IDX 77 14 6 15 5 16 75 17 7 18 76 19 8 20 11 21 12 22 13 23
REMARK SMILES IDX 17 24 14 25 16 26 15 27 23 28 24 29 25 30 26 32 27 33 28 34
REMARK SMILES IDX 74 35 29 36 73 37 30 38 31 39 32 40 67 41 33 42 72 43 66 44
REMARK SMILES IDX 68 45 34 46 71 47 65 48 64 49 35 51 57 52 42 53 56 54 43 55
REMARK SMILES IDX 46 56 55 57 69 58 44 59 45 60 54 62 70 63 47 64 36 65 37 66
REMARK SMILES IDX 41 67 38 68 40 69 39 70 58 71 59 72 63 73 60 74 62 75 61 76
REMARK SMILES IDX 48 77 49 78 53 79 50 80 52 81 51 82
REMARK H PARENT 20 6 24 31 68 50 46 61
REMARK Flexibility Score: inf
ROOT
ATOM      1  C   UNL A   1      37.479  20.061  24.949  1.00  0.00     0.042 C 
ENDROOT
BRANCH   1   2
ATOM      2  C   UNL A   1      36.334  21.050  24.989  1.00  0.00     0.117 C 
BRANCH   2   3
ATOM      3  N   UNL A   1      35.687  21.213  26.271  1.00  0.00    -0.354 N 
ATOM      4  C   UNL A   1      34.400  21.586  26.561  1.00  0.00     0.243 C 
ATOM      5  O   UNL A   1      34.086  21.644  27.755  1.00  0.00    -0.273 OA
ATOM      6  H   UNL A   1      36.255  21.027  27.054  1.00  0.00     0.163 HD
BRANCH   4   7
ATOM      7  C   UNL A   1      33.416  22.054  25.469  1.00  0.00     0.186 C 
BRANCH   7   8
ATOM      8  N   UNL A   1      32.840  23.419  25.731  1.00  0.00    -0.269 N 
ATOM      9  C   UNL A   1      31.199  28.920  24.185  1.00  0.00     0.039 C 
ATOM     10  C   UNL A   1      31.278  27.540  24.771  1.00  0.00    -0.076 C 
ATOM     11  C   UNL A   1      30.213  26.723  24.724  1.00  0.00    -0.024 C 
ATOM     12  C   UNL A   1      32.619  27.113  25.338  1.00  0.00     0.044 C 
ATOM     13  C   UNL A   1      30.335  25.264  25.041  1.00  0.00     0.022 C 
ATOM     14  C   UNL A   1      32.665  25.745  26.024  1.00  0.00     0.096 C 
ATOM     15  C   UNL A   1      31.310  25.099  26.234  1.00  0.00     0.098 C 
ATOM     16  C   UNL A   1      30.660  24.627  23.672  1.00  0.00     0.013 C 
ATOM     17  C   UNL A   1      33.443  24.609  25.368  1.00  0.00     0.234 C 
ATOM     18  C   UNL A   1      31.756  23.695  26.522  1.00  0.00     0.234 C 
ATOM     19  O   UNL A   1      34.463  24.741  24.720  1.00  0.00    -0.274 OA
ATOM     20  O   UNL A   1      31.209  22.979  27.348  1.00  0.00    -0.274 OA
ENDBRANCH   7   8
BRANCH   7  21
ATOM     21  C   UNL A   1      32.306  20.990  25.164  1.00  0.00     0.071 C 
BRANCH  21  22
ATOM     22  C   UNL A   1      32.533  19.637  24.483  1.00  0.00    -0.045 A 
ATOM     23  C   UNL A   1      33.375  18.696  25.106  1.00  0.00     0.004 A 
ATOM     24  C   UNL A   1      32.134  19.337  23.173  1.00  0.00     0.004 A 
ATOM     25  C   UNL A   1      33.810  17.542  24.437  1.00  0.00     0.000 A 
ATOM     26  C   UNL A   1      32.582  18.199  22.491  1.00  0.00     0.000 A 
ATOM     27  C   UNL A   1      33.429  17.302  23.122  1.00  0.00     0.000 A 
ENDBRANCH  21  22
ENDBRANCH   7  21
ENDBRANCH   4   7
ENDBRANCH   2   3
ENDBRANCH   1   2
BRANCH   1  28
ATOM     28  C   UNL A   1      38.732  20.589  25.611  1.00  0.00     0.118 C 
BRANCH  28  29
ATOM     29  N   UNL A   1      39.734  19.544  25.753  1.00  0.00    -0.352 N 
ATOM     30  C   UNL A   1      41.066  19.665  26.063  1.00  0.00     0.251 C 
ATOM     31  H   UNL A   1      39.413  18.624  25.608  1.00  0.00     0.163 HD
ATOM     32  O   UNL A   1      41.833  18.727  25.877  1.00  0.00    -0.269 OA
BRANCH  30  33
ATOM     33  C   UNL A   1      41.571  20.944  26.604  1.00  0.00     0.039 A 
ATOM     34  C   UNL A   1      42.044  21.921  25.726  1.00  0.00     0.014 A 
ATOM     35  C   UNL A   1      41.569  21.179  27.982  1.00  0.00     0.014 A 
ATOM     36  C   UNL A   1      42.457  23.156  26.228  1.00  0.00     0.010 A 
ATOM     37  C   UNL A   1      41.877  22.442  28.468  1.00  0.00     0.010 A 
ATOM     38  C   UNL A   1      42.344  23.438  27.599  1.00  0.00    -0.014 A 
BRANCH  38  39
ATOM     39  C   UNL A   1      42.737  24.753  28.161  1.00  0.00     0.031 A 
ATOM     40  C   UNL A   1      41.690  25.814  28.378  1.00  0.00     0.074 A 
ATOM     41  C   UNL A   1      44.033  25.022  28.404  1.00  0.00     0.049 A 
ATOM     42  N   UNL A   1      41.839  27.053  28.769  1.00  0.00    -0.248 NA
ATOM     43  C   UNL A   1      40.295  25.440  28.087  1.00  0.00     0.031 C 
ATOM     44  C   UNL A   1      45.148  24.093  28.200  1.00  0.00     0.029 A 
ATOM     45  N   UNL A   1      44.635  26.165  28.869  1.00  0.00    -0.354 N 
ATOM     46  C   UNL A   1      40.566  27.610  28.748  1.00  0.00     0.074 A 
ATOM     47  C   UNL A   1      39.666  26.593  28.254  1.00  0.00     0.031 C 
ATOM     48  C   UNL A   1      46.292  24.694  28.564  1.00  0.00     0.029 A 
ATOM     49  C   UNL A   1      46.000  26.062  28.980  1.00  0.00     0.049 A 
ATOM     50  H   UNL A   1      44.135  26.981  29.101  1.00  0.00     0.167 HD
ATOM     51  C   UNL A   1      40.176  28.849  29.126  1.00  0.00     0.031 A 
ATOM     52  C   UNL A   1      46.916  26.972  29.363  1.00  0.00     0.031 A 
ATOM     53  C   UNL A   1      41.070  29.854  29.634  1.00  0.00     0.049 A 
ATOM     54  C   UNL A   1      46.460  28.349  29.759  1.00  0.00     0.074 A 
ATOM     55  C   UNL A   1      40.764  31.120  30.102  1.00  0.00     0.029 A 
ATOM     56  N   UNL A   1      42.443  29.706  29.739  1.00  0.00    -0.354 N 
ATOM     57  N   UNL A   1      45.245  28.838  29.798  1.00  0.00    -0.248 NA
ATOM     58  C   UNL A   1      47.503  29.297  30.173  1.00  0.00     0.031 C 
ATOM     59  C   UNL A   1      41.962  31.760  30.437  1.00  0.00     0.029 A 
ATOM     60  C   UNL A   1      43.005  30.870  30.238  1.00  0.00     0.049 A 
ATOM     61  H   UNL A   1      42.945  28.896  29.495  1.00  0.00     0.167 HD
ATOM     62  C   UNL A   1      45.374  30.138  30.269  1.00  0.00     0.074 A 
ATOM     63  C   UNL A   1      46.784  30.357  30.514  1.00  0.00     0.031 C 
ATOM     64  C   UNL A   1      44.410  31.068  30.480  1.00  0.00     0.031 A 
BRANCH  51  65
ATOM     65  C   UNL A   1      38.716  29.188  28.996  1.00  0.00    -0.014 A 
ATOM     66  C   UNL A   1      37.833  29.037  30.077  1.00  0.00     0.009 A 
ATOM     67  C   UNL A   1      38.224  29.694  27.783  1.00  0.00     0.009 A 
ATOM     68  C   UNL A   1      36.480  29.351  29.934  1.00  0.00     0.001 A 
ATOM     69  C   UNL A   1      36.878  30.037  27.653  1.00  0.00     0.001 A 
ATOM     70  C   UNL A   1      36.004  29.856  28.724  1.00  0.00     0.000 A 
ENDBRANCH  51  65
BRANCH  52  71
ATOM     71  C   UNL A   1      48.357  26.610  29.399  1.00  0.00    -0.014 A 
ATOM     72  C   UNL A   1      49.176  26.837  28.281  1.00  0.00     0.009 A 
ATOM     73  C   UNL A   1      48.922  26.030  30.546  1.00  0.00     0.009 A 
ATOM     74  C   UNL A   1      50.522  26.463  28.303  1.00  0.00     0.001 A 
ATOM     75  C   UNL A   1      50.275  25.687  30.575  1.00  0.00     0.001 A 
ATOM     76  C   UNL A   1      51.071  25.894  29.450  1.00  0.00     0.000 A 
ENDBRANCH  52  71
BRANCH  64  77
ATOM     77  C   UNL A   1      44.840  32.394  31.042  1.00  0.00    -0.014 A 
ATOM     78  C   UNL A   1      45.165  33.472  30.205  1.00  0.00     0.009 A 
ATOM     79  C   UNL A   1      44.863  32.580  32.434  1.00  0.00     0.009 A 
ATOM     80  C   UNL A   1      45.532  34.704  30.753  1.00  0.00     0.001 A 
ATOM     81  C   UNL A   1      45.200  33.820  32.976  1.00  0.00     0.001 A 
ATOM     82  C   UNL A   1      45.542  34.878  32.136  1.00  0.00     0.000 A 
ENDBRANCH  64  77
ENDBRANCH  38  39
ENDBRANCH  30  33
ENDBRANCH  28  29
ENDBRANCH   1  28
TORSDOF 13
ENDMDL
MODEL 3
REMARK VINA RESULT:     -12.8      3.317      8.898
REMARK SMILES CC1=C[C@@H](C)[C@H]2C(=O)N([C@H](Cc3ccccc3)C(=O)NCCCNC(=O)c3ccc(-c4c5nc(c(-c6ccccc6)c6ccc([nH]6)c(-c6ccccc6)c6nc(c(-c7ccccc7)c7ccc4[nH]7)C=C6)C=C5)cc3)C(=O)[C@H]2C1
REMARK SMILES IDX 22 1 21 2 20 3 18 4 19 5 10 7 9 8 1 9 2 10 3 11 78 12 4 13
REMARK SMILES IDX 77 14 6 15 5 16 75 17 7 18 76 19 8 20 11 21 12 22 13 23
REMARK SMILES IDX 17 24 14 25 16 26 15 27 23 28 24 29 25 30 26 32 27 33 28 34
REMARK SMILES IDX 74 35 29 36 73 37 30 38 31 39 32 40 67 41 33 42 72 43 66 44
REMARK SMILES IDX 68 45 34 46 71 47 65 48 64 49 35 51 57 52 42 53 56 54 43 55
REMARK SMILES IDX 46 56 55 57 69 58 44 59 45 60 54 62 70 63 47 64 36 65 37 66
REMARK SMILES IDX 41 67 38 68 40 69 39 70 58 71 59 72 63 73 60 74 62 75 61 76
REMARK SMILES IDX 48 77 49 78 53 79 50 80 52 81 51 82
REMARK H PARENT 20 6 24 31 68 50 46 61
REMARK Flexibility Score: inf
ROOT
ATOM      1  C   UNL A   1      37.373  19.791  24.919  1.00  0.00     0.042 C 
ENDROOT
BRANCH   1   2
ATOM      2  C   UNL A   1      36.194  20.741  24.925  1.00  0.00     0.117 C 
BRANCH   2   3
ATOM      3  N   UNL A   1      35.632  21.038  26.223  1.00  0.00    -0.354 N 
ATOM      4  C   UNL A   1      34.400  21.544  26.548  1.00  0.00     0.243 C 
ATOM      5  O   UNL A   1      34.156  21.702  27.749  1.00  0.00    -0.273 OA
ATOM      6  H   UNL A   1      36.222  20.848  26.989  1.00  0.00     0.163 HD
BRANCH   4   7
ATOM      7  C   UNL A   1      33.406  22.036  25.476  1.00  0.00     0.186 C 
BRANCH   7   8
ATOM      8  N   UNL A   1      32.884  23.422  25.738  1.00  0.00    -0.269 N 
ATOM      9  C   UNL A   1      31.412  28.967  24.180  1.00  0.00     0.039 C 
ATOM     10  C   UNL A   1      31.452  27.589  24.774  1.00  0.00    -0.076 C 
ATOM     11  C   UNL A   1      30.358  26.811  24.752  1.00  0.00    -0.024 C 
ATOM     12  C   UNL A   1      32.787  27.119  25.321  1.00  0.00     0.044 C 
ATOM     13  C   UNL A   1      30.434  25.350  25.077  1.00  0.00     0.022 C 
ATOM     14  C   UNL A   1      32.796  25.755  26.017  1.00  0.00     0.096 C 
ATOM     15  C   UNL A   1      31.423  25.159  26.254  1.00  0.00     0.098 C 
ATOM     16  C   UNL A   1      30.712  24.693  23.708  1.00  0.00     0.013 C 
ATOM     17  C   UNL A   1      33.522  24.587  25.355  1.00  0.00     0.234 C 
ATOM     18  C   UNL A   1      31.824  23.742  26.546  1.00  0.00     0.234 C 
ATOM     19  O   UNL A   1      34.534  24.679  24.689  1.00  0.00    -0.274 OA
ATOM     20  O   UNL A   1      31.267  23.052  27.386  1.00  0.00    -0.274 OA
ENDBRANCH   7   8
BRANCH   7  21
ATOM     21  C   UNL A   1      32.253  21.007  25.210  1.00  0.00     0.071 C 
BRANCH  21  22
ATOM     22  C   UNL A   1      32.431  19.601  24.629  1.00  0.00    -0.045 A 
ATOM     23  C   UNL A   1      32.921  18.579  25.463  1.00  0.00     0.004 A 
ATOM     24  C   UNL A   1      32.344  19.296  23.264  1.00  0.00     0.004 A 
ATOM     25  C   UNL A   1      33.326  17.339  24.947  1.00  0.00     0.000 A 
ATOM     26  C   UNL A   1      32.767  18.068  22.738  1.00  0.00     0.000 A 
ATOM     27  C   UNL A   1      33.267  17.089  23.581  1.00  0.00     0.000 A 
ENDBRANCH  21  22
ENDBRANCH   7  21
ENDBRANCH   4   7
ENDBRANCH   2   3
ENDBRANCH   1   2
BRANCH   1  28
ATOM     28  C   UNL A   1      38.623  20.406  25.505  1.00  0.00     0.118 C 
BRANCH  28  29
ATOM     29  N   UNL A   1      39.660  19.404  25.701  1.00  0.00    -0.352 N 
ATOM     30  C   UNL A   1      40.978  19.586  26.042  1.00  0.00     0.251 C 
ATOM     31  H   UNL A   1      39.379  18.470  25.573  1.00  0.00     0.163 HD
ATOM     32  O   UNL A   1      41.786  18.674  25.901  1.00  0.00    -0.269 OA
BRANCH  30  33
ATOM     33  C   UNL A   1      41.419  20.898  26.562  1.00  0.00     0.039 A 
ATOM     34  C   UNL A   1      41.992  21.823  25.688  1.00  0.00     0.014 A 
ATOM     35  C   UNL A   1      41.257  21.213  27.914  1.00  0.00     0.014 A 
ATOM     36  C   UNL A   1      42.345  23.089  26.161  1.00  0.00     0.010 A 
ATOM     37  C   UNL A   1      41.509  22.504  28.357  1.00  0.00     0.010 A 
ATOM     38  C   UNL A   1      42.074  23.450  27.490  1.00  0.00    -0.014 A 
BRANCH  38  39
ATOM     39  C   UNL A   1      42.401  24.798  28.014  1.00  0.00     0.031 A 
ATOM     40  C   UNL A   1      43.809  25.109  28.448  1.00  0.00     0.074 A 
ATOM     41  C   UNL A   1      41.427  25.715  28.170  1.00  0.00     0.049 A 
ATOM     42  N   UNL A   1      44.279  26.189  29.016  1.00  0.00    -0.248 NA
ATOM     43  C   UNL A   1      44.815  24.052  28.245  1.00  0.00     0.031 C 
ATOM     44  C   UNL A   1      40.016  25.525  27.823  1.00  0.00     0.029 A 
ATOM     45  N   UNL A   1      41.477  26.991  28.672  1.00  0.00    -0.354 N 
ATOM     46  C   UNL A   1      45.623  25.933  29.258  1.00  0.00     0.074 A 
ATOM     47  C   UNL A   1      45.881  24.578  28.827  1.00  0.00     0.031 C 
ATOM     48  C   UNL A   1      39.342  26.653  28.097  1.00  0.00     0.029 A 
ATOM     49  C   UNL A   1      40.259  27.626  28.682  1.00  0.00     0.049 A 
ATOM     50  H   UNL A   1      42.306  27.412  28.995  1.00  0.00     0.167 HD
ATOM     51  C   UNL A   1      46.564  26.758  29.772  1.00  0.00     0.031 A 
ATOM     52  C   UNL A   1      39.916  28.852  29.124  1.00  0.00     0.031 A 
ATOM     53  C   UNL A   1      46.310  28.112  30.184  1.00  0.00     0.049 A 
ATOM     54  C   UNL A   1      40.976  29.742  29.710  1.00  0.00     0.074 A 
ATOM     55  C   UNL A   1      47.209  29.049  30.661  1.00  0.00     0.029 A 
ATOM     56  N   UNL A   1      45.065  28.719  30.170  1.00  0.00    -0.354 N 
ATOM     57  N   UNL A   1      42.256  29.510  29.869  1.00  0.00    -0.248 NA
ATOM     58  C   UNL A   1      40.544  31.069  30.171  1.00  0.00     0.031 C 
ATOM     59  C   UNL A   1      46.496  30.207  30.990  1.00  0.00     0.029 A 
ATOM     60  C   UNL A   1      45.165  30.011  30.657  1.00  0.00     0.049 A 
ATOM     61  H   UNL A   1      44.233  28.295  29.859  1.00  0.00     0.167 HD
ATOM     62  C   UNL A   1      42.787  30.670  30.418  1.00  0.00     0.074 A 
ATOM     63  C   UNL A   1      41.694  31.609  30.552  1.00  0.00     0.031 C 
ATOM     64  C   UNL A   1      44.067  30.934  30.778  1.00  0.00     0.031 A 
BRANCH  51  65
ATOM     65  C   UNL A   1      47.958  26.212  29.925  1.00  0.00    -0.014 A 
ATOM     66  C   UNL A   1      48.847  26.167  28.839  1.00  0.00     0.009 A 
ATOM     67  C   UNL A   1      48.397  25.765  31.180  1.00  0.00     0.009 A 
ATOM     68  C   UNL A   1      50.134  25.650  28.999  1.00  0.00     0.001 A 
ATOM     69  C   UNL A   1      49.695  25.280  31.345  1.00  0.00     0.001 A 
ATOM     70  C   UNL A   1      50.559  25.212  30.253  1.00  0.00     0.000 A 
ENDBRANCH  51  65
BRANCH  52  71
ATOM     71  C   UNL A   1      38.507  29.314  29.023  1.00  0.00    -0.014 A 
ATOM     72  C   UNL A   1      38.023  29.867  27.826  1.00  0.00     0.009 A 
ATOM     73  C   UNL A   1      37.638  29.211  30.121  1.00  0.00     0.009 A 
ATOM     74  C   UNL A   1      36.709  30.334  27.743  1.00  0.00     0.001 A 
ATOM     75  C   UNL A   1      36.316  29.650  30.024  1.00  0.00     0.001 A 
ATOM     76  C   UNL A   1      35.856  30.220  28.839  1.00  0.00     0.000 A 
ENDBRANCH  52  71
BRANCH  64  77
ATOM     77  C   UNL A   1      44.366  32.306  31.314  1.00  0.00    -0.014 A 
ATOM     78  C   UNL A   1      44.327  32.578  32.690  1.00  0.00     0.009 A 
ATOM     79  C   UNL A   1      44.748  33.326  30.427  1.00  0.00     0.009 A 
ATOM     80  C   UNL A   1      44.639  33.855  33.163  1.00  0.00     0.001 A 
ATOM     81  C   UNL A   1      45.088  34.590  30.907  1.00  0.00     0.001 A 
ATOM     82  C   UNL A   1      45.025  34.856  32.274  1.00  0.00     0.000 A 
ENDBRANCH  64  77
ENDBRANCH  38  39
ENDBRANCH  30  33
ENDBRANCH  28  29
ENDBRANCH   1  28
TORSDOF 13
ENDMDL
