MODEL 1
REMARK VINA RESULT:     -12.0      0.000      0.000
REMARK SMILES O=C(NCCCNC(=O)c1ccc(N[C@@H]2CCCS(=O)(=O)C2)c(F)c1F)c1ccc(-c2c3nc(c(-c4ccccc4)c4ccc([nH]4)c(-c4ccccc4)c4nc(c(-c5ccccc5)c5ccc2[nH]5)C=C4)C=C3)cc1
REMARK SMILES IDX 5 1 4 2 3 3 1 4 2 5 27 7 28 8 74 9 29 10 73 11 30 12 31 13
REMARK SMILES IDX 32 14 67 15 33 16 72 17 66 18 68 19 34 20 71 21 65 22 64 23
REMARK SMILES IDX 35 25 57 26 42 27 56 28 43 29 46 30 55 31 69 32 44 33 45 34
REMARK SMILES IDX 54 36 70 37 47 38 36 39 37 40 41 41 38 42 40 43 39 44 58 45
REMARK SMILES IDX 59 46 63 47 60 48 62 49 61 50 48 51 49 52 53 53 50 54 52 55
REMARK SMILES IDX 51 56 6 57 7 58 8 59 9 61 10 62 11 63 25 64 12 65 23 66
REMARK SMILES IDX 26 67 13 68 24 69 14 70 15 72 16 73 22 74 17 75 19 76 18 77
REMARK SMILES IDX 20 78 21 79
REMARK H PARENT 3 6 68 24 46 35 7 60 14 71
REMARK Flexibility Score: inf
ROOT
ATOM      1  C   UNL A   1      37.705  19.562  24.997  1.00  0.00     0.042 C 
ENDROOT
BRANCH   1   2
ATOM      2  C   UNL A   1      38.928  20.122  25.703  1.00  0.00     0.118 C 
BRANCH   2   3
ATOM      3  N   UNL A   1      40.029  19.169  25.752  1.00  0.00    -0.352 N 
ATOM      4  O   UNL A   1      42.159  18.450  25.751  1.00  0.00    -0.269 OA
ATOM      5  C   UNL A   1      41.372  19.372  25.947  1.00  0.00     0.251 C 
ATOM      6  H   UNL A   1      39.768  18.228  25.624  1.00  0.00     0.163 HD
BRANCH   5   7
ATOM      7  C   UNL A   1      41.878  20.693  26.370  1.00  0.00     0.039 A 
ATOM      8  C   UNL A   1      42.059  20.999  27.722  1.00  0.00     0.014 A 
ATOM      9  C   UNL A   1      42.212  21.632  25.391  1.00  0.00     0.014 A 
ATOM     10  C   UNL A   1      42.431  22.284  28.100  1.00  0.00     0.010 A 
ATOM     11  C   UNL A   1      42.675  22.892  25.770  1.00  0.00     0.010 A 
ATOM     12  C   UNL A   1      42.760  23.238  27.127  1.00  0.00    -0.014 A 
BRANCH  12  13
ATOM     13  C   UNL A   1      43.244  24.580  27.530  1.00  0.00     0.031 A 
ATOM     14  C   UNL A   1      42.279  25.641  27.971  1.00  0.00     0.074 A 
ATOM     15  C   UNL A   1      44.560  24.850  27.456  1.00  0.00     0.049 A 
ATOM     16  N   UNL A   1      42.510  26.897  28.261  1.00  0.00    -0.248 NA
ATOM     17  C   UNL A   1      40.868  25.244  28.092  1.00  0.00     0.031 C 
ATOM     18  C   UNL A   1      45.598  23.899  27.052  1.00  0.00     0.029 A 
ATOM     19  N   UNL A   1      45.250  26.010  27.704  1.00  0.00    -0.354 N 
ATOM     20  C   UNL A   1      41.273  27.447  28.569  1.00  0.00     0.074 A 
ATOM     21  C   UNL A   1      40.292  26.394  28.407  1.00  0.00     0.031 C 
ATOM     22  C   UNL A   1      46.790  24.508  27.087  1.00  0.00     0.029 A 
ATOM     23  C   UNL A   1      46.595  25.908  27.448  1.00  0.00     0.049 A 
ATOM     24  H   UNL A   1      44.822  26.833  28.034  1.00  0.00     0.167 HD
ATOM     25  C   UNL A   1      40.982  28.714  28.949  1.00  0.00     0.031 A 
ATOM     26  C   UNL A   1      47.562  26.844  27.457  1.00  0.00     0.031 A 
ATOM     27  C   UNL A   1      41.964  29.759  29.090  1.00  0.00     0.049 A 
ATOM     28  C   UNL A   1      47.210  28.256  27.820  1.00  0.00     0.074 A 
ATOM     29  C   UNL A   1      41.778  31.068  29.501  1.00  0.00     0.029 A 
ATOM     30  N   UNL A   1      43.315  29.617  28.807  1.00  0.00    -0.354 N 
ATOM     31  N   UNL A   1      46.042  28.757  28.142  1.00  0.00    -0.248 NA
ATOM     32  C   UNL A   1      48.308  29.232  27.826  1.00  0.00     0.031 C 
ATOM     33  C   UNL A   1      43.002  31.735  29.399  1.00  0.00     0.029 A 
ATOM     34  C   UNL A   1      43.967  30.824  29.001  1.00  0.00     0.049 A 
ATOM     35  H   UNL A   1      43.746  28.783  28.512  1.00  0.00     0.167 HD
ATOM     36  C   UNL A   1      46.268  30.097  28.422  1.00  0.00     0.074 A 
ATOM     37  C   UNL A   1      47.686  30.331  28.232  1.00  0.00     0.031 C 
ATOM     38  C   UNL A   1      45.380  31.044  28.811  1.00  0.00     0.031 A 
BRANCH  25  39
ATOM     39  C   UNL A   1      39.534  29.051  29.185  1.00  0.00    -0.014 A 
ATOM     40  C   UNL A   1      38.715  29.549  28.159  1.00  0.00     0.009 A 
ATOM     41  C   UNL A   1      38.978  28.861  30.461  1.00  0.00     0.009 A 
ATOM     42  C   UNL A   1      37.387  29.900  28.420  1.00  0.00     0.001 A 
ATOM     43  C   UNL A   1      37.642  29.180  30.709  1.00  0.00     0.001 A 
ATOM     44  C   UNL A   1      36.852  29.713  29.693  1.00  0.00     0.000 A 
ENDBRANCH  25  39
BRANCH  26  45
ATOM     45  C   UNL A   1      48.946  26.457  27.086  1.00  0.00    -0.014 A 
ATOM     46  C   UNL A   1      49.840  25.979  28.055  1.00  0.00     0.009 A 
ATOM     47  C   UNL A   1      49.363  26.511  25.746  1.00  0.00     0.009 A 
ATOM     48  C   UNL A   1      51.126  25.575  27.692  1.00  0.00     0.001 A 
ATOM     49  C   UNL A   1      50.638  26.077  25.380  1.00  0.00     0.001 A 
ATOM     50  C   UNL A   1      51.520  25.615  26.354  1.00  0.00     0.000 A 
ENDBRANCH  26  45
BRANCH  38  51
ATOM     51  C   UNL A   1      45.914  32.416  29.118  1.00  0.00    -0.014 A 
ATOM     52  C   UNL A   1      46.409  32.746  30.387  1.00  0.00     0.009 A 
ATOM     53  C   UNL A   1      45.993  33.366  28.088  1.00  0.00     0.009 A 
ATOM     54  C   UNL A   1      46.958  34.009  30.622  1.00  0.00     0.001 A 
ATOM     55  C   UNL A   1      46.569  34.616  28.317  1.00  0.00     0.001 A 
ATOM     56  C   UNL A   1      47.046  34.938  29.586  1.00  0.00     0.000 A 
ENDBRANCH  38  51
ENDBRANCH  12  13
ENDBRANCH   5   7
ENDBRANCH   2   3
ENDBRANCH   1   2
BRANCH   1  57
ATOM     57  C   UNL A   1      36.559  20.553  24.891  1.00  0.00     0.118 C 
BRANCH  57  58
ATOM     58  N   UNL A   1      35.277  19.975  25.284  1.00  0.00    -0.352 N 
ATOM     59  C   UNL A   1      34.023  20.540  25.299  1.00  0.00     0.254 C 
ATOM     60  H   UNL A   1      35.317  19.038  25.584  1.00  0.00     0.163 HD
ATOM     61  O   UNL A   1      33.069  19.931  25.766  1.00  0.00    -0.269 OA
BRANCH  59  62
ATOM     62  C   UNL A   1      33.840  21.871  24.706  1.00  0.00     0.078 A 
ATOM     63  C   UNL A   1      33.306  21.971  23.422  1.00  0.00     0.019 A 
ATOM     64  C   UNL A   1      34.240  23.014  25.382  1.00  0.00     0.173 A 
ATOM     65  C   UNL A   1      33.320  23.196  22.763  1.00  0.00     0.030 A 
ATOM     66  C   UNL A   1      34.190  24.245  24.730  1.00  0.00     0.182 A 
ATOM     67  F   UNL A   1      34.735  22.946  26.626  1.00  0.00    -0.203 F 
ATOM     68  C   UNL A   1      33.766  24.364  23.390  1.00  0.00     0.074 A 
ATOM     69  F   UNL A   1      34.611  25.345  25.377  1.00  0.00    -0.201 F 
BRANCH  68  70
ATOM     70  N   UNL A   1      33.841  25.593  22.753  1.00  0.00    -0.379 N 
ATOM     71  H   UNL A   1      34.644  25.745  22.205  1.00  0.00     0.160 HD
BRANCH  70  72
ATOM     72  C   UNL A   1      32.875  26.700  22.793  1.00  0.00     0.094 C 
ATOM     73  C   UNL A   1      33.385  27.815  23.731  1.00  0.00     0.027 C 
ATOM     74  C   UNL A   1      31.466  26.162  23.026  1.00  0.00     0.161 C 
ATOM     75  C   UNL A   1      32.404  28.954  23.988  1.00  0.00     0.018 C 
ATOM     76  S   UNL A   1      30.276  27.451  23.235  1.00  0.00     0.152 S 
ATOM     77  C   UNL A   1      31.055  28.459  24.474  1.00  0.00     0.137 C 
ATOM     78  O   UNL A   1      29.089  26.867  23.822  1.00  0.00    -0.229 OA
ATOM     79  O   UNL A   1      30.205  28.211  22.001  1.00  0.00    -0.229 OA
ENDBRANCH  70  72
ENDBRANCH  68  70
ENDBRANCH  59  62
ENDBRANCH  57  58
ENDBRANCH   1  57
TORSDOF 12
ENDMDL
MODEL 2
REMARK VINA RESULT:     -11.9      4.909     10.086
REMARK SMILES O=C(NCCCNC(=O)c1ccc(N[C@@H]2CCCS(=O)(=O)C2)c(F)c1F)c1ccc(-c2c3nc(c(-c4ccccc4)c4ccc([nH]4)c(-c4ccccc4)c4nc(c(-c5ccccc5)c5ccc2[nH]5)C=C4)C=C3)cc1
REMARK SMILES IDX 5 1 4 2 3 3 1 4 2 5 27 7 28 8 74 9 29 10 73 11 30 12 31 13
REMARK SMILES IDX 32 14 67 15 33 16 72 17 66 18 68 19 34 20 71 21 65 22 64 23
REMARK SMILES IDX 35 25 57 26 42 27 56 28 43 29 46 30 55 31 69 32 44 33 45 34
REMARK SMILES IDX 54 36 70 37 47 38 36 39 37 40 41 41 38 42 40 43 39 44 58 45
REMARK SMILES IDX 59 46 63 47 60 48 62 49 61 50 48 51 49 52 53 53 50 54 52 55
REMARK SMILES IDX 51 56 6 57 7 58 8 59 9 61 10 62 11 63 25 64 12 65 23 66
REMARK SMILES IDX 26 67 13 68 24 69 14 70 15 72 16 73 22 74 17 75 19 76 18 77
REMARK SMILES IDX 20 78 21 79
REMARK H PARENT 3 6 68 24 46 35 7 60 14 71
REMARK Flexibility Score: inf
ROOT
ATOM      1  C   UNL A   1      31.253  31.912  26.250  1.00  0.00     0.042 C 
ENDROOT
BRANCH   1   2
ATOM      2  C   UNL A   1      32.351  32.378  27.192  1.00  0.00     0.118 C 
BRANCH   2   3
ATOM      3  N   UNL A   1      32.213  33.782  27.557  1.00  0.00    -0.352 N 
ATOM      4  O   UNL A   1      32.528  35.660  28.751  1.00  0.00    -0.269 OA
ATOM      5  C   UNL A   1      32.936  34.545  28.439  1.00  0.00     0.251 C 
ATOM      6  H   UNL A   1      31.485  34.259  27.097  1.00  0.00     0.163 HD
BRANCH   5   7
ATOM      7  C   UNL A   1      34.186  34.028  29.030  1.00  0.00     0.039 A 
ATOM      8  C   UNL A   1      35.434  34.401  28.523  1.00  0.00     0.014 A 
ATOM      9  C   UNL A   1      34.107  33.180  30.138  1.00  0.00     0.014 A 
ATOM     10  C   UNL A   1      36.591  33.817  29.025  1.00  0.00     0.010 A 
ATOM     11  C   UNL A   1      35.276  32.667  30.701  1.00  0.00     0.010 A 
ATOM     12  C   UNL A   1      36.525  32.957  30.130  1.00  0.00    -0.014 A 
BRANCH  12  13
ATOM     13  C   UNL A   1      37.766  32.405  30.723  1.00  0.00     0.031 A 
ATOM     14  C   UNL A   1      38.434  31.205  30.119  1.00  0.00     0.074 A 
ATOM     15  C   UNL A   1      38.267  32.970  31.837  1.00  0.00     0.049 A 
ATOM     16  N   UNL A   1      39.464  30.526  30.559  1.00  0.00    -0.248 NA
ATOM     17  C   UNL A   1      37.865  30.692  28.864  1.00  0.00     0.031 C 
ATOM     18  C   UNL A   1      37.714  34.146  32.511  1.00  0.00     0.029 A 
ATOM     19  N   UNL A   1      39.347  32.621  32.608  1.00  0.00    -0.354 N 
ATOM     20  C   UNL A   1      39.648  29.490  29.653  1.00  0.00     0.074 A 
ATOM     21  C   UNL A   1      38.608  29.615  28.653  1.00  0.00     0.031 C 
ATOM     22  C   UNL A   1      38.460  34.427  33.587  1.00  0.00     0.029 A 
ATOM     23  C   UNL A   1      39.500  33.413  33.719  1.00  0.00     0.049 A 
ATOM     24  H   UNL A   1      39.952  31.877  32.386  1.00  0.00     0.167 HD
ATOM     25  C   UNL A   1      40.595  28.521  29.657  1.00  0.00     0.031 A 
ATOM     26  C   UNL A   1      40.351  33.313  34.756  1.00  0.00     0.031 A 
ATOM     27  C   UNL A   1      41.615  28.395  30.667  1.00  0.00     0.049 A 
ATOM     28  C   UNL A   1      41.354  32.196  34.775  1.00  0.00     0.074 A 
ATOM     29  C   UNL A   1      42.641  27.469  30.745  1.00  0.00     0.029 A 
ATOM     30  N   UNL A   1      41.726  29.210  31.784  1.00  0.00    -0.354 N 
ATOM     31  N   UNL A   1      41.539  31.242  33.895  1.00  0.00    -0.248 NA
ATOM     32  C   UNL A   1      42.266  32.144  35.924  1.00  0.00     0.031 C 
ATOM     33  C   UNL A   1      43.328  27.680  31.945  1.00  0.00     0.029 A 
ATOM     34  C   UNL A   1      42.781  28.787  32.575  1.00  0.00     0.049 A 
ATOM     35  H   UNL A   1      41.141  29.976  31.986  1.00  0.00     0.167 HD
ATOM     36  C   UNL A   1      42.610  30.496  34.366  1.00  0.00     0.074 A 
ATOM     37  C   UNL A   1      43.033  31.109  35.609  1.00  0.00     0.031 C 
ATOM     38  C   UNL A   1      43.195  29.407  33.810  1.00  0.00     0.031 A 
BRANCH  25  39
ATOM     39  C   UNL A   1      40.535  27.490  28.562  1.00  0.00    -0.014 A 
ATOM     40  C   UNL A   1      41.227  27.656  27.351  1.00  0.00     0.009 A 
ATOM     41  C   UNL A   1      39.772  26.326  28.749  1.00  0.00     0.009 A 
ATOM     42  C   UNL A   1      41.112  26.706  26.333  1.00  0.00     0.001 A 
ATOM     43  C   UNL A   1      39.687  25.362  27.743  1.00  0.00     0.001 A 
ATOM     44  C   UNL A   1      40.345  25.559  26.531  1.00  0.00     0.000 A 
ENDBRANCH  25  39
BRANCH  26  45
ATOM     45  C   UNL A   1      40.262  34.297  35.864  1.00  0.00    -0.014 A 
ATOM     46  C   UNL A   1      40.968  35.507  35.805  1.00  0.00     0.009 A 
ATOM     47  C   UNL A   1      39.422  34.053  36.963  1.00  0.00     0.009 A 
ATOM     48  C   UNL A   1      40.843  36.448  36.830  1.00  0.00     0.001 A 
ATOM     49  C   UNL A   1      39.275  35.008  37.970  1.00  0.00     0.001 A 
ATOM     50  C   UNL A   1      39.990  36.201  37.906  1.00  0.00     0.000 A 
ENDBRANCH  26  45
BRANCH  38  51
ATOM     51  C   UNL A   1      44.397  28.830  34.505  1.00  0.00    -0.014 A 
ATOM     52  C   UNL A   1      44.299  27.703  35.332  1.00  0.00     0.009 A 
ATOM     53  C   UNL A   1      45.663  29.385  34.258  1.00  0.00     0.009 A 
ATOM     54  C   UNL A   1      45.445  27.153  35.913  1.00  0.00     0.001 A 
ATOM     55  C   UNL A   1      46.809  28.816  34.814  1.00  0.00     0.001 A 
ATOM     56  C   UNL A   1      46.698  27.703  35.645  1.00  0.00     0.000 A 
ENDBRANCH  38  51
ENDBRANCH  12  13
ENDBRANCH   5   7
ENDBRANCH   2   3
ENDBRANCH   1   2
BRANCH   1  57
ATOM     57  C   UNL A   1      31.393  30.460  25.826  1.00  0.00     0.118 C 
BRANCH  57  58
ATOM     58  N   UNL A   1      31.020  30.242  24.432  1.00  0.00    -0.352 N 
ATOM     59  C   UNL A   1      30.984  29.077  23.701  1.00  0.00     0.254 C 
ATOM     60  H   UNL A   1      30.754  31.052  23.940  1.00  0.00     0.163 HD
ATOM     61  O   UNL A   1      30.746  29.100  22.501  1.00  0.00    -0.269 OA
BRANCH  59  62
ATOM     62  C   UNL A   1      31.195  27.801  24.395  1.00  0.00     0.078 A 
ATOM     63  C   UNL A   1      30.091  27.001  24.690  1.00  0.00     0.019 A 
ATOM     64  C   UNL A   1      32.462  27.412  24.803  1.00  0.00     0.173 A 
ATOM     65  C   UNL A   1      30.241  25.899  25.526  1.00  0.00     0.030 A 
ATOM     66  C   UNL A   1      32.605  26.268  25.589  1.00  0.00     0.182 A 
ATOM     67  F   UNL A   1      33.542  28.150  24.510  1.00  0.00    -0.203 F 
ATOM     68  C   UNL A   1      31.495  25.504  26.004  1.00  0.00     0.074 A 
ATOM     69  F   UNL A   1      33.830  25.915  26.011  1.00  0.00    -0.201 F 
BRANCH  68  70
ATOM     70  N   UNL A   1      31.680  24.442  26.876  1.00  0.00    -0.379 N 
ATOM     71  H   UNL A   1      31.500  24.630  27.826  1.00  0.00     0.160 HD
BRANCH  70  72
ATOM     72  C   UNL A   1      32.113  23.072  26.565  1.00  0.00     0.094 C 
ATOM     73  C   UNL A   1      33.530  22.824  27.126  1.00  0.00     0.027 C 
ATOM     74  C   UNL A   1      31.866  22.765  25.090  1.00  0.00     0.161 C 
ATOM     75  C   UNL A   1      34.163  21.494  26.736  1.00  0.00     0.018 C 
ATOM     76  S   UNL A   1      32.502  21.186  24.615  1.00  0.00     0.152 S 
ATOM     77  C   UNL A   1      34.165  21.269  25.236  1.00  0.00     0.137 C 
ATOM     78  O   UNL A   1      32.571  21.154  23.169  1.00  0.00    -0.229 OA
ATOM     79  O   UNL A   1      31.785  20.164  25.353  1.00  0.00    -0.229 OA
ENDBRANCH  70  72
ENDBRANCH  68  70
ENDBRANCH  59  62
ENDBRANCH  57  58
ENDBRANCH   1  57
TORSDOF 12
ENDMDL
MODEL 3
REMARK VINA RESULT:     -11.9      4.290      9.578
REMARK SMILES O=C(NCCCNC(=O)c1ccc(N[C@@H]2CCCS(=O)(=O)C2)c(F)c1F)c1ccc(-c2c3nc(c(-c4ccccc4)c4ccc([nH]4)c(-c4ccccc4)c4nc(c(-c5ccccc5)c5ccc2[nH]5)C=C4)C=C3)cc1
REMARK SMILES IDX 5 1 4 2 3 3 1 4 2 5 27 7 28 8 74 9 29 10 73 11 30 12 31 13
REMARK SMILES IDX 32 14 67 15 33 16 72 17 66 18 68 19 34 20 71 21 65 22 64 23
REMARK SMILES IDX 35 25 57 26 42 27 56 28 43 29 46 30 55 31 69 32 44 33 45 34
REMARK SMILES IDX 54 36 70 37 47 38 36 39 37 40 41 41 38 42 40 43 39 44 58 45
REMARK SMILES IDX 59 46 63 47 60 48 62 49 61 50 48 51 49 52 53 53 50 54 52 55
REMARK SMILES IDX 51 56 6 57 7 58 8 59 9 61 10 62 11 63 25 64 12 65 23 66
REMARK SMILES IDX 26 67 13 68 24 69 14 70 15 72 16 73 22 74 17 75 19 76 18 77
REMARK SMILES IDX 20 78 21 79
REMARK H PARENT 3 6 68 24 46 35 7 60 14 71
REMARK Flexibility Score: inf
ROOT
ATOM      1  C   UNL A   1      31.138  31.457  26.133  1.00  0.00     0.042 C 
ENDROOT
BRANCH   1   2
ATOM      2  C   UNL A   1      32.354  31.972  26.885  1.00  0.00     0.118 C 
BRANCH   2   3
ATOM      3  N   UNL A   1      32.203  33.360  27.304  1.00  0.00    -0.352 N 
ATOM      4  O   UNL A   1      32.553  35.212  28.529  1.00  0.00    -0.269 OA
ATOM      5  C   UNL A   1      32.969  34.120  28.152  1.00  0.00     0.251 C 
ATOM      6  H   UNL A   1      31.428  33.827  26.916  1.00  0.00     0.163 HD
BRANCH   5   7
ATOM      7  C   UNL A   1      34.276  33.626  28.629  1.00  0.00     0.039 A 
ATOM      8  C   UNL A   1      35.464  33.991  27.990  1.00  0.00     0.014 A 
ATOM      9  C   UNL A   1      34.315  32.810  29.763  1.00  0.00     0.014 A 
ATOM     10  C   UNL A   1      36.670  33.427  28.389  1.00  0.00     0.010 A 
ATOM     11  C   UNL A   1      35.538  32.319  30.219  1.00  0.00     0.010 A 
ATOM     12  C   UNL A   1      36.722  32.599  29.518  1.00  0.00    -0.014 A 
BRANCH  12  13
ATOM     13  C   UNL A   1      38.020  32.070  29.999  1.00  0.00     0.031 A 
ATOM     14  C   UNL A   1      38.557  30.770  29.477  1.00  0.00     0.074 A 
ATOM     15  C   UNL A   1      38.696  32.752  30.943  1.00  0.00     0.049 A 
ATOM     16  N   UNL A   1      39.621  30.106  29.854  1.00  0.00    -0.248 NA
ATOM     17  C   UNL A   1      37.796  30.125  28.397  1.00  0.00     0.031 C 
ATOM     18  C   UNL A   1      38.281  34.031  31.522  1.00  0.00     0.029 A 
ATOM     19  N   UNL A   1      39.866  32.455  31.594  1.00  0.00    -0.354 N 
ATOM     20  C   UNL A   1      39.640  28.953  29.081  1.00  0.00     0.074 A 
ATOM     21  C   UNL A   1      38.468  28.996  28.232  1.00  0.00     0.031 C 
ATOM     22  C   UNL A   1      39.185  34.415  32.432  1.00  0.00     0.029 A 
ATOM     23  C   UNL A   1      40.203  33.377  32.553  1.00  0.00     0.049 A 
ATOM     24  H   UNL A   1      40.411  31.660  31.392  1.00  0.00     0.167 HD
ATOM     25  C   UNL A   1      40.549  27.948  29.083  1.00  0.00     0.031 A 
ATOM     26  C   UNL A   1      41.195  33.373  33.463  1.00  0.00     0.031 A 
ATOM     27  C   UNL A   1      41.702  27.907  29.947  1.00  0.00     0.049 A 
ATOM     28  C   UNL A   1      42.157  32.222  33.491  1.00  0.00     0.074 A 
ATOM     29  C   UNL A   1      42.702  26.951  30.004  1.00  0.00     0.029 A 
ATOM     30  N   UNL A   1      42.000  28.855  30.915  1.00  0.00    -0.354 N 
ATOM     31  N   UNL A   1      42.184  31.152  32.733  1.00  0.00    -0.248 NA
ATOM     32  C   UNL A   1      43.227  32.277  34.496  1.00  0.00     0.031 C 
ATOM     33  C   UNL A   1      43.564  27.284  31.054  1.00  0.00     0.029 A 
ATOM     34  C   UNL A   1      43.148  28.488  31.598  1.00  0.00     0.049 A 
ATOM     35  H   UNL A   1      41.473  29.668  31.091  1.00  0.00     0.167 HD
ATOM     36  C   UNL A   1      43.291  30.423  33.145  1.00  0.00     0.074 A 
ATOM     37  C   UNL A   1      43.909  31.173  34.220  1.00  0.00     0.031 C 
ATOM     38  C   UNL A   1      43.756  29.244  32.665  1.00  0.00     0.031 A 
BRANCH  25  39
ATOM     39  C   UNL A   1      40.299  26.787  28.159  1.00  0.00    -0.014 A 
ATOM     40  C   UNL A   1      40.841  26.743  26.865  1.00  0.00     0.009 A 
ATOM     41  C   UNL A   1      39.507  25.713  28.597  1.00  0.00     0.009 A 
ATOM     42  C   UNL A   1      40.551  25.674  26.011  1.00  0.00     0.001 A 
ATOM     43  C   UNL A   1      39.248  24.630  27.754  1.00  0.00     0.001 A 
ATOM     44  C   UNL A   1      39.757  24.619  26.457  1.00  0.00     0.000 A 
ENDBRANCH  25  39
BRANCH  26  45
ATOM     45  C   UNL A   1      41.298  34.497  34.427  1.00  0.00    -0.014 A 
ATOM     46  C   UNL A   1      42.049  35.640  34.117  1.00  0.00     0.009 A 
ATOM     47  C   UNL A   1      40.595  34.455  35.643  1.00  0.00     0.009 A 
ATOM     48  C   UNL A   1      42.104  36.712  35.010  1.00  0.00     0.001 A 
ATOM     49  C   UNL A   1      40.626  35.540  36.519  1.00  0.00     0.001 A 
ATOM     50  C   UNL A   1      41.385  36.665  36.205  1.00  0.00     0.000 A 
ENDBRANCH  26  45
BRANCH  38  51
ATOM     51  C   UNL A   1      45.030  28.707  33.255  1.00  0.00    -0.014 A 
ATOM     52  C   UNL A   1      45.021  27.800  34.324  1.00  0.00     0.009 A 
ATOM     53  C   UNL A   1      46.258  29.059  32.671  1.00  0.00     0.009 A 
ATOM     54  C   UNL A   1      46.220  27.270  34.808  1.00  0.00     0.001 A 
ATOM     55  C   UNL A   1      47.450  28.504  33.135  1.00  0.00     0.001 A 
ATOM     56  C   UNL A   1      47.431  27.614  34.207  1.00  0.00     0.000 A 
ENDBRANCH  38  51
ENDBRANCH  12  13
ENDBRANCH   5   7
ENDBRANCH   2   3
ENDBRANCH   1   2
BRANCH   1  57
ATOM     57  C   UNL A   1      31.402  30.178  25.358  1.00  0.00     0.118 C 
BRANCH  57  58
ATOM     58  N   UNL A   1      30.649  30.110  24.109  1.00  0.00    -0.352 N 
ATOM     59  C   UNL A   1      30.698  29.178  23.100  1.00  0.00     0.254 C 
ATOM     60  H   UNL A   1      30.009  30.845  23.968  1.00  0.00     0.163 HD
ATOM     61  O   UNL A   1      30.063  29.342  22.066  1.00  0.00    -0.269 OA
BRANCH  59  62
ATOM     62  C   UNL A   1      31.493  27.960  23.300  1.00  0.00     0.078 A 
ATOM     63  C   UNL A   1      32.815  27.936  22.860  1.00  0.00     0.019 A 
ATOM     64  C   UNL A   1      30.931  26.826  23.869  1.00  0.00     0.173 A 
ATOM     65  C   UNL A   1      33.518  26.735  22.848  1.00  0.00     0.030 A 
ATOM     66  C   UNL A   1      31.669  25.644  23.907  1.00  0.00     0.182 A 
ATOM     67  F   UNL A   1      29.669  26.831  24.322  1.00  0.00    -0.203 F 
ATOM     68  C   UNL A   1      32.967  25.556  23.361  1.00  0.00     0.074 A 
ATOM     69  F   UNL A   1      31.108  24.540  24.426  1.00  0.00    -0.201 F 
BRANCH  68  70
ATOM     70  N   UNL A   1      33.614  24.331  23.324  1.00  0.00    -0.379 N 
ATOM     71  H   UNL A   1      33.734  23.935  22.430  1.00  0.00     0.160 HD
BRANCH  70  72
ATOM     72  C   UNL A   1      34.143  23.545  24.448  1.00  0.00     0.094 C 
ATOM     73  C   UNL A   1      35.502  24.120  24.903  1.00  0.00     0.027 C 
ATOM     74  C   UNL A   1      34.073  22.054  24.127  1.00  0.00     0.161 C 
ATOM     75  C   UNL A   1      36.238  23.303  25.958  1.00  0.00     0.018 C 
ATOM     76  S   UNL A   1      34.832  21.059  25.374  1.00  0.00     0.152 S 
ATOM     77  C   UNL A   1      36.412  21.852  25.551  1.00  0.00     0.137 C 
ATOM     78  O   UNL A   1      35.058  19.744  24.814  1.00  0.00    -0.229 OA
ATOM     79  O   UNL A   1      34.091  21.230  26.609  1.00  0.00    -0.229 OA
ENDBRANCH  70  72
ENDBRANCH  68  70
ENDBRANCH  59  62
ENDBRANCH  57  58
ENDBRANCH   1  57
TORSDOF 12
ENDMDL
