MODEL 1
REMARK VINA RESULT:     -11.7      0.000      0.000
REMARK SMILES Cc1c(C)c2c(c(C)c1O)CC[C@@](C)(C(=O)NCCCNC(=O)c1ccc(-c3c4nc(c(-c5ccccc5)c5ccc([nH]5)c(-c5ccccc5)c5nc(c(-c6ccccc6)c6ccc3[nH]6)C=C5)C=C4)cc1)O2
REMARK SMILES IDX 19 1 18 2 17 3 15 4 16 5 13 7 1 8 2 9 3 10 9 11 4 12 5 13
REMARK SMILES IDX 7 14 6 15 72 16 8 17 11 18 12 19 14 20 10 21 20 23 21 24
REMARK SMILES IDX 22 25 23 27 24 28 25 29 71 30 26 31 70 32 27 33 28 34 29 35
REMARK SMILES IDX 64 36 30 37 69 38 63 39 65 40 31 41 68 42 62 43 61 44 32 46
REMARK SMILES IDX 54 47 39 48 53 49 40 50 43 51 52 52 66 53 41 54 42 55 51 57
REMARK SMILES IDX 67 58 44 59 33 60 34 61 38 62 35 63 37 64 36 65 55 66 56 67
REMARK SMILES IDX 60 68 57 69 59 70 58 71 45 72 46 73 50 74 47 75 49 76 48 77
REMARK H PARENT 17 6 10 22 21 26 65 45 43 56
REMARK Flexibility Score: inf
ROOT
ATOM      1  C   UNL A   1      33.975  28.234  25.985  1.00  0.00     0.042 C 
ENDROOT
BRANCH   1   2
ATOM      2  C   UNL A   1      33.590  26.831  25.530  1.00  0.00     0.118 C 
BRANCH   2   3
ATOM      3  N   UNL A   1      32.285  26.423  26.031  1.00  0.00    -0.353 N 
ATOM      4  C   UNL A   1      31.651  25.206  26.040  1.00  0.00     0.263 C 
ATOM      5  O   UNL A   1      30.524  25.184  26.544  1.00  0.00    -0.270 OA
ATOM      6  H   UNL A   1      31.762  27.152  26.436  1.00  0.00     0.163 HD
BRANCH   4   7
ATOM      7  C   UNL A   1      32.334  23.940  25.454  1.00  0.00     0.184 C 
ATOM      8  C   UNL A   1      38.018  21.609  25.487  1.00  0.00     0.049 C 
ATOM      9  C   UNL A   1      36.513  21.553  25.411  1.00  0.00    -0.002 A 
ATOM     10  C   UNL A   1      35.772  22.729  25.705  1.00  0.00    -0.002 A 
ATOM     11  C   UNL A   1      35.812  20.372  25.094  1.00  0.00     0.122 A 
ATOM     12  C   UNL A   1      36.487  24.024  26.017  1.00  0.00     0.049 C 
ATOM     13  C   UNL A   1      34.366  22.687  25.679  1.00  0.00     0.127 A 
ATOM     14  C   UNL A   1      34.410  20.324  25.079  1.00  0.00    -0.002 A 
ATOM     15  C   UNL A   1      33.684  21.486  25.405  1.00  0.00     0.001 A 
ATOM     16  O   UNL A   1      33.699  23.871  25.928  1.00  0.00    -0.477 OA
ATOM     17  C   UNL A   1      33.676  19.056  24.717  1.00  0.00     0.049 C 
ATOM     18  C   UNL A   1      32.182  21.448  25.417  1.00  0.00     0.044 C 
ATOM     19  C   UNL A   1      31.614  22.711  26.015  1.00  0.00     0.063 C 
ATOM     20  C   UNL A   1      32.415  24.114  23.922  1.00  0.00     0.067 C 
BRANCH  11  21
ATOM     21  O   UNL A   1      36.457  19.201  24.792  1.00  0.00    -0.507 OA
ATOM     22  H   UNL A   1      36.059  18.379  25.004  1.00  0.00     0.293 HD
ENDBRANCH  11  21
ENDBRANCH   4   7
ENDBRANCH   2   3
ENDBRANCH   1   2
BRANCH   1  23
ATOM     23  C   UNL A   1      33.513  28.559  27.395  1.00  0.00     0.118 C 
BRANCH  23  24
ATOM     24  N   UNL A   1      33.560  29.988  27.675  1.00  0.00    -0.352 N 
ATOM     25  C   UNL A   1      34.548  30.746  28.249  1.00  0.00     0.251 C 
ATOM     26  H   UNL A   1      32.755  30.488  27.411  1.00  0.00     0.163 HD
ATOM     27  O   UNL A   1      34.300  31.898  28.604  1.00  0.00    -0.269 OA
BRANCH  25  28
ATOM     28  C   UNL A   1      35.897  30.187  28.461  1.00  0.00     0.039 A 
ATOM     29  C   UNL A   1      36.823  30.236  27.415  1.00  0.00     0.014 A 
ATOM     30  C   UNL A   1      36.246  29.589  29.675  1.00  0.00     0.014 A 
ATOM     31  C   UNL A   1      38.115  29.744  27.610  1.00  0.00     0.010 A 
ATOM     32  C   UNL A   1      37.558  29.187  29.899  1.00  0.00     0.010 A 
ATOM     33  C   UNL A   1      38.502  29.247  28.865  1.00  0.00    -0.014 A 
BRANCH  33  34
ATOM     34  C   UNL A   1      39.883  28.767  29.110  1.00  0.00     0.031 A 
ATOM     35  C   UNL A   1      40.897  29.681  29.741  1.00  0.00     0.074 A 
ATOM     36  C   UNL A   1      40.239  27.527  28.720  1.00  0.00     0.049 A 
ATOM     37  N   UNL A   1      42.164  29.462  29.987  1.00  0.00    -0.248 NA
ATOM     38  C   UNL A   1      40.436  31.025  30.129  1.00  0.00     0.031 C 
ATOM     39  C   UNL A   1      39.355  26.556  28.070  1.00  0.00     0.029 A 
ATOM     40  N   UNL A   1      41.441  26.871  28.811  1.00  0.00    -0.354 N 
ATOM     41  C   UNL A   1      42.648  30.639  30.543  1.00  0.00     0.074 A 
ATOM     42  C   UNL A   1      41.558  31.587  30.551  1.00  0.00     0.031 C 
ATOM     43  C   UNL A   1      40.036  25.420  27.851  1.00  0.00     0.029 A 
ATOM     44  C   UNL A   1      41.413  25.595  28.302  1.00  0.00     0.049 A 
ATOM     45  H   UNL A   1      42.247  27.276  29.204  1.00  0.00     0.167 HD
ATOM     46  C   UNL A   1      43.886  30.898  31.025  1.00  0.00     0.031 A 
ATOM     47  C   UNL A   1      42.388  24.672  28.201  1.00  0.00     0.031 A 
ATOM     48  C   UNL A   1      44.964  29.948  31.031  1.00  0.00     0.049 A 
ATOM     49  C   UNL A   1      43.761  24.996  28.719  1.00  0.00     0.074 A 
ATOM     50  C   UNL A   1      46.240  30.101  31.547  1.00  0.00     0.029 A 
ATOM     51  N   UNL A   1      44.897  28.671  30.497  1.00  0.00    -0.354 N 
ATOM     52  N   UNL A   1      44.186  26.093  29.299  1.00  0.00    -0.248 NA
ATOM     53  C   UNL A   1      44.788  23.954  28.579  1.00  0.00     0.031 C 
ATOM     54  C   UNL A   1      46.963  28.939  31.271  1.00  0.00     0.029 A 
ATOM     55  C   UNL A   1      46.118  28.037  30.643  1.00  0.00     0.049 A 
ATOM     56  H   UNL A   1      44.100  28.275  30.076  1.00  0.00     0.167 HD
ATOM     57  C   UNL A   1      45.521  25.865  29.611  1.00  0.00     0.074 A 
ATOM     58  C   UNL A   1      45.829  24.518  29.176  1.00  0.00     0.031 C 
ATOM     59  C   UNL A   1      46.410  26.697  30.203  1.00  0.00     0.031 A 
BRANCH  46  60
ATOM     60  C   UNL A   1      44.146  32.264  31.595  1.00  0.00    -0.014 A 
ATOM     61  C   UNL A   1      44.000  32.516  32.969  1.00  0.00     0.009 A 
ATOM     62  C   UNL A   1      44.621  33.290  30.762  1.00  0.00     0.009 A 
ATOM     63  C   UNL A   1      44.308  33.774  33.493  1.00  0.00     0.001 A 
ATOM     64  C   UNL A   1      44.954  34.536  31.294  1.00  0.00     0.001 A 
ATOM     65  C   UNL A   1      44.793  34.779  32.658  1.00  0.00     0.000 A 
ENDBRANCH  46  60
BRANCH  47  66
ATOM     66  C   UNL A   1      42.094  23.347  27.593  1.00  0.00    -0.014 A 
ATOM     67  C   UNL A   1      42.391  23.099  26.244  1.00  0.00     0.009 A 
ATOM     68  C   UNL A   1      41.525  22.318  28.360  1.00  0.00     0.009 A 
ATOM     69  C   UNL A   1      42.105  21.857  25.671  1.00  0.00     0.001 A 
ATOM     70  C   UNL A   1      41.269  21.067  27.793  1.00  0.00     0.001 A 
ATOM     71  C   UNL A   1      41.552  20.840  26.448  1.00  0.00     0.000 A 
ENDBRANCH  47  66
BRANCH  59  72
ATOM     72  C   UNL A   1      47.802  26.179  30.436  1.00  0.00    -0.014 A 
ATOM     73  C   UNL A   1      48.775  26.234  29.428  1.00  0.00     0.009 A 
ATOM     74  C   UNL A   1      48.163  25.703  31.706  1.00  0.00     0.009 A 
ATOM     75  C   UNL A   1      50.078  25.802  29.681  1.00  0.00     0.001 A 
ATOM     76  C   UNL A   1      49.475  25.303  31.966  1.00  0.00     0.001 A 
ATOM     77  C   UNL A   1      50.429  25.346  30.952  1.00  0.00     0.000 A 
ENDBRANCH  59  72
ENDBRANCH  33  34
ENDBRANCH  25  28
ENDBRANCH  23  24
ENDBRANCH   1  23
TORSDOF 11
ENDMDL
MODEL 2
REMARK VINA RESULT:     -11.5      0.266      6.083
REMARK SMILES Cc1c(C)c2c(c(C)c1O)CC[C@@](C)(C(=O)NCCCNC(=O)c1ccc(-c3c4nc(c(-c5ccccc5)c5ccc([nH]5)c(-c5ccccc5)c5nc(c(-c6ccccc6)c6ccc3[nH]6)C=C5)C=C4)cc1)O2
REMARK SMILES IDX 19 1 18 2 17 3 15 4 16 5 13 7 1 8 2 9 3 10 9 11 4 12 5 13
REMARK SMILES IDX 7 14 6 15 72 16 8 17 11 18 12 19 14 20 10 21 20 23 21 24
REMARK SMILES IDX 22 25 23 27 24 28 25 29 71 30 26 31 70 32 27 33 28 34 29 35
REMARK SMILES IDX 64 36 30 37 69 38 63 39 65 40 31 41 68 42 62 43 61 44 32 46
REMARK SMILES IDX 54 47 39 48 53 49 40 50 43 51 52 52 66 53 41 54 42 55 51 57
REMARK SMILES IDX 67 58 44 59 33 60 34 61 38 62 35 63 37 64 36 65 55 66 56 67
REMARK SMILES IDX 60 68 57 69 59 70 58 71 45 72 46 73 50 74 47 75 49 76 48 77
REMARK H PARENT 17 6 10 22 21 26 65 45 43 56
REMARK Flexibility Score: inf
ROOT
ATOM      1  C   UNL A   1      33.910  28.167  25.877  1.00  0.00     0.042 C 
ENDROOT
BRANCH   1   2
ATOM      2  C   UNL A   1      33.480  26.773  25.436  1.00  0.00     0.118 C 
BRANCH   2   3
ATOM      3  N   UNL A   1      32.167  26.407  25.948  1.00  0.00    -0.353 N 
ATOM      4  C   UNL A   1      31.503  25.207  25.982  1.00  0.00     0.263 C 
ATOM      5  O   UNL A   1      30.378  25.223  26.491  1.00  0.00    -0.270 OA
ATOM      6  H   UNL A   1      31.665  27.157  26.343  1.00  0.00     0.163 HD
BRANCH   4   7
ATOM      7  C   UNL A   1      32.151  23.913  25.416  1.00  0.00     0.184 C 
ATOM      8  C   UNL A   1      37.805  21.511  25.341  1.00  0.00     0.049 C 
ATOM      9  C   UNL A   1      36.296  21.472  25.316  1.00  0.00    -0.002 A 
ATOM     10  C   UNL A   1      35.580  22.667  25.595  1.00  0.00    -0.002 A 
ATOM     11  C   UNL A   1      35.572  20.290  25.062  1.00  0.00     0.122 A 
ATOM     12  C   UNL A   1      36.320  23.961  25.841  1.00  0.00     0.049 C 
ATOM     13  C   UNL A   1      34.173  22.642  25.617  1.00  0.00     0.127 A 
ATOM     14  C   UNL A   1      34.169  20.260  25.094  1.00  0.00    -0.002 A 
ATOM     15  C   UNL A   1      33.469  21.442  25.405  1.00  0.00     0.001 A 
ATOM     16  O   UNL A   1      33.529  23.842  25.848  1.00  0.00    -0.477 OA
ATOM     17  C   UNL A   1      33.409  18.991  24.799  1.00  0.00     0.049 C 
ATOM     18  C   UNL A   1      31.967  21.424  25.467  1.00  0.00     0.044 C 
ATOM     19  C   UNL A   1      31.435  22.713  26.041  1.00  0.00     0.063 C 
ATOM     20  C   UNL A   1      32.183  24.037  23.878  1.00  0.00     0.067 C 
BRANCH  11  21
ATOM     21  O   UNL A   1      36.192  19.102  24.779  1.00  0.00    -0.507 OA
ATOM     22  H   UNL A   1      36.108  18.377  25.367  1.00  0.00     0.293 HD
ENDBRANCH  11  21
ENDBRANCH   4   7
ENDBRANCH   2   3
ENDBRANCH   1   2
BRANCH   1  23
ATOM     23  C   UNL A   1      33.559  28.477  27.322  1.00  0.00     0.118 C 
BRANCH  23  24
ATOM     24  N   UNL A   1      33.555  29.908  27.593  1.00  0.00    -0.352 N 
ATOM     25  C   UNL A   1      34.508  30.702  28.177  1.00  0.00     0.251 C 
ATOM     26  H   UNL A   1      32.738  30.380  27.314  1.00  0.00     0.163 HD
ATOM     27  O   UNL A   1      34.218  31.848  28.520  1.00  0.00    -0.269 OA
BRANCH  25  28
ATOM     28  C   UNL A   1      35.872  30.189  28.412  1.00  0.00     0.039 A 
ATOM     29  C   UNL A   1      36.809  30.255  27.377  1.00  0.00     0.014 A 
ATOM     30  C   UNL A   1      36.225  29.617  29.637  1.00  0.00     0.014 A 
ATOM     31  C   UNL A   1      38.113  29.808  27.594  1.00  0.00     0.010 A 
ATOM     32  C   UNL A   1      37.545  29.260  29.882  1.00  0.00     0.010 A 
ATOM     33  C   UNL A   1      38.501  29.339  28.860  1.00  0.00    -0.014 A 
BRANCH  33  34
ATOM     34  C   UNL A   1      39.893  28.905  29.128  1.00  0.00     0.031 A 
ATOM     35  C   UNL A   1      40.345  27.531  28.715  1.00  0.00     0.074 A 
ATOM     36  C   UNL A   1      40.735  29.726  29.787  1.00  0.00     0.049 A 
ATOM     37  N   UNL A   1      41.503  26.953  28.908  1.00  0.00    -0.248 NA
ATOM     38  C   UNL A   1      39.365  26.688  28.010  1.00  0.00     0.031 C 
ATOM     39  C   UNL A   1      40.405  31.071  30.266  1.00  0.00     0.029 A 
ATOM     40  N   UNL A   1      42.040  29.549  30.169  1.00  0.00    -0.354 N 
ATOM     41  C   UNL A   1      41.384  25.681  28.363  1.00  0.00     0.074 A 
ATOM     42  C   UNL A   1      40.029  25.550  27.878  1.00  0.00     0.031 C 
ATOM     43  C   UNL A   1      41.489  31.607  30.849  1.00  0.00     0.029 A 
ATOM     44  C   UNL A   1      42.574  30.630  30.826  1.00  0.00     0.049 A 
ATOM     45  H   UNL A   1      42.546  28.724  29.990  1.00  0.00     0.167 HD
ATOM     46  C   UNL A   1      42.327  24.716  28.255  1.00  0.00     0.031 A 
ATOM     47  C   UNL A   1      43.797  30.815  31.359  1.00  0.00     0.031 A 
ATOM     48  C   UNL A   1      43.679  24.854  28.723  1.00  0.00     0.049 A 
ATOM     49  C   UNL A   1      44.818  29.717  31.249  1.00  0.00     0.074 A 
ATOM     50  C   UNL A   1      44.722  23.952  28.610  1.00  0.00     0.029 A 
ATOM     51  N   UNL A   1      44.175  25.962  29.391  1.00  0.00    -0.354 N 
ATOM     52  N   UNL A   1      44.707  28.543  30.675  1.00  0.00    -0.248 NA
ATOM     53  C   UNL A   1      46.134  29.970  31.852  1.00  0.00     0.031 C 
ATOM     54  C   UNL A   1      45.834  24.489  29.263  1.00  0.00     0.029 A 
ATOM     55  C   UNL A   1      45.502  25.753  29.724  1.00  0.00     0.049 A 
ATOM     56  H   UNL A   1      43.662  26.776  29.597  1.00  0.00     0.167 HD
ATOM     57  C   UNL A   1      45.943  27.927  30.828  1.00  0.00     0.074 A 
ATOM     58  C   UNL A   1      46.794  28.865  31.530  1.00  0.00     0.031 C 
ATOM     59  C   UNL A   1      46.336  26.696  30.425  1.00  0.00     0.031 A 
BRANCH  46  60
ATOM     60  C   UNL A   1      41.937  23.421  27.599  1.00  0.00    -0.014 A 
ATOM     61  C   UNL A   1      42.241  23.171  26.252  1.00  0.00     0.009 A 
ATOM     62  C   UNL A   1      41.329  22.409  28.359  1.00  0.00     0.009 A 
ATOM     63  C   UNL A   1      41.929  21.937  25.675  1.00  0.00     0.001 A 
ATOM     64  C   UNL A   1      41.046  21.169  27.787  1.00  0.00     0.001 A 
ATOM     65  C   UNL A   1      41.341  20.935  26.444  1.00  0.00     0.000 A 
ENDBRANCH  46  60
BRANCH  47  66
ATOM     66  C   UNL A   1      44.127  32.099  32.033  1.00  0.00    -0.014 A 
ATOM     67  C   UNL A   1      43.891  32.264  33.407  1.00  0.00     0.009 A 
ATOM     68  C   UNL A   1      44.689  33.164  31.311  1.00  0.00     0.009 A 
ATOM     69  C   UNL A   1      44.191  33.475  34.037  1.00  0.00     0.001 A 
ATOM     70  C   UNL A   1      45.017  34.362  31.950  1.00  0.00     0.001 A 
ATOM     71  C   UNL A   1      44.760  34.518  33.311  1.00  0.00     0.000 A 
ENDBRANCH  47  66
BRANCH  59  72
ATOM     72  C   UNL A   1      47.753  26.286  30.713  1.00  0.00    -0.014 A 
ATOM     73  C   UNL A   1      48.112  25.730  31.950  1.00  0.00     0.009 A 
ATOM     74  C   UNL A   1      48.724  26.387  29.704  1.00  0.00     0.009 A 
ATOM     75  C   UNL A   1      49.421  25.302  32.178  1.00  0.00     0.001 A 
ATOM     76  C   UNL A   1      50.024  25.928  29.924  1.00  0.00     0.001 A 
ATOM     77  C   UNL A   1      50.372  25.393  31.162  1.00  0.00     0.000 A 
ENDBRANCH  59  72
ENDBRANCH  33  34
ENDBRANCH  25  28
ENDBRANCH  23  24
ENDBRANCH   1  23
TORSDOF 11
ENDMDL
MODEL 3
REMARK VINA RESULT:     -11.5      1.320      2.035
REMARK SMILES Cc1c(C)c2c(c(C)c1O)CC[C@@](C)(C(=O)NCCCNC(=O)c1ccc(-c3c4nc(c(-c5ccccc5)c5ccc([nH]5)c(-c5ccccc5)c5nc(c(-c6ccccc6)c6ccc3[nH]6)C=C5)C=C4)cc1)O2
REMARK SMILES IDX 19 1 18 2 17 3 15 4 16 5 13 7 1 8 2 9 3 10 9 11 4 12 5 13
REMARK SMILES IDX 7 14 6 15 72 16 8 17 11 18 12 19 14 20 10 21 20 23 21 24
REMARK SMILES IDX 22 25 23 27 24 28 25 29 71 30 26 31 70 32 27 33 28 34 29 35
REMARK SMILES IDX 64 36 30 37 69 38 63 39 65 40 31 41 68 42 62 43 61 44 32 46
REMARK SMILES IDX 54 47 39 48 53 49 40 50 43 51 52 52 66 53 41 54 42 55 51 57
REMARK SMILES IDX 67 58 44 59 33 60 34 61 38 62 35 63 37 64 36 65 55 66 56 67
REMARK SMILES IDX 60 68 57 69 59 70 58 71 45 72 46 73 50 74 47 75 49 76 48 77
REMARK H PARENT 17 6 10 22 21 26 65 45 43 56
REMARK Flexibility Score: inf
ROOT
ATOM      1  C   UNL A   1      33.883  28.585  25.299  1.00  0.00     0.042 C 
ENDROOT
BRANCH   1   2
ATOM      2  C   UNL A   1      32.703  28.058  24.491  1.00  0.00     0.118 C 
BRANCH   2   3
ATOM      3  N   UNL A   1      33.118  27.428  23.245  1.00  0.00    -0.353 N 
ATOM      4  C   UNL A   1      33.329  26.114  22.913  1.00  0.00     0.263 C 
ATOM      5  O   UNL A   1      33.687  25.898  21.751  1.00  0.00    -0.270 OA
ATOM      6  H   UNL A   1      33.275  28.061  22.507  1.00  0.00     0.163 HD
BRANCH   4   7
ATOM      7  C   UNL A   1      33.115  24.979  23.951  1.00  0.00     0.184 C 
ATOM      8  C   UNL A   1      32.198  18.909  23.685  1.00  0.00     0.049 C 
ATOM      9  C   UNL A   1      32.656  20.202  24.314  1.00  0.00    -0.002 A 
ATOM     10  C   UNL A   1      32.677  21.378  23.517  1.00  0.00    -0.002 A 
ATOM     11  C   UNL A   1      33.097  20.281  25.651  1.00  0.00     0.122 A 
ATOM     12  C   UNL A   1      32.181  21.341  22.090  1.00  0.00     0.049 C 
ATOM     13  C   UNL A   1      33.139  22.584  24.074  1.00  0.00     0.127 A 
ATOM     14  C   UNL A   1      33.570  21.480  26.205  1.00  0.00    -0.002 A 
ATOM     15  C   UNL A   1      33.619  22.633  25.396  1.00  0.00     0.001 A 
ATOM     16  O   UNL A   1      33.093  23.705  23.267  1.00  0.00    -0.477 OA
ATOM     17  C   UNL A   1      34.019  21.552  27.644  1.00  0.00     0.049 C 
ATOM     18  C   UNL A   1      34.143  23.921  25.965  1.00  0.00     0.044 C 
ATOM     19  C   UNL A   1      34.330  24.954  24.882  1.00  0.00     0.063 C 
ATOM     20  C   UNL A   1      31.712  25.163  24.569  1.00  0.00     0.067 C 
BRANCH  11  21
ATOM     21  O   UNL A   1      33.101  19.192  26.483  1.00  0.00    -0.507 OA
ATOM     22  H   UNL A   1      33.912  18.799  26.737  1.00  0.00     0.293 HD
ENDBRANCH  11  21
ENDBRANCH   4   7
ENDBRANCH   2   3
ENDBRANCH   1   2
BRANCH   1  23
ATOM     23  C   UNL A   1      33.599  28.685  26.787  1.00  0.00     0.118 C 
BRANCH  23  24
ATOM     24  N   UNL A   1      33.574  30.065  27.252  1.00  0.00    -0.352 N 
ATOM     25  C   UNL A   1      34.470  30.755  28.027  1.00  0.00     0.251 C 
ATOM     26  H   UNL A   1      32.789  30.585  26.965  1.00  0.00     0.163 HD
ATOM     27  O   UNL A   1      34.152  31.848  28.497  1.00  0.00    -0.269 OA
BRANCH  25  28
ATOM     28  C   UNL A   1      35.803  30.191  28.317  1.00  0.00     0.039 A 
ATOM     29  C   UNL A   1      36.791  30.245  27.329  1.00  0.00     0.014 A 
ATOM     30  C   UNL A   1      36.077  29.586  29.546  1.00  0.00     0.014 A 
ATOM     31  C   UNL A   1      38.067  29.749  27.600  1.00  0.00     0.010 A 
ATOM     32  C   UNL A   1      37.371  29.179  29.847  1.00  0.00     0.010 A 
ATOM     33  C   UNL A   1      38.377  29.244  28.873  1.00  0.00    -0.014 A 
BRANCH  33  34
ATOM     34  C   UNL A   1      39.740  28.758  29.198  1.00  0.00     0.031 A 
ATOM     35  C   UNL A   1      40.698  29.648  29.940  1.00  0.00     0.074 A 
ATOM     36  C   UNL A   1      40.132  27.537  28.784  1.00  0.00     0.049 A 
ATOM     37  N   UNL A   1      41.945  29.424  30.269  1.00  0.00    -0.248 NA
ATOM     38  C   UNL A   1      40.200  30.973  30.349  1.00  0.00     0.031 C 
ATOM     39  C   UNL A   1      39.304  26.591  28.030  1.00  0.00     0.029 A 
ATOM     40  N   UNL A   1      41.328  26.883  28.935  1.00  0.00    -0.354 N 
ATOM     41  C   UNL A   1      42.379  30.578  30.908  1.00  0.00     0.074 A 
ATOM     42  C   UNL A   1      41.285  31.520  30.876  1.00  0.00     0.031 C 
ATOM     43  C   UNL A   1      40.007  25.468  27.814  1.00  0.00     0.029 A 
ATOM     44  C   UNL A   1      41.346  25.629  28.372  1.00  0.00     0.049 A 
ATOM     45  H   UNL A   1      42.100  27.274  29.403  1.00  0.00     0.167 HD
ATOM     46  C   UNL A   1      43.576  30.821  31.490  1.00  0.00     0.031 A 
ATOM     47  C   UNL A   1      42.333  24.715  28.304  1.00  0.00     0.031 A 
ATOM     48  C   UNL A   1      44.658  29.876  31.536  1.00  0.00     0.049 A 
ATOM     49  C   UNL A   1      43.662  25.021  28.935  1.00  0.00     0.074 A 
ATOM     50  C   UNL A   1      45.891  30.011  32.150  1.00  0.00     0.029 A 
ATOM     51  N   UNL A   1      44.639  28.622  30.945  1.00  0.00    -0.354 N 
ATOM     52  N   UNL A   1      44.035  26.094  29.590  1.00  0.00    -0.248 NA
ATOM     53  C   UNL A   1      44.703  23.990  28.826  1.00  0.00     0.031 C 
ATOM     54  C   UNL A   1      46.640  28.864  31.879  1.00  0.00     0.029 A 
ATOM     55  C   UNL A   1      45.850  27.987  31.154  1.00  0.00     0.049 A 
ATOM     56  H   UNL A   1      43.878  28.242  30.450  1.00  0.00     0.167 HD
ATOM     57  C   UNL A   1      45.345  25.858  29.990  1.00  0.00     0.074 A 
ATOM     58  C   UNL A   1      45.693  24.533  29.522  1.00  0.00     0.031 C 
ATOM     59  C   UNL A   1      46.182  26.668  30.680  1.00  0.00     0.031 A 
BRANCH  46  60
ATOM     60  C   UNL A   1      43.785  32.162  32.135  1.00  0.00    -0.014 A 
ATOM     61  C   UNL A   1      44.280  33.251  31.400  1.00  0.00     0.009 A 
ATOM     62  C   UNL A   1      43.407  32.361  33.473  1.00  0.00     0.009 A 
ATOM     63  C   UNL A   1      44.408  34.508  31.997  1.00  0.00     0.001 A 
ATOM     64  C   UNL A   1      43.510  33.624  34.057  1.00  0.00     0.001 A 
ATOM     65  C   UNL A   1      44.014  34.695  33.320  1.00  0.00     0.000 A 
ENDBRANCH  46  60
BRANCH  47  66
ATOM     66  C   UNL A   1      42.093  23.416  27.621  1.00  0.00    -0.014 A 
ATOM     67  C   UNL A   1      42.498  23.223  26.291  1.00  0.00     0.009 A 
ATOM     68  C   UNL A   1      41.467  22.356  28.297  1.00  0.00     0.009 A 
ATOM     69  C   UNL A   1      42.263  22.006  25.647  1.00  0.00     0.001 A 
ATOM     70  C   UNL A   1      41.262  21.129  27.661  1.00  0.00     0.001 A 
ATOM     71  C   UNL A   1      41.653  20.958  26.334  1.00  0.00     0.000 A 
ENDBRANCH  47  66
BRANCH  59  72
ATOM     72  C   UNL A   1      47.557  26.146  30.992  1.00  0.00    -0.014 A 
ATOM     73  C   UNL A   1      48.591  26.211  30.047  1.00  0.00     0.009 A 
ATOM     74  C   UNL A   1      47.838  25.655  32.277  1.00  0.00     0.009 A 
ATOM     75  C   UNL A   1      49.876  25.775  30.376  1.00  0.00     0.001 A 
ATOM     76  C   UNL A   1      49.131  25.250  32.613  1.00  0.00     0.001 A 
ATOM     77  C   UNL A   1      50.146  25.303  31.660  1.00  0.00     0.000 A 
ENDBRANCH  59  72
ENDBRANCH  33  34
ENDBRANCH  25  28
ENDBRANCH  23  24
ENDBRANCH   1  23
TORSDOF 11
ENDMDL
