MODEL 1
REMARK VINA RESULT:     -11.6      0.000      0.000
REMARK SMILES Nc1nc(N2CCOC[C@H]2C(=O)NCCCNC(=O)c2ccc(-c3c4nc(c(-c5ccccc5)c5ccc([nH]5)c(-c5ccccc5)c5nc(c(-c6ccccc6)c6ccc3[nH]6)C=C5)C=C4)cc2)ccc1[N+](=O)[O-]
REMARK SMILES IDX 15 1 14 2 13 3 11 4 12 5 10 7 5 8 6 9 7 10 9 11 8 12 4 13
REMARK SMILES IDX 2 14 3 15 70 16 69 17 68 18 1 19 71 22 72 23 73 24 16 25
REMARK SMILES IDX 17 26 18 27 19 29 20 30 21 31 67 32 22 33 66 34 23 35 24 36
REMARK SMILES IDX 25 37 60 38 26 39 65 40 59 41 61 42 27 43 64 44 58 45 57 46
REMARK SMILES IDX 28 48 50 49 35 50 49 51 36 52 39 53 48 54 62 55 37 56 38 57
REMARK SMILES IDX 47 59 63 60 40 61 29 62 30 63 34 64 31 65 33 66 32 67 51 68
REMARK SMILES IDX 52 69 56 70 53 71 55 72 54 73 41 74 42 75 46 76 43 77 45 78
REMARK SMILES IDX 44 79
REMARK H PARENT 13 6 1 20 1 21 17 28 61 47 39 58
REMARK Flexibility Score: inf
ROOT
ATOM      1  C   UNL A   1      35.566  23.671  25.619  1.00  0.00     0.042 C 
ENDROOT
BRANCH   1   2
ATOM      2  C   UNL A   1      34.471  24.454  24.903  1.00  0.00     0.117 C 
BRANCH   2   3
ATOM      3  N   UNL A   1      34.416  24.135  23.493  1.00  0.00    -0.354 N 
ATOM      4  C   UNL A   1      33.544  23.400  22.749  1.00  0.00     0.245 C 
ATOM      5  O   UNL A   1      33.799  23.376  21.534  1.00  0.00    -0.273 OA
ATOM      6  H   UNL A   1      35.151  24.528  22.969  1.00  0.00     0.163 HD
BRANCH   4   7
ATOM      7  C   UNL A   1      32.271  22.701  23.285  1.00  0.00     0.199 C 
ATOM      8  N   UNL A   1      32.440  21.829  24.471  1.00  0.00    -0.340 N 
ATOM      9  C   UNL A   1      32.147  22.381  25.787  1.00  0.00     0.147 C 
ATOM     10  C   UNL A   1      30.835  23.161  25.758  1.00  0.00     0.181 C 
ATOM     11  C   UNL A   1      31.056  23.643  23.442  1.00  0.00     0.195 C 
ATOM     12  O   UNL A   1      30.859  24.187  24.759  1.00  0.00    -0.377 OA
BRANCH   8  13
ATOM     13  C   UNL A   1      32.845  20.523  24.301  1.00  0.00     0.132 A 
ATOM     14  C   UNL A   1      32.537  18.445  23.243  1.00  0.00     0.204 A 
ATOM     15  N   UNL A   1      32.140  19.723  23.471  1.00  0.00    -0.207 NA
ATOM     16  C   UNL A   1      33.663  17.921  23.865  1.00  0.00     0.311 A 
ATOM     17  C   UNL A   1      34.370  18.708  24.770  1.00  0.00     0.093 A 
ATOM     18  C   UNL A   1      33.951  20.017  24.983  1.00  0.00     0.054 A 
BRANCH  14  19
ATOM     19  N   UNL A   1      31.796  17.787  22.283  1.00  0.00    -0.378 N 
ATOM     20  H   UNL A   1      30.890  18.102  22.059  1.00  0.00     0.158 HD
ATOM     21  H   UNL A   1      32.172  17.002  21.824  1.00  0.00     0.158 HD
ENDBRANCH  14  19
BRANCH  16  22
ATOM     22  N   UNL A   1      34.124  16.566  23.607  1.00  0.00     0.066 N 
ATOM     23  O   UNL A   1      34.203  15.799  24.582  1.00  0.00    -0.258 OA
ATOM     24  O   UNL A   1      34.374  16.237  22.438  1.00  0.00    -0.258 OA
ENDBRANCH  16  22
ENDBRANCH   8  13
ENDBRANCH   4   7
ENDBRANCH   2   3
ENDBRANCH   1   2
BRANCH   1  25
ATOM     25  C   UNL A   1      36.915  23.732  24.920  1.00  0.00     0.118 C 
BRANCH  25  26
ATOM     26  N   UNL A   1      37.828  22.704  25.400  1.00  0.00    -0.352 N 
ATOM     27  C   UNL A   1      38.996  22.798  26.115  1.00  0.00     0.251 C 
ATOM     28  H   UNL A   1      37.564  21.783  25.172  1.00  0.00     0.163 HD
ATOM     29  O   UNL A   1      39.701  21.798  26.233  1.00  0.00    -0.269 OA
BRANCH  27  30
ATOM     30  C   UNL A   1      39.433  24.073  26.735  1.00  0.00     0.039 A 
ATOM     31  C   UNL A   1      39.059  24.332  28.059  1.00  0.00     0.014 A 
ATOM     32  C   UNL A   1      40.143  25.043  26.023  1.00  0.00     0.014 A 
ATOM     33  C   UNL A   1      39.424  25.535  28.670  1.00  0.00     0.010 A 
ATOM     34  C   UNL A   1      40.593  26.196  26.663  1.00  0.00     0.010 A 
ATOM     35  C   UNL A   1      40.215  26.470  27.984  1.00  0.00    -0.014 A 
BRANCH  35  36
ATOM     36  C   UNL A   1      40.611  27.749  28.626  1.00  0.00     0.031 A 
ATOM     37  C   UNL A   1      42.026  27.960  29.100  1.00  0.00     0.074 A 
ATOM     38  C   UNL A   1      39.691  28.715  28.811  1.00  0.00     0.049 A 
ATOM     39  N   UNL A   1      42.561  29.019  29.656  1.00  0.00    -0.248 NA
ATOM     40  C   UNL A   1      42.955  26.827  28.957  1.00  0.00     0.031 C 
ATOM     41  C   UNL A   1      38.273  28.616  28.459  1.00  0.00     0.029 A 
ATOM     42  N   UNL A   1      39.814  29.977  29.337  1.00  0.00    -0.354 N 
ATOM     43  C   UNL A   1      43.874  28.668  29.951  1.00  0.00     0.074 A 
ATOM     44  C   UNL A   1      44.040  27.286  29.561  1.00  0.00     0.031 C 
ATOM     45  C   UNL A   1      37.668  29.782  28.737  1.00  0.00     0.029 A 
ATOM     46  C   UNL A   1      38.646  30.700  29.309  1.00  0.00     0.049 A 
ATOM     47  H   UNL A   1      40.659  30.331  29.698  1.00  0.00     0.167 HD
ATOM     48  C   UNL A   1      44.861  29.432  30.475  1.00  0.00     0.031 A 
ATOM     49  C   UNL A   1      38.395  31.967  29.686  1.00  0.00     0.031 A 
ATOM     50  C   UNL A   1      44.708  30.815  30.836  1.00  0.00     0.049 A 
ATOM     51  C   UNL A   1      39.519  32.814  30.212  1.00  0.00     0.074 A 
ATOM     52  C   UNL A   1      45.665  31.696  31.309  1.00  0.00     0.029 A 
ATOM     53  N   UNL A   1      43.517  31.520  30.758  1.00  0.00    -0.354 N 
ATOM     54  N   UNL A   1      40.775  32.492  30.405  1.00  0.00    -0.248 NA
ATOM     55  C   UNL A   1      39.193  34.207  30.550  1.00  0.00     0.031 C 
ATOM     56  C   UNL A   1      45.042  32.925  31.553  1.00  0.00     0.029 A 
ATOM     57  C   UNL A   1      43.711  32.822  31.187  1.00  0.00     0.049 A 
ATOM     58  H   UNL A   1      42.661  31.149  30.444  1.00  0.00     0.167 HD
ATOM     59  C   UNL A   1      41.395  33.646  30.862  1.00  0.00     0.074 A 
ATOM     60  C   UNL A   1      40.381  34.681  30.900  1.00  0.00     0.031 C 
ATOM     61  C   UNL A   1      42.689  33.835  31.219  1.00  0.00     0.031 A 
BRANCH  48  62
ATOM     62  C   UNL A   1      46.200  28.779  30.686  1.00  0.00    -0.014 A 
ATOM     63  C   UNL A   1      47.192  28.812  29.692  1.00  0.00     0.009 A 
ATOM     64  C   UNL A   1      46.481  28.138  31.904  1.00  0.00     0.009 A 
ATOM     65  C   UNL A   1      48.421  28.182  29.897  1.00  0.00     0.001 A 
ATOM     66  C   UNL A   1      47.723  27.534  32.116  1.00  0.00     0.001 A 
ATOM     67  C   UNL A   1      48.686  27.546  31.109  1.00  0.00     0.000 A 
ENDBRANCH  48  62
BRANCH  49  68
ATOM     68  C   UNL A   1      37.030  32.530  29.527  1.00  0.00    -0.014 A 
ATOM     69  C   UNL A   1      36.117  32.495  30.593  1.00  0.00     0.009 A 
ATOM     70  C   UNL A   1      36.634  33.114  28.314  1.00  0.00     0.009 A 
ATOM     71  C   UNL A   1      34.829  33.010  30.440  1.00  0.00     0.001 A 
ATOM     72  C   UNL A   1      35.353  33.652  28.172  1.00  0.00     0.001 A 
ATOM     73  C   UNL A   1      34.450  33.593  29.231  1.00  0.00     0.000 A 
ENDBRANCH  49  68
BRANCH  61  74
ATOM     74  C   UNL A   1      43.083  35.219  31.651  1.00  0.00    -0.014 A 
ATOM     75  C   UNL A   1      43.598  36.148  30.736  1.00  0.00     0.009 A 
ATOM     76  C   UNL A   1      42.912  35.602  32.991  1.00  0.00     0.009 A 
ATOM     77  C   UNL A   1      43.972  37.424  31.162  1.00  0.00     0.001 A 
ATOM     78  C   UNL A   1      43.262  36.886  33.408  1.00  0.00     0.001 A 
ATOM     79  C   UNL A   1      43.802  37.792  32.496  1.00  0.00     0.000 A 
ENDBRANCH  61  74
ENDBRANCH  35  36
ENDBRANCH  27  30
ENDBRANCH  25  26
ENDBRANCH   1  25
TORSDOF 13
ENDMDL
MODEL 2
REMARK VINA RESULT:     -11.5      3.743      8.637
REMARK SMILES Nc1nc(N2CCOC[C@H]2C(=O)NCCCNC(=O)c2ccc(-c3c4nc(c(-c5ccccc5)c5ccc([nH]5)c(-c5ccccc5)c5nc(c(-c6ccccc6)c6ccc3[nH]6)C=C5)C=C4)cc2)ccc1[N+](=O)[O-]
REMARK SMILES IDX 15 1 14 2 13 3 11 4 12 5 10 7 5 8 6 9 7 10 9 11 8 12 4 13
REMARK SMILES IDX 2 14 3 15 70 16 69 17 68 18 1 19 71 22 72 23 73 24 16 25
REMARK SMILES IDX 17 26 18 27 19 29 20 30 21 31 67 32 22 33 66 34 23 35 24 36
REMARK SMILES IDX 25 37 60 38 26 39 65 40 59 41 61 42 27 43 64 44 58 45 57 46
REMARK SMILES IDX 28 48 50 49 35 50 49 51 36 52 39 53 48 54 62 55 37 56 38 57
REMARK SMILES IDX 47 59 63 60 40 61 29 62 30 63 34 64 31 65 33 66 32 67 51 68
REMARK SMILES IDX 52 69 56 70 53 71 55 72 54 73 41 74 42 75 46 76 43 77 45 78
REMARK SMILES IDX 44 79
REMARK H PARENT 13 6 1 20 1 21 17 28 61 47 39 58
REMARK Flexibility Score: inf
ROOT
ATOM      1  C   UNL A   1      33.667  27.752  25.919  1.00  0.00     0.042 C 
ENDROOT
BRANCH   1   2
ATOM      2  C   UNL A   1      33.237  26.315  25.649  1.00  0.00     0.117 C 
BRANCH   2   3
ATOM      3  N   UNL A   1      31.932  26.031  26.205  1.00  0.00    -0.354 N 
ATOM      4  C   UNL A   1      30.719  25.794  25.634  1.00  0.00     0.245 C 
ATOM      5  O   UNL A   1      29.810  25.546  26.441  1.00  0.00    -0.273 OA
ATOM      6  H   UNL A   1      31.919  26.000  27.189  1.00  0.00     0.163 HD
BRANCH   4   7
ATOM      7  C   UNL A   1      30.439  25.732  24.113  1.00  0.00     0.199 C 
ATOM      8  N   UNL A   1      30.906  26.882  23.303  1.00  0.00    -0.340 N 
ATOM      9  C   UNL A   1      32.186  26.773  22.616  1.00  0.00     0.147 C 
ATOM     10  C   UNL A   1      32.304  25.420  21.919  1.00  0.00     0.181 C 
ATOM     11  C   UNL A   1      30.819  24.385  23.458  1.00  0.00     0.195 C 
ATOM     12  O   UNL A   1      32.118  24.340  22.840  1.00  0.00    -0.377 OA
BRANCH   8  13
ATOM     13  C   UNL A   1      30.116  28.007  23.201  1.00  0.00     0.132 A 
ATOM     14  C   UNL A   1      27.968  28.942  23.005  1.00  0.00     0.204 A 
ATOM     15  N   UNL A   1      28.782  27.857  23.059  1.00  0.00    -0.207 NA
ATOM     16  C   UNL A   1      28.483  30.231  23.075  1.00  0.00     0.311 A 
ATOM     17  C   UNL A   1      29.861  30.409  23.161  1.00  0.00     0.093 A 
ATOM     18  C   UNL A   1      30.675  29.284  23.224  1.00  0.00     0.054 A 
BRANCH  14  19
ATOM     19  N   UNL A   1      26.622  28.638  22.982  1.00  0.00    -0.378 N 
ATOM     20  H   UNL A   1      26.169  28.471  22.124  1.00  0.00     0.158 HD
ATOM     21  H   UNL A   1      26.115  28.590  23.824  1.00  0.00     0.158 HD
ENDBRANCH  14  19
BRANCH  16  22
ATOM     22  N   UNL A   1      27.625  31.405  23.052  1.00  0.00     0.066 N 
ATOM     23  O   UNL A   1      27.753  32.181  22.091  1.00  0.00    -0.258 OA
ATOM     24  O   UNL A   1      26.794  31.550  23.961  1.00  0.00    -0.258 OA
ENDBRANCH  16  22
ENDBRANCH   8  13
ENDBRANCH   4   7
ENDBRANCH   2   3
ENDBRANCH   1   2
BRANCH   1  25
ATOM     25  C   UNL A   1      33.329  28.236  27.321  1.00  0.00     0.118 C 
BRANCH  25  26
ATOM     26  N   UNL A   1      33.312  29.690  27.410  1.00  0.00    -0.352 N 
ATOM     27  C   UNL A   1      34.243  30.575  27.894  1.00  0.00     0.251 C 
ATOM     28  H   UNL A   1      32.491  30.111  27.065  1.00  0.00     0.163 HD
ATOM     29  O   UNL A   1      33.921  31.750  28.048  1.00  0.00    -0.269 OA
BRANCH  27  30
ATOM     30  C   UNL A   1      35.620  30.146  28.246  1.00  0.00     0.039 A 
ATOM     31  C   UNL A   1      36.605  30.188  27.252  1.00  0.00     0.014 A 
ATOM     32  C   UNL A   1      35.943  29.645  29.509  1.00  0.00     0.014 A 
ATOM     33  C   UNL A   1      37.906  29.764  27.535  1.00  0.00     0.010 A 
ATOM     34  C   UNL A   1      37.262  29.318  29.819  1.00  0.00     0.010 A 
ATOM     35  C   UNL A   1      38.253  29.345  28.829  1.00  0.00    -0.014 A 
BRANCH  35  36
ATOM     36  C   UNL A   1      39.634  28.897  29.140  1.00  0.00     0.031 A 
ATOM     37  C   UNL A   1      40.570  29.787  29.916  1.00  0.00     0.074 A 
ATOM     38  C   UNL A   1      40.061  27.698  28.698  1.00  0.00     0.049 A 
ATOM     39  N   UNL A   1      41.799  29.554  30.305  1.00  0.00    -0.248 NA
ATOM     40  C   UNL A   1      40.073  31.124  30.281  1.00  0.00     0.031 C 
ATOM     41  C   UNL A   1      39.280  26.768  27.881  1.00  0.00     0.029 A 
ATOM     42  N   UNL A   1      41.259  27.053  28.883  1.00  0.00    -0.354 N 
ATOM     43  C   UNL A   1      42.225  30.719  30.932  1.00  0.00     0.074 A 
ATOM     44  C   UNL A   1      41.146  31.675  30.827  1.00  0.00     0.031 C 
ATOM     45  C   UNL A   1      40.001  25.654  27.671  1.00  0.00     0.029 A 
ATOM     46  C   UNL A   1      41.301  25.802  28.317  1.00  0.00     0.049 A 
ATOM     47  H   UNL A   1      42.014  27.449  29.374  1.00  0.00     0.167 HD
ATOM     48  C   UNL A   1      43.398  30.966  31.561  1.00  0.00     0.031 A 
ATOM     49  C   UNL A   1      42.272  24.871  28.330  1.00  0.00     0.031 A 
ATOM     50  C   UNL A   1      44.463  30.009  31.693  1.00  0.00     0.049 A 
ATOM     51  C   UNL A   1      43.544  25.146  29.083  1.00  0.00     0.074 A 
ATOM     52  C   UNL A   1      45.662  30.138  32.371  1.00  0.00     0.029 A 
ATOM     53  N   UNL A   1      44.451  28.740  31.136  1.00  0.00    -0.354 N 
ATOM     54  N   UNL A   1      43.897  26.222  29.743  1.00  0.00    -0.248 NA
ATOM     55  C   UNL A   1      44.541  24.066  29.110  1.00  0.00     0.031 C 
ATOM     56  C   UNL A   1      46.393  28.958  32.192  1.00  0.00     0.029 A 
ATOM     57  C   UNL A   1      45.628  28.079  31.443  1.00  0.00     0.049 A 
ATOM     58  H   UNL A   1      43.715  28.365  30.601  1.00  0.00     0.167 HD
ATOM     59  C   UNL A   1      45.143  25.941  30.285  1.00  0.00     0.074 A 
ATOM     60  C   UNL A   1      45.476  24.587  29.892  1.00  0.00     0.031 C 
ATOM     61  C   UNL A   1      45.941  26.733  31.041  1.00  0.00     0.031 A 
BRANCH  48  62
ATOM     62  C   UNL A   1      43.586  32.335  32.157  1.00  0.00    -0.014 A 
ATOM     63  C   UNL A   1      43.201  32.614  33.479  1.00  0.00     0.009 A 
ATOM     64  C   UNL A   1      44.175  33.356  31.393  1.00  0.00     0.009 A 
ATOM     65  C   UNL A   1      43.362  33.895  34.008  1.00  0.00     0.001 A 
ATOM     66  C   UNL A   1      44.361  34.629  31.936  1.00  0.00     0.001 A 
ATOM     67  C   UNL A   1      43.945  34.900  33.238  1.00  0.00     0.000 A 
ENDBRANCH  48  62
BRANCH  49  68
ATOM     68  C   UNL A   1      42.057  23.567  27.653  1.00  0.00    -0.014 A 
ATOM     69  C   UNL A   1      41.419  22.512  28.325  1.00  0.00     0.009 A 
ATOM     70  C   UNL A   1      42.477  23.371  26.329  1.00  0.00     0.009 A 
ATOM     71  C   UNL A   1      41.230  21.282  27.694  1.00  0.00     0.001 A 
ATOM     72  C   UNL A   1      42.263  22.148  25.691  1.00  0.00     0.001 A 
ATOM     73  C   UNL A   1      41.647  21.102  26.376  1.00  0.00     0.000 A 
ENDBRANCH  49  68
BRANCH  61  74
ATOM     74  C   UNL A   1      47.237  26.140  31.516  1.00  0.00    -0.014 A 
ATOM     75  C   UNL A   1      48.393  26.187  30.722  1.00  0.00     0.009 A 
ATOM     76  C   UNL A   1      47.305  25.548  32.787  1.00  0.00     0.009 A 
ATOM     77  C   UNL A   1      49.584  25.616  31.176  1.00  0.00     0.001 A 
ATOM     78  C   UNL A   1      48.503  25.002  33.249  1.00  0.00     0.001 A 
ATOM     79  C   UNL A   1      49.638  25.026  32.439  1.00  0.00     0.000 A 
ENDBRANCH  61  74
ENDBRANCH  35  36
ENDBRANCH  27  30
ENDBRANCH  25  26
ENDBRANCH   1  25
TORSDOF 13
ENDMDL
MODEL 3
REMARK VINA RESULT:     -11.4      2.229      3.537
REMARK SMILES Nc1nc(N2CCOC[C@H]2C(=O)NCCCNC(=O)c2ccc(-c3c4nc(c(-c5ccccc5)c5ccc([nH]5)c(-c5ccccc5)c5nc(c(-c6ccccc6)c6ccc3[nH]6)C=C5)C=C4)cc2)ccc1[N+](=O)[O-]
REMARK SMILES IDX 15 1 14 2 13 3 11 4 12 5 10 7 5 8 6 9 7 10 9 11 8 12 4 13
REMARK SMILES IDX 2 14 3 15 70 16 69 17 68 18 1 19 71 22 72 23 73 24 16 25
REMARK SMILES IDX 17 26 18 27 19 29 20 30 21 31 67 32 22 33 66 34 23 35 24 36
REMARK SMILES IDX 25 37 60 38 26 39 65 40 59 41 61 42 27 43 64 44 58 45 57 46
REMARK SMILES IDX 28 48 50 49 35 50 49 51 36 52 39 53 48 54 62 55 37 56 38 57
REMARK SMILES IDX 47 59 63 60 40 61 29 62 30 63 34 64 31 65 33 66 32 67 51 68
REMARK SMILES IDX 52 69 56 70 53 71 55 72 54 73 41 74 42 75 46 76 43 77 45 78
REMARK SMILES IDX 44 79
REMARK H PARENT 13 6 1 20 1 21 17 28 61 47 39 58
REMARK Flexibility Score: inf
ROOT
ATOM      1  C   UNL A   1      38.243  20.251  24.919  1.00  0.00     0.042 C 
ENDROOT
BRANCH   1   2
ATOM      2  C   UNL A   1      37.887  21.722  25.100  1.00  0.00     0.117 C 
BRANCH   2   3
ATOM      3  N   UNL A   1      36.784  21.900  26.018  1.00  0.00    -0.354 N 
ATOM      4  C   UNL A   1      35.433  21.850  25.855  1.00  0.00     0.245 C 
ATOM      5  O   UNL A   1      34.782  22.020  26.899  1.00  0.00    -0.273 OA
ATOM      6  H   UNL A   1      37.064  22.092  26.943  1.00  0.00     0.163 HD
BRANCH   4   7
ATOM      7  C   UNL A   1      34.698  21.524  24.532  1.00  0.00     0.199 C 
ATOM      8  N   UNL A   1      33.367  20.883  24.651  1.00  0.00    -0.340 N 
ATOM      9  C   UNL A   1      32.181  21.727  24.578  1.00  0.00     0.147 C 
ATOM     10  C   UNL A   1      32.304  22.722  23.426  1.00  0.00     0.181 C 
ATOM     11  C   UNL A   1      34.678  22.692  23.521  1.00  0.00     0.195 C 
ATOM     12  O   UNL A   1      33.494  23.510  23.540  1.00  0.00    -0.377 OA
BRANCH   8  13
ATOM     13  C   UNL A   1      33.282  19.517  24.803  1.00  0.00     0.132 A 
ATOM     14  C   UNL A   1      33.650  17.370  23.917  1.00  0.00     0.204 A 
ATOM     15  N   UNL A   1      33.674  18.721  23.785  1.00  0.00    -0.207 NA
ATOM     16  C   UNL A   1      33.207  16.771  25.090  1.00  0.00     0.311 A 
ATOM     17  C   UNL A   1      32.741  17.571  26.130  1.00  0.00     0.093 A 
ATOM     18  C   UNL A   1      32.783  18.952  25.976  1.00  0.00     0.054 A 
BRANCH  14  19
ATOM     19  N   UNL A   1      34.192  16.688  22.846  1.00  0.00    -0.378 N 
ATOM     20  H   UNL A   1      34.217  15.704  22.851  1.00  0.00     0.158 HD
ATOM     21  H   UNL A   1      34.554  17.187  22.079  1.00  0.00     0.158 HD
ENDBRANCH  14  19
BRANCH  16  22
ATOM     22  N   UNL A   1      33.205  15.327  25.263  1.00  0.00     0.066 N 
ATOM     23  O   UNL A   1      32.099  14.761  25.293  1.00  0.00    -0.258 OA
ATOM     24  O   UNL A   1      34.293  14.736  25.332  1.00  0.00    -0.258 OA
ENDBRANCH  16  22
ENDBRANCH   8  13
ENDBRANCH   4   7
ENDBRANCH   2   3
ENDBRANCH   1   2
BRANCH   1  25
ATOM     25  C   UNL A   1      38.921  19.634  26.132  1.00  0.00     0.118 C 
BRANCH  25  26
ATOM     26  N   UNL A   1      40.223  19.069  25.804  1.00  0.00    -0.352 N 
ATOM     27  C   UNL A   1      41.480  19.620  25.840  1.00  0.00     0.251 C 
ATOM     28  H   UNL A   1      40.198  18.131  25.504  1.00  0.00     0.163 HD
ATOM     29  O   UNL A   1      42.411  19.006  25.323  1.00  0.00    -0.269 OA
BRANCH  27  30
ATOM     30  C   UNL A   1      41.739  20.937  26.471  1.00  0.00     0.039 A 
ATOM     31  C   UNL A   1      42.069  22.018  25.645  1.00  0.00     0.014 A 
ATOM     32  C   UNL A   1      41.729  21.113  27.857  1.00  0.00     0.014 A 
ATOM     33  C   UNL A   1      42.350  23.268  26.203  1.00  0.00     0.010 A 
ATOM     34  C   UNL A   1      41.910  22.382  28.406  1.00  0.00     0.010 A 
ATOM     35  C   UNL A   1      42.251  23.467  27.589  1.00  0.00    -0.014 A 
BRANCH  35  36
ATOM     36  C   UNL A   1      42.544  24.793  28.191  1.00  0.00     0.031 A 
ATOM     37  C   UNL A   1      43.946  25.146  28.617  1.00  0.00     0.074 A 
ATOM     38  C   UNL A   1      41.543  25.675  28.382  1.00  0.00     0.049 A 
ATOM     39  N   UNL A   1      44.396  26.263  29.134  1.00  0.00    -0.248 NA
ATOM     40  C   UNL A   1      44.972  24.100  28.473  1.00  0.00     0.031 C 
ATOM     41  C   UNL A   1      40.132  25.435  28.075  1.00  0.00     0.029 A 
ATOM     42  N   UNL A   1      41.563  26.955  28.876  1.00  0.00    -0.354 N 
ATOM     43  C   UNL A   1      45.743  26.042  29.397  1.00  0.00     0.074 A 
ATOM     44  C   UNL A   1      46.026  24.673  29.034  1.00  0.00     0.031 C 
ATOM     45  C   UNL A   1      39.429  26.547  28.345  1.00  0.00     0.029 A 
ATOM     46  C   UNL A   1      40.333  27.566  28.867  1.00  0.00     0.049 A 
ATOM     47  H   UNL A   1      42.381  27.394  29.203  1.00  0.00     0.167 HD
ATOM     48  C   UNL A   1      46.669  26.907  29.874  1.00  0.00     0.031 A 
ATOM     49  C   UNL A   1      39.975  28.813  29.223  1.00  0.00     0.031 A 
ATOM     50  C   UNL A   1      46.398  28.279  30.209  1.00  0.00     0.049 A 
ATOM     51  C   UNL A   1      41.030  29.773  29.697  1.00  0.00     0.074 A 
ATOM     52  C   UNL A   1      47.280  29.256  30.634  1.00  0.00     0.029 A 
ATOM     53  N   UNL A   1      45.144  28.868  30.151  1.00  0.00    -0.354 N 
ATOM     54  N   UNL A   1      42.315  29.574  29.859  1.00  0.00    -0.248 NA
ATOM     55  C   UNL A   1      40.585  31.138  30.013  1.00  0.00     0.031 C 
ATOM     56  C   UNL A   1      46.553  30.428  30.870  1.00  0.00     0.029 A 
ATOM     57  C   UNL A   1      45.227  30.193  30.545  1.00  0.00     0.049 A 
ATOM     58  H   UNL A   1      44.318  28.412  29.872  1.00  0.00     0.167 HD
ATOM     59  C   UNL A   1      42.837  30.791  30.272  1.00  0.00     0.074 A 
ATOM     60  C   UNL A   1      41.732  31.728  30.316  1.00  0.00     0.031 C 
ATOM     61  C   UNL A   1      44.117  31.108  30.586  1.00  0.00     0.031 A 
BRANCH  48  62
ATOM     62  C   UNL A   1      48.068  26.386  30.060  1.00  0.00    -0.014 A 
ATOM     63  C   UNL A   1      48.476  25.814  31.277  1.00  0.00     0.009 A 
ATOM     64  C   UNL A   1      48.985  26.450  28.999  1.00  0.00     0.009 A 
ATOM     65  C   UNL A   1      49.785  25.355  31.439  1.00  0.00     0.001 A 
ATOM     66  C   UNL A   1      50.285  25.964  29.156  1.00  0.00     0.001 A 
ATOM     67  C   UNL A   1      50.687  25.428  30.378  1.00  0.00     0.000 A 
ENDBRANCH  48  62
BRANCH  49  68
ATOM     68  C   UNL A   1      38.559  29.243  29.092  1.00  0.00    -0.014 A 
ATOM     69  C   UNL A   1      38.063  29.694  27.858  1.00  0.00     0.009 A 
ATOM     70  C   UNL A   1      37.693  29.196  30.195  1.00  0.00     0.009 A 
ATOM     71  C   UNL A   1      36.737  30.112  27.738  1.00  0.00     0.001 A 
ATOM     72  C   UNL A   1      36.360  29.590  30.065  1.00  0.00     0.001 A 
ATOM     73  C   UNL A   1      35.885  30.055  28.840  1.00  0.00     0.000 A 
ENDBRANCH  49  68
BRANCH  61  74
ATOM     74  C   UNL A   1      44.392  32.532  30.975  1.00  0.00    -0.014 A 
ATOM     75  C   UNL A   1      44.339  32.943  32.315  1.00  0.00     0.009 A 
ATOM     76  C   UNL A   1      44.731  33.469  29.986  1.00  0.00     0.009 A 
ATOM     77  C   UNL A   1      44.583  34.276  32.654  1.00  0.00     0.001 A 
ATOM     78  C   UNL A   1      45.000  34.793  30.330  1.00  0.00     0.001 A 
ATOM     79  C   UNL A   1      44.915  35.199  31.662  1.00  0.00     0.000 A 
ENDBRANCH  61  74
ENDBRANCH  35  36
ENDBRANCH  27  30
ENDBRANCH  25  26
ENDBRANCH   1  25
TORSDOF 13
ENDMDL
