MODEL 1
REMARK VINA RESULT:     -11.9      0.000      0.000
REMARK SMILES Cc1nn([C@H]2CCS(=O)(=O)C2)c(C)c1[C@@H]([NH3+])C(=O)NCCCNC(=O)c1ccc(-c2c3nc(c(-c4ccccc4)c4ccc([nH]4)c(-c4ccccc4)c4nc(c(-c5ccccc5)c5ccc2[nH]5)C=C4)C=C3)cc1
REMARK SMILES IDX 21 1 20 2 19 3 17 4 18 5 15 7 14 8 1 9 2 10 3 11 4 12 12 13
REMARK SMILES IDX 13 14 5 15 6 16 11 17 7 18 8 19 9 20 10 21 16 22 22 26 23 27
REMARK SMILES IDX 24 28 25 30 26 31 27 32 73 33 28 34 72 35 29 36 30 37 31 38
REMARK SMILES IDX 66 39 32 40 71 41 65 42 67 43 33 44 70 45 64 46 63 47 34 49
REMARK SMILES IDX 56 50 41 51 55 52 42 53 45 54 54 55 68 56 43 57 44 58 53 60
REMARK SMILES IDX 69 61 46 62 35 63 36 64 40 65 37 66 39 67 38 68 57 69 58 70
REMARK SMILES IDX 62 71 59 72 61 73 60 74 47 75 48 76 52 77 49 78 51 79 50 80
REMARK H PARENT 19 6 16 23 16 24 16 25 23 29 67 48 45 59
REMARK Flexibility Score: inf
ROOT
ATOM      1  C   UNL A   1      37.992  20.072  24.911  1.00  0.00     0.042 C 
ENDROOT
BRANCH   1   2
ATOM      2  C   UNL A   1      36.663  20.738  25.251  1.00  0.00     0.118 C 
BRANCH   2   3
ATOM      3  N   UNL A   1      35.534  19.949  24.795  1.00  0.00    -0.351 N 
ATOM      4  C   UNL A   1      34.194  20.171  24.968  1.00  0.00     0.283 C 
ATOM      5  O   UNL A   1      33.427  19.313  24.514  1.00  0.00    -0.268 OA
ATOM      6  H   UNL A   1      35.766  19.138  24.287  1.00  0.00     0.163 HD
BRANCH   4   7
ATOM      7  C   UNL A   1      33.627  21.438  25.679  1.00  0.00     0.306 C 
BRANCH   7   8
ATOM      8  C   UNL A   1      33.624  22.651  24.784  1.00  0.00     0.063 A 
ATOM      9  C   UNL A   1      32.231  21.690  22.768  1.00  0.00     0.069 C 
ATOM     10  C   UNL A   1      32.882  22.760  23.568  1.00  0.00     0.069 A 
ATOM     11  N   UNL A   1      32.874  24.013  23.104  1.00  0.00    -0.177 NA
ATOM     12  N   UNL A   1      33.652  24.694  23.963  1.00  0.00    -0.265 N 
ATOM     13  C   UNL A   1      34.374  23.834  24.768  1.00  0.00     0.046 A 
ATOM     14  C   UNL A   1      35.685  24.178  25.383  1.00  0.00     0.067 C 
BRANCH  12  15
ATOM     15  C   UNL A   1      33.657  26.152  23.854  1.00  0.00     0.123 C 
ATOM     16  C   UNL A   1      33.641  26.626  22.375  1.00  0.00     0.044 C 
ATOM     17  C   UNL A   1      32.455  26.861  24.465  1.00  0.00     0.164 C 
ATOM     18  C   UNL A   1      33.448  28.138  22.368  1.00  0.00     0.139 C 
ATOM     19  S   UNL A   1      32.474  28.503  23.809  1.00  0.00     0.152 S 
ATOM     20  O   UNL A   1      33.266  29.331  24.704  1.00  0.00    -0.229 OA
ATOM     21  O   UNL A   1      31.136  28.849  23.405  1.00  0.00    -0.229 OA
ENDBRANCH  12  15
ENDBRANCH   7   8
BRANCH   7  22
ATOM     22  N   UNL A   1      32.320  21.175  26.297  1.00  0.00    -0.343 N 
ATOM     23  H   UNL A   1      32.457  20.739  27.209  1.00  0.00     0.345 HD
ATOM     24  H   UNL A   1      31.782  20.549  25.698  1.00  0.00     0.345 HD
ATOM     25  H   UNL A   1      31.815  22.054  26.411  1.00  0.00     0.345 HD
ENDBRANCH   7  22
ENDBRANCH   4   7
ENDBRANCH   2   3
ENDBRANCH   1   2
BRANCH   1  26
ATOM     26  C   UNL A   1      39.118  20.421  25.851  1.00  0.00     0.118 C 
BRANCH  26  27
ATOM     27  N   UNL A   1      40.158  19.374  25.909  1.00  0.00    -0.352 N 
ATOM     28  C   UNL A   1      41.541  19.532  25.965  1.00  0.00     0.251 C 
ATOM     29  H   UNL A   1      39.832  18.445  25.909  1.00  0.00     0.163 HD
ATOM     30  O   UNL A   1      42.298  18.615  25.679  1.00  0.00    -0.269 OA
BRANCH  28  31
ATOM     31  C   UNL A   1      42.069  20.835  26.411  1.00  0.00     0.039 A 
ATOM     32  C   UNL A   1      42.471  21.882  25.578  1.00  0.00     0.014 A 
ATOM     33  C   UNL A   1      42.011  21.032  27.769  1.00  0.00     0.014 A 
ATOM     34  C   UNL A   1      42.754  23.117  26.173  1.00  0.00     0.010 A 
ATOM     35  C   UNL A   1      41.699  22.289  28.146  1.00  0.00     0.010 A 
ATOM     36  C   UNL A   1      42.371  23.298  27.504  1.00  0.00    -0.014 A 
BRANCH  36  37
ATOM     37  C   UNL A   1      42.463  24.521  28.284  1.00  0.00     0.031 A 
ATOM     38  C   UNL A   1      41.346  25.444  28.026  1.00  0.00     0.074 A 
ATOM     39  C   UNL A   1      43.283  24.635  29.359  1.00  0.00     0.049 A 
ATOM     40  N   UNL A   1      41.364  26.484  27.265  1.00  0.00    -0.248 NA
ATOM     41  C   UNL A   1      39.999  25.052  28.478  1.00  0.00     0.031 C 
ATOM     42  C   UNL A   1      44.182  23.618  29.940  1.00  0.00     0.029 A 
ATOM     43  N   UNL A   1      43.408  25.662  30.243  1.00  0.00    -0.354 N 
ATOM     44  C   UNL A   1      40.096  27.034  27.377  1.00  0.00     0.074 A 
ATOM     45  C   UNL A   1      39.251  25.981  27.878  1.00  0.00     0.031 C 
ATOM     46  C   UNL A   1      44.586  24.005  31.172  1.00  0.00     0.029 A 
ATOM     47  C   UNL A   1      44.125  25.361  31.401  1.00  0.00     0.049 A 
ATOM     48  H   UNL A   1      43.022  26.552  30.078  1.00  0.00     0.167 HD
ATOM     49  C   UNL A   1      39.936  28.386  27.419  1.00  0.00     0.031 A 
ATOM     50  C   UNL A   1      44.331  26.175  32.467  1.00  0.00     0.031 A 
ATOM     51  C   UNL A   1      41.181  29.054  27.104  1.00  0.00     0.049 A 
ATOM     52  C   UNL A   1      44.090  27.558  32.000  1.00  0.00     0.074 A 
ATOM     53  C   UNL A   1      42.021  29.122  26.014  1.00  0.00     0.029 A 
ATOM     54  N   UNL A   1      41.921  29.427  28.202  1.00  0.00    -0.354 N 
ATOM     55  N   UNL A   1      44.851  28.157  31.132  1.00  0.00    -0.248 NA
ATOM     56  C   UNL A   1      42.762  28.128  32.163  1.00  0.00     0.031 C 
ATOM     57  C   UNL A   1      43.340  29.194  26.557  1.00  0.00     0.029 A 
ATOM     58  C   UNL A   1      43.253  29.249  27.950  1.00  0.00     0.049 A 
ATOM     59  H   UNL A   1      41.546  29.771  29.045  1.00  0.00     0.167 HD
ATOM     60  C   UNL A   1      43.968  28.849  30.319  1.00  0.00     0.074 A 
ATOM     61  C   UNL A   1      42.732  28.929  31.093  1.00  0.00     0.031 C 
ATOM     62  C   UNL A   1      44.237  29.011  28.988  1.00  0.00     0.031 A 
BRANCH  49  63
ATOM     63  C   UNL A   1      38.872  29.091  28.234  1.00  0.00    -0.014 A 
ATOM     64  C   UNL A   1      38.803  28.805  29.611  1.00  0.00     0.009 A 
ATOM     65  C   UNL A   1      37.776  29.783  27.685  1.00  0.00     0.009 A 
ATOM     66  C   UNL A   1      37.665  29.108  30.367  1.00  0.00     0.001 A 
ATOM     67  C   UNL A   1      36.653  30.120  28.445  1.00  0.00     0.001 A 
ATOM     68  C   UNL A   1      36.584  29.756  29.780  1.00  0.00     0.000 A 
ENDBRANCH  49  63
BRANCH  50  69
ATOM     69  C   UNL A   1      44.529  25.864  33.899  1.00  0.00    -0.014 A 
ATOM     70  C   UNL A   1      45.679  26.296  34.584  1.00  0.00     0.009 A 
ATOM     71  C   UNL A   1      43.446  25.403  34.668  1.00  0.00     0.009 A 
ATOM     72  C   UNL A   1      45.721  26.312  35.986  1.00  0.00     0.001 A 
ATOM     73  C   UNL A   1      43.488  25.423  36.068  1.00  0.00     0.001 A 
ATOM     74  C   UNL A   1      44.619  25.892  36.727  1.00  0.00     0.000 A 
ENDBRANCH  50  69
BRANCH  62  75
ATOM     75  C   UNL A   1      45.648  28.725  28.531  1.00  0.00    -0.014 A 
ATOM     76  C   UNL A   1      46.099  27.455  28.130  1.00  0.00     0.009 A 
ATOM     77  C   UNL A   1      46.523  29.812  28.398  1.00  0.00     0.009 A 
ATOM     78  C   UNL A   1      47.399  27.278  27.639  1.00  0.00     0.001 A 
ATOM     79  C   UNL A   1      47.810  29.640  27.889  1.00  0.00     0.001 A 
ATOM     80  C   UNL A   1      48.251  28.373  27.515  1.00  0.00     0.000 A 
ENDBRANCH  62  75
ENDBRANCH  36  37
ENDBRANCH  28  31
ENDBRANCH  26  27
ENDBRANCH   1  26
TORSDOF 13
ENDMDL
MODEL 2
REMARK VINA RESULT:     -11.8      4.491      9.030
REMARK SMILES Cc1nn([C@H]2CCS(=O)(=O)C2)c(C)c1[C@@H]([NH3+])C(=O)NCCCNC(=O)c1ccc(-c2c3nc(c(-c4ccccc4)c4ccc([nH]4)c(-c4ccccc4)c4nc(c(-c5ccccc5)c5ccc2[nH]5)C=C4)C=C3)cc1
REMARK SMILES IDX 21 1 20 2 19 3 17 4 18 5 15 7 14 8 1 9 2 10 3 11 4 12 12 13
REMARK SMILES IDX 13 14 5 15 6 16 11 17 7 18 8 19 9 20 10 21 16 22 22 26 23 27
REMARK SMILES IDX 24 28 25 30 26 31 27 32 73 33 28 34 72 35 29 36 30 37 31 38
REMARK SMILES IDX 66 39 32 40 71 41 65 42 67 43 33 44 70 45 64 46 63 47 34 49
REMARK SMILES IDX 56 50 41 51 55 52 42 53 45 54 54 55 68 56 43 57 44 58 53 60
REMARK SMILES IDX 69 61 46 62 35 63 36 64 40 65 37 66 39 67 38 68 57 69 58 70
REMARK SMILES IDX 62 71 59 72 61 73 60 74 47 75 48 76 52 77 49 78 51 79 50 80
REMARK H PARENT 19 6 16 23 16 24 16 25 23 29 67 48 45 59
REMARK Flexibility Score: inf
ROOT
ATOM      1  C   UNL A   1      31.653  31.675  26.960  1.00  0.00     0.042 C 
ENDROOT
BRANCH   1   2
ATOM      2  C   UNL A   1      31.817  30.161  27.032  1.00  0.00     0.118 C 
BRANCH   2   3
ATOM      3  N   UNL A   1      33.213  29.769  26.971  1.00  0.00    -0.351 N 
ATOM      4  C   UNL A   1      33.758  28.543  26.699  1.00  0.00     0.283 C 
ATOM      5  O   UNL A   1      34.992  28.459  26.755  1.00  0.00    -0.268 OA
ATOM      6  H   UNL A   1      33.861  30.489  27.151  1.00  0.00     0.163 HD
BRANCH   4   7
ATOM      7  C   UNL A   1      32.900  27.297  26.316  1.00  0.00     0.306 C 
BRANCH   7   8
ATOM      8  C   UNL A   1      31.873  27.606  25.257  1.00  0.00     0.063 A 
ATOM      9  C   UNL A   1      30.167  25.659  25.737  1.00  0.00     0.069 C 
ATOM     10  C   UNL A   1      30.617  26.937  25.125  1.00  0.00     0.069 A 
ATOM     11  N   UNL A   1      29.812  27.562  24.262  1.00  0.00    -0.177 NA
ATOM     12  N   UNL A   1      30.553  28.579  23.788  1.00  0.00    -0.265 N 
ATOM     13  C   UNL A   1      31.886  28.418  24.116  1.00  0.00     0.046 A 
ATOM     14  C   UNL A   1      33.009  28.981  23.319  1.00  0.00     0.067 C 
BRANCH  12  15
ATOM     15  C   UNL A   1      29.869  29.591  22.985  1.00  0.00     0.123 C 
ATOM     16  C   UNL A   1      28.568  29.042  22.339  1.00  0.00     0.044 C 
ATOM     17  C   UNL A   1      29.393  30.822  23.746  1.00  0.00     0.164 C 
ATOM     18  C   UNL A   1      27.833  30.211  21.695  1.00  0.00     0.139 C 
ATOM     19  S   UNL A   1      28.235  31.632  22.682  1.00  0.00     0.152 S 
ATOM     20  O   UNL A   1      28.972  32.576  21.858  1.00  0.00    -0.229 OA
ATOM     21  O   UNL A   1      27.085  32.011  23.463  1.00  0.00    -0.229 OA
ENDBRANCH  12  15
ENDBRANCH   7   8
BRANCH   7  22
ATOM     22  N   UNL A   1      33.742  26.140  25.981  1.00  0.00    -0.343 N 
ATOM     23  H   UNL A   1      33.293  25.595  25.245  1.00  0.00     0.345 HD
ATOM     24  H   UNL A   1      33.863  25.557  26.809  1.00  0.00     0.345 HD
ATOM     25  H   UNL A   1      34.653  26.465  25.657  1.00  0.00     0.345 HD
ENDBRANCH   7  22
ENDBRANCH   4   7
ENDBRANCH   2   3
ENDBRANCH   1   2
BRANCH   1  26
ATOM     26  C   UNL A   1      32.901  32.451  27.295  1.00  0.00     0.118 C 
BRANCH  26  27
ATOM     27  N   UNL A   1      32.619  33.847  27.682  1.00  0.00    -0.352 N 
ATOM     28  C   UNL A   1      33.137  34.568  28.756  1.00  0.00     0.251 C 
ATOM     29  H   UNL A   1      31.985  34.332  27.107  1.00  0.00     0.163 HD
ATOM     30  O   UNL A   1      32.590  35.585  29.163  1.00  0.00    -0.269 OA
BRANCH  28  31
ATOM     31  C   UNL A   1      34.386  34.085  29.374  1.00  0.00     0.039 A 
ATOM     32  C   UNL A   1      34.477  33.288  30.517  1.00  0.00     0.014 A 
ATOM     33  C   UNL A   1      35.517  34.357  28.644  1.00  0.00     0.014 A 
ATOM     34  C   UNL A   1      35.730  32.756  30.843  1.00  0.00     0.010 A 
ATOM     35  C   UNL A   1      36.447  33.379  28.655  1.00  0.00     0.010 A 
ATOM     36  C   UNL A   1      36.739  32.836  29.880  1.00  0.00    -0.014 A 
BRANCH  36  37
ATOM     37  C   UNL A   1      38.071  32.259  29.957  1.00  0.00     0.031 A 
ATOM     38  C   UNL A   1      38.107  30.853  29.524  1.00  0.00     0.074 A 
ATOM     39  C   UNL A   1      39.185  33.024  30.079  1.00  0.00     0.049 A 
ATOM     40  N   UNL A   1      38.123  29.812  30.283  1.00  0.00    -0.248 NA
ATOM     41  C   UNL A   1      37.871  30.556  28.100  1.00  0.00     0.031 C 
ATOM     42  C   UNL A   1      39.287  34.496  30.140  1.00  0.00     0.029 A 
ATOM     43  N   UNL A   1      40.494  32.651  30.061  1.00  0.00    -0.354 N 
ATOM     44  C   UNL A   1      38.190  28.734  29.414  1.00  0.00     0.074 A 
ATOM     45  C   UNL A   1      37.744  29.228  28.137  1.00  0.00     0.031 C 
ATOM     46  C   UNL A   1      40.570  34.881  29.946  1.00  0.00     0.029 A 
ATOM     47  C   UNL A   1      41.405  33.697  29.920  1.00  0.00     0.049 A 
ATOM     48  H   UNL A   1      40.777  31.711  30.142  1.00  0.00     0.167 HD
ATOM     49  C   UNL A   1      38.959  27.652  29.720  1.00  0.00     0.031 A 
ATOM     50  C   UNL A   1      42.753  33.592  29.799  1.00  0.00     0.031 A 
ATOM     51  C   UNL A   1      39.432  27.736  31.085  1.00  0.00     0.049 A 
ATOM     52  C   UNL A   1      43.125  32.258  30.316  1.00  0.00     0.074 A 
ATOM     53  C   UNL A   1      38.853  27.760  32.335  1.00  0.00     0.029 A 
ATOM     54  N   UNL A   1      40.692  28.272  31.219  1.00  0.00    -0.354 N 
ATOM     55  N   UNL A   1      43.003  31.922  31.567  1.00  0.00    -0.248 NA
ATOM     56  C   UNL A   1      43.227  31.150  29.380  1.00  0.00     0.031 C 
ATOM     57  C   UNL A   1      39.665  28.642  33.111  1.00  0.00     0.029 A 
ATOM     58  C   UNL A   1      40.750  29.058  32.337  1.00  0.00     0.049 A 
ATOM     59  H   UNL A   1      41.443  28.112  30.601  1.00  0.00     0.167 HD
ATOM     60  C   UNL A   1      42.539  30.616  31.530  1.00  0.00     0.074 A 
ATOM     61  C   UNL A   1      42.854  30.147  30.183  1.00  0.00     0.031 C 
ATOM     62  C   UNL A   1      41.676  30.163  32.488  1.00  0.00     0.031 A 
BRANCH  49  63
ATOM     63  C   UNL A   1      39.712  26.828  28.696  1.00  0.00    -0.014 A 
ATOM     64  C   UNL A   1      40.562  27.508  27.803  1.00  0.00     0.009 A 
ATOM     65  C   UNL A   1      39.418  25.488  28.380  1.00  0.00     0.009 A 
ATOM     66  C   UNL A   1      41.010  26.911  26.619  1.00  0.00     0.001 A 
ATOM     67  C   UNL A   1      39.893  24.876  27.218  1.00  0.00     0.001 A 
ATOM     68  C   UNL A   1      40.665  25.598  26.321  1.00  0.00     0.000 A 
ENDBRANCH  49  63
BRANCH  50  69
ATOM     69  C   UNL A   1      43.732  34.456  29.104  1.00  0.00    -0.014 A 
ATOM     70  C   UNL A   1      43.981  34.311  27.728  1.00  0.00     0.009 A 
ATOM     71  C   UNL A   1      44.199  35.623  29.733  1.00  0.00     0.009 A 
ATOM     72  C   UNL A   1      44.628  35.322  27.001  1.00  0.00     0.001 A 
ATOM     73  C   UNL A   1      44.843  36.633  29.005  1.00  0.00     0.001 A 
ATOM     74  C   UNL A   1      45.043  36.489  27.637  1.00  0.00     0.000 A 
ENDBRANCH  50  69
BRANCH  62  75
ATOM     75  C   UNL A   1      41.534  31.000  33.738  1.00  0.00    -0.014 A 
ATOM     76  C   UNL A   1      40.629  32.068  33.867  1.00  0.00     0.009 A 
ATOM     77  C   UNL A   1      42.271  30.615  34.867  1.00  0.00     0.009 A 
ATOM     78  C   UNL A   1      40.491  32.749  35.083  1.00  0.00     0.001 A 
ATOM     79  C   UNL A   1      42.119  31.279  36.084  1.00  0.00     0.001 A 
ATOM     80  C   UNL A   1      41.234  32.349  36.192  1.00  0.00     0.000 A 
ENDBRANCH  62  75
ENDBRANCH  36  37
ENDBRANCH  28  31
ENDBRANCH  26  27
ENDBRANCH   1  26
TORSDOF 13
ENDMDL
MODEL 3
REMARK VINA RESULT:     -11.8      2.205      3.723
REMARK SMILES Cc1nn([C@H]2CCS(=O)(=O)C2)c(C)c1[C@@H]([NH3+])C(=O)NCCCNC(=O)c1ccc(-c2c3nc(c(-c4ccccc4)c4ccc([nH]4)c(-c4ccccc4)c4nc(c(-c5ccccc5)c5ccc2[nH]5)C=C4)C=C3)cc1
REMARK SMILES IDX 21 1 20 2 19 3 17 4 18 5 15 7 14 8 1 9 2 10 3 11 4 12 12 13
REMARK SMILES IDX 13 14 5 15 6 16 11 17 7 18 8 19 9 20 10 21 16 22 22 26 23 27
REMARK SMILES IDX 24 28 25 30 26 31 27 32 73 33 28 34 72 35 29 36 30 37 31 38
REMARK SMILES IDX 66 39 32 40 71 41 65 42 67 43 33 44 70 45 64 46 63 47 34 49
REMARK SMILES IDX 56 50 41 51 55 52 42 53 45 54 54 55 68 56 43 57 44 58 53 60
REMARK SMILES IDX 69 61 46 62 35 63 36 64 40 65 37 66 39 67 38 68 57 69 58 70
REMARK SMILES IDX 62 71 59 72 61 73 60 74 47 75 48 76 52 77 49 78 51 79 50 80
REMARK H PARENT 19 6 16 23 16 24 16 25 23 29 67 48 45 59
REMARK Flexibility Score: inf
ROOT
ATOM      1  C   UNL A   1      38.019  20.217  24.798  1.00  0.00     0.042 C 
ENDROOT
BRANCH   1   2
ATOM      2  C   UNL A   1      37.266  21.460  24.337  1.00  0.00     0.118 C 
BRANCH   2   3
ATOM      3  N   UNL A   1      37.435  22.565  25.262  1.00  0.00    -0.351 N 
ATOM      4  C   UNL A   1      36.637  23.659  25.462  1.00  0.00     0.283 C 
ATOM      5  O   UNL A   1      37.032  24.490  26.289  1.00  0.00    -0.268 OA
ATOM      6  H   UNL A   1      38.240  22.520  25.829  1.00  0.00     0.163 HD
BRANCH   4   7
ATOM      7  C   UNL A   1      35.283  23.871  24.716  1.00  0.00     0.306 C 
BRANCH   7   8
ATOM      8  C   UNL A   1      34.456  22.613  24.651  1.00  0.00     0.063 A 
ATOM      9  C   UNL A   1      33.044  23.143  22.493  1.00  0.00     0.069 C 
ATOM     10  C   UNL A   1      33.576  22.275  23.577  1.00  0.00     0.069 A 
ATOM     11  N   UNL A   1      33.155  21.010  23.661  1.00  0.00    -0.177 NA
ATOM     12  N   UNL A   1      33.695  20.553  24.804  1.00  0.00    -0.265 N 
ATOM     13  C   UNL A   1      34.190  21.590  25.570  1.00  0.00     0.046 A 
ATOM     14  C   UNL A   1      34.312  21.541  27.053  1.00  0.00     0.067 C 
BRANCH  12  15
ATOM     15  C   UNL A   1      33.603  19.116  25.062  1.00  0.00     0.123 C 
ATOM     16  C   UNL A   1      32.244  18.526  24.599  1.00  0.00     0.044 C 
ATOM     17  C   UNL A   1      34.629  18.252  24.338  1.00  0.00     0.164 C 
ATOM     18  C   UNL A   1      32.322  17.009  24.726  1.00  0.00     0.139 C 
ATOM     19  S   UNL A   1      34.027  16.593  24.445  1.00  0.00     0.152 S 
ATOM     20  O   UNL A   1      34.565  16.002  25.660  1.00  0.00    -0.229 OA
ATOM     21  O   UNL A   1      34.160  15.974  23.151  1.00  0.00    -0.229 OA
ENDBRANCH  12  15
ENDBRANCH   7   8
BRANCH   7  22
ATOM     22  N   UNL A   1      34.541  25.020  25.254  1.00  0.00    -0.343 N 
ATOM     23  H   UNL A   1      35.055  25.418  26.041  1.00  0.00     0.345 HD
ATOM     24  H   UNL A   1      33.622  24.713  25.570  1.00  0.00     0.345 HD
ATOM     25  H   UNL A   1      34.433  25.726  24.526  1.00  0.00     0.345 HD
ENDBRANCH   7  22
ENDBRANCH   4   7
ENDBRANCH   2   3
ENDBRANCH   1   2
BRANCH   1  26
ATOM     26  C   UNL A   1      39.101  20.488  25.811  1.00  0.00     0.118 C 
BRANCH  26  27
ATOM     27  N   UNL A   1      40.111  19.412  25.871  1.00  0.00    -0.352 N 
ATOM     28  C   UNL A   1      41.497  19.530  25.949  1.00  0.00     0.251 C 
ATOM     29  H   UNL A   1      39.759  18.493  25.855  1.00  0.00     0.163 HD
ATOM     30  O   UNL A   1      42.232  18.595  25.662  1.00  0.00    -0.269 OA
BRANCH  28  31
ATOM     31  C   UNL A   1      42.055  20.813  26.417  1.00  0.00     0.039 A 
ATOM     32  C   UNL A   1      42.538  21.840  25.603  1.00  0.00     0.014 A 
ATOM     33  C   UNL A   1      41.940  21.016  27.771  1.00  0.00     0.014 A 
ATOM     34  C   UNL A   1      42.841  23.064  26.210  1.00  0.00     0.010 A 
ATOM     35  C   UNL A   1      41.660  22.286  28.131  1.00  0.00     0.010 A 
ATOM     36  C   UNL A   1      42.403  23.265  27.521  1.00  0.00    -0.014 A 
BRANCH  36  37
ATOM     37  C   UNL A   1      42.506  24.486  28.302  1.00  0.00     0.031 A 
ATOM     38  C   UNL A   1      41.394  25.417  28.052  1.00  0.00     0.074 A 
ATOM     39  C   UNL A   1      43.333  24.593  29.373  1.00  0.00     0.049 A 
ATOM     40  N   UNL A   1      41.415  26.457  27.293  1.00  0.00    -0.248 NA
ATOM     41  C   UNL A   1      40.047  25.032  28.510  1.00  0.00     0.031 C 
ATOM     42  C   UNL A   1      44.228  23.569  29.949  1.00  0.00     0.029 A 
ATOM     43  N   UNL A   1      43.469  25.617  30.259  1.00  0.00    -0.354 N 
ATOM     44  C   UNL A   1      40.151  27.016  27.413  1.00  0.00     0.074 A 
ATOM     45  C   UNL A   1      39.302  25.967  27.915  1.00  0.00     0.031 C 
ATOM     46  C   UNL A   1      44.640  23.951  31.179  1.00  0.00     0.029 A 
ATOM     47  C   UNL A   1      44.190  25.309  31.413  1.00  0.00     0.049 A 
ATOM     48  H   UNL A   1      43.087  26.510  30.098  1.00  0.00     0.167 HD
ATOM     49  C   UNL A   1      39.999  28.369  27.458  1.00  0.00     0.031 A 
ATOM     50  C   UNL A   1      44.406  26.120  32.479  1.00  0.00     0.031 A 
ATOM     51  C   UNL A   1      41.246  29.029  27.138  1.00  0.00     0.049 A 
ATOM     52  C   UNL A   1      44.171  27.505  32.017  1.00  0.00     0.074 A 
ATOM     53  C   UNL A   1      42.082  29.094  26.044  1.00  0.00     0.029 A 
ATOM     54  N   UNL A   1      41.994  29.395  28.233  1.00  0.00    -0.354 N 
ATOM     55  N   UNL A   1      44.932  28.101  31.146  1.00  0.00    -0.248 NA
ATOM     56  C   UNL A   1      42.848  28.083  32.187  1.00  0.00     0.031 C 
ATOM     57  C   UNL A   1      43.403  29.156  26.581  1.00  0.00     0.029 A 
ATOM     58  C   UNL A   1      43.325  29.210  27.974  1.00  0.00     0.049 A 
ATOM     59  H   UNL A   1      41.626  29.740  29.079  1.00  0.00     0.167 HD
ATOM     60  C   UNL A   1      44.049  28.801  30.338  1.00  0.00     0.074 A 
ATOM     61  C   UNL A   1      42.817  28.886  31.119  1.00  0.00     0.031 C 
ATOM     62  C   UNL A   1      44.312  28.963  29.007  1.00  0.00     0.031 A 
BRANCH  49  63
ATOM     63  C   UNL A   1      38.943  29.078  28.280  1.00  0.00    -0.014 A 
ATOM     64  C   UNL A   1      38.878  28.788  29.656  1.00  0.00     0.009 A 
ATOM     65  C   UNL A   1      37.850  29.780  27.738  1.00  0.00     0.009 A 
ATOM     66  C   UNL A   1      37.745  29.097  30.418  1.00  0.00     0.001 A 
ATOM     67  C   UNL A   1      36.733  30.123  28.503  1.00  0.00     0.001 A 
ATOM     68  C   UNL A   1      36.667  29.754  29.838  1.00  0.00     0.000 A 
ENDBRANCH  49  63
BRANCH  50  69
ATOM     69  C   UNL A   1      44.609  25.805  33.910  1.00  0.00    -0.014 A 
ATOM     70  C   UNL A   1      45.380  26.642  34.736  1.00  0.00     0.009 A 
ATOM     71  C   UNL A   1      43.795  24.842  34.533  1.00  0.00     0.009 A 
ATOM     72  C   UNL A   1      45.299  26.551  36.134  1.00  0.00     0.001 A 
ATOM     73  C   UNL A   1      43.713  24.755  35.928  1.00  0.00     0.001 A 
ATOM     74  C   UNL A   1      44.452  25.620  36.729  1.00  0.00     0.000 A 
ENDBRANCH  50  69
BRANCH  62  75
ATOM     75  C   UNL A   1      45.719  28.669  28.542  1.00  0.00    -0.014 A 
ATOM     76  C   UNL A   1      46.739  29.635  28.476  1.00  0.00     0.009 A 
ATOM     77  C   UNL A   1      46.049  27.335  28.267  1.00  0.00     0.009 A 
ATOM     78  C   UNL A   1      48.044  29.275  28.114  1.00  0.00     0.001 A 
ATOM     79  C   UNL A   1      47.353  26.973  27.927  1.00  0.00     0.001 A 
ATOM     80  C   UNL A   1      48.349  27.943  27.844  1.00  0.00     0.000 A 
ENDBRANCH  62  75
ENDBRANCH  36  37
ENDBRANCH  28  31
ENDBRANCH  26  27
ENDBRANCH   1  26
TORSDOF 13
ENDMDL
