MODEL 1
REMARK VINA RESULT:     -11.4      0.000      0.000
REMARK SMILES O=C(CCn1c(SCc2ccccn2)nc2ccccc2c1=O)NCCCNC(=O)c1ccc(-c2c3nc(c(-c4ccccc4)c4ccc([nH]4)c(-c4ccccc4)c4nc(c(-c5ccccc5)c5ccc2[nH]5)C=C4)C=C3)cc1
REMARK SMILES IDX 1 1 2 2 24 3 3 5 4 6 5 7 6 8 22 9 15 10 21 11 23 12 16 13
REMARK SMILES IDX 20 14 17 15 19 16 18 17 7 18 8 19 9 20 10 21 14 22 11 23
REMARK SMILES IDX 13 24 12 25 25 26 26 27 27 28 28 29 29 30 30 32 31 33 32 34
REMARK SMILES IDX 78 35 33 36 77 37 34 38 35 39 36 40 71 41 37 42 76 43 70 44
REMARK SMILES IDX 72 45 38 46 75 47 69 48 68 49 39 51 61 52 46 53 60 54 47 55
REMARK SMILES IDX 50 56 59 57 73 58 48 59 49 60 58 62 74 63 51 64 40 65 41 66
REMARK SMILES IDX 45 67 42 68 44 69 43 70 62 71 63 72 67 73 64 74 66 75 65 76
REMARK SMILES IDX 52 77 53 78 57 79 54 80 56 81 55 82
REMARK H PARENT 24 4 28 31 72 50 50 61
REMARK Flexibility Score: inf
ROOT
ATOM      1  O   UNL A   1      34.425  23.200  22.115  1.00  0.00    -0.275 OA
ATOM      2  C   UNL A   1      33.921  23.862  23.014  1.00  0.00     0.221 C 
ATOM      3  N   UNL A   1      34.126  23.644  24.354  1.00  0.00    -0.356 N 
ATOM      4  H   UNL A   1      33.714  24.269  24.992  1.00  0.00     0.163 HD
ENDROOT
BRANCH   2   5
ATOM      5  C   UNL A   1      32.940  24.976  22.743  1.00  0.00     0.122 C 
BRANCH   5   6
ATOM      6  C   UNL A   1      32.284  25.401  24.059  1.00  0.00     0.138 C 
BRANCH   6   7
ATOM      7  N   UNL A   1      32.420  26.834  24.349  1.00  0.00    -0.287 N 
ATOM      8  C   UNL A   1      31.616  27.849  23.844  1.00  0.00     0.171 A 
ATOM      9  C   UNL A   1      33.425  27.135  25.280  1.00  0.00     0.262 A 
ATOM     10  N   UNL A   1      31.623  29.051  24.334  1.00  0.00    -0.224 NA
ATOM     11  C   UNL A   1      33.381  28.464  25.906  1.00  0.00     0.066 A 
ATOM     12  O   UNL A   1      34.262  26.324  25.672  1.00  0.00    -0.269 OA
ATOM     13  C   UNL A   1      32.448  29.363  25.413  1.00  0.00     0.079 A 
ATOM     14  C   UNL A   1      34.154  28.765  27.037  1.00  0.00     0.016 A 
ATOM     15  C   UNL A   1      32.277  30.583  26.075  1.00  0.00     0.029 A 
ATOM     16  C   UNL A   1      33.971  29.983  27.694  1.00  0.00     0.001 A 
ATOM     17  C   UNL A   1      33.027  30.890  27.215  1.00  0.00     0.002 A 
BRANCH   8  18
ATOM     18  S   UNL A   1      30.312  27.620  22.707  1.00  0.00    -0.081 SA
BRANCH  18  19
ATOM     19  C   UNL A   1      28.832  28.516  23.151  1.00  0.00     0.134 C 
BRANCH  19  20
ATOM     20  C   UNL A   1      28.565  29.897  22.615  1.00  0.00     0.051 A 
ATOM     21  C   UNL A   1      28.659  30.989  23.485  1.00  0.00     0.025 A 
ATOM     22  N   UNL A   1      28.306  30.049  21.297  1.00  0.00    -0.260 NA
ATOM     23  C   UNL A   1      28.438  32.271  22.998  1.00  0.00     0.003 A 
ATOM     24  C   UNL A   1      28.126  31.310  20.844  1.00  0.00     0.111 A 
ATOM     25  C   UNL A   1      28.171  32.438  21.647  1.00  0.00     0.020 A 
ENDBRANCH  19  20
ENDBRANCH  18  19
ENDBRANCH   8  18
ENDBRANCH   6   7
ENDBRANCH   5   6
ENDBRANCH   2   5
BRANCH   3  26
ATOM     26  C   UNL A   1      34.913  22.551  24.886  1.00  0.00     0.117 C 
BRANCH  26  27
ATOM     27  C   UNL A   1      36.035  23.063  25.773  1.00  0.00     0.042 C 
BRANCH  27  28
ATOM     28  C   UNL A   1      37.333  23.367  25.032  1.00  0.00     0.118 C 
BRANCH  28  29
ATOM     29  N   UNL A   1      38.459  22.527  25.419  1.00  0.00    -0.352 N 
ATOM     30  C   UNL A   1      39.532  22.869  26.217  1.00  0.00     0.251 C 
ATOM     31  H   UNL A   1      38.453  21.606  25.071  1.00  0.00     0.163 HD
ATOM     32  O   UNL A   1      40.451  22.088  26.421  1.00  0.00    -0.269 OA
BRANCH  30  33
ATOM     33  C   UNL A   1      39.574  24.231  26.791  1.00  0.00     0.039 A 
ATOM     34  C   UNL A   1      40.253  25.252  26.123  1.00  0.00     0.014 A 
ATOM     35  C   UNL A   1      39.026  24.450  28.057  1.00  0.00     0.014 A 
ATOM     36  C   UNL A   1      40.536  26.437  26.795  1.00  0.00     0.010 A 
ATOM     37  C   UNL A   1      39.247  25.670  28.700  1.00  0.00     0.010 A 
ATOM     38  C   UNL A   1      40.055  26.649  28.099  1.00  0.00    -0.014 A 
BRANCH  38  39
ATOM     39  C   UNL A   1      40.436  27.883  28.835  1.00  0.00     0.031 A 
ATOM     40  C   UNL A   1      39.456  29.017  28.992  1.00  0.00     0.074 A 
ATOM     41  C   UNL A   1      41.651  27.965  29.408  1.00  0.00     0.049 A 
ATOM     42  N   UNL A   1      39.619  30.168  29.597  1.00  0.00    -0.248 NA
ATOM     43  C   UNL A   1      38.120  28.838  28.400  1.00  0.00     0.031 C 
ATOM     44  C   UNL A   1      42.678  26.923  29.360  1.00  0.00     0.029 A 
ATOM     45  N   UNL A   1      42.221  28.961  30.162  1.00  0.00    -0.354 N 
ATOM     46  C   UNL A   1      38.421  30.853  29.440  1.00  0.00     0.074 A 
ATOM     47  C   UNL A   1      37.544  30.003  28.666  1.00  0.00     0.031 C 
ATOM     48  C   UNL A   1      43.730  27.313  30.094  1.00  0.00     0.029 A 
ATOM     49  C   UNL A   1      43.483  28.656  30.609  1.00  0.00     0.049 A 
ATOM     50  H   UNL A   1      41.767  29.812  30.364  1.00  0.00     0.167 HD
ATOM     51  C   UNL A   1      38.079  32.077  29.907  1.00  0.00     0.031 A 
ATOM     52  C   UNL A   1      44.355  29.378  31.337  1.00  0.00     0.031 A 
ATOM     53  C   UNL A   1      38.943  32.919  30.692  1.00  0.00     0.049 A 
ATOM     54  C   UNL A   1      43.976  30.759  31.789  1.00  0.00     0.074 A 
ATOM     55  C   UNL A   1      38.672  34.168  31.224  1.00  0.00     0.029 A 
ATOM     56  N   UNL A   1      40.240  32.599  31.059  1.00  0.00    -0.354 N 
ATOM     57  N   UNL A   1      42.842  31.393  31.625  1.00  0.00    -0.248 NA
ATOM     58  C   UNL A   1      44.997  31.525  32.516  1.00  0.00     0.031 C 
ATOM     59  C   UNL A   1      39.822  34.626  31.870  1.00  0.00     0.029 A 
ATOM     60  C   UNL A   1      40.791  33.639  31.788  1.00  0.00     0.049 A 
ATOM     61  H   UNL A   1      40.701  31.758  30.833  1.00  0.00     0.167 HD
ATOM     62  C   UNL A   1      43.007  32.629  32.237  1.00  0.00     0.074 A 
ATOM     63  C   UNL A   1      44.346  32.648  32.789  1.00  0.00     0.031 C 
ATOM     64  C   UNL A   1      42.125  33.651  32.329  1.00  0.00     0.031 A 
BRANCH  51  65
ATOM     65  C   UNL A   1      36.710  32.603  29.579  1.00  0.00    -0.014 A 
ATOM     66  C   UNL A   1      36.512  33.338  28.398  1.00  0.00     0.009 A 
ATOM     67  C   UNL A   1      35.642  32.463  30.479  1.00  0.00     0.009 A 
ATOM     68  C   UNL A   1      35.277  33.929  28.130  1.00  0.00     0.001 A 
ATOM     69  C   UNL A   1      34.400  33.035  30.196  1.00  0.00     0.001 A 
ATOM     70  C   UNL A   1      34.221  33.775  29.027  1.00  0.00     0.000 A 
ENDBRANCH  51  65
BRANCH  52  71
ATOM     71  C   UNL A   1      45.678  28.793  31.674  1.00  0.00    -0.014 A 
ATOM     72  C   UNL A   1      46.737  28.851  30.752  1.00  0.00     0.009 A 
ATOM     73  C   UNL A   1      45.870  28.122  32.889  1.00  0.00     0.009 A 
ATOM     74  C   UNL A   1      47.952  28.222  31.030  1.00  0.00     0.001 A 
ATOM     75  C   UNL A   1      47.097  27.519  33.176  1.00  0.00     0.001 A 
ATOM     76  C   UNL A   1      48.133  27.560  32.242  1.00  0.00     0.000 A 
ENDBRANCH  52  71
BRANCH  64  77
ATOM     77  C   UNL A   1      42.557  34.888  33.062  1.00  0.00    -0.014 A 
ATOM     78  C   UNL A   1      42.202  35.060  34.409  1.00  0.00     0.009 A 
ATOM     79  C   UNL A   1      43.216  35.928  32.391  1.00  0.00     0.009 A 
ATOM     80  C   UNL A   1      42.483  36.259  35.067  1.00  0.00     0.001 A 
ATOM     81  C   UNL A   1      43.517  37.117  33.059  1.00  0.00     0.001 A 
ATOM     82  C   UNL A   1      43.141  37.285  34.391  1.00  0.00     0.000 A 
ENDBRANCH  64  77
ENDBRANCH  38  39
ENDBRANCH  30  33
ENDBRANCH  28  29
ENDBRANCH  27  28
ENDBRANCH  26  27
ENDBRANCH   3  26
TORSDOF 15
ENDMDL
MODEL 2
REMARK VINA RESULT:     -11.4      2.939      8.675
REMARK SMILES O=C(CCn1c(SCc2ccccn2)nc2ccccc2c1=O)NCCCNC(=O)c1ccc(-c2c3nc(c(-c4ccccc4)c4ccc([nH]4)c(-c4ccccc4)c4nc(c(-c5ccccc5)c5ccc2[nH]5)C=C4)C=C3)cc1
REMARK SMILES IDX 1 1 2 2 24 3 3 5 4 6 5 7 6 8 22 9 15 10 21 11 23 12 16 13
REMARK SMILES IDX 20 14 17 15 19 16 18 17 7 18 8 19 9 20 10 21 14 22 11 23
REMARK SMILES IDX 13 24 12 25 25 26 26 27 27 28 28 29 29 30 30 32 31 33 32 34
REMARK SMILES IDX 78 35 33 36 77 37 34 38 35 39 36 40 71 41 37 42 76 43 70 44
REMARK SMILES IDX 72 45 38 46 75 47 69 48 68 49 39 51 61 52 46 53 60 54 47 55
REMARK SMILES IDX 50 56 59 57 73 58 48 59 49 60 58 62 74 63 51 64 40 65 41 66
REMARK SMILES IDX 45 67 42 68 44 69 43 70 62 71 63 72 67 73 64 74 66 75 65 76
REMARK SMILES IDX 52 77 53 78 57 79 54 80 56 81 55 82
REMARK H PARENT 24 4 28 31 72 50 50 61
REMARK Flexibility Score: inf
ROOT
ATOM      1  O   UNL A   1      29.746  26.025  26.400  1.00  0.00    -0.275 OA
ATOM      2  C   UNL A   1      30.880  25.711  26.060  1.00  0.00     0.221 C 
ATOM      3  N   UNL A   1      31.894  26.601  25.806  1.00  0.00    -0.356 N 
ATOM      4  H   UNL A   1      32.783  26.239  25.589  1.00  0.00     0.163 HD
ENDROOT
BRANCH   2   5
ATOM      5  C   UNL A   1      31.280  24.278  25.807  1.00  0.00     0.122 C 
BRANCH   5   6
ATOM      6  C   UNL A   1      32.451  24.247  24.823  1.00  0.00     0.138 C 
BRANCH   6   7
ATOM      7  N   UNL A   1      33.525  23.326  25.214  1.00  0.00    -0.287 N 
ATOM      8  C   UNL A   1      33.484  21.939  25.125  1.00  0.00     0.171 A 
ATOM      9  C   UNL A   1      34.699  23.965  25.641  1.00  0.00     0.262 A 
ATOM     10  N   UNL A   1      34.547  21.202  25.241  1.00  0.00    -0.224 NA
ATOM     11  C   UNL A   1      35.925  23.155  25.685  1.00  0.00     0.066 A 
ATOM     12  O   UNL A   1      34.777  25.170  25.874  1.00  0.00    -0.269 OA
ATOM     13  C   UNL A   1      35.791  21.796  25.452  1.00  0.00     0.079 A 
ATOM     14  C   UNL A   1      37.187  23.749  25.823  1.00  0.00     0.016 A 
ATOM     15  C   UNL A   1      36.947  21.017  25.342  1.00  0.00     0.029 A 
ATOM     16  C   UNL A   1      38.336  22.964  25.706  1.00  0.00     0.001 A 
ATOM     17  C   UNL A   1      38.215  21.597  25.459  1.00  0.00     0.002 A 
BRANCH   8  18
ATOM     18  S   UNL A   1      32.109  21.012  24.584  1.00  0.00    -0.081 SA
BRANCH  18  19
ATOM     19  C   UNL A   1      32.558  19.664  23.500  1.00  0.00     0.134 C 
BRANCH  19  20
ATOM     20  C   UNL A   1      32.861  18.293  24.044  1.00  0.00     0.051 A 
ATOM     21  C   UNL A   1      33.733  17.461  23.330  1.00  0.00     0.025 A 
ATOM     22  N   UNL A   1      32.336  17.931  25.236  1.00  0.00    -0.260 NA
ATOM     23  C   UNL A   1      34.038  16.203  23.833  1.00  0.00     0.003 A 
ATOM     24  C   UNL A   1      32.677  16.713  25.716  1.00  0.00     0.111 A 
ATOM     25  C   UNL A   1      33.505  15.821  25.056  1.00  0.00     0.020 A 
ENDBRANCH  19  20
ENDBRANCH  18  19
ENDBRANCH   8  18
ENDBRANCH   6   7
ENDBRANCH   5   6
ENDBRANCH   2   5
BRANCH   3  26
ATOM     26  C   UNL A   1      31.736  28.040  25.838  1.00  0.00     0.117 C 
BRANCH  26  27
ATOM     27  C   UNL A   1      32.121  28.605  27.194  1.00  0.00     0.042 C 
BRANCH  27  28
ATOM     28  C   UNL A   1      33.531  29.182  27.257  1.00  0.00     0.118 C 
BRANCH  28  29
ATOM     29  N   UNL A   1      33.625  30.474  27.923  1.00  0.00    -0.352 N 
ATOM     30  C   UNL A   1      34.717  31.012  28.572  1.00  0.00     0.251 C 
ATOM     31  H   UNL A   1      32.812  31.029  27.909  1.00  0.00     0.163 HD
ATOM     32  O   UNL A   1      34.651  32.089  29.149  1.00  0.00    -0.269 OA
BRANCH  30  33
ATOM     33  C   UNL A   1      35.973  30.233  28.598  1.00  0.00     0.039 A 
ATOM     34  C   UNL A   1      36.333  29.520  29.744  1.00  0.00     0.014 A 
ATOM     35  C   UNL A   1      36.841  30.311  27.507  1.00  0.00     0.014 A 
ATOM     36  C   UNL A   1      37.632  29.036  29.867  1.00  0.00     0.010 A 
ATOM     37  C   UNL A   1      38.120  29.756  27.605  1.00  0.00     0.010 A 
ATOM     38  C   UNL A   1      38.545  29.170  28.808  1.00  0.00    -0.014 A 
BRANCH  38  39
ATOM     39  C   UNL A   1      39.952  28.724  28.986  1.00  0.00     0.031 A 
ATOM     40  C   UNL A   1      40.965  29.622  29.649  1.00  0.00     0.074 A 
ATOM     41  C   UNL A   1      40.310  27.486  28.597  1.00  0.00     0.049 A 
ATOM     42  N   UNL A   1      42.235  29.400  29.882  1.00  0.00    -0.248 NA
ATOM     43  C   UNL A   1      40.495  30.938  30.113  1.00  0.00     0.031 C 
ATOM     44  C   UNL A   1      39.417  26.507  27.977  1.00  0.00     0.029 A 
ATOM     45  N   UNL A   1      41.513  26.831  28.685  1.00  0.00    -0.354 N 
ATOM     46  C   UNL A   1      42.716  30.548  30.497  1.00  0.00     0.074 A 
ATOM     47  C   UNL A   1      41.611  31.477  30.585  1.00  0.00     0.031 C 
ATOM     48  C   UNL A   1      40.088  25.362  27.785  1.00  0.00     0.029 A 
ATOM     49  C   UNL A   1      41.474  25.545  28.206  1.00  0.00     0.049 A 
ATOM     50  H   UNL A   1      42.327  27.245  29.057  1.00  0.00     0.167 HD
ATOM     51  C   UNL A   1      43.964  30.802  30.957  1.00  0.00     0.031 A 
ATOM     52  C   UNL A   1      42.444  24.618  28.100  1.00  0.00     0.031 A 
ATOM     53  C   UNL A   1      45.062  29.874  30.887  1.00  0.00     0.049 A 
ATOM     54  C   UNL A   1      43.835  24.947  28.558  1.00  0.00     0.074 A 
ATOM     55  C   UNL A   1      46.357  30.040  31.345  1.00  0.00     0.029 A 
ATOM     56  N   UNL A   1      44.993  28.608  30.327  1.00  0.00    -0.354 N 
ATOM     57  N   UNL A   1      44.273  26.041  29.131  1.00  0.00    -0.248 NA
ATOM     58  C   UNL A   1      44.866  23.921  28.348  1.00  0.00     0.031 C 
ATOM     59  C   UNL A   1      47.087  28.896  31.018  1.00  0.00     0.029 A 
ATOM     60  C   UNL A   1      46.232  27.994  30.405  1.00  0.00     0.049 A 
ATOM     61  H   UNL A   1      44.186  28.207  29.932  1.00  0.00     0.167 HD
ATOM     62  C   UNL A   1      45.627  25.832  29.360  1.00  0.00     0.074 A 
ATOM     63  C   UNL A   1      45.934  24.501  28.879  1.00  0.00     0.031 C 
ATOM     64  C   UNL A   1      46.529  26.672  29.919  1.00  0.00     0.031 A 
BRANCH  51  65
ATOM     65  C   UNL A   1      44.231  32.146  31.574  1.00  0.00    -0.014 A 
ATOM     66  C   UNL A   1      44.578  33.232  30.752  1.00  0.00     0.009 A 
ATOM     67  C   UNL A   1      44.241  32.318  32.967  1.00  0.00     0.009 A 
ATOM     68  C   UNL A   1      44.938  34.458  31.313  1.00  0.00     0.001 A 
ATOM     69  C   UNL A   1      44.578  33.553  33.524  1.00  0.00     0.001 A 
ATOM     70  C   UNL A   1      44.935  34.619  32.697  1.00  0.00     0.000 A 
ENDBRANCH  51  65
BRANCH  52  71
ATOM     71  C   UNL A   1      42.116  23.288  27.526  1.00  0.00    -0.014 A 
ATOM     72  C   UNL A   1      41.510  22.300  28.320  1.00  0.00     0.009 A 
ATOM     73  C   UNL A   1      42.461  22.980  26.202  1.00  0.00     0.009 A 
ATOM     74  C   UNL A   1      41.284  21.021  27.808  1.00  0.00     0.001 A 
ATOM     75  C   UNL A   1      42.207  21.707  25.685  1.00  0.00     0.001 A 
ATOM     76  C   UNL A   1      41.629  20.726  26.491  1.00  0.00     0.000 A 
ENDBRANCH  52  71
BRANCH  64  77
ATOM     77  C   UNL A   1      47.944  26.191  30.061  1.00  0.00    -0.014 A 
ATOM     78  C   UNL A   1      48.379  25.656  31.283  1.00  0.00     0.009 A 
ATOM     79  C   UNL A   1      48.871  26.370  29.024  1.00  0.00     0.009 A 
ATOM     80  C   UNL A   1      49.722  25.325  31.472  1.00  0.00     0.001 A 
ATOM     81  C   UNL A   1      50.210  26.015  29.208  1.00  0.00     0.001 A 
ATOM     82  C   UNL A   1      50.635  25.503  30.434  1.00  0.00     0.000 A 
ENDBRANCH  64  77
ENDBRANCH  38  39
ENDBRANCH  30  33
ENDBRANCH  28  29
ENDBRANCH  27  28
ENDBRANCH  26  27
ENDBRANCH   3  26
TORSDOF 15
ENDMDL
MODEL 3
REMARK VINA RESULT:     -11.2      3.097      8.766
REMARK SMILES O=C(CCn1c(SCc2ccccn2)nc2ccccc2c1=O)NCCCNC(=O)c1ccc(-c2c3nc(c(-c4ccccc4)c4ccc([nH]4)c(-c4ccccc4)c4nc(c(-c5ccccc5)c5ccc2[nH]5)C=C4)C=C3)cc1
REMARK SMILES IDX 1 1 2 2 24 3 3 5 4 6 5 7 6 8 22 9 15 10 21 11 23 12 16 13
REMARK SMILES IDX 20 14 17 15 19 16 18 17 7 18 8 19 9 20 10 21 14 22 11 23
REMARK SMILES IDX 13 24 12 25 25 26 26 27 27 28 28 29 29 30 30 32 31 33 32 34
REMARK SMILES IDX 78 35 33 36 77 37 34 38 35 39 36 40 71 41 37 42 76 43 70 44
REMARK SMILES IDX 72 45 38 46 75 47 69 48 68 49 39 51 61 52 46 53 60 54 47 55
REMARK SMILES IDX 50 56 59 57 73 58 48 59 49 60 58 62 74 63 51 64 40 65 41 66
REMARK SMILES IDX 45 67 42 68 44 69 43 70 62 71 63 72 67 73 64 74 66 75 65 76
REMARK SMILES IDX 52 77 53 78 57 79 54 80 56 81 55 82
REMARK H PARENT 24 4 28 31 72 50 50 61
REMARK Flexibility Score: inf
ROOT
ATOM      1  O   UNL A   1      31.409  24.485  27.247  1.00  0.00    -0.275 OA
ATOM      2  C   UNL A   1      31.414  25.115  26.197  1.00  0.00     0.221 C 
ATOM      3  N   UNL A   1      31.589  26.473  26.102  1.00  0.00    -0.356 N 
ATOM      4  H   UNL A   1      31.629  26.872  25.203  1.00  0.00     0.163 HD
ENDROOT
BRANCH   2   5
ATOM      5  C   UNL A   1      31.153  24.461  24.862  1.00  0.00     0.122 C 
BRANCH   5   6
ATOM      6  C   UNL A   1      32.460  24.390  24.071  1.00  0.00     0.138 C 
BRANCH   6   7
ATOM      7  N   UNL A   1      33.448  23.469  24.647  1.00  0.00    -0.287 N 
ATOM      8  C   UNL A   1      33.370  22.080  24.643  1.00  0.00     0.171 A 
ATOM      9  C   UNL A   1      34.583  24.104  25.172  1.00  0.00     0.262 A 
ATOM     10  N   UNL A   1      34.385  21.325  24.933  1.00  0.00    -0.224 NA
ATOM     11  C   UNL A   1      35.767  23.267  25.415  1.00  0.00     0.066 A 
ATOM     12  O   UNL A   1      34.675  25.319  25.335  1.00  0.00    -0.269 OA
ATOM     13  C   UNL A   1      35.615  21.898  25.254  1.00  0.00     0.079 A 
ATOM     14  C   UNL A   1      37.024  23.834  25.667  1.00  0.00     0.016 A 
ATOM     15  C   UNL A   1      36.749  21.084  25.335  1.00  0.00     0.029 A 
ATOM     16  C   UNL A   1      38.151  23.013  25.739  1.00  0.00     0.001 A 
ATOM     17  C   UNL A   1      38.013  21.637  25.567  1.00  0.00     0.002 A 
BRANCH   8  18
ATOM     18  S   UNL A   1      32.038  21.156  23.999  1.00  0.00    -0.081 SA
BRANCH  18  19
ATOM     19  C   UNL A   1      32.565  19.708  23.094  1.00  0.00     0.134 C 
BRANCH  19  20
ATOM     20  C   UNL A   1      32.804  18.396  23.792  1.00  0.00     0.051 A 
ATOM     21  C   UNL A   1      33.633  17.447  23.181  1.00  0.00     0.025 A 
ATOM     22  N   UNL A   1      32.266  18.198  25.016  1.00  0.00    -0.260 NA
ATOM     23  C   UNL A   1      33.881  16.243  23.825  1.00  0.00     0.003 A 
ATOM     24  C   UNL A   1      32.550  17.028  25.634  1.00  0.00     0.111 A 
ATOM     25  C   UNL A   1      33.333  16.028  25.082  1.00  0.00     0.020 A 
ENDBRANCH  19  20
ENDBRANCH  18  19
ENDBRANCH   8  18
ENDBRANCH   6   7
ENDBRANCH   5   6
ENDBRANCH   2   5
BRANCH   3  26
ATOM     26  C   UNL A   1      31.720  27.355  27.242  1.00  0.00     0.117 C 
BRANCH  26  27
ATOM     27  C   UNL A   1      32.183  28.738  26.817  1.00  0.00     0.042 C 
BRANCH  27  28
ATOM     28  C   UNL A   1      33.581  29.109  27.299  1.00  0.00     0.118 C 
BRANCH  28  29
ATOM     29  N   UNL A   1      33.670  30.409  27.950  1.00  0.00    -0.352 N 
ATOM     30  C   UNL A   1      34.760  30.960  28.592  1.00  0.00     0.251 C 
ATOM     31  H   UNL A   1      32.855  30.961  27.929  1.00  0.00     0.163 HD
ATOM     32  O   UNL A   1      34.690  32.043  29.156  1.00  0.00    -0.269 OA
BRANCH  30  33
ATOM     33  C   UNL A   1      36.019  30.185  28.628  1.00  0.00     0.039 A 
ATOM     34  C   UNL A   1      36.409  29.534  29.799  1.00  0.00     0.014 A 
ATOM     35  C   UNL A   1      36.860  30.210  27.513  1.00  0.00     0.014 A 
ATOM     36  C   UNL A   1      37.712  29.060  29.916  1.00  0.00     0.010 A 
ATOM     37  C   UNL A   1      38.143  29.664  27.608  1.00  0.00     0.010 A 
ATOM     38  C   UNL A   1      38.599  29.141  28.829  1.00  0.00    -0.014 A 
BRANCH  38  39
ATOM     39  C   UNL A   1      40.011  28.708  28.995  1.00  0.00     0.031 A 
ATOM     40  C   UNL A   1      40.449  27.332  28.563  1.00  0.00     0.074 A 
ATOM     41  C   UNL A   1      40.917  29.573  29.489  1.00  0.00     0.049 A 
ATOM     42  N   UNL A   1      41.636  26.784  28.638  1.00  0.00    -0.248 NA
ATOM     43  C   UNL A   1      39.425  26.457  27.969  1.00  0.00     0.031 C 
ATOM     44  C   UNL A   1      40.630  30.945  29.910  1.00  0.00     0.029 A 
ATOM     45  N   UNL A   1      42.267  29.434  29.700  1.00  0.00    -0.354 N 
ATOM     46  C   UNL A   1      41.498  25.502  28.122  1.00  0.00     0.074 A 
ATOM     47  C   UNL A   1      40.109  25.340  27.756  1.00  0.00     0.031 C 
ATOM     48  C   UNL A   1      41.774  31.537  30.281  1.00  0.00     0.029 A 
ATOM     49  C   UNL A   1      42.864  30.569  30.190  1.00  0.00     0.049 A 
ATOM     50  H   UNL A   1      42.758  28.601  29.518  1.00  0.00     0.167 HD
ATOM     51  C   UNL A   1      42.446  24.549  27.959  1.00  0.00     0.031 A 
ATOM     52  C   UNL A   1      44.141  30.807  30.543  1.00  0.00     0.031 A 
ATOM     53  C   UNL A   1      43.833  24.713  28.307  1.00  0.00     0.049 A 
ATOM     54  C   UNL A   1      45.160  29.713  30.413  1.00  0.00     0.074 A 
ATOM     55  C   UNL A   1      44.867  23.805  28.158  1.00  0.00     0.029 A 
ATOM     56  N   UNL A   1      44.379  25.856  28.868  1.00  0.00    -0.354 N 
ATOM     57  N   UNL A   1      45.009  28.504  29.930  1.00  0.00    -0.248 NA
ATOM     58  C   UNL A   1      46.520  30.010  30.884  1.00  0.00     0.031 C 
ATOM     59  C   UNL A   1      46.030  24.379  28.676  1.00  0.00     0.029 A 
ATOM     60  C   UNL A   1      45.731  25.666  29.096  1.00  0.00     0.049 A 
ATOM     61  H   UNL A   1      43.880  26.679  29.075  1.00  0.00     0.167 HD
ATOM     62  C   UNL A   1      46.255  27.900  30.027  1.00  0.00     0.074 A 
ATOM     63  C   UNL A   1      47.155  28.879  30.601  1.00  0.00     0.031 C 
ATOM     64  C   UNL A   1      46.616  26.644  29.672  1.00  0.00     0.031 A 
BRANCH  51  65
ATOM     65  C   UNL A   1      42.026  23.224  27.387  1.00  0.00    -0.014 A 
ATOM     66  C   UNL A   1      41.440  22.260  28.223  1.00  0.00     0.009 A 
ATOM     67  C   UNL A   1      42.300  22.889  26.052  1.00  0.00     0.009 A 
ATOM     68  C   UNL A   1      41.146  20.985  27.737  1.00  0.00     0.001 A 
ATOM     69  C   UNL A   1      41.982  21.621  25.562  1.00  0.00     0.001 A 
ATOM     70  C   UNL A   1      41.414  20.667  26.407  1.00  0.00     0.000 A 
ENDBRANCH  51  65
BRANCH  52  71
ATOM     71  C   UNL A   1      44.512  32.149  31.060  1.00  0.00    -0.014 A 
ATOM     72  C   UNL A   1      44.941  33.157  30.179  1.00  0.00     0.009 A 
ATOM     73  C   UNL A   1      44.500  32.410  32.437  1.00  0.00     0.009 A 
ATOM     74  C   UNL A   1      45.377  34.389  30.671  1.00  0.00     0.001 A 
ATOM     75  C   UNL A   1      44.910  33.654  32.923  1.00  0.00     0.001 A 
ATOM     76  C   UNL A   1      45.358  34.638  32.041  1.00  0.00     0.000 A 
ENDBRANCH  52  71
BRANCH  64  77
ATOM     77  C   UNL A   1      48.047  26.240  29.877  1.00  0.00    -0.014 A 
ATOM     78  C   UNL A   1      48.464  25.759  31.128  1.00  0.00     0.009 A 
ATOM     79  C   UNL A   1      49.002  26.439  28.869  1.00  0.00     0.009 A 
ATOM     80  C   UNL A   1      49.813  25.502  31.373  1.00  0.00     0.001 A 
ATOM     81  C   UNL A   1      50.348  26.159  29.110  1.00  0.00     0.001 A 
ATOM     82  C   UNL A   1      50.754  25.701  30.364  1.00  0.00     0.000 A 
ENDBRANCH  64  77
ENDBRANCH  38  39
ENDBRANCH  30  33
ENDBRANCH  28  29
ENDBRANCH  27  28
ENDBRANCH  26  27
ENDBRANCH   3  26
TORSDOF 15
ENDMDL
