MODEL 1
REMARK VINA RESULT:     -10.3      0.000      0.000
REMARK SMILES [NH3+][C@H](Cc1cc(F)c(F)c(F)c1)C(=O)NCCCNC(=O)c1ccc(-c2c3nc(c(-c4ccccc4)c4ccc([nH]4)c(-c4ccccc4)c4nc(c(-c5ccccc5)c5ccc2[nH]5)C=C4)C=C3)cc1
REMARK SMILES IDX 17 1 16 2 15 3 13 4 14 5 2 7 1 8 3 12 4 13 5 14 12 15 6 16
REMARK SMILES IDX 10 17 7 18 8 19 11 20 9 21 18 22 19 23 20 24 21 26 22 27
REMARK SMILES IDX 23 28 69 29 24 30 68 31 25 32 26 33 27 34 62 35 28 36 67 37
REMARK SMILES IDX 61 38 63 39 29 40 66 41 60 42 59 43 30 45 52 46 37 47 51 48
REMARK SMILES IDX 38 49 41 50 50 51 64 52 39 53 40 54 49 56 65 57 42 58 31 59
REMARK SMILES IDX 32 60 36 61 33 62 35 63 34 64 53 65 54 66 58 67 55 68 57 69
REMARK SMILES IDX 56 70 43 71 44 72 48 73 45 74 47 75 46 76
REMARK H PARENT 15 6 1 9 1 10 1 11 19 25 63 44 41 55
REMARK Flexibility Score: inf
ROOT
ATOM      1  C   UNL A   1      34.283  35.214  28.837  1.00  0.00     0.042 C 
ENDROOT
BRANCH   1   2
ATOM      2  C   UNL A   1      32.915  35.823  29.139  1.00  0.00     0.118 C 
BRANCH   2   3
ATOM      3  N   UNL A   1      32.950  36.870  30.145  1.00  0.00    -0.351 N 
ATOM      4  C   UNL A   1      33.143  36.882  31.490  1.00  0.00     0.278 C 
ATOM      5  O   UNL A   1      33.135  38.001  32.024  1.00  0.00    -0.268 OA
ATOM      6  H   UNL A   1      32.799  37.768  29.771  1.00  0.00     0.163 HD
BRANCH   4   7
ATOM      7  C   UNL A   1      33.276  35.631  32.382  1.00  0.00     0.275 C 
BRANCH   7   8
ATOM      8  N   UNL A   1      31.970  35.100  32.831  1.00  0.00    -0.347 N 
ATOM      9  H   UNL A   1      32.113  34.224  33.332  1.00  0.00     0.345 HD
ATOM     10  H   UNL A   1      31.374  34.935  32.020  1.00  0.00     0.345 HD
ATOM     11  H   UNL A   1      31.523  35.777  33.449  1.00  0.00     0.345 HD
ENDBRANCH   7   8
BRANCH   7  12
ATOM     12  C   UNL A   1      34.349  35.671  33.501  1.00  0.00     0.111 C 
BRANCH  12  13
ATOM     13  C   UNL A   1      35.240  34.475  33.751  1.00  0.00    -0.036 A 
ATOM     14  C   UNL A   1      35.977  34.374  34.944  1.00  0.00     0.046 A 
ATOM     15  C   UNL A   1      35.296  33.405  32.844  1.00  0.00     0.046 A 
ATOM     16  C   UNL A   1      36.788  33.261  35.180  1.00  0.00     0.162 A 
ATOM     17  C   UNL A   1      36.126  32.311  33.087  1.00  0.00     0.162 A 
ATOM     18  F   UNL A   1      37.504  33.204  36.312  1.00  0.00    -0.204 F 
ATOM     19  C   UNL A   1      36.877  32.238  34.249  1.00  0.00     0.194 A 
ATOM     20  F   UNL A   1      36.212  31.338  32.169  1.00  0.00    -0.204 F 
ATOM     21  F   UNL A   1      37.694  31.197  34.459  1.00  0.00    -0.200 F 
ENDBRANCH  12  13
ENDBRANCH   7  12
ENDBRANCH   4   7
ENDBRANCH   2   3
ENDBRANCH   1   2
BRANCH   1  22
ATOM     22  C   UNL A   1      34.510  33.795  29.360  1.00  0.00     0.118 C 
BRANCH  22  23
ATOM     23  N   UNL A   1      33.971  32.786  28.467  1.00  0.00    -0.352 N 
ATOM     24  C   UNL A   1      34.522  31.607  28.031  1.00  0.00     0.251 C 
ATOM     25  H   UNL A   1      33.070  32.976  28.121  1.00  0.00     0.163 HD
ATOM     26  O   UNL A   1      33.960  31.000  27.116  1.00  0.00    -0.269 OA
BRANCH  24  27
ATOM     27  C   UNL A   1      35.770  31.043  28.607  1.00  0.00     0.039 A 
ATOM     28  C   UNL A   1      36.961  31.750  28.405  1.00  0.00     0.014 A 
ATOM     29  C   UNL A   1      35.818  29.798  29.246  1.00  0.00     0.014 A 
ATOM     30  C   UNL A   1      38.182  31.227  28.845  1.00  0.00     0.010 A 
ATOM     31  C   UNL A   1      37.036  29.298  29.733  1.00  0.00     0.010 A 
ATOM     32  C   UNL A   1      38.234  29.995  29.518  1.00  0.00    -0.014 A 
BRANCH  32  33
ATOM     33  C   UNL A   1      39.548  29.453  29.963  1.00  0.00     0.031 A 
ATOM     34  C   UNL A   1      40.223  29.970  31.206  1.00  0.00     0.074 A 
ATOM     35  C   UNL A   1      40.131  28.457  29.268  1.00  0.00     0.049 A 
ATOM     36  N   UNL A   1      41.294  29.517  31.814  1.00  0.00    -0.248 NA
ATOM     37  C   UNL A   1      39.628  31.153  31.846  1.00  0.00     0.031 C 
ATOM     38  C   UNL A   1      39.621  27.882  28.023  1.00  0.00     0.029 A 
ATOM     39  N   UNL A   1      41.274  27.738  29.525  1.00  0.00    -0.354 N 
ATOM     40  C   UNL A   1      41.499  30.356  32.902  1.00  0.00     0.074 A 
ATOM     41  C   UNL A   1      40.470  31.373  32.847  1.00  0.00     0.031 C 
ATOM     42  C   UNL A   1      40.423  26.872  27.646  1.00  0.00     0.029 A 
ATOM     43  C   UNL A   1      41.509  26.737  28.614  1.00  0.00     0.049 A 
ATOM     44  H   UNL A   1      41.867  27.922  30.288  1.00  0.00     0.167 HD
ATOM     45  C   UNL A   1      42.443  30.282  33.872  1.00  0.00     0.031 A 
ATOM     46  C   UNL A   1      42.475  25.800  28.568  1.00  0.00     0.031 A 
ATOM     47  C   UNL A   1      43.473  29.279  33.942  1.00  0.00     0.049 A 
ATOM     48  C   UNL A   1      43.503  25.728  29.662  1.00  0.00     0.074 A 
ATOM     49  C   UNL A   1      44.438  29.099  34.920  1.00  0.00     0.029 A 
ATOM     50  N   UNL A   1      43.678  28.289  32.995  1.00  0.00    -0.354 N 
ATOM     51  N   UNL A   1      43.627  26.475  30.731  1.00  0.00    -0.248 NA
ATOM     52  C   UNL A   1      44.514  24.665  29.549  1.00  0.00     0.031 C 
ATOM     53  C   UNL A   1      45.252  28.024  34.544  1.00  0.00     0.029 A 
ATOM     54  C   UNL A   1      44.765  27.508  33.355  1.00  0.00     0.049 A 
ATOM     55  H   UNL A   1      43.132  28.159  32.186  1.00  0.00     0.167 HD
ATOM     56  C   UNL A   1      44.710  25.958  31.429  1.00  0.00     0.074 A 
ATOM     57  C   UNL A   1      45.198  24.824  30.672  1.00  0.00     0.031 C 
ATOM     58  C   UNL A   1      45.251  26.387  32.596  1.00  0.00     0.031 A 
BRANCH  45  59
ATOM     59  C   UNL A   1      42.407  31.328  34.950  1.00  0.00    -0.014 A 
ATOM     60  C   UNL A   1      43.123  32.528  34.816  1.00  0.00     0.009 A 
ATOM     61  C   UNL A   1      41.611  31.133  36.090  1.00  0.00     0.009 A 
ATOM     62  C   UNL A   1      43.070  33.499  35.819  1.00  0.00     0.001 A 
ATOM     63  C   UNL A   1      41.542  32.116  37.079  1.00  0.00     0.001 A 
ATOM     64  C   UNL A   1      42.276  33.294  36.947  1.00  0.00     0.000 A 
ENDBRANCH  45  59
BRANCH  46  65
ATOM     65  C   UNL A   1      42.492  24.809  27.462  1.00  0.00    -0.014 A 
ATOM     66  C   UNL A   1      41.781  23.604  27.576  1.00  0.00     0.009 A 
ATOM     67  C   UNL A   1      43.229  25.058  26.295  1.00  0.00     0.009 A 
ATOM     68  C   UNL A   1      41.828  22.657  26.551  1.00  0.00     0.001 A 
ATOM     69  C   UNL A   1      43.254  24.119  25.262  1.00  0.00     0.001 A 
ATOM     70  C   UNL A   1      42.561  22.917  25.395  1.00  0.00     0.000 A 
ENDBRANCH  46  65
BRANCH  58  71
ATOM     71  C   UNL A   1      46.418  25.609  33.137  1.00  0.00    -0.014 A 
ATOM     72  C   UNL A   1      47.738  25.957  32.809  1.00  0.00     0.009 A 
ATOM     73  C   UNL A   1      46.194  24.524  33.998  1.00  0.00     0.009 A 
ATOM     74  C   UNL A   1      48.809  25.209  33.304  1.00  0.00     0.001 A 
ATOM     75  C   UNL A   1      47.267  23.794  34.511  1.00  0.00     0.001 A 
ATOM     76  C   UNL A   1      48.573  24.130  34.154  1.00  0.00     0.000 A 
ENDBRANCH  58  71
ENDBRANCH  32  33
ENDBRANCH  24  27
ENDBRANCH  22  23
ENDBRANCH   1  22
TORSDOF 13
ENDMDL
MODEL 2
REMARK VINA RESULT:     -10.2      3.048      6.591
REMARK SMILES [NH3+][C@H](Cc1cc(F)c(F)c(F)c1)C(=O)NCCCNC(=O)c1ccc(-c2c3nc(c(-c4ccccc4)c4ccc([nH]4)c(-c4ccccc4)c4nc(c(-c5ccccc5)c5ccc2[nH]5)C=C4)C=C3)cc1
REMARK SMILES IDX 17 1 16 2 15 3 13 4 14 5 2 7 1 8 3 12 4 13 5 14 12 15 6 16
REMARK SMILES IDX 10 17 7 18 8 19 11 20 9 21 18 22 19 23 20 24 21 26 22 27
REMARK SMILES IDX 23 28 69 29 24 30 68 31 25 32 26 33 27 34 62 35 28 36 67 37
REMARK SMILES IDX 61 38 63 39 29 40 66 41 60 42 59 43 30 45 52 46 37 47 51 48
REMARK SMILES IDX 38 49 41 50 50 51 64 52 39 53 40 54 49 56 65 57 42 58 31 59
REMARK SMILES IDX 32 60 36 61 33 62 35 63 34 64 53 65 54 66 58 67 55 68 57 69
REMARK SMILES IDX 56 70 43 71 44 72 48 73 45 74 47 75 46 76
REMARK H PARENT 15 6 1 9 1 10 1 11 19 25 63 44 41 55
REMARK Flexibility Score: inf
ROOT
ATOM      1  C   UNL A   1      34.554  34.029  28.631  1.00  0.00     0.042 C 
ENDROOT
BRANCH   1   2
ATOM      2  C   UNL A   1      33.096  34.449  28.811  1.00  0.00     0.118 C 
BRANCH   2   3
ATOM      3  N   UNL A   1      32.934  35.717  29.501  1.00  0.00    -0.351 N 
ATOM      4  C   UNL A   1      33.010  36.100  30.803  1.00  0.00     0.278 C 
ATOM      5  O   UNL A   1      32.837  37.310  31.017  1.00  0.00    -0.268 OA
ATOM      6  H   UNL A   1      32.722  36.461  28.894  1.00  0.00     0.163 HD
BRANCH   4   7
ATOM      7  C   UNL A   1      33.196  35.150  32.002  1.00  0.00     0.275 C 
BRANCH   7   8
ATOM      8  N   UNL A   1      32.008  35.089  32.882  1.00  0.00    -0.347 N 
ATOM      9  H   UNL A   1      31.167  35.248  32.329  1.00  0.00     0.345 HD
ATOM     10  H   UNL A   1      32.083  35.806  33.603  1.00  0.00     0.345 HD
ATOM     11  H   UNL A   1      31.958  34.170  33.321  1.00  0.00     0.345 HD
ENDBRANCH   7   8
BRANCH   7  12
ATOM     12  C   UNL A   1      34.538  35.240  32.775  1.00  0.00     0.111 C 
BRANCH  12  13
ATOM     13  C   UNL A   1      35.642  34.242  32.513  1.00  0.00    -0.036 A 
ATOM     14  C   UNL A   1      35.453  32.879  32.803  1.00  0.00     0.046 A 
ATOM     15  C   UNL A   1      36.848  34.630  31.907  1.00  0.00     0.046 A 
ATOM     16  C   UNL A   1      36.469  31.955  32.546  1.00  0.00     0.162 A 
ATOM     17  C   UNL A   1      37.859  33.697  31.676  1.00  0.00     0.162 A 
ATOM     18  F   UNL A   1      36.274  30.667  32.861  1.00  0.00    -0.204 F 
ATOM     19  C   UNL A   1      37.676  32.362  31.999  1.00  0.00     0.194 A 
ATOM     20  F   UNL A   1      39.024  34.110  31.161  1.00  0.00    -0.204 F 
ATOM     21  F   UNL A   1      38.665  31.479  31.801  1.00  0.00    -0.200 F 
ENDBRANCH  12  13
ENDBRANCH   7  12
ENDBRANCH   4   7
ENDBRANCH   2   3
ENDBRANCH   1   2
BRANCH   1  22
ATOM     22  C   UNL A   1      34.950  32.704  29.283  1.00  0.00     0.118 C 
BRANCH  22  23
ATOM     23  N   UNL A   1      34.273  31.570  28.682  1.00  0.00    -0.352 N 
ATOM     24  C   UNL A   1      34.781  30.389  28.202  1.00  0.00     0.251 C 
ATOM     25  H   UNL A   1      33.295  31.661  28.609  1.00  0.00     0.163 HD
ATOM     26  O   UNL A   1      34.037  29.649  27.553  1.00  0.00    -0.269 OA
BRANCH  24  27
ATOM     27  C   UNL A   1      36.191  29.975  28.422  1.00  0.00     0.039 A 
ATOM     28  C   UNL A   1      37.083  30.097  27.349  1.00  0.00     0.014 A 
ATOM     29  C   UNL A   1      36.633  29.378  29.609  1.00  0.00     0.014 A 
ATOM     30  C   UNL A   1      38.401  29.641  27.466  1.00  0.00     0.010 A 
ATOM     31  C   UNL A   1      37.969  28.969  29.743  1.00  0.00     0.010 A 
ATOM     32  C   UNL A   1      38.862  29.075  28.666  1.00  0.00    -0.014 A 
BRANCH  32  33
ATOM     33  C   UNL A   1      40.265  28.584  28.758  1.00  0.00     0.031 A 
ATOM     34  C   UNL A   1      40.616  27.161  28.416  1.00  0.00     0.074 A 
ATOM     35  C   UNL A   1      41.248  29.433  29.118  1.00  0.00     0.049 A 
ATOM     36  N   UNL A   1      41.800  26.606  28.306  1.00  0.00    -0.248 NA
ATOM     37  C   UNL A   1      39.498  26.236  28.176  1.00  0.00     0.031 C 
ATOM     38  C   UNL A   1      41.059  30.827  29.520  1.00  0.00     0.029 A 
ATOM     39  N   UNL A   1      42.609  29.248  29.184  1.00  0.00    -0.354 N 
ATOM     40  C   UNL A   1      41.569  25.274  27.985  1.00  0.00     0.074 A 
ATOM     41  C   UNL A   1      40.132  25.091  27.961  1.00  0.00     0.031 C 
ATOM     42  C   UNL A   1      42.260  31.383  29.749  1.00  0.00     0.029 A 
ATOM     43  C   UNL A   1      43.301  30.384  29.524  1.00  0.00     0.049 A 
ATOM     44  H   UNL A   1      43.045  28.384  29.004  1.00  0.00     0.167 HD
ATOM     45  C   UNL A   1      42.463  24.292  27.715  1.00  0.00     0.031 A 
ATOM     46  C   UNL A   1      44.625  30.608  29.625  1.00  0.00     0.031 A 
ATOM     47  C   UNL A   1      43.894  24.455  27.733  1.00  0.00     0.049 A 
ATOM     48  C   UNL A   1      45.599  29.508  29.307  1.00  0.00     0.074 A 
ATOM     49  C   UNL A   1      44.873  23.526  27.419  1.00  0.00     0.029 A 
ATOM     50  N   UNL A   1      44.551  25.621  28.090  1.00  0.00    -0.354 N 
ATOM     51  N   UNL A   1      45.362  28.282  28.917  1.00  0.00    -0.248 NA
ATOM     52  C   UNL A   1      47.028  29.839  29.423  1.00  0.00     0.031 C 
ATOM     53  C   UNL A   1      46.124  24.118  27.625  1.00  0.00     0.029 A 
ATOM     54  C   UNL A   1      45.923  25.429  28.023  1.00  0.00     0.049 A 
ATOM     55  H   UNL A   1      44.110  26.461  28.351  1.00  0.00     0.167 HD
ATOM     56  C   UNL A   1      46.608  27.701  28.718  1.00  0.00     0.074 A 
ATOM     57  C   UNL A   1      47.598  28.715  29.013  1.00  0.00     0.031 C 
ATOM     58  C   UNL A   1      46.902  26.438  28.324  1.00  0.00     0.031 A 
BRANCH  45  59
ATOM     59  C   UNL A   1      41.915  22.935  27.371  1.00  0.00    -0.014 A 
ATOM     60  C   UNL A   1      41.820  21.928  28.345  1.00  0.00     0.009 A 
ATOM     61  C   UNL A   1      41.446  22.676  26.074  1.00  0.00     0.009 A 
ATOM     62  C   UNL A   1      41.296  20.676  28.017  1.00  0.00     0.001 A 
ATOM     63  C   UNL A   1      40.900  21.431  25.756  1.00  0.00     0.001 A 
ATOM     64  C   UNL A   1      40.833  20.430  26.725  1.00  0.00     0.000 A 
ENDBRANCH  45  59
BRANCH  46  65
ATOM     65  C   UNL A   1      45.119  31.957  30.004  1.00  0.00    -0.014 A 
ATOM     66  C   UNL A   1      45.346  32.276  31.352  1.00  0.00     0.009 A 
ATOM     67  C   UNL A   1      45.352  32.931  29.023  1.00  0.00     0.009 A 
ATOM     68  C   UNL A   1      45.774  33.556  31.711  1.00  0.00     0.001 A 
ATOM     69  C   UNL A   1      45.804  34.202  29.384  1.00  0.00     0.001 A 
ATOM     70  C   UNL A   1      46.006  34.516  30.727  1.00  0.00     0.000 A 
ENDBRANCH  46  65
BRANCH  58  71
ATOM     71  C   UNL A   1      48.357  26.091  28.167  1.00  0.00    -0.014 A 
ATOM     72  C   UNL A   1      49.023  26.288  26.947  1.00  0.00     0.009 A 
ATOM     73  C   UNL A   1      49.072  25.575  29.257  1.00  0.00     0.009 A 
ATOM     74  C   UNL A   1      50.369  25.937  26.813  1.00  0.00     0.001 A 
ATOM     75  C   UNL A   1      50.423  25.249  29.128  1.00  0.00     0.001 A 
ATOM     76  C   UNL A   1      51.068  25.421  27.903  1.00  0.00     0.000 A 
ENDBRANCH  58  71
ENDBRANCH  32  33
ENDBRANCH  24  27
ENDBRANCH  22  23
ENDBRANCH   1  22
TORSDOF 13
ENDMDL
MODEL 3
REMARK VINA RESULT:     -10.0      3.730      6.994
REMARK SMILES [NH3+][C@H](Cc1cc(F)c(F)c(F)c1)C(=O)NCCCNC(=O)c1ccc(-c2c3nc(c(-c4ccccc4)c4ccc([nH]4)c(-c4ccccc4)c4nc(c(-c5ccccc5)c5ccc2[nH]5)C=C4)C=C3)cc1
REMARK SMILES IDX 17 1 16 2 15 3 13 4 14 5 2 7 1 8 3 12 4 13 5 14 12 15 6 16
REMARK SMILES IDX 10 17 7 18 8 19 11 20 9 21 18 22 19 23 20 24 21 26 22 27
REMARK SMILES IDX 23 28 69 29 24 30 68 31 25 32 26 33 27 34 62 35 28 36 67 37
REMARK SMILES IDX 61 38 63 39 29 40 66 41 60 42 59 43 30 45 52 46 37 47 51 48
REMARK SMILES IDX 38 49 41 50 50 51 64 52 39 53 40 54 49 56 65 57 42 58 31 59
REMARK SMILES IDX 32 60 36 61 33 62 35 63 34 64 53 65 54 66 58 67 55 68 57 69
REMARK SMILES IDX 56 70 43 71 44 72 48 73 45 74 47 75 46 76
REMARK H PARENT 15 6 1 9 1 10 1 11 19 25 63 44 41 55
REMARK Flexibility Score: inf
ROOT
ATOM      1  C   UNL A   1      34.355  34.713  28.784  1.00  0.00     0.042 C 
ENDROOT
BRANCH   1   2
ATOM      2  C   UNL A   1      32.948  35.274  28.984  1.00  0.00     0.118 C 
BRANCH   2   3
ATOM      3  N   UNL A   1      32.909  36.484  29.786  1.00  0.00    -0.351 N 
ATOM      4  C   UNL A   1      32.985  36.737  31.119  1.00  0.00     0.278 C 
ATOM      5  O   UNL A   1      32.945  37.934  31.441  1.00  0.00    -0.268 OA
ATOM      6  H   UNL A   1      32.803  37.300  29.245  1.00  0.00     0.163 HD
BRANCH   4   7
ATOM      7  C   UNL A   1      33.023  35.667  32.228  1.00  0.00     0.275 C 
BRANCH   7   8
ATOM      8  N   UNL A   1      31.677  35.207  32.634  1.00  0.00    -0.347 N 
ATOM      9  H   UNL A   1      31.662  34.188  32.670  1.00  0.00     0.345 HD
ATOM     10  H   UNL A   1      30.988  35.533  31.955  1.00  0.00     0.345 HD
ATOM     11  H   UNL A   1      31.452  35.585  33.554  1.00  0.00     0.345 HD
ENDBRANCH   7   8
BRANCH   7  12
ATOM     12  C   UNL A   1      33.980  35.920  33.422  1.00  0.00     0.111 C 
BRANCH  12  13
ATOM     13  C   UNL A   1      35.270  35.142  33.548  1.00  0.00    -0.036 A 
ATOM     14  C   UNL A   1      36.246  35.212  32.537  1.00  0.00     0.046 A 
ATOM     15  C   UNL A   1      35.563  34.397  34.702  1.00  0.00     0.046 A 
ATOM     16  C   UNL A   1      37.444  34.504  32.663  1.00  0.00     0.162 A 
ATOM     17  C   UNL A   1      36.756  33.682  34.802  1.00  0.00     0.162 A 
ATOM     18  F   UNL A   1      38.343  34.563  31.671  1.00  0.00    -0.204 F 
ATOM     19  C   UNL A   1      37.695  33.728  33.784  1.00  0.00     0.194 A 
ATOM     20  F   UNL A   1      36.975  32.925  35.885  1.00  0.00    -0.204 F 
ATOM     21  F   UNL A   1      38.824  33.013  33.876  1.00  0.00    -0.200 F 
ENDBRANCH  12  13
ENDBRANCH   7  12
ENDBRANCH   4   7
ENDBRANCH   2   3
ENDBRANCH   1   2
BRANCH   1  22
ATOM     22  C   UNL A   1      34.526  33.223  29.082  1.00  0.00     0.118 C 
BRANCH  22  23
ATOM     23  N   UNL A   1      34.348  32.918  30.489  1.00  0.00    -0.352 N 
ATOM     24  C   UNL A   1      35.111  32.148  31.331  1.00  0.00     0.251 C 
ATOM     25  H   UNL A   1      33.556  33.328  30.906  1.00  0.00     0.163 HD
ATOM     26  O   UNL A   1      34.658  31.868  32.444  1.00  0.00    -0.269 OA
BRANCH  24  27
ATOM     27  C   UNL A   1      36.451  31.630  30.950  1.00  0.00     0.039 A 
ATOM     28  C   UNL A   1      36.915  31.906  29.658  1.00  0.00     0.014 A 
ATOM     29  C   UNL A   1      37.212  30.801  31.783  1.00  0.00     0.014 A 
ATOM     30  C   UNL A   1      38.128  31.372  29.210  1.00  0.00     0.010 A 
ATOM     31  C   UNL A   1      38.453  30.309  31.352  1.00  0.00     0.010 A 
ATOM     32  C   UNL A   1      38.914  30.569  30.052  1.00  0.00    -0.014 A 
BRANCH  32  33
ATOM     33  C   UNL A   1      40.194  30.000  29.545  1.00  0.00     0.031 A 
ATOM     34  C   UNL A   1      40.248  28.622  28.942  1.00  0.00     0.074 A 
ATOM     35  C   UNL A   1      41.319  30.741  29.590  1.00  0.00     0.049 A 
ATOM     36  N   UNL A   1      41.244  28.029  28.326  1.00  0.00    -0.248 NA
ATOM     37  C   UNL A   1      39.036  27.797  29.050  1.00  0.00     0.031 C 
ATOM     38  C   UNL A   1      41.433  32.074  30.182  1.00  0.00     0.029 A 
ATOM     39  N   UNL A   1      42.580  30.480  29.108  1.00  0.00    -0.354 N 
ATOM     40  C   UNL A   1      40.779  26.768  27.976  1.00  0.00     0.074 A 
ATOM     41  C   UNL A   1      39.427  26.663  28.486  1.00  0.00     0.031 C 
ATOM     42  C   UNL A   1      42.681  32.532  29.992  1.00  0.00     0.029 A 
ATOM     43  C   UNL A   1      43.458  31.522  29.278  1.00  0.00     0.049 A 
ATOM     44  H   UNL A   1      42.829  29.629  28.682  1.00  0.00     0.167 HD
ATOM     45  C   UNL A   1      41.405  25.789  27.278  1.00  0.00     0.031 A 
ATOM     46  C   UNL A   1      44.739  31.664  28.886  1.00  0.00     0.031 A 
ATOM     47  C   UNL A   1      42.747  25.876  26.763  1.00  0.00     0.049 A 
ATOM     48  C   UNL A   1      45.409  30.571  28.101  1.00  0.00     0.074 A 
ATOM     49  C   UNL A   1      43.440  24.951  25.999  1.00  0.00     0.029 A 
ATOM     50  N   UNL A   1      43.602  26.947  26.965  1.00  0.00    -0.354 N 
ATOM     51  N   UNL A   1      44.923  29.424  27.701  1.00  0.00    -0.248 NA
ATOM     52  C   UNL A   1      46.803  30.810  27.695  1.00  0.00     0.031 C 
ATOM     53  C   UNL A   1      44.730  25.446  25.772  1.00  0.00     0.029 A 
ATOM     54  C   UNL A   1      44.823  26.698  26.356  1.00  0.00     0.049 A 
ATOM     55  H   UNL A   1      43.376  27.764  27.465  1.00  0.00     0.167 HD
ATOM     56  C   UNL A   1      45.940  28.814  26.978  1.00  0.00     0.074 A 
ATOM     57  C   UNL A   1      47.063  29.727  26.979  1.00  0.00     0.031 C 
ATOM     58  C   UNL A   1      45.939  27.605  26.366  1.00  0.00     0.031 A 
BRANCH  45  59
ATOM     59  C   UNL A   1      40.637  24.522  27.026  1.00  0.00    -0.014 A 
ATOM     60  C   UNL A   1      41.089  23.292  27.530  1.00  0.00     0.009 A 
ATOM     61  C   UNL A   1      39.426  24.565  26.318  1.00  0.00     0.009 A 
ATOM     62  C   UNL A   1      40.358  22.124  27.301  1.00  0.00     0.001 A 
ATOM     63  C   UNL A   1      38.686  23.399  26.112  1.00  0.00     0.001 A 
ATOM     64  C   UNL A   1      39.156  22.179  26.596  1.00  0.00     0.000 A 
ENDBRANCH  45  59
BRANCH  46  65
ATOM     65  C   UNL A   1      45.470  32.921  29.191  1.00  0.00    -0.014 A 
ATOM     66  C   UNL A   1      46.200  33.046  30.383  1.00  0.00     0.009 A 
ATOM     67  C   UNL A   1      45.429  34.002  28.299  1.00  0.00     0.009 A 
ATOM     68  C   UNL A   1      46.856  34.241  30.686  1.00  0.00     0.001 A 
ATOM     69  C   UNL A   1      46.106  35.187  28.595  1.00  0.00     0.001 A 
ATOM     70  C   UNL A   1      46.811  35.308  29.791  1.00  0.00     0.000 A 
ENDBRANCH  46  65
BRANCH  58  71
ATOM     71  C   UNL A   1      47.186  27.211  25.625  1.00  0.00    -0.014 A 
ATOM     72  C   UNL A   1      48.201  26.471  26.252  1.00  0.00     0.009 A 
ATOM     73  C   UNL A   1      47.340  27.572  24.279  1.00  0.00     0.009 A 
ATOM     74  C   UNL A   1      49.363  26.133  25.555  1.00  0.00     0.001 A 
ATOM     75  C   UNL A   1      48.492  27.211  23.576  1.00  0.00     0.001 A 
ATOM     76  C   UNL A   1      49.507  26.502  24.218  1.00  0.00     0.000 A 
ENDBRANCH  58  71
ENDBRANCH  32  33
ENDBRANCH  24  27
ENDBRANCH  22  23
ENDBRANCH   1  22
TORSDOF 13
ENDMDL
