MODEL 1
REMARK VINA RESULT:      -9.7      0.000      0.000
REMARK SMILES C[C@@H](C(=O)NCCCNC(=O)c1ccc(-c2c3nc(c(-c4ccccc4)c4ccc([nH]4)c(-c4ccccc4)c4nc(c(-c5ccccc5)c5ccc2[nH]5)C=C4)C=C3)cc1)c1ccc(-c2cccc(OC(=O)NCCC3CCCCC3)c2)c(F)c1
REMARK SMILES IDX 1 1 2 2 3 3 4 4 5 5 6 7 7 8 8 9 9 10 10 11 11 13 12 14 13 15
REMARK SMILES IDX 59 16 14 17 58 18 15 19 16 20 17 21 52 22 18 23 57 24 51 25
REMARK SMILES IDX 53 26 19 27 56 28 50 29 49 30 20 32 42 33 27 34 41 35 28 36
REMARK SMILES IDX 31 37 40 38 54 39 29 40 30 41 39 43 55 44 32 45 21 46 22 47
REMARK SMILES IDX 26 48 23 49 25 50 24 51 43 52 44 53 48 54 45 55 47 56 46 57
REMARK SMILES IDX 33 58 34 59 38 60 35 61 37 62 36 63 60 64 61 65 84 66 62 67
REMARK SMILES IDX 82 68 63 69 83 70 64 71 65 72 81 73 66 74 68 75 67 76 69 77
REMARK SMILES IDX 70 78 71 79 72 80 73 82 74 83 75 84 76 85 80 86 77 87 79 88
REMARK SMILES IDX 78 89
REMARK H PARENT 5 6 9 12 53 31 31 42 72 81
REMARK Flexibility Score: inf
ROOT
ATOM      1  C   UNL A   1      38.029  32.929  30.068  1.00  0.00     0.023 C 
ATOM      2  C   UNL A   1      37.240  31.649  30.370  1.00  0.00     0.105 C 
ENDROOT
BRANCH   2   3
ATOM      3  C   UNL A   1      35.751  31.824  30.018  1.00  0.00     0.227 C 
ATOM      4  O   UNL A   1      35.315  31.763  28.866  1.00  0.00    -0.274 OA
ATOM      5  N   UNL A   1      34.828  32.016  31.005  1.00  0.00    -0.356 N 
ATOM      6  H   UNL A   1      33.891  31.942  30.712  1.00  0.00     0.163 HD
BRANCH   5   7
ATOM      7  C   UNL A   1      35.004  32.308  32.413  1.00  0.00     0.117 C 
BRANCH   7   8
ATOM      8  C   UNL A   1      35.138  33.812  32.649  1.00  0.00     0.042 C 
BRANCH   8   9
ATOM      9  C   UNL A   1      36.466  34.226  33.277  1.00  0.00     0.118 C 
BRANCH   9  10
ATOM     10  N   UNL A   1      36.614  33.734  34.638  1.00  0.00    -0.352 N 
ATOM     11  C   UNL A   1      37.485  32.808  35.156  1.00  0.00     0.251 C 
ATOM     12  H   UNL A   1      35.991  34.127  35.291  1.00  0.00     0.163 HD
ATOM     13  O   UNL A   1      37.303  32.374  36.290  1.00  0.00    -0.269 OA
BRANCH  11  14
ATOM     14  C   UNL A   1      38.621  32.308  34.352  1.00  0.00     0.039 A 
ATOM     15  C   UNL A   1      39.821  33.025  34.373  1.00  0.00     0.014 A 
ATOM     16  C   UNL A   1      38.508  31.158  33.567  1.00  0.00     0.014 A 
ATOM     17  C   UNL A   1      40.931  32.541  33.679  1.00  0.00     0.010 A 
ATOM     18  C   UNL A   1      39.635  30.638  32.932  1.00  0.00     0.010 A 
ATOM     19  C   UNL A   1      40.863  31.315  32.996  1.00  0.00    -0.014 A 
BRANCH  19  20
ATOM     20  C   UNL A   1      42.081  30.699  32.410  1.00  0.00     0.031 A 
ATOM     21  C   UNL A   1      42.712  31.261  31.166  1.00  0.00     0.074 A 
ATOM     22  C   UNL A   1      42.582  29.580  32.973  1.00  0.00     0.049 A 
ATOM     23  N   UNL A   1      43.742  30.814  30.493  1.00  0.00    -0.248 NA
ATOM     24  C   UNL A   1      42.099  32.469  30.592  1.00  0.00     0.031 C 
ATOM     25  C   UNL A   1      42.041  28.914  34.161  1.00  0.00     0.029 A 
ATOM     26  N   UNL A   1      43.653  28.798  32.618  1.00  0.00    -0.354 N 
ATOM     27  C   UNL A   1      43.894  31.675  29.414  1.00  0.00     0.074 A 
ATOM     28  C   UNL A   1      42.829  32.652  29.500  1.00  0.00     0.031 C 
ATOM     29  C   UNL A   1      42.794  27.841  34.447  1.00  0.00     0.029 A 
ATOM     30  C   UNL A   1      43.837  27.710  33.437  1.00  0.00     0.049 A 
ATOM     31  H   UNL A   1      44.234  28.998  31.849  1.00  0.00     0.167 HD
ATOM     32  C   UNL A   1      44.841  31.658  28.446  1.00  0.00     0.031 A 
ATOM     33  C   UNL A   1      44.731  26.704  33.373  1.00  0.00     0.031 A 
ATOM     34  C   UNL A   1      45.902  30.688  28.364  1.00  0.00     0.049 A 
ATOM     35  C   UNL A   1      45.742  26.694  32.260  1.00  0.00     0.074 A 
ATOM     36  C   UNL A   1      46.948  30.634  27.457  1.00  0.00     0.029 A 
ATOM     37  N   UNL A   1      46.048  29.599  29.207  1.00  0.00    -0.354 N 
ATOM     38  N   UNL A   1      45.927  27.570  31.304  1.00  0.00    -0.248 NA
ATOM     39  C   UNL A   1      46.672  25.555  32.223  1.00  0.00     0.031 C 
ATOM     40  C   UNL A   1      47.684  29.473  27.707  1.00  0.00     0.029 A 
ATOM     41  C   UNL A   1      47.139  28.841  28.812  1.00  0.00     0.049 A 
ATOM     42  H   UNL A   1      45.464  29.393  29.973  1.00  0.00     0.167 HD
ATOM     43  C   UNL A   1      47.007  27.100  30.565  1.00  0.00     0.074 A 
ATOM     44  C   UNL A   1      47.453  25.880  31.203  1.00  0.00     0.031 C 
ATOM     45  C   UNL A   1      47.572  27.628  29.454  1.00  0.00     0.031 A 
BRANCH  32  46
ATOM     46  C   UNL A   1      44.779  32.712  27.375  1.00  0.00    -0.014 A 
ATOM     47  C   UNL A   1      45.462  33.931  27.513  1.00  0.00     0.009 A 
ATOM     48  C   UNL A   1      44.110  32.440  26.171  1.00  0.00     0.009 A 
ATOM     49  C   UNL A   1      45.461  34.862  26.471  1.00  0.00     0.001 A 
ATOM     50  C   UNL A   1      44.132  33.361  25.122  1.00  0.00     0.001 A 
ATOM     51  C   UNL A   1      44.805  34.573  25.275  1.00  0.00     0.000 A 
ENDBRANCH  32  46
BRANCH  33  52
ATOM     52  C   UNL A   1      44.700  25.600  34.371  1.00  0.00    -0.014 A 
ATOM     53  C   UNL A   1      43.887  24.475  34.171  1.00  0.00     0.009 A 
ATOM     54  C   UNL A   1      45.451  25.690  35.555  1.00  0.00     0.009 A 
ATOM     55  C   UNL A   1      43.787  23.487  35.154  1.00  0.00     0.001 A 
ATOM     56  C   UNL A   1      45.380  24.683  36.519  1.00  0.00     0.001 A 
ATOM     57  C   UNL A   1      44.536  23.591  36.325  1.00  0.00     0.000 A 
ENDBRANCH  33  52
BRANCH  45  58
ATOM     58  C   UNL A   1      48.750  26.900  28.870  1.00  0.00    -0.014 A 
ATOM     59  C   UNL A   1      50.062  27.192  29.277  1.00  0.00     0.009 A 
ATOM     60  C   UNL A   1      48.542  25.881  27.926  1.00  0.00     0.009 A 
ATOM     61  C   UNL A   1      51.143  26.503  28.723  1.00  0.00     0.001 A 
ATOM     62  C   UNL A   1      49.623  25.171  27.400  1.00  0.00     0.001 A 
ATOM     63  C   UNL A   1      50.923  25.490  27.791  1.00  0.00     0.000 A 
ENDBRANCH  45  58
ENDBRANCH  19  20
ENDBRANCH  11  14
ENDBRANCH   9  10
ENDBRANCH   8   9
ENDBRANCH   7   8
ENDBRANCH   5   7
ENDBRANCH   2   3
BRANCH   2  64
ATOM     64  C   UNL A   1      37.831  30.409  29.694  1.00  0.00    -0.033 A 
ATOM     65  C   UNL A   1      37.876  29.187  30.392  1.00  0.00     0.005 A 
ATOM     66  C   UNL A   1      38.339  30.435  28.390  1.00  0.00     0.044 A 
ATOM     67  C   UNL A   1      38.417  28.035  29.805  1.00  0.00     0.012 A 
ATOM     68  C   UNL A   1      38.885  29.292  27.818  1.00  0.00     0.131 A 
ATOM     69  C   UNL A   1      38.948  28.076  28.509  1.00  0.00     0.018 A 
ATOM     70  F   UNL A   1      39.382  29.391  26.575  1.00  0.00    -0.206 F 
BRANCH  69  71
ATOM     71  C   UNL A   1      39.642  26.927  27.921  1.00  0.00    -0.012 A 
ATOM     72  C   UNL A   1      39.443  25.613  28.361  1.00  0.00     0.009 A 
ATOM     73  C   UNL A   1      40.539  27.153  26.864  1.00  0.00     0.056 A 
ATOM     74  C   UNL A   1      40.115  24.551  27.744  1.00  0.00     0.004 A 
ATOM     75  C   UNL A   1      41.224  26.104  26.263  1.00  0.00     0.133 A 
ATOM     76  C   UNL A   1      41.005  24.797  26.694  1.00  0.00     0.047 A 
BRANCH  75  77
ATOM     77  O   UNL A   1      42.156  26.273  25.210  1.00  0.00    -0.410 OA
BRANCH  77  78
ATOM     78  C   UNL A   1      42.799  27.472  24.905  1.00  0.00     0.412 C 
ATOM     79  O   UNL A   1      42.271  28.548  24.647  1.00  0.00    -0.224 OA
ATOM     80  N   UNL A   1      44.159  27.396  24.936  1.00  0.00    -0.321 N 
ATOM     81  H   UNL A   1      44.640  28.238  24.765  1.00  0.00     0.167 HD
BRANCH  80  82
ATOM     82  C   UNL A   1      44.982  26.237  25.187  1.00  0.00     0.119 C 
BRANCH  82  83
ATOM     83  C   UNL A   1      45.464  26.205  26.638  1.00  0.00     0.025 C 
BRANCH  83  84
ATOM     84  C   UNL A   1      44.612  25.323  27.579  1.00  0.00    -0.009 C 
ATOM     85  C   UNL A   1      45.426  24.158  28.169  1.00  0.00     0.003 C 
ATOM     86  C   UNL A   1      44.007  26.186  28.698  1.00  0.00     0.003 C 
ATOM     87  C   UNL A   1      44.614  23.339  29.172  1.00  0.00     0.000 C 
ATOM     88  C   UNL A   1      43.189  25.350  29.680  1.00  0.00     0.000 C 
ATOM     89  C   UNL A   1      44.019  24.215  30.268  1.00  0.00     0.000 C 
ENDBRANCH  83  84
ENDBRANCH  82  83
ENDBRANCH  80  82
ENDBRANCH  77  78
ENDBRANCH  75  77
ENDBRANCH  69  71
ENDBRANCH   2  64
TORSDOF 17
ENDMDL
MODEL 2
REMARK VINA RESULT:      -9.7      2.814      6.402
REMARK SMILES C[C@@H](C(=O)NCCCNC(=O)c1ccc(-c2c3nc(c(-c4ccccc4)c4ccc([nH]4)c(-c4ccccc4)c4nc(c(-c5ccccc5)c5ccc2[nH]5)C=C4)C=C3)cc1)c1ccc(-c2cccc(OC(=O)NCCC3CCCCC3)c2)c(F)c1
REMARK SMILES IDX 1 1 2 2 3 3 4 4 5 5 6 7 7 8 8 9 9 10 10 11 11 13 12 14 13 15
REMARK SMILES IDX 59 16 14 17 58 18 15 19 16 20 17 21 52 22 18 23 57 24 51 25
REMARK SMILES IDX 53 26 19 27 56 28 50 29 49 30 20 32 42 33 27 34 41 35 28 36
REMARK SMILES IDX 31 37 40 38 54 39 29 40 30 41 39 43 55 44 32 45 21 46 22 47
REMARK SMILES IDX 26 48 23 49 25 50 24 51 43 52 44 53 48 54 45 55 47 56 46 57
REMARK SMILES IDX 33 58 34 59 38 60 35 61 37 62 36 63 60 64 61 65 84 66 62 67
REMARK SMILES IDX 82 68 63 69 83 70 64 71 65 72 81 73 66 74 68 75 67 76 69 77
REMARK SMILES IDX 70 78 71 79 72 80 73 82 74 83 75 84 76 85 80 86 77 87 79 88
REMARK SMILES IDX 78 89
REMARK H PARENT 5 6 9 12 53 31 31 42 72 81
REMARK Flexibility Score: inf
ROOT
ATOM      1  C   UNL A   1      35.892  33.056  34.149  1.00  0.00     0.023 C 
ATOM      2  C   UNL A   1      36.767  32.867  32.903  1.00  0.00     0.105 C 
ENDROOT
BRANCH   2   3
ATOM      3  C   UNL A   1      37.285  34.221  32.383  1.00  0.00     0.227 C 
ATOM      4  O   UNL A   1      37.533  35.179  33.119  1.00  0.00    -0.274 OA
ATOM      5  N   UNL A   1      37.536  34.398  31.054  1.00  0.00    -0.356 N 
ATOM      6  H   UNL A   1      38.026  35.223  30.833  1.00  0.00     0.163 HD
BRANCH   5   7
ATOM      7  C   UNL A   1      37.201  33.567  29.915  1.00  0.00     0.117 C 
BRANCH   7   8
ATOM      8  C   UNL A   1      35.726  33.714  29.543  1.00  0.00     0.042 C 
BRANCH   8   9
ATOM      9  C   UNL A   1      35.413  33.359  28.091  1.00  0.00     0.118 C 
BRANCH   9  10
ATOM     10  N   UNL A   1      34.391  32.330  27.979  1.00  0.00    -0.352 N 
ATOM     11  C   UNL A   1      34.512  30.964  27.911  1.00  0.00     0.251 C 
ATOM     12  H   UNL A   1      33.467  32.666  27.945  1.00  0.00     0.163 HD
ATOM     13  O   UNL A   1      33.537  30.285  27.602  1.00  0.00    -0.269 OA
BRANCH  11  14
ATOM     14  C   UNL A   1      35.809  30.308  28.181  1.00  0.00     0.039 A 
ATOM     15  C   UNL A   1      36.752  30.242  27.152  1.00  0.00     0.014 A 
ATOM     16  C   UNL A   1      36.095  29.742  29.427  1.00  0.00     0.014 A 
ATOM     17  C   UNL A   1      38.010  29.689  27.396  1.00  0.00     0.010 A 
ATOM     18  C   UNL A   1      37.374  29.255  29.691  1.00  0.00     0.010 A 
ATOM     19  C   UNL A   1      38.351  29.240  28.683  1.00  0.00    -0.014 A 
BRANCH  19  20
ATOM     20  C   UNL A   1      39.740  28.821  29.003  1.00  0.00     0.031 A 
ATOM     21  C   UNL A   1      40.717  29.783  29.621  1.00  0.00     0.074 A 
ATOM     22  C   UNL A   1      40.140  27.577  28.668  1.00  0.00     0.049 A 
ATOM     23  N   UNL A   1      41.979  29.598  29.912  1.00  0.00    -0.248 NA
ATOM     24  C   UNL A   1      40.218  31.131  29.938  1.00  0.00     0.031 C 
ATOM     25  C   UNL A   1      39.299  26.560  28.030  1.00  0.00     0.029 A 
ATOM     26  N   UNL A   1      41.357  26.956  28.808  1.00  0.00    -0.354 N 
ATOM     27  C   UNL A   1      42.430  30.804  30.434  1.00  0.00     0.074 A 
ATOM     28  C   UNL A   1      41.315  31.727  30.387  1.00  0.00     0.031 C 
ATOM     29  C   UNL A   1      40.018  25.439  27.855  1.00  0.00     0.029 A 
ATOM     30  C   UNL A   1      41.380  25.672  28.318  1.00  0.00     0.049 A 
ATOM     31  H   UNL A   1      42.137  27.390  29.221  1.00  0.00     0.167 HD
ATOM     32  C   UNL A   1      43.657  31.110  30.916  1.00  0.00     0.031 A 
ATOM     33  C   UNL A   1      42.390  24.785  28.230  1.00  0.00     0.031 A 
ATOM     34  C   UNL A   1      44.764  30.190  30.966  1.00  0.00     0.049 A 
ATOM     35  C   UNL A   1      43.752  25.174  28.737  1.00  0.00     0.074 A 
ATOM     36  C   UNL A   1      46.025  30.392  31.502  1.00  0.00     0.029 A 
ATOM     37  N   UNL A   1      44.750  28.904  30.453  1.00  0.00    -0.354 N 
ATOM     38  N   UNL A   1      44.132  26.287  29.314  1.00  0.00    -0.248 NA
ATOM     39  C   UNL A   1      44.822  24.178  28.585  1.00  0.00     0.031 C 
ATOM     40  C   UNL A   1      46.796  29.255  31.249  1.00  0.00     0.029 A 
ATOM     41  C   UNL A   1      45.994  28.318  30.618  1.00  0.00     0.049 A 
ATOM     42  H   UNL A   1      43.971  28.471  30.033  1.00  0.00     0.167 HD
ATOM     43  C   UNL A   1      45.479  26.117  29.612  1.00  0.00     0.074 A 
ATOM     44  C   UNL A   1      45.839  24.783  29.181  1.00  0.00     0.031 C 
ATOM     45  C   UNL A   1      46.341  26.991  30.184  1.00  0.00     0.031 A 
BRANCH  32  46
ATOM     46  C   UNL A   1      43.891  32.506  31.425  1.00  0.00    -0.014 A 
ATOM     47  C   UNL A   1      43.731  32.823  32.783  1.00  0.00     0.009 A 
ATOM     48  C   UNL A   1      44.373  33.493  30.550  1.00  0.00     0.009 A 
ATOM     49  C   UNL A   1      44.034  34.105  33.250  1.00  0.00     0.001 A 
ATOM     50  C   UNL A   1      44.701  34.764  31.023  1.00  0.00     0.001 A 
ATOM     51  C   UNL A   1      44.527  35.070  32.372  1.00  0.00     0.000 A 
ENDBRANCH  32  46
BRANCH  33  52
ATOM     52  C   UNL A   1      42.173  23.450  27.610  1.00  0.00    -0.014 A 
ATOM     53  C   UNL A   1      41.675  22.380  28.367  1.00  0.00     0.009 A 
ATOM     54  C   UNL A   1      42.511  23.227  26.264  1.00  0.00     0.009 A 
ATOM     55  C   UNL A   1      41.563  21.105  27.806  1.00  0.00     0.001 A 
ATOM     56  C   UNL A   1      42.362  21.961  25.695  1.00  0.00     0.001 A 
ATOM     57  C   UNL A   1      41.904  20.897  26.471  1.00  0.00     0.000 A 
ENDBRANCH  33  52
BRANCH  45  58
ATOM     58  C   UNL A   1      47.753  26.522  30.398  1.00  0.00    -0.014 A 
ATOM     59  C   UNL A   1      48.158  25.964  31.621  1.00  0.00     0.009 A 
ATOM     60  C   UNL A   1      48.682  26.606  29.348  1.00  0.00     0.009 A 
ATOM     61  C   UNL A   1      49.474  25.533  31.799  1.00  0.00     0.001 A 
ATOM     62  C   UNL A   1      49.988  26.143  29.519  1.00  0.00     0.001 A 
ATOM     63  C   UNL A   1      50.386  25.617  30.747  1.00  0.00     0.000 A 
ENDBRANCH  45  58
ENDBRANCH  19  20
ENDBRANCH  11  14
ENDBRANCH   9  10
ENDBRANCH   8   9
ENDBRANCH   7   8
ENDBRANCH   5   7
ENDBRANCH   2   3
BRANCH   2  64
ATOM     64  C   UNL A   1      37.914  31.877  33.124  1.00  0.00    -0.033 A 
ATOM     65  C   UNL A   1      37.727  30.513  32.831  1.00  0.00     0.005 A 
ATOM     66  C   UNL A   1      39.165  32.274  33.612  1.00  0.00     0.044 A 
ATOM     67  C   UNL A   1      38.755  29.580  33.028  1.00  0.00     0.012 A 
ATOM     68  C   UNL A   1      40.176  31.342  33.816  1.00  0.00     0.131 A 
ATOM     69  C   UNL A   1      39.994  29.982  33.542  1.00  0.00     0.018 A 
ATOM     70  F   UNL A   1      41.342  31.784  34.314  1.00  0.00    -0.206 F 
BRANCH  69  71
ATOM     71  C   UNL A   1      41.039  29.013  33.887  1.00  0.00    -0.012 A 
ATOM     72  C   UNL A   1      41.917  28.474  32.939  1.00  0.00     0.009 A 
ATOM     73  C   UNL A   1      41.170  28.615  35.227  1.00  0.00     0.056 A 
ATOM     74  C   UNL A   1      42.912  27.571  33.331  1.00  0.00     0.004 A 
ATOM     75  C   UNL A   1      42.143  27.703  35.616  1.00  0.00     0.133 A 
ATOM     76  C   UNL A   1      43.026  27.186  34.670  1.00  0.00     0.047 A 
BRANCH  75  77
ATOM     77  O   UNL A   1      42.309  27.247  36.948  1.00  0.00    -0.410 OA
BRANCH  77  78
ATOM     78  C   UNL A   1      41.773  26.063  37.452  1.00  0.00     0.412 C 
ATOM     79  O   UNL A   1      40.598  25.839  37.719  1.00  0.00    -0.224 OA
ATOM     80  N   UNL A   1      42.688  25.068  37.623  1.00  0.00    -0.321 N 
ATOM     81  H   UNL A   1      42.332  24.207  37.940  1.00  0.00     0.167 HD
BRANCH  80  82
ATOM     82  C   UNL A   1      44.114  25.120  37.400  1.00  0.00     0.119 C 
BRANCH  82  83
ATOM     83  C   UNL A   1      44.669  23.739  37.048  1.00  0.00     0.025 C 
BRANCH  83  84
ATOM     84  C   UNL A   1      44.853  23.488  35.534  1.00  0.00    -0.009 C 
ATOM     85  C   UNL A   1      43.521  23.161  34.838  1.00  0.00     0.003 C 
ATOM     86  C   UNL A   1      45.524  24.708  34.881  1.00  0.00     0.003 C 
ATOM     87  C   UNL A   1      43.684  23.006  33.327  1.00  0.00     0.000 C 
ATOM     88  C   UNL A   1      45.689  24.525  33.374  1.00  0.00     0.000 C 
ATOM     89  C   UNL A   1      44.355  24.223  32.701  1.00  0.00     0.000 C 
ENDBRANCH  83  84
ENDBRANCH  82  83
ENDBRANCH  80  82
ENDBRANCH  77  78
ENDBRANCH  75  77
ENDBRANCH  69  71
ENDBRANCH   2  64
TORSDOF 17
ENDMDL
MODEL 3
REMARK VINA RESULT:      -9.6      2.324      8.959
REMARK SMILES C[C@@H](C(=O)NCCCNC(=O)c1ccc(-c2c3nc(c(-c4ccccc4)c4ccc([nH]4)c(-c4ccccc4)c4nc(c(-c5ccccc5)c5ccc2[nH]5)C=C4)C=C3)cc1)c1ccc(-c2cccc(OC(=O)NCCC3CCCCC3)c2)c(F)c1
REMARK SMILES IDX 1 1 2 2 3 3 4 4 5 5 6 7 7 8 8 9 9 10 10 11 11 13 12 14 13 15
REMARK SMILES IDX 59 16 14 17 58 18 15 19 16 20 17 21 52 22 18 23 57 24 51 25
REMARK SMILES IDX 53 26 19 27 56 28 50 29 49 30 20 32 42 33 27 34 41 35 28 36
REMARK SMILES IDX 31 37 40 38 54 39 29 40 30 41 39 43 55 44 32 45 21 46 22 47
REMARK SMILES IDX 26 48 23 49 25 50 24 51 43 52 44 53 48 54 45 55 47 56 46 57
REMARK SMILES IDX 33 58 34 59 38 60 35 61 37 62 36 63 60 64 61 65 84 66 62 67
REMARK SMILES IDX 82 68 63 69 83 70 64 71 65 72 81 73 66 74 68 75 67 76 69 77
REMARK SMILES IDX 70 78 71 79 72 80 73 82 74 83 75 84 76 85 80 86 77 87 79 88
REMARK SMILES IDX 78 89
REMARK H PARENT 5 6 9 12 53 31 31 42 72 81
REMARK Flexibility Score: inf
ROOT
ATOM      1  C   UNL A   1      43.010  22.985  28.760  1.00  0.00     0.023 C 
ATOM      2  C   UNL A   1      42.477  23.746  27.539  1.00  0.00     0.105 C 
ENDROOT
BRANCH   2   3
ATOM      3  C   UNL A   1      41.864  22.777  26.511  1.00  0.00     0.227 C 
ATOM      4  O   UNL A   1      40.925  22.021  26.769  1.00  0.00    -0.274 OA
ATOM      5  N   UNL A   1      42.326  22.753  25.227  1.00  0.00    -0.356 N 
ATOM      6  H   UNL A   1      41.769  22.239  24.599  1.00  0.00     0.163 HD
BRANCH   5   7
ATOM      7  C   UNL A   1      43.502  23.362  24.639  1.00  0.00     0.117 C 
BRANCH   7   8
ATOM      8  C   UNL A   1      44.764  22.576  24.994  1.00  0.00     0.042 C 
BRANCH   8   9
ATOM      9  C   UNL A   1      45.774  23.366  25.822  1.00  0.00     0.118 C 
BRANCH   9  10
ATOM     10  N   UNL A   1      46.691  24.134  24.994  1.00  0.00    -0.352 N 
ATOM     11  C   UNL A   1      46.910  25.489  24.936  1.00  0.00     0.251 C 
ATOM     12  H   UNL A   1      47.241  23.599  24.378  1.00  0.00     0.163 HD
ATOM     13  O   UNL A   1      47.574  25.955  24.014  1.00  0.00    -0.269 OA
BRANCH  11  14
ATOM     14  C   UNL A   1      46.331  26.391  25.954  1.00  0.00     0.039 A 
ATOM     15  C   UNL A   1      44.948  26.594  25.958  1.00  0.00     0.014 A 
ATOM     16  C   UNL A   1      47.137  27.050  26.887  1.00  0.00     0.014 A 
ATOM     17  C   UNL A   1      44.366  27.386  26.949  1.00  0.00     0.010 A 
ATOM     18  C   UNL A   1      46.549  27.782  27.917  1.00  0.00     0.010 A 
ATOM     19  C   UNL A   1      45.156  27.943  27.969  1.00  0.00    -0.014 A 
BRANCH  19  20
ATOM     20  C   UNL A   1      44.532  28.632  29.129  1.00  0.00     0.031 A 
ATOM     21  C   UNL A   1      44.150  30.084  29.054  1.00  0.00     0.074 A 
ATOM     22  C   UNL A   1      44.370  27.950  30.282  1.00  0.00     0.049 A 
ATOM     23  N   UNL A   1      43.648  30.850  29.989  1.00  0.00    -0.248 NA
ATOM     24  C   UNL A   1      44.376  30.770  27.772  1.00  0.00     0.031 C 
ATOM     25  C   UNL A   1      44.734  26.547  30.495  1.00  0.00     0.029 A 
ATOM     26  N   UNL A   1      43.868  28.348  31.497  1.00  0.00    -0.354 N 
ATOM     27  C   UNL A   1      43.509  32.108  29.416  1.00  0.00     0.074 A 
ATOM     28  C   UNL A   1      44.012  32.013  28.062  1.00  0.00     0.031 C 
ATOM     29  C   UNL A   1      44.422  26.196  31.753  1.00  0.00     0.029 A 
ATOM     30  C   UNL A   1      43.888  27.359  32.451  1.00  0.00     0.049 A 
ATOM     31  H   UNL A   1      43.525  29.254  31.667  1.00  0.00     0.167 HD
ATOM     32  C   UNL A   1      42.999  33.236  29.966  1.00  0.00     0.031 A 
ATOM     33  C   UNL A   1      43.537  27.387  33.751  1.00  0.00     0.031 A 
ATOM     34  C   UNL A   1      42.495  33.328  31.311  1.00  0.00     0.049 A 
ATOM     35  C   UNL A   1      43.014  28.668  34.340  1.00  0.00     0.074 A 
ATOM     36  C   UNL A   1      41.896  34.412  31.931  1.00  0.00     0.029 A 
ATOM     37  N   UNL A   1      42.541  32.309  32.247  1.00  0.00    -0.354 N 
ATOM     38  N   UNL A   1      42.802  29.821  33.754  1.00  0.00    -0.248 NA
ATOM     39  C   UNL A   1      42.677  28.649  35.771  1.00  0.00     0.031 C 
ATOM     40  C   UNL A   1      41.645  34.072  33.263  1.00  0.00     0.029 A 
ATOM     41  C   UNL A   1      42.024  32.753  33.453  1.00  0.00     0.049 A 
ATOM     42  H   UNL A   1      42.890  31.402  32.080  1.00  0.00     0.167 HD
ATOM     43  C   UNL A   1      42.287  30.656  34.739  1.00  0.00     0.074 A 
ATOM     44  C   UNL A   1      42.190  29.868  35.949  1.00  0.00     0.031 C 
ATOM     45  C   UNL A   1      41.934  31.960  34.650  1.00  0.00     0.031 A 
BRANCH  32  46
ATOM     46  C   UNL A   1      42.966  34.482  29.124  1.00  0.00    -0.014 A 
ATOM     47  C   UNL A   1      41.762  34.966  28.588  1.00  0.00     0.009 A 
ATOM     48  C   UNL A   1      44.138  35.233  28.948  1.00  0.00     0.009 A 
ATOM     49  C   UNL A   1      41.738  36.171  27.880  1.00  0.00     0.001 A 
ATOM     50  C   UNL A   1      44.107  36.449  28.263  1.00  0.00     0.001 A 
ATOM     51  C   UNL A   1      42.908  36.915  27.727  1.00  0.00     0.000 A 
ENDBRANCH  32  46
BRANCH  33  52
ATOM     52  C   UNL A   1      43.693  26.177  34.604  1.00  0.00    -0.014 A 
ATOM     53  C   UNL A   1      44.927  25.873  35.198  1.00  0.00     0.009 A 
ATOM     54  C   UNL A   1      42.617  25.293  34.787  1.00  0.00     0.009 A 
ATOM     55  C   UNL A   1      45.095  24.687  35.917  1.00  0.00     0.001 A 
ATOM     56  C   UNL A   1      42.777  24.127  35.540  1.00  0.00     0.001 A 
ATOM     57  C   UNL A   1      44.019  23.817  36.090  1.00  0.00     0.000 A 
ENDBRANCH  33  52
BRANCH  45  58
ATOM     58  C   UNL A   1      41.388  32.610  35.891  1.00  0.00    -0.014 A 
ATOM     59  C   UNL A   1      40.026  32.528  36.217  1.00  0.00     0.009 A 
ATOM     60  C   UNL A   1      42.257  33.283  36.765  1.00  0.00     0.009 A 
ATOM     61  C   UNL A   1      39.538  33.139  37.375  1.00  0.00     0.001 A 
ATOM     62  C   UNL A   1      41.773  33.862  37.939  1.00  0.00     0.001 A 
ATOM     63  C   UNL A   1      40.413  33.799  38.237  1.00  0.00     0.000 A 
ENDBRANCH  45  58
ENDBRANCH  19  20
ENDBRANCH  11  14
ENDBRANCH   9  10
ENDBRANCH   8   9
ENDBRANCH   7   8
ENDBRANCH   5   7
ENDBRANCH   2   3
BRANCH   2  64
ATOM     64  C   UNL A   1      41.495  24.860  27.911  1.00  0.00    -0.033 A 
ATOM     65  C   UNL A   1      40.217  24.892  27.322  1.00  0.00     0.005 A 
ATOM     66  C   UNL A   1      41.816  25.867  28.828  1.00  0.00     0.044 A 
ATOM     67  C   UNL A   1      39.297  25.902  27.636  1.00  0.00     0.012 A 
ATOM     68  C   UNL A   1      40.904  26.873  29.126  1.00  0.00     0.131 A 
ATOM     69  C   UNL A   1      39.637  26.922  28.535  1.00  0.00     0.018 A 
ATOM     70  F   UNL A   1      41.285  27.826  29.991  1.00  0.00    -0.206 F 
BRANCH  69  71
ATOM     71  C   UNL A   1      38.750  28.064  28.779  1.00  0.00    -0.012 A 
ATOM     72  C   UNL A   1      38.463  29.025  27.802  1.00  0.00     0.009 A 
ATOM     73  C   UNL A   1      38.156  28.194  30.045  1.00  0.00     0.056 A 
ATOM     74  C   UNL A   1      37.589  30.080  28.085  1.00  0.00     0.004 A 
ATOM     75  C   UNL A   1      37.305  29.252  30.336  1.00  0.00     0.133 A 
ATOM     76  C   UNL A   1      37.009  30.194  29.352  1.00  0.00     0.047 A 
BRANCH  75  77
ATOM     77  O   UNL A   1      36.695  29.449  31.600  1.00  0.00    -0.410 OA
BRANCH  77  78
ATOM     78  C   UNL A   1      37.289  29.137  32.822  1.00  0.00     0.412 C 
ATOM     79  O   UNL A   1      37.657  28.032  33.204  1.00  0.00    -0.224 OA
ATOM     80  N   UNL A   1      37.483  30.213  33.635  1.00  0.00    -0.321 N 
ATOM     81  H   UNL A   1      37.938  30.030  34.489  1.00  0.00     0.167 HD
BRANCH  80  82
ATOM     82  C   UNL A   1      37.106  31.587  33.401  1.00  0.00     0.119 C 
BRANCH  82  83
ATOM     83  C   UNL A   1      38.264  32.383  32.799  1.00  0.00     0.025 C 
BRANCH  83  84
ATOM     84  C   UNL A   1      37.865  33.317  31.633  1.00  0.00    -0.009 C 
ATOM     85  C   UNL A   1      38.808  33.167  30.427  1.00  0.00     0.003 C 
ATOM     86  C   UNL A   1      36.408  33.044  31.222  1.00  0.00     0.003 C 
ATOM     87  C   UNL A   1      38.361  34.018  29.239  1.00  0.00     0.000 C 
ATOM     88  C   UNL A   1      35.979  33.914  30.043  1.00  0.00     0.000 C 
ATOM     89  C   UNL A   1      36.914  33.736  28.852  1.00  0.00     0.000 C 
ENDBRANCH  83  84
ENDBRANCH  82  83
ENDBRANCH  80  82
ENDBRANCH  77  78
ENDBRANCH  75  77
ENDBRANCH  69  71
ENDBRANCH   2  64
TORSDOF 17
ENDMDL
