MODEL 1
REMARK VINA RESULT:     -12.3      0.000      0.000
REMARK SMILES Cc1cc2c(cc1C(=O)c1ccccc1C(=O)NCCCNC(=O)c1ccc(-c3c4nc(c(-c5ccccc5)c5ccc([nH]5)c(-c5ccccc5)c5nc(c(-c6ccccc6)c6ccc3[nH]6)C=C5)C=C4)cc1)CCCC2
REMARK SMILES IDX 20 1 19 2 18 3 16 4 17 5 15 7 10 8 11 9 12 10 14 11 13 12
REMARK SMILES IDX 8 13 9 14 7 15 1 16 2 17 3 18 4 19 6 20 5 21 76 22 73 23
REMARK SMILES IDX 75 24 74 25 21 26 22 27 23 28 24 30 25 31 26 32 72 33 27 34
REMARK SMILES IDX 71 35 28 36 29 37 30 38 65 39 31 40 70 41 64 42 66 43 32 44
REMARK SMILES IDX 69 45 63 46 62 47 33 49 55 50 40 51 54 52 41 53 44 54 53 55
REMARK SMILES IDX 67 56 42 57 43 58 52 60 68 61 45 62 34 63 35 64 39 65 36 66
REMARK SMILES IDX 38 67 37 68 56 69 57 70 61 71 58 72 60 73 59 74 46 75 47 76
REMARK SMILES IDX 51 77 48 78 50 79 49 80
REMARK H PARENT 18 6 22 29 66 48 44 59
REMARK Flexibility Score: inf
ROOT
ATOM      1  C   UNL A   1      33.935  28.230  25.989  1.00  0.00     0.042 C 
ENDROOT
BRANCH   1   2
ATOM      2  C   UNL A   1      33.708  29.312  24.945  1.00  0.00     0.118 C 
BRANCH   2   3
ATOM      3  N   UNL A   1      33.936  28.844  23.605  1.00  0.00    -0.352 N 
ATOM      4  C   UNL A   1      33.371  27.934  22.764  1.00  0.00     0.252 C 
ATOM      5  O   UNL A   1      33.948  27.903  21.667  1.00  0.00    -0.269 OA
ATOM      6  H   UNL A   1      34.702  29.300  23.187  1.00  0.00     0.163 HD
BRANCH   4   7
ATOM      7  C   UNL A   1      32.189  27.010  22.953  1.00  0.00     0.050 A 
ATOM      8  C   UNL A   1      32.017  25.619  22.830  1.00  0.00     0.035 A 
ATOM      9  C   UNL A   1      30.831  24.982  23.281  1.00  0.00     0.013 A 
ATOM     10  C   UNL A   1      29.743  25.718  23.731  1.00  0.00     0.001 A 
ATOM     11  C   UNL A   1      31.039  27.718  23.399  1.00  0.00     0.014 A 
ATOM     12  C   UNL A   1      29.838  27.097  23.760  1.00  0.00     0.001 A 
BRANCH   8  13
ATOM     13  C   UNL A   1      32.928  24.644  22.239  1.00  0.00     0.194 C 
ATOM     14  O   UNL A   1      33.104  24.743  21.024  1.00  0.00    -0.289 OA
BRANCH  13  15
ATOM     15  C   UNL A   1      33.672  23.599  23.047  1.00  0.00     0.026 A 
ATOM     16  C   UNL A   1      32.106  21.514  22.775  1.00  0.00     0.045 C 
ATOM     17  C   UNL A   1      33.301  22.262  23.288  1.00  0.00    -0.040 A 
ATOM     18  C   UNL A   1      34.144  21.465  24.097  1.00  0.00     0.008 A 
ATOM     19  C   UNL A   1      35.371  21.918  24.588  1.00  0.00    -0.044 A 
ATOM     20  C   UNL A   1      34.914  24.050  23.562  1.00  0.00     0.016 A 
ATOM     21  C   UNL A   1      35.781  23.216  24.286  1.00  0.00    -0.044 A 
ATOM     22  C   UNL A   1      36.176  21.015  25.485  1.00  0.00     0.036 C 
ATOM     23  C   UNL A   1      37.175  23.685  24.622  1.00  0.00     0.036 C 
ATOM     24  C   UNL A   1      37.638  21.422  25.590  1.00  0.00     0.005 C 
ATOM     25  C   UNL A   1      37.774  22.926  25.803  1.00  0.00     0.005 C 
ENDBRANCH  13  15
ENDBRANCH   8  13
ENDBRANCH   4   7
ENDBRANCH   2   3
ENDBRANCH   1   2
BRANCH   1  26
ATOM     26  C   UNL A   1      33.328  28.608  27.328  1.00  0.00     0.118 C 
BRANCH  26  27
ATOM     27  N   UNL A   1      33.505  30.028  27.639  1.00  0.00    -0.352 N 
ATOM     28  C   UNL A   1      34.521  30.762  28.196  1.00  0.00     0.251 C 
ATOM     29  H   UNL A   1      32.724  30.575  27.393  1.00  0.00     0.163 HD
ATOM     30  O   UNL A   1      34.282  31.926  28.530  1.00  0.00    -0.269 OA
BRANCH  28  31
ATOM     31  C   UNL A   1      35.876  30.212  28.441  1.00  0.00     0.039 A 
ATOM     32  C   UNL A   1      36.223  29.617  29.644  1.00  0.00     0.014 A 
ATOM     33  C   UNL A   1      36.823  30.225  27.406  1.00  0.00     0.014 A 
ATOM     34  C   UNL A   1      37.542  29.266  29.902  1.00  0.00     0.010 A 
ATOM     35  C   UNL A   1      38.110  29.706  27.611  1.00  0.00     0.010 A 
ATOM     36  C   UNL A   1      38.504  29.271  28.882  1.00  0.00    -0.014 A 
BRANCH  36  37
ATOM     37  C   UNL A   1      39.866  28.753  29.194  1.00  0.00     0.031 A 
ATOM     38  C   UNL A   1      40.289  27.357  28.822  1.00  0.00     0.074 A 
ATOM     39  C   UNL A   1      40.772  29.595  29.735  1.00  0.00     0.049 A 
ATOM     40  N   UNL A   1      41.492  26.838  28.809  1.00  0.00    -0.248 NA
ATOM     41  C   UNL A   1      39.238  26.420  28.408  1.00  0.00     0.031 C 
ATOM     42  C   UNL A   1      40.490  30.968  30.169  1.00  0.00     0.029 A 
ATOM     43  N   UNL A   1      42.116  29.448  29.965  1.00  0.00    -0.354 N 
ATOM     44  C   UNL A   1      41.339  25.534  28.355  1.00  0.00     0.074 A 
ATOM     45  C   UNL A   1      39.927  25.316  28.157  1.00  0.00     0.031 C 
ATOM     46  C   UNL A   1      41.636  31.561  30.526  1.00  0.00     0.029 A 
ATOM     47  C   UNL A   1      42.721  30.590  30.434  1.00  0.00     0.049 A 
ATOM     48  H   UNL A   1      42.602  28.605  29.809  1.00  0.00     0.167 HD
ATOM     49  C   UNL A   1      42.290  24.602  28.110  1.00  0.00     0.031 A 
ATOM     50  C   UNL A   1      44.001  30.838  30.769  1.00  0.00     0.031 A 
ATOM     51  C   UNL A   1      43.689  24.791  28.379  1.00  0.00     0.049 A 
ATOM     52  C   UNL A   1      45.021  29.751  30.595  1.00  0.00     0.074 A 
ATOM     53  C   UNL A   1      44.729  23.903  28.170  1.00  0.00     0.029 A 
ATOM     54  N   UNL A   1      44.237  25.928  28.949  1.00  0.00    -0.354 N 
ATOM     55  N   UNL A   1      44.870  28.560  30.070  1.00  0.00    -0.248 NA
ATOM     56  C   UNL A   1      46.384  30.039  31.059  1.00  0.00     0.031 C 
ATOM     57  C   UNL A   1      45.889  24.464  28.704  1.00  0.00     0.029 A 
ATOM     58  C   UNL A   1      45.592  25.739  29.159  1.00  0.00     0.049 A 
ATOM     59  H   UNL A   1      43.738  26.748  29.172  1.00  0.00     0.167 HD
ATOM     60  C   UNL A   1      46.118  27.956  30.137  1.00  0.00     0.074 A 
ATOM     61  C   UNL A   1      47.022  28.926  30.719  1.00  0.00     0.031 C 
ATOM     62  C   UNL A   1      46.478  26.705  29.758  1.00  0.00     0.031 A 
BRANCH  49  63
ATOM     63  C   UNL A   1      41.863  23.276  27.540  1.00  0.00    -0.014 A 
ATOM     64  C   UNL A   1      41.457  22.243  28.400  1.00  0.00     0.009 A 
ATOM     65  C   UNL A   1      41.984  23.009  26.167  1.00  0.00     0.009 A 
ATOM     66  C   UNL A   1      41.207  20.963  27.903  1.00  0.00     0.001 A 
ATOM     67  C   UNL A   1      41.710  21.732  25.669  1.00  0.00     0.001 A 
ATOM     68  C   UNL A   1      41.335  20.708  26.538  1.00  0.00     0.000 A 
ENDBRANCH  49  63
BRANCH  50  69
ATOM     69  C   UNL A   1      44.362  32.175  31.316  1.00  0.00    -0.014 A 
ATOM     70  C   UNL A   1      44.251  32.427  32.696  1.00  0.00     0.009 A 
ATOM     71  C   UNL A   1      44.754  33.223  30.471  1.00  0.00     0.009 A 
ATOM     72  C   UNL A   1      44.479  33.704  33.210  1.00  0.00     0.001 A 
ATOM     73  C   UNL A   1      45.021  34.491  30.993  1.00  0.00     0.001 A 
ATOM     74  C   UNL A   1      44.869  34.735  32.358  1.00  0.00     0.000 A 
ENDBRANCH  50  69
BRANCH  62  75
ATOM     75  C   UNL A   1      47.907  26.290  29.971  1.00  0.00    -0.014 A 
ATOM     76  C   UNL A   1      48.814  26.323  28.900  1.00  0.00     0.009 A 
ATOM     77  C   UNL A   1      48.329  25.763  31.202  1.00  0.00     0.009 A 
ATOM     78  C   UNL A   1      50.107  25.819  29.048  1.00  0.00     0.001 A 
ATOM     79  C   UNL A   1      49.634  25.295  31.358  1.00  0.00     0.001 A 
ATOM     80  C   UNL A   1      50.517  25.310  30.279  1.00  0.00     0.000 A 
ENDBRANCH  62  75
ENDBRANCH  36  37
ENDBRANCH  28  31
ENDBRANCH  26  27
ENDBRANCH   1  26
TORSDOF 12
ENDMDL
MODEL 2
REMARK VINA RESULT:     -12.0      2.323      7.611
REMARK SMILES Cc1cc2c(cc1C(=O)c1ccccc1C(=O)NCCCNC(=O)c1ccc(-c3c4nc(c(-c5ccccc5)c5ccc([nH]5)c(-c5ccccc5)c5nc(c(-c6ccccc6)c6ccc3[nH]6)C=C5)C=C4)cc1)CCCC2
REMARK SMILES IDX 20 1 19 2 18 3 16 4 17 5 15 7 10 8 11 9 12 10 14 11 13 12
REMARK SMILES IDX 8 13 9 14 7 15 1 16 2 17 3 18 4 19 6 20 5 21 76 22 73 23
REMARK SMILES IDX 75 24 74 25 21 26 22 27 23 28 24 30 25 31 26 32 72 33 27 34
REMARK SMILES IDX 71 35 28 36 29 37 30 38 65 39 31 40 70 41 64 42 66 43 32 44
REMARK SMILES IDX 69 45 63 46 62 47 33 49 55 50 40 51 54 52 41 53 44 54 53 55
REMARK SMILES IDX 67 56 42 57 43 58 52 60 68 61 45 62 34 63 35 64 39 65 36 66
REMARK SMILES IDX 38 67 37 68 56 69 57 70 61 71 58 72 60 73 59 74 46 75 47 76
REMARK SMILES IDX 51 77 48 78 50 79 49 80
REMARK H PARENT 18 6 22 29 66 48 44 59
REMARK Flexibility Score: inf
ROOT
ATOM      1  C   UNL A   1      38.106  19.997  24.790  1.00  0.00     0.042 C 
ENDROOT
BRANCH   1   2
ATOM      2  C   UNL A   1      37.422  21.355  24.764  1.00  0.00     0.118 C 
BRANCH   2   3
ATOM      3  N   UNL A   1      36.452  21.506  25.814  1.00  0.00    -0.352 N 
ATOM      4  C   UNL A   1      35.094  21.536  25.911  1.00  0.00     0.252 C 
ATOM      5  O   UNL A   1      34.721  21.687  27.085  1.00  0.00    -0.269 OA
ATOM      6  H   UNL A   1      36.882  21.618  26.693  1.00  0.00     0.163 HD
BRANCH   4   7
ATOM      7  C   UNL A   1      34.022  21.403  24.854  1.00  0.00     0.050 A 
ATOM      8  C   UNL A   1      33.495  22.283  23.890  1.00  0.00     0.035 A 
ATOM      9  C   UNL A   1      32.626  21.819  22.868  1.00  0.00     0.013 A 
ATOM     10  C   UNL A   1      32.152  20.515  22.860  1.00  0.00     0.001 A 
ATOM     11  C   UNL A   1      33.488  20.084  24.815  1.00  0.00     0.014 A 
ATOM     12  C   UNL A   1      32.562  19.651  23.859  1.00  0.00     0.001 A 
BRANCH   8  13
ATOM     13  C   UNL A   1      33.696  23.724  23.777  1.00  0.00     0.194 C 
ATOM     14  O   UNL A   1      34.405  24.093  22.840  1.00  0.00    -0.289 OA
BRANCH  13  15
ATOM     15  C   UNL A   1      33.042  24.733  24.699  1.00  0.00     0.026 A 
ATOM     16  C   UNL A   1      31.130  23.299  25.776  1.00  0.00     0.045 C 
ATOM     17  C   UNL A   1      31.928  24.548  25.540  1.00  0.00    -0.040 A 
ATOM     18  C   UNL A   1      31.471  25.646  26.305  1.00  0.00     0.008 A 
ATOM     19  C   UNL A   1      32.131  26.876  26.332  1.00  0.00    -0.044 A 
ATOM     20  C   UNL A   1      33.696  25.992  24.727  1.00  0.00     0.016 A 
ATOM     21  C   UNL A   1      33.282  27.042  25.562  1.00  0.00    -0.044 A 
ATOM     22  C   UNL A   1      31.540  28.004  27.137  1.00  0.00     0.036 C 
ATOM     23  C   UNL A   1      34.139  28.275  25.706  1.00  0.00     0.036 C 
ATOM     24  C   UNL A   1      32.538  29.111  27.443  1.00  0.00     0.005 C 
ATOM     25  C   UNL A   1      33.343  29.480  26.201  1.00  0.00     0.005 C 
ENDBRANCH  13  15
ENDBRANCH   8  13
ENDBRANCH   4   7
ENDBRANCH   2   3
ENDBRANCH   1   2
BRANCH   1  26
ATOM     26  C   UNL A   1      38.935  19.813  26.049  1.00  0.00     0.118 C 
BRANCH  26  27
ATOM     27  N   UNL A   1      40.257  19.250  25.768  1.00  0.00    -0.352 N 
ATOM     28  C   UNL A   1      41.535  19.742  25.835  1.00  0.00     0.251 C 
ATOM     29  H   UNL A   1      40.219  18.313  25.465  1.00  0.00     0.163 HD
ATOM     30  O   UNL A   1      42.441  19.081  25.319  1.00  0.00    -0.269 OA
BRANCH  28  31
ATOM     31  C   UNL A   1      41.871  21.039  26.471  1.00  0.00     0.039 A 
ATOM     32  C   UNL A   1      41.815  21.223  27.844  1.00  0.00     0.014 A 
ATOM     33  C   UNL A   1      42.328  22.099  25.674  1.00  0.00     0.014 A 
ATOM     34  C   UNL A   1      41.971  22.489  28.391  1.00  0.00     0.010 A 
ATOM     35  C   UNL A   1      42.658  23.334  26.251  1.00  0.00     0.010 A 
ATOM     36  C   UNL A   1      42.428  23.563  27.613  1.00  0.00    -0.014 A 
BRANCH  36  37
ATOM     37  C   UNL A   1      42.704  24.860  28.294  1.00  0.00     0.031 A 
ATOM     38  C   UNL A   1      44.098  25.268  28.690  1.00  0.00     0.074 A 
ATOM     39  C   UNL A   1      41.688  25.731  28.465  1.00  0.00     0.049 A 
ATOM     40  N   UNL A   1      44.535  26.443  29.069  1.00  0.00    -0.248 NA
ATOM     41  C   UNL A   1      45.140  24.234  28.657  1.00  0.00     0.031 C 
ATOM     42  C   UNL A   1      40.282  25.456  28.150  1.00  0.00     0.029 A 
ATOM     43  N   UNL A   1      41.678  27.035  28.893  1.00  0.00    -0.354 N 
ATOM     44  C   UNL A   1      45.899  26.292  29.283  1.00  0.00     0.074 A 
ATOM     45  C   UNL A   1      46.214  24.904  29.050  1.00  0.00     0.031 C 
ATOM     46  C   UNL A   1      39.567  26.576  28.309  1.00  0.00     0.029 A 
ATOM     47  C   UNL A   1      40.440  27.627  28.823  1.00  0.00     0.049 A 
ATOM     48  H   UNL A   1      42.482  27.502  29.219  1.00  0.00     0.167 HD
ATOM     49  C   UNL A   1      46.814  27.227  29.629  1.00  0.00     0.031 A 
ATOM     50  C   UNL A   1      40.035  28.869  29.145  1.00  0.00     0.031 A 
ATOM     51  C   UNL A   1      46.491  28.593  29.936  1.00  0.00     0.049 A 
ATOM     52  C   UNL A   1      41.050  29.860  29.635  1.00  0.00     0.074 A 
ATOM     53  C   UNL A   1      47.348  29.615  30.303  1.00  0.00     0.029 A 
ATOM     54  N   UNL A   1      45.208  29.118  29.949  1.00  0.00    -0.354 N 
ATOM     55  N   UNL A   1      42.350  29.722  29.734  1.00  0.00    -0.248 NA
ATOM     56  C   UNL A   1      40.547  31.172  30.059  1.00  0.00     0.031 C 
ATOM     57  C   UNL A   1      46.576  30.729  30.633  1.00  0.00     0.029 A 
ATOM     58  C   UNL A   1      45.246  30.432  30.381  1.00  0.00     0.049 A 
ATOM     59  H   UNL A   1      44.393  28.629  29.691  1.00  0.00     0.167 HD
ATOM     60  C   UNL A   1      42.822  30.931  30.228  1.00  0.00     0.074 A 
ATOM     61  C   UNL A   1      41.673  31.800  30.374  1.00  0.00     0.031 C 
ATOM     62  C   UNL A   1      44.094  31.283  30.541  1.00  0.00     0.031 A 
BRANCH  49  63
ATOM     63  C   UNL A   1      48.259  26.816  29.720  1.00  0.00    -0.014 A 
ATOM     64  C   UNL A   1      49.084  26.905  28.588  1.00  0.00     0.009 A 
ATOM     65  C   UNL A   1      48.769  26.225  30.887  1.00  0.00     0.009 A 
ATOM     66  C   UNL A   1      50.380  26.385  28.612  1.00  0.00     0.001 A 
ATOM     67  C   UNL A   1      50.075  25.727  30.915  1.00  0.00     0.001 A 
ATOM     68  C   UNL A   1      50.873  25.796  29.775  1.00  0.00     0.000 A 
ENDBRANCH  49  63
BRANCH  50  69
ATOM     69  C   UNL A   1      38.593  29.218  29.021  1.00  0.00    -0.014 A 
ATOM     70  C   UNL A   1      38.091  29.726  27.809  1.00  0.00     0.009 A 
ATOM     71  C   UNL A   1      37.725  29.113  30.116  1.00  0.00     0.009 A 
ATOM     72  C   UNL A   1      36.769  30.162  27.709  1.00  0.00     0.001 A 
ATOM     73  C   UNL A   1      36.390  29.512  30.002  1.00  0.00     0.001 A 
ATOM     74  C   UNL A   1      35.918  30.049  28.805  1.00  0.00     0.000 A 
ENDBRANCH  50  69
BRANCH  62  75
ATOM     75  C   UNL A   1      44.325  32.661  31.093  1.00  0.00    -0.014 A 
ATOM     76  C   UNL A   1      44.636  33.721  30.226  1.00  0.00     0.009 A 
ATOM     77  C   UNL A   1      44.344  32.890  32.478  1.00  0.00     0.009 A 
ATOM     78  C   UNL A   1      44.983  34.974  30.731  1.00  0.00     0.001 A 
ATOM     79  C   UNL A   1      44.653  34.155  32.980  1.00  0.00     0.001 A 
ATOM     80  C   UNL A   1      44.985  35.191  32.109  1.00  0.00     0.000 A 
ENDBRANCH  62  75
ENDBRANCH  36  37
ENDBRANCH  28  31
ENDBRANCH  26  27
ENDBRANCH   1  26
TORSDOF 12
ENDMDL
MODEL 3
REMARK VINA RESULT:     -11.9      1.485      3.986
REMARK SMILES Cc1cc2c(cc1C(=O)c1ccccc1C(=O)NCCCNC(=O)c1ccc(-c3c4nc(c(-c5ccccc5)c5ccc([nH]5)c(-c5ccccc5)c5nc(c(-c6ccccc6)c6ccc3[nH]6)C=C5)C=C4)cc1)CCCC2
REMARK SMILES IDX 20 1 19 2 18 3 16 4 17 5 15 7 10 8 11 9 12 10 14 11 13 12
REMARK SMILES IDX 8 13 9 14 7 15 1 16 2 17 3 18 4 19 6 20 5 21 76 22 73 23
REMARK SMILES IDX 75 24 74 25 21 26 22 27 23 28 24 30 25 31 26 32 72 33 27 34
REMARK SMILES IDX 71 35 28 36 29 37 30 38 65 39 31 40 70 41 64 42 66 43 32 44
REMARK SMILES IDX 69 45 63 46 62 47 33 49 55 50 40 51 54 52 41 53 44 54 53 55
REMARK SMILES IDX 67 56 42 57 43 58 52 60 68 61 45 62 34 63 35 64 39 65 36 66
REMARK SMILES IDX 38 67 37 68 56 69 57 70 61 71 58 72 60 73 59 74 46 75 47 76
REMARK SMILES IDX 51 77 48 78 50 79 49 80
REMARK H PARENT 18 6 22 29 66 48 44 59
REMARK Flexibility Score: inf
ROOT
ATOM      1  C   UNL A   1      33.252  27.981  26.939  1.00  0.00     0.042 C 
ENDROOT
BRANCH   1   2
ATOM      2  C   UNL A   1      31.776  27.774  26.638  1.00  0.00     0.118 C 
BRANCH   2   3
ATOM      3  N   UNL A   1      31.343  26.427  26.894  1.00  0.00    -0.352 N 
ATOM      4  C   UNL A   1      31.732  25.175  26.524  1.00  0.00     0.252 C 
ATOM      5  O   UNL A   1      31.014  24.303  27.037  1.00  0.00    -0.269 OA
ATOM      6  H   UNL A   1      30.561  26.404  27.491  1.00  0.00     0.163 HD
BRANCH   4   7
ATOM      7  C   UNL A   1      32.864  24.710  25.637  1.00  0.00     0.050 A 
ATOM      8  C   UNL A   1      33.127  24.825  24.260  1.00  0.00     0.035 A 
ATOM      9  C   UNL A   1      34.392  24.473  23.720  1.00  0.00     0.013 A 
ATOM     10  C   UNL A   1      35.368  23.874  24.503  1.00  0.00     0.001 A 
ATOM     11  C   UNL A   1      33.888  24.071  26.390  1.00  0.00     0.014 A 
ATOM     12  C   UNL A   1      35.102  23.642  25.839  1.00  0.00     0.001 A 
BRANCH   8  13
ATOM     13  C   UNL A   1      32.223  25.263  23.200  1.00  0.00     0.194 C 
ATOM     14  O   UNL A   1      31.938  24.413  22.356  1.00  0.00    -0.289 OA
BRANCH  13  15
ATOM     15  C   UNL A   1      31.609  26.647  23.144  1.00  0.00     0.026 A 
ATOM     16  C   UNL A   1      33.703  28.127  22.599  1.00  0.00     0.045 C 
ATOM     17  C   UNL A   1      32.256  27.875  22.904  1.00  0.00    -0.040 A 
ATOM     18  C   UNL A   1      31.482  29.058  22.919  1.00  0.00     0.008 A 
ATOM     19  C   UNL A   1      30.093  29.052  23.068  1.00  0.00    -0.044 A 
ATOM     20  C   UNL A   1      30.200  26.657  23.306  1.00  0.00     0.016 A 
ATOM     21  C   UNL A   1      29.437  27.832  23.227  1.00  0.00    -0.044 A 
ATOM     22  C   UNL A   1      29.360  30.367  23.124  1.00  0.00     0.036 C 
ATOM     23  C   UNL A   1      27.930  27.754  23.194  1.00  0.00     0.036 C 
ATOM     24  C   UNL A   1      27.869  30.235  22.848  1.00  0.00     0.005 C 
ATOM     25  C   UNL A   1      27.272  29.063  23.621  1.00  0.00     0.005 C 
ENDBRANCH  13  15
ENDBRANCH   8  13
ENDBRANCH   4   7
ENDBRANCH   2   3
ENDBRANCH   1   2
BRANCH   1  26
ATOM     26  C   UNL A   1      33.822  29.155  26.164  1.00  0.00     0.118 C 
BRANCH  26  27
ATOM     27  N   UNL A   1      33.815  30.394  26.943  1.00  0.00    -0.352 N 
ATOM     28  C   UNL A   1      34.631  30.912  27.916  1.00  0.00     0.251 C 
ATOM     29  H   UNL A   1      33.059  30.985  26.718  1.00  0.00     0.163 HD
ATOM     30  O   UNL A   1      34.234  31.898  28.543  1.00  0.00    -0.269 OA
BRANCH  28  31
ATOM     31  C   UNL A   1      35.946  30.324  28.266  1.00  0.00     0.039 A 
ATOM     32  C   UNL A   1      36.180  29.719  29.492  1.00  0.00     0.014 A 
ATOM     33  C   UNL A   1      36.972  30.310  27.310  1.00  0.00     0.014 A 
ATOM     34  C   UNL A   1      37.463  29.331  29.852  1.00  0.00     0.010 A 
ATOM     35  C   UNL A   1      38.224  29.755  27.614  1.00  0.00     0.010 A 
ATOM     36  C   UNL A   1      38.503  29.309  28.912  1.00  0.00    -0.014 A 
BRANCH  36  37
ATOM     37  C   UNL A   1      39.821  28.751  29.330  1.00  0.00     0.031 A 
ATOM     38  C   UNL A   1      40.267  27.374  28.919  1.00  0.00     0.074 A 
ATOM     39  C   UNL A   1      40.674  29.546  30.010  1.00  0.00     0.049 A 
ATOM     40  N   UNL A   1      41.460  26.838  28.998  1.00  0.00    -0.248 NA
ATOM     41  C   UNL A   1      39.256  26.479  28.344  1.00  0.00     0.031 C 
ATOM     42  C   UNL A   1      40.362  30.895  30.495  1.00  0.00     0.029 A 
ATOM     43  N   UNL A   1      41.987  29.365  30.367  1.00  0.00    -0.354 N 
ATOM     44  C   UNL A   1      41.343  25.566  28.452  1.00  0.00     0.074 A 
ATOM     45  C   UNL A   1      39.957  25.382  28.098  1.00  0.00     0.031 C 
ATOM     46  C   UNL A   1      41.470  31.448  31.003  1.00  0.00     0.029 A 
ATOM     47  C   UNL A   1      42.550  30.468  30.964  1.00  0.00     0.049 A 
ATOM     48  H   UNL A   1      42.478  28.526  30.211  1.00  0.00     0.167 HD
ATOM     49  C   UNL A   1      42.305  24.635  28.250  1.00  0.00     0.031 A 
ATOM     50  C   UNL A   1      43.791  30.676  31.442  1.00  0.00     0.031 A 
ATOM     51  C   UNL A   1      43.671  24.787  28.671  1.00  0.00     0.049 A 
ATOM     52  C   UNL A   1      44.813  29.586  31.308  1.00  0.00     0.074 A 
ATOM     53  C   UNL A   1      44.718  23.896  28.516  1.00  0.00     0.029 A 
ATOM     54  N   UNL A   1      44.168  25.879  29.362  1.00  0.00    -0.354 N 
ATOM     55  N   UNL A   1      44.706  28.430  30.700  1.00  0.00    -0.248 NA
ATOM     56  C   UNL A   1      46.124  29.825  31.925  1.00  0.00     0.031 C 
ATOM     57  C   UNL A   1      45.823  24.407  29.199  1.00  0.00     0.029 A 
ATOM     58  C   UNL A   1      45.492  25.657  29.698  1.00  0.00     0.049 A 
ATOM     59  H   UNL A   1      43.656  26.692  29.582  1.00  0.00     0.167 HD
ATOM     60  C   UNL A   1      45.935  27.804  30.857  1.00  0.00     0.074 A 
ATOM     61  C   UNL A   1      46.783  28.724  31.586  1.00  0.00     0.031 C 
ATOM     62  C   UNL A   1      46.321  26.572  30.441  1.00  0.00     0.031 A 
BRANCH  49  63
ATOM     63  C   UNL A   1      41.927  23.352  27.560  1.00  0.00    -0.014 A 
ATOM     64  C   UNL A   1      41.361  22.301  28.299  1.00  0.00     0.009 A 
ATOM     65  C   UNL A   1      42.246  23.138  26.209  1.00  0.00     0.009 A 
ATOM     66  C   UNL A   1      41.149  21.053  27.709  1.00  0.00     0.001 A 
ATOM     67  C   UNL A   1      42.010  21.895  25.616  1.00  0.00     0.001 A 
ATOM     68  C   UNL A   1      41.474  20.852  26.369  1.00  0.00     0.000 A 
ENDBRANCH  49  63
BRANCH  50  69
ATOM     69  C   UNL A   1      44.106  31.972  32.104  1.00  0.00    -0.014 A 
ATOM     70  C   UNL A   1      43.853  32.145  33.477  1.00  0.00     0.009 A 
ATOM     71  C   UNL A   1      44.595  33.061  31.368  1.00  0.00     0.009 A 
ATOM     72  C   UNL A   1      44.038  33.386  34.088  1.00  0.00     0.001 A 
ATOM     73  C   UNL A   1      44.819  34.292  31.991  1.00  0.00     0.001 A 
ATOM     74  C   UNL A   1      44.527  34.458  33.345  1.00  0.00     0.000 A 
ENDBRANCH  50  69
BRANCH  62  75
ATOM     75  C   UNL A   1      47.716  26.124  30.774  1.00  0.00    -0.014 A 
ATOM     76  C   UNL A   1      48.013  25.656  32.064  1.00  0.00     0.009 A 
ATOM     77  C   UNL A   1      48.761  26.267  29.847  1.00  0.00     0.009 A 
ATOM     78  C   UNL A   1      49.328  25.361  32.428  1.00  0.00     0.001 A 
ATOM     79  C   UNL A   1      50.069  25.935  30.201  1.00  0.00     0.001 A 
ATOM     80  C   UNL A   1      50.353  25.496  31.493  1.00  0.00     0.000 A 
ENDBRANCH  62  75
ENDBRANCH  36  37
ENDBRANCH  28  31
ENDBRANCH  26  27
ENDBRANCH   1  26
TORSDOF 12
ENDMDL
