MODEL 1
REMARK VINA RESULT:     -10.9      0.000      0.000
REMARK SMILES O=C(C[C@H]1C[C@H]2CC[C@@H](C1)[N@H+]2[C@@H]1CCCSC1)NCCCNC(=O)c1ccc(-c2c3nc(c(-c4ccccc4)c4ccc([nH]4)c(-c4ccccc4)c4nc(c(-c5ccccc5)c5ccc2[nH]5)C=C4)C=C3)cc1
REMARK SMILES IDX 20 1 19 2 18 3 1 4 2 5 3 7 4 8 5 9 10 10 6 11 9 12 7 13
REMARK SMILES IDX 11 14 8 15 12 17 13 18 17 19 14 20 16 21 15 22 21 23 22 24
REMARK SMILES IDX 23 25 24 27 25 28 26 29 72 30 27 31 71 32 28 33 29 34 30 35
REMARK SMILES IDX 65 36 31 37 70 38 64 39 66 40 32 41 69 42 63 43 62 44 33 46
REMARK SMILES IDX 55 47 40 48 54 49 41 50 44 51 53 52 67 53 42 54 43 55 52 57
REMARK SMILES IDX 68 58 45 59 34 60 35 61 39 62 36 63 38 64 37 65 56 66 57 67
REMARK SMILES IDX 61 68 58 69 60 70 59 71 46 72 47 73 51 74 48 75 50 76 49 77
REMARK H PARENT 18 6 11 16 22 26 66 45 44 56
REMARK Flexibility Score: inf
ROOT
ATOM      1  C   UNL A   1      36.842  21.427  24.666  1.00  0.00     0.042 C 
ENDROOT
BRANCH   1   2
ATOM      2  C   UNL A   1      35.764  20.417  25.053  1.00  0.00     0.117 C 
BRANCH   2   3
ATOM      3  N   UNL A   1      34.423  20.972  25.105  1.00  0.00    -0.356 N 
ATOM      4  O   UNL A   1      34.487  21.362  27.364  1.00  0.00    -0.275 OA
ATOM      5  C   UNL A   1      33.911  21.472  26.287  1.00  0.00     0.220 C 
ATOM      6  H   UNL A   1      33.871  20.991  24.290  1.00  0.00     0.163 HD
BRANCH   5   7
ATOM      7  C   UNL A   1      32.591  22.204  26.149  1.00  0.00     0.104 C 
BRANCH   7   8
ATOM      8  C   UNL A   1      32.680  23.744  26.031  1.00  0.00     0.010 C 
ATOM      9  C   UNL A   1      34.121  24.299  25.911  1.00  0.00     0.069 C 
ATOM     10  C   UNL A   1      31.664  24.363  25.047  1.00  0.00     0.069 C 
ATOM     11  C   UNL A   1      34.429  25.126  24.646  1.00  0.00     0.185 C 
ATOM     12  C   UNL A   1      32.257  25.093  23.835  1.00  0.00     0.185 C 
ATOM     13  C   UNL A   1      34.490  24.213  23.420  1.00  0.00     0.071 C 
ATOM     14  N   UNL A   1      33.329  25.976  24.231  1.00  0.00    -0.327 N 
ATOM     15  C   UNL A   1      33.057  24.200  22.894  1.00  0.00     0.071 C 
ATOM     16  H   UNL A   1      33.605  26.581  23.457  1.00  0.00     0.348 HD
BRANCH  14  17
ATOM     17  C   UNL A   1      33.132  27.340  24.697  1.00  0.00     0.194 C 
ATOM     18  C   UNL A   1      33.599  27.587  26.139  1.00  0.00     0.067 C 
ATOM     19  C   UNL A   1      31.674  27.803  24.457  1.00  0.00     0.134 C 
ATOM     20  C   UNL A   1      33.419  29.036  26.602  1.00  0.00     0.017 C 
ATOM     21  S   UNL A   1      31.367  29.545  24.863  1.00  0.00    -0.156 SA
ATOM     22  C   UNL A   1      31.974  29.508  26.564  1.00  0.00     0.070 C 
ENDBRANCH  14  17
ENDBRANCH   7   8
ENDBRANCH   5   7
ENDBRANCH   2   3
ENDBRANCH   1   2
BRANCH   1  23
ATOM     23  C   UNL A   1      38.107  21.447  25.524  1.00  0.00     0.118 C 
BRANCH  23  24
ATOM     24  N   UNL A   1      38.961  20.276  25.394  1.00  0.00    -0.352 N 
ATOM     25  C   UNL A   1      40.228  20.031  25.880  1.00  0.00     0.251 C 
ATOM     26  H   UNL A   1      38.571  19.538  24.873  1.00  0.00     0.163 HD
ATOM     27  O   UNL A   1      40.752  18.940  25.694  1.00  0.00    -0.269 OA
BRANCH  25  28
ATOM     28  C   UNL A   1      41.004  21.106  26.541  1.00  0.00     0.039 A 
ATOM     29  C   UNL A   1      41.699  22.003  25.722  1.00  0.00     0.014 A 
ATOM     30  C   UNL A   1      41.010  21.282  27.926  1.00  0.00     0.014 A 
ATOM     31  C   UNL A   1      42.281  23.145  26.276  1.00  0.00     0.010 A 
ATOM     32  C   UNL A   1      41.527  22.457  28.469  1.00  0.00     0.010 A 
ATOM     33  C   UNL A   1      42.135  23.417  27.645  1.00  0.00    -0.014 A 
BRANCH  33  34
ATOM     34  C   UNL A   1      42.537  24.733  28.209  1.00  0.00     0.031 A 
ATOM     35  C   UNL A   1      41.524  25.819  28.429  1.00  0.00     0.074 A 
ATOM     36  C   UNL A   1      43.843  24.976  28.447  1.00  0.00     0.049 A 
ATOM     37  N   UNL A   1      41.712  27.049  28.837  1.00  0.00    -0.248 NA
ATOM     38  C   UNL A   1      40.122  25.488  28.132  1.00  0.00     0.031 C 
ATOM     39  C   UNL A   1      44.937  24.024  28.238  1.00  0.00     0.029 A 
ATOM     40  N   UNL A   1      44.473  26.105  28.910  1.00  0.00    -0.354 N 
ATOM     41  C   UNL A   1      40.457  27.645  28.828  1.00  0.00     0.074 A 
ATOM     42  C   UNL A   1      39.523  26.653  28.339  1.00  0.00     0.031 C 
ATOM     43  C   UNL A   1      46.095  24.599  28.594  1.00  0.00     0.029 A 
ATOM     44  C   UNL A   1      45.837  25.970  29.017  1.00  0.00     0.049 A 
ATOM     45  H   UNL A   1      43.993  26.932  29.143  1.00  0.00     0.167 HD
ATOM     46  C   UNL A   1      40.112  28.899  29.206  1.00  0.00     0.031 A 
ATOM     47  C   UNL A   1      46.778  26.851  29.403  1.00  0.00     0.031 A 
ATOM     48  C   UNL A   1      41.034  29.884  29.704  1.00  0.00     0.049 A 
ATOM     49  C   UNL A   1      46.368  28.237  29.811  1.00  0.00     0.074 A 
ATOM     50  C   UNL A   1      40.765  31.164  30.161  1.00  0.00     0.029 A 
ATOM     51  N   UNL A   1      42.403  29.702  29.811  1.00  0.00    -0.354 N 
ATOM     52  N   UNL A   1      45.169  28.764  29.851  1.00  0.00    -0.248 NA
ATOM     53  C   UNL A   1      47.443  29.147  30.236  1.00  0.00     0.031 C 
ATOM     54  C   UNL A   1      41.978  31.769  30.505  1.00  0.00     0.029 A 
ATOM     55  C   UNL A   1      42.995  30.851  30.307  1.00  0.00     0.049 A 
ATOM     56  H   UNL A   1      42.885  28.877  29.569  1.00  0.00     0.167 HD
ATOM     57  C   UNL A   1      45.341  30.056  30.332  1.00  0.00     0.074 A 
ATOM     58  C   UNL A   1      46.758  30.229  30.579  1.00  0.00     0.031 C 
ATOM     59  C   UNL A   1      44.404  31.010  30.552  1.00  0.00     0.031 A 
BRANCH  46  60
ATOM     60  C   UNL A   1      38.663  29.279  29.085  1.00  0.00    -0.014 A 
ATOM     61  C   UNL A   1      37.786  29.151  30.174  1.00  0.00     0.009 A 
ATOM     62  C   UNL A   1      38.176  29.805  27.879  1.00  0.00     0.009 A 
ATOM     63  C   UNL A   1      36.442  29.508  30.044  1.00  0.00     0.001 A 
ATOM     64  C   UNL A   1      36.839  30.186  27.760  1.00  0.00     0.001 A 
ATOM     65  C   UNL A   1      35.971  30.029  28.840  1.00  0.00     0.000 A 
ENDBRANCH  46  60
BRANCH  47  66
ATOM     66  C   UNL A   1      48.208  26.446  29.438  1.00  0.00    -0.014 A 
ATOM     67  C   UNL A   1      49.029  26.648  28.320  1.00  0.00     0.009 A 
ATOM     68  C   UNL A   1      48.755  25.853  30.586  1.00  0.00     0.009 A 
ATOM     69  C   UNL A   1      50.366  26.243  28.341  1.00  0.00     0.001 A 
ATOM     70  C   UNL A   1      50.099  25.472  30.614  1.00  0.00     0.001 A 
ATOM     71  C   UNL A   1      50.900  25.659  29.489  1.00  0.00     0.000 A 
ENDBRANCH  47  66
BRANCH  59  72
ATOM     72  C   UNL A   1      44.877  32.316  31.125  1.00  0.00    -0.014 A 
ATOM     73  C   UNL A   1      44.968  32.513  32.511  1.00  0.00     0.009 A 
ATOM     74  C   UNL A   1      45.276  33.347  30.261  1.00  0.00     0.009 A 
ATOM     75  C   UNL A   1      45.425  33.730  33.021  1.00  0.00     0.001 A 
ATOM     76  C   UNL A   1      45.755  34.553  30.773  1.00  0.00     0.001 A 
ATOM     77  C   UNL A   1      45.823  34.745  32.152  1.00  0.00     0.000 A 
ENDBRANCH  59  72
ENDBRANCH  33  34
ENDBRANCH  25  28
ENDBRANCH  23  24
ENDBRANCH   1  23
TORSDOF 12
ENDMDL
MODEL 2
REMARK VINA RESULT:     -10.8      0.624      6.015
REMARK SMILES O=C(C[C@H]1C[C@H]2CC[C@@H](C1)[N@H+]2[C@@H]1CCCSC1)NCCCNC(=O)c1ccc(-c2c3nc(c(-c4ccccc4)c4ccc([nH]4)c(-c4ccccc4)c4nc(c(-c5ccccc5)c5ccc2[nH]5)C=C4)C=C3)cc1
REMARK SMILES IDX 20 1 19 2 18 3 1 4 2 5 3 7 4 8 5 9 10 10 6 11 9 12 7 13
REMARK SMILES IDX 11 14 8 15 12 17 13 18 17 19 14 20 16 21 15 22 21 23 22 24
REMARK SMILES IDX 23 25 24 27 25 28 26 29 72 30 27 31 71 32 28 33 29 34 30 35
REMARK SMILES IDX 65 36 31 37 70 38 64 39 66 40 32 41 69 42 63 43 62 44 33 46
REMARK SMILES IDX 55 47 40 48 54 49 41 50 44 51 53 52 67 53 42 54 43 55 52 57
REMARK SMILES IDX 68 58 45 59 34 60 35 61 39 62 36 63 38 64 37 65 56 66 57 67
REMARK SMILES IDX 61 68 58 69 60 70 59 71 46 72 47 73 51 74 48 75 50 76 49 77
REMARK H PARENT 18 6 11 16 22 26 66 45 44 56
REMARK Flexibility Score: inf
ROOT
ATOM      1  C   UNL A   1      37.566  21.013  24.718  1.00  0.00     0.042 C 
ENDROOT
BRANCH   1   2
ATOM      2  C   UNL A   1      36.249  20.345  25.108  1.00  0.00     0.117 C 
BRANCH   2   3
ATOM      3  N   UNL A   1      35.358  21.196  25.877  1.00  0.00    -0.356 N 
ATOM      4  O   UNL A   1      33.602  20.965  24.420  1.00  0.00    -0.275 OA
ATOM      5  C   UNL A   1      34.047  21.383  25.484  1.00  0.00     0.220 C 
ATOM      6  H   UNL A   1      35.691  21.645  26.688  1.00  0.00     0.163 HD
BRANCH   5   7
ATOM      7  C   UNL A   1      33.182  22.121  26.486  1.00  0.00     0.104 C 
BRANCH   7   8
ATOM      8  C   UNL A   1      33.158  23.662  26.355  1.00  0.00     0.010 C 
ATOM      9  C   UNL A   1      34.466  24.283  25.806  1.00  0.00     0.069 C 
ATOM     10  C   UNL A   1      31.863  24.225  25.731  1.00  0.00     0.069 C 
ATOM     11  C   UNL A   1      34.337  25.112  24.512  1.00  0.00     0.185 C 
ATOM     12  C   UNL A   1      32.025  24.971  24.400  1.00  0.00     0.185 C 
ATOM     13  C   UNL A   1      34.064  24.191  23.320  1.00  0.00     0.071 C 
ATOM     14  N   UNL A   1      33.124  25.906  24.456  1.00  0.00    -0.327 N 
ATOM     15  C   UNL A   1      32.542  24.107  23.255  1.00  0.00     0.071 C 
ATOM     16  H   UNL A   1      33.123  26.515  23.638  1.00  0.00     0.348 HD
BRANCH  14  17
ATOM     17  C   UNL A   1      33.014  27.263  24.966  1.00  0.00     0.194 C 
ATOM     18  C   UNL A   1      33.367  27.407  26.455  1.00  0.00     0.067 C 
ATOM     19  C   UNL A   1      31.634  27.876  24.621  1.00  0.00     0.134 C 
ATOM     20  C   UNL A   1      33.282  28.847  26.968  1.00  0.00     0.017 C 
ATOM     21  S   UNL A   1      31.456  29.622  25.081  1.00  0.00    -0.156 SA
ATOM     22  C   UNL A   1      31.898  29.460  26.826  1.00  0.00     0.070 C 
ENDBRANCH  14  17
ENDBRANCH   7   8
ENDBRANCH   5   7
ENDBRANCH   2   3
ENDBRANCH   1   2
BRANCH   1  23
ATOM     23  C   UNL A   1      38.680  21.002  25.765  1.00  0.00     0.118 C 
BRANCH  23  24
ATOM     24  N   UNL A   1      39.647  19.923  25.628  1.00  0.00    -0.352 N 
ATOM     25  C   UNL A   1      40.957  19.833  26.049  1.00  0.00     0.251 C 
ATOM     26  H   UNL A   1      39.311  19.126  25.157  1.00  0.00     0.163 HD
ATOM     27  O   UNL A   1      41.585  18.797  25.873  1.00  0.00    -0.269 OA
BRANCH  25  28
ATOM     28  C   UNL A   1      41.647  21.011  26.625  1.00  0.00     0.039 A 
ATOM     29  C   UNL A   1      42.214  21.931  25.736  1.00  0.00     0.014 A 
ATOM     30  C   UNL A   1      41.692  21.255  27.999  1.00  0.00     0.014 A 
ATOM     31  C   UNL A   1      42.700  23.150  26.211  1.00  0.00     0.010 A 
ATOM     32  C   UNL A   1      42.109  22.501  28.465  1.00  0.00     0.010 A 
ATOM     33  C   UNL A   1      42.583  23.475  27.572  1.00  0.00    -0.014 A 
BRANCH  33  34
ATOM     34  C   UNL A   1      42.873  24.849  28.057  1.00  0.00     0.031 A 
ATOM     35  C   UNL A   1      44.267  25.250  28.450  1.00  0.00     0.074 A 
ATOM     36  C   UNL A   1      41.855  25.719  28.222  1.00  0.00     0.049 A 
ATOM     37  N   UNL A   1      44.684  26.378  28.968  1.00  0.00    -0.248 NA
ATOM     38  C   UNL A   1      45.324  24.245  28.259  1.00  0.00     0.031 C 
ATOM     39  C   UNL A   1      40.447  25.446  27.920  1.00  0.00     0.029 A 
ATOM     40  N   UNL A   1      41.846  27.007  28.696  1.00  0.00    -0.354 N 
ATOM     41  C   UNL A   1      46.046  26.214  29.180  1.00  0.00     0.074 A 
ATOM     42  C   UNL A   1      46.377  24.865  28.772  1.00  0.00     0.031 C 
ATOM     43  C   UNL A   1      39.719  26.540  28.190  1.00  0.00     0.029 A 
ATOM     44  C   UNL A   1      40.595  27.576  28.723  1.00  0.00     0.049 A 
ATOM     45  H   UNL A   1      42.659  27.480  28.988  1.00  0.00     0.167 HD
ATOM     46  C   UNL A   1      46.943  27.109  29.659  1.00  0.00     0.031 A 
ATOM     47  C   UNL A   1      40.192  28.792  29.138  1.00  0.00     0.031 A 
ATOM     48  C   UNL A   1      46.622  28.454  30.055  1.00  0.00     0.049 A 
ATOM     49  C   UNL A   1      41.207  29.763  29.671  1.00  0.00     0.074 A 
ATOM     50  C   UNL A   1      47.475  29.449  30.502  1.00  0.00     0.029 A 
ATOM     51  N   UNL A   1      45.346  28.995  30.053  1.00  0.00    -0.354 N 
ATOM     52  N   UNL A   1      42.500  29.610  29.810  1.00  0.00    -0.248 NA
ATOM     53  C   UNL A   1      40.705  31.079  30.094  1.00  0.00     0.031 C 
ATOM     54  C   UNL A   1      46.709  30.578  30.809  1.00  0.00     0.029 A 
ATOM     55  C   UNL A   1      45.386  30.301  30.508  1.00  0.00     0.049 A 
ATOM     56  H   UNL A   1      44.530  28.520  29.768  1.00  0.00     0.167 HD
ATOM     57  C   UNL A   1      42.971  30.817  30.310  1.00  0.00     0.074 A 
ATOM     58  C   UNL A   1      41.826  31.695  30.439  1.00  0.00     0.031 C 
ATOM     59  C   UNL A   1      44.241  31.165  30.629  1.00  0.00     0.031 A 
BRANCH  46  60
ATOM     60  C   UNL A   1      48.369  26.652  29.789  1.00  0.00    -0.014 A 
ATOM     61  C   UNL A   1      48.816  25.985  30.940  1.00  0.00     0.009 A 
ATOM     62  C   UNL A   1      49.268  26.861  28.731  1.00  0.00     0.009 A 
ATOM     63  C   UNL A   1      50.144  25.568  31.044  1.00  0.00     0.001 A 
ATOM     64  C   UNL A   1      50.589  26.420  28.828  1.00  0.00     0.001 A 
ATOM     65  C   UNL A   1      51.028  25.782  29.987  1.00  0.00     0.000 A 
ENDBRANCH  46  60
BRANCH  47  66
ATOM     66  C   UNL A   1      38.758  29.170  29.054  1.00  0.00    -0.014 A 
ATOM     67  C   UNL A   1      38.224  29.663  27.854  1.00  0.00     0.009 A 
ATOM     68  C   UNL A   1      37.918  29.042  30.171  1.00  0.00     0.009 A 
ATOM     69  C   UNL A   1      36.883  30.045  27.781  1.00  0.00     0.001 A 
ATOM     70  C   UNL A   1      36.570  29.401  30.087  1.00  0.00     0.001 A 
ATOM     71  C   UNL A   1      36.056  29.910  28.896  1.00  0.00     0.000 A 
ENDBRANCH  47  66
BRANCH  59  72
ATOM     72  C   UNL A   1      44.467  32.570  31.112  1.00  0.00    -0.014 A 
ATOM     73  C   UNL A   1      44.430  32.885  32.478  1.00  0.00     0.009 A 
ATOM     74  C   UNL A   1      44.762  33.582  30.186  1.00  0.00     0.009 A 
ATOM     75  C   UNL A   1      44.658  34.195  32.906  1.00  0.00     0.001 A 
ATOM     76  C   UNL A   1      45.013  34.885  30.618  1.00  0.00     0.001 A 
ATOM     77  C   UNL A   1      44.955  35.191  31.976  1.00  0.00     0.000 A 
ENDBRANCH  59  72
ENDBRANCH  33  34
ENDBRANCH  25  28
ENDBRANCH  23  24
ENDBRANCH   1  23
TORSDOF 12
ENDMDL
MODEL 3
REMARK VINA RESULT:     -10.8      4.766      9.194
REMARK SMILES O=C(C[C@H]1C[C@H]2CC[C@@H](C1)[N@H+]2[C@@H]1CCCSC1)NCCCNC(=O)c1ccc(-c2c3nc(c(-c4ccccc4)c4ccc([nH]4)c(-c4ccccc4)c4nc(c(-c5ccccc5)c5ccc2[nH]5)C=C4)C=C3)cc1
REMARK SMILES IDX 20 1 19 2 18 3 1 4 2 5 3 7 4 8 5 9 10 10 6 11 9 12 7 13
REMARK SMILES IDX 11 14 8 15 12 17 13 18 17 19 14 20 16 21 15 22 21 23 22 24
REMARK SMILES IDX 23 25 24 27 25 28 26 29 72 30 27 31 71 32 28 33 29 34 30 35
REMARK SMILES IDX 65 36 31 37 70 38 64 39 66 40 32 41 69 42 63 43 62 44 33 46
REMARK SMILES IDX 55 47 40 48 54 49 41 50 44 51 53 52 67 53 42 54 43 55 52 57
REMARK SMILES IDX 68 58 45 59 34 60 35 61 39 62 36 63 38 64 37 65 56 66 57 67
REMARK SMILES IDX 61 68 58 69 60 70 59 71 46 72 47 73 51 74 48 75 50 76 49 77
REMARK H PARENT 18 6 11 16 22 26 66 45 44 56
REMARK Flexibility Score: inf
ROOT
ATOM      1  C   UNL A   1      31.599  31.943  26.753  1.00  0.00     0.042 C 
ENDROOT
BRANCH   1   2
ATOM      2  C   UNL A   1      31.817  30.433  26.827  1.00  0.00     0.117 C 
BRANCH   2   3
ATOM      3  N   UNL A   1      32.279  29.839  25.586  1.00  0.00    -0.356 N 
ATOM      4  O   UNL A   1      34.353  29.310  26.410  1.00  0.00    -0.275 OA
ATOM      5  C   UNL A   1      33.526  29.252  25.506  1.00  0.00     0.220 C 
ATOM      6  H   UNL A   1      31.697  29.855  24.791  1.00  0.00     0.163 HD
BRANCH   5   7
ATOM      7  C   UNL A   1      33.791  28.493  24.220  1.00  0.00     0.104 C 
BRANCH   7   8
ATOM      8  C   UNL A   1      33.741  26.950  24.322  1.00  0.00     0.010 C 
ATOM      9  C   UNL A   1      33.577  26.404  25.762  1.00  0.00     0.069 C 
ATOM     10  C   UNL A   1      32.838  26.274  23.268  1.00  0.00     0.069 C 
ATOM     11  C   UNL A   1      32.339  25.521  26.020  1.00  0.00     0.185 C 
ATOM     12  C   UNL A   1      31.635  25.493  23.811  1.00  0.00     0.185 C 
ATOM     13  C   UNL A   1      31.070  26.376  26.009  1.00  0.00     0.071 C 
ATOM     14  N   UNL A   1      32.019  24.641  24.912  1.00  0.00    -0.327 N 
ATOM     15  C   UNL A   1      30.614  26.349  24.553  1.00  0.00     0.071 C 
ATOM     16  H   UNL A   1      31.261  24.004  25.158  1.00  0.00     0.348 HD
BRANCH  14  17
ATOM     17  C   UNL A   1      32.557  23.299  24.754  1.00  0.00     0.194 C 
ATOM     18  C   UNL A   1      31.881  22.474  23.649  1.00  0.00     0.067 C 
ATOM     19  C   UNL A   1      32.596  22.555  26.112  1.00  0.00     0.134 C 
ATOM     20  C   UNL A   1      32.483  21.078  23.470  1.00  0.00     0.017 C 
ATOM     21  S   UNL A   1      33.395  20.927  26.048  1.00  0.00    -0.156 SA
ATOM     22  C   UNL A   1      32.394  20.217  24.721  1.00  0.00     0.070 C 
ENDBRANCH  14  17
ENDBRANCH   7   8
ENDBRANCH   5   7
ENDBRANCH   2   3
ENDBRANCH   1   2
BRANCH   1  23
ATOM     23  C   UNL A   1      32.710  32.829  27.315  1.00  0.00     0.118 C 
BRANCH  23  24
ATOM     24  N   UNL A   1      32.291  34.159  27.730  1.00  0.00    -0.352 N 
ATOM     25  C   UNL A   1      32.908  35.079  28.552  1.00  0.00     0.251 C 
ATOM     26  H   UNL A   1      31.425  34.451  27.364  1.00  0.00     0.163 HD
ATOM     27  O   UNL A   1      32.397  36.177  28.729  1.00  0.00    -0.269 OA
BRANCH  25  28
ATOM     28  C   UNL A   1      34.133  34.717  29.303  1.00  0.00     0.039 A 
ATOM     29  C   UNL A   1      33.985  34.325  30.638  1.00  0.00     0.014 A 
ATOM     30  C   UNL A   1      35.396  34.700  28.710  1.00  0.00     0.014 A 
ATOM     31  C   UNL A   1      35.071  33.788  31.331  1.00  0.00     0.010 A 
ATOM     32  C   UNL A   1      36.462  34.096  29.376  1.00  0.00     0.010 A 
ATOM     33  C   UNL A   1      36.300  33.602  30.680  1.00  0.00    -0.014 A 
BRANCH  33  34
ATOM     34  C   UNL A   1      37.393  32.821  31.318  1.00  0.00     0.031 A 
ATOM     35  C   UNL A   1      37.956  33.230  32.649  1.00  0.00     0.074 A 
ATOM     36  C   UNL A   1      37.936  31.781  30.652  1.00  0.00     0.049 A 
ATOM     37  N   UNL A   1      38.959  32.713  33.312  1.00  0.00    -0.248 NA
ATOM     38  C   UNL A   1      37.325  34.383  33.310  1.00  0.00     0.031 C 
ATOM     39  C   UNL A   1      37.513  31.303  29.333  1.00  0.00     0.029 A 
ATOM     40  N   UNL A   1      38.971  30.944  30.990  1.00  0.00    -0.354 N 
ATOM     41  C   UNL A   1      39.093  33.486  34.458  1.00  0.00     0.074 A 
ATOM     42  C   UNL A   1      38.092  34.530  34.381  1.00  0.00     0.031 C 
ATOM     43  C   UNL A   1      38.262  30.245  28.988  1.00  0.00     0.029 A 
ATOM     44  C   UNL A   1      39.245  29.993  30.036  1.00  0.00     0.049 A 
ATOM     45  H   UNL A   1      39.469  31.018  31.836  1.00  0.00     0.167 HD
ATOM     46  C   UNL A   1      39.960  33.333  35.488  1.00  0.00     0.031 A 
ATOM     47  C   UNL A   1      40.185  29.031  30.000  1.00  0.00     0.031 A 
ATOM     48  C   UNL A   1      40.947  32.291  35.575  1.00  0.00     0.049 A 
ATOM     49  C   UNL A   1      41.138  28.887  31.152  1.00  0.00     0.074 A 
ATOM     50  C   UNL A   1      41.833  32.027  36.606  1.00  0.00     0.029 A 
ATOM     51  N   UNL A   1      41.181  31.340  34.594  1.00  0.00    -0.354 N 
ATOM     52  N   UNL A   1      41.211  29.593  32.254  1.00  0.00    -0.248 NA
ATOM     53  C   UNL A   1      42.132  27.808  31.058  1.00  0.00     0.031 C 
ATOM     54  C   UNL A   1      42.631  30.941  36.230  1.00  0.00     0.029 A 
ATOM     55  C   UNL A   1      42.209  30.500  34.987  1.00  0.00     0.049 A 
ATOM     56  H   UNL A   1      40.688  31.271  33.744  1.00  0.00     0.167 HD
ATOM     57  C   UNL A   1      42.238  29.026  32.997  1.00  0.00     0.074 A 
ATOM     58  C   UNL A   1      42.752  27.913  32.225  1.00  0.00     0.031 C 
ATOM     59  C   UNL A   1      42.709  29.395  34.213  1.00  0.00     0.031 A 
BRANCH  46  60
ATOM     60  C   UNL A   1      39.881  34.332  36.608  1.00  0.00    -0.014 A 
ATOM     61  C   UNL A   1      39.098  34.084  37.747  1.00  0.00     0.009 A 
ATOM     62  C   UNL A   1      40.625  35.520  36.539  1.00  0.00     0.009 A 
ATOM     63  C   UNL A   1      39.036  35.024  38.778  1.00  0.00     0.001 A 
ATOM     64  C   UNL A   1      40.580  36.445  37.583  1.00  0.00     0.001 A 
ATOM     65  C   UNL A   1      39.779  36.201  38.697  1.00  0.00     0.000 A 
ENDBRANCH  46  60
BRANCH  47  66
ATOM     66  C   UNL A   1      40.266  28.112  28.835  1.00  0.00    -0.014 A 
ATOM     67  C   UNL A   1      40.993  28.477  27.693  1.00  0.00     0.009 A 
ATOM     68  C   UNL A   1      39.615  26.869  28.859  1.00  0.00     0.009 A 
ATOM     69  C   UNL A   1      41.047  27.627  26.586  1.00  0.00     0.001 A 
ATOM     70  C   UNL A   1      39.692  26.009  27.761  1.00  0.00     0.001 A 
ATOM     71  C   UNL A   1      40.400  26.392  26.622  1.00  0.00     0.000 A 
ENDBRANCH  47  66
BRANCH  59  72
ATOM     72  C   UNL A   1      43.812  28.563  34.803  1.00  0.00    -0.014 A 
ATOM     73  C   UNL A   1      45.160  28.892  34.601  1.00  0.00     0.009 A 
ATOM     74  C   UNL A   1      43.492  27.459  35.607  1.00  0.00     0.009 A 
ATOM     75  C   UNL A   1      46.169  28.113  35.172  1.00  0.00     0.001 A 
ATOM     76  C   UNL A   1      44.501  26.697  36.196  1.00  0.00     0.001 A 
ATOM     77  C   UNL A   1      45.839  27.021  35.973  1.00  0.00     0.000 A 
ENDBRANCH  59  72
ENDBRANCH  33  34
ENDBRANCH  25  28
ENDBRANCH  23  24
ENDBRANCH   1  23
TORSDOF 12
ENDMDL
