MODEL 1
REMARK VINA RESULT:     -11.3      0.000      0.000
REMARK SMILES CC[NH+]1CCC2(CC1)OC[C@@H](C(=O)NCCCNC(=O)c1ccc(-c3c4nc(c(-c5ccccc5)c5ccc([nH]5)c(-c5ccccc5)c5nc(c(-c6ccccc6)c6ccc3[nH]6)C=C5)C=C4)cc1)N2C(=O)c1ccc(Cl)c([N+](=O)[O-])c1
REMARK SMILES IDX 15 1 14 2 12 3 13 4 11 6 3 7 4 8 8 9 5 11 7 12 6 13 9 14
REMARK SMILES IDX 69 15 10 16 2 17 1 18 70 19 71 20 72 21 73 22 81 23 74 24
REMARK SMILES IDX 77 25 75 26 76 27 78 28 79 29 80 30 16 31 17 32 18 33 19 34
REMARK SMILES IDX 20 36 21 37 22 38 68 39 23 40 67 41 24 42 25 43 26 44 61 45
REMARK SMILES IDX 27 46 66 47 60 48 62 49 28 50 65 51 59 52 58 53 29 55 51 56
REMARK SMILES IDX 36 57 50 58 37 59 40 60 49 61 63 62 38 63 39 64 48 66 64 67
REMARK SMILES IDX 41 68 30 69 31 70 35 71 32 72 34 73 33 74 52 75 53 76 57 77
REMARK SMILES IDX 54 78 56 79 55 80 42 81 43 82 47 83 44 84 46 85 45 86
REMARK H PARENT 14 5 3 10 18 35 62 54 40 65
REMARK Flexibility Score: inf
ROOT
ATOM      1  C   UNL A   1      38.987  22.212  26.218  1.00  0.00     0.117 C 
ENDROOT
BRANCH   1   2
ATOM      2  N   UNL A   1      38.474  22.217  24.867  1.00  0.00    -0.354 N 
ATOM      3  C   UNL A   1      37.210  22.022  24.401  1.00  0.00     0.245 C 
ATOM      4  O   UNL A   1      37.035  22.222  23.194  1.00  0.00    -0.273 OA
ATOM      5  H   UNL A   1      39.148  22.389  24.170  1.00  0.00     0.163 HD
BRANCH   3   6
ATOM      6  C   UNL A   1      36.001  21.824  25.335  1.00  0.00     0.203 C 
ATOM      7  N   UNL A   1      31.055  23.077  26.351  1.00  0.00    -0.335 N 
ATOM      8  C   UNL A   1      32.084  22.614  27.287  1.00  0.00     0.267 C 
ATOM      9  C   UNL A   1      31.493  23.277  24.976  1.00  0.00     0.267 C 
ATOM     10  H   UNL A   1      30.842  24.042  26.604  1.00  0.00     0.348 HD
ATOM     11  C   UNL A   1      33.068  21.589  26.748  1.00  0.00     0.120 C 
ATOM     12  C   UNL A   1      32.453  22.258  24.411  1.00  0.00     0.120 C 
ATOM     13  C   UNL A   1      33.606  21.904  25.344  1.00  0.00     0.155 C 
ATOM     14  O   UNL A   1      34.037  20.610  24.830  1.00  0.00    -0.352 OA
ATOM     15  N   UNL A   1      34.842  22.723  25.296  1.00  0.00    -0.295 N 
ATOM     16  C   UNL A   1      35.440  20.448  25.037  1.00  0.00     0.198 C 
BRANCH   7  17
ATOM     17  C   UNL A   1      29.806  22.330  26.536  1.00  0.00     0.258 C 
ATOM     18  C   UNL A   1      28.880  22.835  27.636  1.00  0.00     0.071 C 
ENDBRANCH   7  17
BRANCH  15  19
ATOM     19  C   UNL A   1      35.140  24.070  25.539  1.00  0.00     0.257 C 
ATOM     20  O   UNL A   1      36.177  24.419  26.103  1.00  0.00    -0.269 OA
BRANCH  19  21
ATOM     21  C   UNL A   1      34.300  25.196  25.088  1.00  0.00     0.047 A 
ATOM     22  C   UNL A   1      33.555  25.942  26.005  1.00  0.00     0.016 A 
ATOM     23  C   UNL A   1      34.145  25.460  23.728  1.00  0.00     0.101 A 
ATOM     24  C   UNL A   1      32.820  27.055  25.579  1.00  0.00     0.028 A 
ATOM     25  C   UNL A   1      33.500  26.644  23.302  1.00  0.00     0.288 A 
ATOM     26  C   UNL A   1      32.829  27.449  24.233  1.00  0.00     0.118 A 
ATOM     27  Cl  UNL A   1      31.971  28.906  23.886  1.00  0.00    -0.077 Cl
BRANCH  25  28
ATOM     28  N   UNL A   1      33.671  27.025  21.892  1.00  0.00     0.064 N 
ATOM     29  O   UNL A   1      34.153  28.129  21.617  1.00  0.00    -0.258 OA
ATOM     30  O   UNL A   1      33.359  26.180  21.039  1.00  0.00    -0.258 OA
ENDBRANCH  25  28
ENDBRANCH  19  21
ENDBRANCH  15  19
ENDBRANCH   3   6
ENDBRANCH   1   2
BRANCH   1  31
ATOM     31  C   UNL A   1      39.372  20.812  26.653  1.00  0.00     0.042 C 
BRANCH  31  32
ATOM     32  C   UNL A   1      39.539  19.821  25.511  1.00  0.00     0.118 C 
BRANCH  32  33
ATOM     33  N   UNL A   1      40.590  18.849  25.760  1.00  0.00    -0.352 N 
ATOM     34  C   UNL A   1      41.909  19.037  26.097  1.00  0.00     0.251 C 
ATOM     35  H   UNL A   1      40.314  17.908  25.675  1.00  0.00     0.163 HD
ATOM     36  O   UNL A   1      42.680  18.087  26.085  1.00  0.00    -0.269 OA
BRANCH  34  37
ATOM     37  C   UNL A   1      42.403  20.388  26.442  1.00  0.00     0.039 A 
ATOM     38  C   UNL A   1      42.858  21.218  25.413  1.00  0.00     0.014 A 
ATOM     39  C   UNL A   1      42.425  20.836  27.764  1.00  0.00     0.014 A 
ATOM     40  C   UNL A   1      43.263  22.522  25.705  1.00  0.00     0.010 A 
ATOM     41  C   UNL A   1      42.737  22.163  28.040  1.00  0.00     0.010 A 
ATOM     42  C   UNL A   1      43.165  23.019  27.015  1.00  0.00    -0.014 A 
BRANCH  42  43
ATOM     43  C   UNL A   1      43.500  24.431  27.331  1.00  0.00     0.031 A 
ATOM     44  C   UNL A   1      44.931  24.894  27.301  1.00  0.00     0.074 A 
ATOM     45  C   UNL A   1      42.524  25.278  27.715  1.00  0.00     0.049 A 
ATOM     46  N   UNL A   1      45.425  26.065  27.613  1.00  0.00    -0.248 NA
ATOM     47  C   UNL A   1      45.942  23.905  26.892  1.00  0.00     0.031 C 
ATOM     48  C   UNL A   1      41.101  24.942  27.821  1.00  0.00     0.029 A 
ATOM     49  N   UNL A   1      42.582  26.595  28.093  1.00  0.00    -0.354 N 
ATOM     50  C   UNL A   1      46.800  25.947  27.457  1.00  0.00     0.074 A 
ATOM     51  C   UNL A   1      47.068  24.579  27.074  1.00  0.00     0.031 C 
ATOM     52  C   UNL A   1      40.421  26.032  28.210  1.00  0.00     0.029 A 
ATOM     53  C   UNL A   1      41.359  27.127  28.427  1.00  0.00     0.049 A 
ATOM     54  H   UNL A   1      43.420  27.111  28.122  1.00  0.00     0.167 HD
ATOM     55  C   UNL A   1      47.754  26.897  27.601  1.00  0.00     0.031 A 
ATOM     56  C   UNL A   1      41.030  28.355  28.871  1.00  0.00     0.031 A 
ATOM     57  C   UNL A   1      47.487  28.261  27.974  1.00  0.00     0.049 A 
ATOM     58  C   UNL A   1      42.112  29.384  29.047  1.00  0.00     0.074 A 
ATOM     59  C   UNL A   1      48.378  29.313  28.087  1.00  0.00     0.029 A 
ATOM     60  N   UNL A   1      46.235  28.758  28.302  1.00  0.00    -0.354 N 
ATOM     61  N   UNL A   1      43.399  29.278  28.821  1.00  0.00    -0.248 NA
ATOM     62  C   UNL A   1      41.693  30.707  29.531  1.00  0.00     0.031 C 
ATOM     63  C   UNL A   1      47.676  30.432  28.545  1.00  0.00     0.029 A 
ATOM     64  C   UNL A   1      46.336  30.094  28.650  1.00  0.00     0.049 A 
ATOM     65  H   UNL A   1      45.398  28.239  28.289  1.00  0.00     0.167 HD
ATOM     66  C   UNL A   1      43.939  30.526  29.107  1.00  0.00     0.074 A 
ATOM     67  C   UNL A   1      42.837  31.377  29.505  1.00  0.00     0.031 C 
ATOM     68  C   UNL A   1      45.231  30.929  29.045  1.00  0.00     0.031 A 
BRANCH  55  69
ATOM     69  C   UNL A   1      49.184  26.490  27.368  1.00  0.00    -0.014 A 
ATOM     70  C   UNL A   1      49.745  26.500  26.081  1.00  0.00     0.009 A 
ATOM     71  C   UNL A   1      49.994  26.134  28.458  1.00  0.00     0.009 A 
ATOM     72  C   UNL A   1      51.077  26.126  25.887  1.00  0.00     0.001 A 
ATOM     73  C   UNL A   1      51.333  25.791  28.265  1.00  0.00     0.001 A 
ATOM     74  C   UNL A   1      51.872  25.778  26.979  1.00  0.00     0.000 A 
ENDBRANCH  55  69
BRANCH  56  75
ATOM     75  C   UNL A   1      39.613  28.683  29.182  1.00  0.00    -0.014 A 
ATOM     76  C   UNL A   1      38.783  29.259  28.209  1.00  0.00     0.009 A 
ATOM     77  C   UNL A   1      39.087  28.430  30.459  1.00  0.00     0.009 A 
ATOM     78  C   UNL A   1      37.464  29.605  28.518  1.00  0.00     0.001 A 
ATOM     79  C   UNL A   1      37.759  28.746  30.754  1.00  0.00     0.001 A 
ATOM     80  C   UNL A   1      36.953  29.344  29.788  1.00  0.00     0.000 A 
ENDBRANCH  56  75
BRANCH  68  81
ATOM     81  C   UNL A   1      45.523  32.365  29.382  1.00  0.00    -0.014 A 
ATOM     82  C   UNL A   1      45.867  32.756  30.685  1.00  0.00     0.009 A 
ATOM     83  C   UNL A   1      45.500  33.333  28.364  1.00  0.00     0.009 A 
ATOM     84  C   UNL A   1      46.152  34.095  30.967  1.00  0.00     0.001 A 
ATOM     85  C   UNL A   1      45.817  34.664  28.643  1.00  0.00     0.001 A 
ATOM     86  C   UNL A   1      46.134  35.044  29.947  1.00  0.00     0.000 A 
ENDBRANCH  68  81
ENDBRANCH  42  43
ENDBRANCH  34  37
ENDBRANCH  32  33
ENDBRANCH  31  32
ENDBRANCH   1  31
TORSDOF 14
ENDMDL
MODEL 2
REMARK VINA RESULT:     -10.8      4.449      9.107
REMARK SMILES CC[NH+]1CCC2(CC1)OC[C@@H](C(=O)NCCCNC(=O)c1ccc(-c3c4nc(c(-c5ccccc5)c5ccc([nH]5)c(-c5ccccc5)c5nc(c(-c6ccccc6)c6ccc3[nH]6)C=C5)C=C4)cc1)N2C(=O)c1ccc(Cl)c([N+](=O)[O-])c1
REMARK SMILES IDX 15 1 14 2 12 3 13 4 11 6 3 7 4 8 8 9 5 11 7 12 6 13 9 14
REMARK SMILES IDX 69 15 10 16 2 17 1 18 70 19 71 20 72 21 73 22 81 23 74 24
REMARK SMILES IDX 77 25 75 26 76 27 78 28 79 29 80 30 16 31 17 32 18 33 19 34
REMARK SMILES IDX 20 36 21 37 22 38 68 39 23 40 67 41 24 42 25 43 26 44 61 45
REMARK SMILES IDX 27 46 66 47 60 48 62 49 28 50 65 51 59 52 58 53 29 55 51 56
REMARK SMILES IDX 36 57 50 58 37 59 40 60 49 61 63 62 38 63 39 64 48 66 64 67
REMARK SMILES IDX 41 68 30 69 31 70 35 71 32 72 34 73 33 74 52 75 53 76 57 77
REMARK SMILES IDX 54 78 56 79 55 80 42 81 43 82 47 83 44 84 46 85 45 86
REMARK H PARENT 14 5 3 10 18 35 62 54 40 65
REMARK Flexibility Score: inf
ROOT
ATOM      1  C   UNL A   1      34.083  31.051  27.510  1.00  0.00     0.117 C 
ENDROOT
BRANCH   1   2
ATOM      2  N   UNL A   1      32.972  30.207  27.887  1.00  0.00    -0.354 N 
ATOM      3  C   UNL A   1      32.194  29.382  27.135  1.00  0.00     0.245 C 
ATOM      4  O   UNL A   1      31.396  28.668  27.753  1.00  0.00    -0.273 OA
ATOM      5  H   UNL A   1      32.740  30.233  28.844  1.00  0.00     0.163 HD
BRANCH   3   6
ATOM      6  C   UNL A   1      32.449  29.136  25.636  1.00  0.00     0.203 C 
ATOM      7  N   UNL A   1      32.446  25.683  21.744  1.00  0.00    -0.335 N 
ATOM      8  C   UNL A   1      33.229  26.918  21.861  1.00  0.00     0.267 C 
ATOM      9  C   UNL A   1      31.618  25.348  22.895  1.00  0.00     0.267 C 
ATOM     10  H   UNL A   1      33.111  24.911  21.782  1.00  0.00     0.348 HD
ATOM     11  C   UNL A   1      32.540  28.086  22.547  1.00  0.00     0.120 C 
ATOM     12  C   UNL A   1      30.904  26.490  23.578  1.00  0.00     0.120 C 
ATOM     13  C   UNL A   1      31.781  27.711  23.829  1.00  0.00     0.155 C 
ATOM     14  O   UNL A   1      30.797  28.775  23.984  1.00  0.00    -0.352 OA
ATOM     15  N   UNL A   1      32.566  27.782  25.086  1.00  0.00    -0.295 N 
ATOM     16  C   UNL A   1      31.290  29.764  24.887  1.00  0.00     0.198 C 
BRANCH   7  17
ATOM     17  C   UNL A   1      31.803  25.595  20.429  1.00  0.00     0.258 C 
ATOM     18  C   UNL A   1      32.738  25.420  19.237  1.00  0.00     0.071 C 
ENDBRANCH   7  17
BRANCH  15  19
ATOM     19  C   UNL A   1      33.587  27.008  25.653  1.00  0.00     0.257 C 
ATOM     20  O   UNL A   1      34.527  27.514  26.266  1.00  0.00    -0.269 OA
BRANCH  19  21
ATOM     21  C   UNL A   1      33.607  25.533  25.644  1.00  0.00     0.047 A 
ATOM     22  C   UNL A   1      32.691  24.801  26.404  1.00  0.00     0.016 A 
ATOM     23  C   UNL A   1      34.614  24.847  24.967  1.00  0.00     0.101 A 
ATOM     24  C   UNL A   1      32.670  23.403  26.331  1.00  0.00     0.028 A 
ATOM     25  C   UNL A   1      34.530  23.444  24.798  1.00  0.00     0.288 A 
ATOM     26  C   UNL A   1      33.552  22.714  25.486  1.00  0.00     0.118 A 
ATOM     27  Cl  UNL A   1      33.323  21.004  25.418  1.00  0.00    -0.077 Cl
BRANCH  25  28
ATOM     28  N   UNL A   1      35.426  22.840  23.800  1.00  0.00     0.064 N 
ATOM     29  O   UNL A   1      36.157  21.901  24.133  1.00  0.00    -0.258 OA
ATOM     30  O   UNL A   1      35.361  23.284  22.644  1.00  0.00    -0.258 OA
ENDBRANCH  25  28
ENDBRANCH  19  21
ENDBRANCH  15  19
ENDBRANCH   3   6
ENDBRANCH   1   2
BRANCH   1  31
ATOM     31  C   UNL A   1      34.562  31.883  28.683  1.00  0.00     0.042 C 
BRANCH  31  32
ATOM     32  C   UNL A   1      34.355  33.382  28.519  1.00  0.00     0.118 C 
BRANCH  32  33
ATOM     33  N   UNL A   1      33.852  34.014  29.726  1.00  0.00    -0.352 N 
ATOM     34  C   UNL A   1      34.313  33.950  31.019  1.00  0.00     0.251 C 
ATOM     35  H   UNL A   1      33.055  34.578  29.598  1.00  0.00     0.163 HD
ATOM     36  O   UNL A   1      33.638  34.412  31.929  1.00  0.00    -0.269 OA
BRANCH  34  37
ATOM     37  C   UNL A   1      35.607  33.297  31.314  1.00  0.00     0.039 A 
ATOM     38  C   UNL A   1      35.608  32.132  32.087  1.00  0.00     0.014 A 
ATOM     39  C   UNL A   1      36.810  33.825  30.843  1.00  0.00     0.014 A 
ATOM     40  C   UNL A   1      36.809  31.458  32.320  1.00  0.00     0.010 A 
ATOM     41  C   UNL A   1      37.989  33.103  30.995  1.00  0.00     0.010 A 
ATOM     42  C   UNL A   1      38.003  31.915  31.740  1.00  0.00    -0.014 A 
BRANCH  42  43
ATOM     43  C   UNL A   1      39.274  31.163  31.896  1.00  0.00     0.031 A 
ATOM     44  C   UNL A   1      39.608  30.038  30.954  1.00  0.00     0.074 A 
ATOM     45  C   UNL A   1      40.093  31.445  32.928  1.00  0.00     0.049 A 
ATOM     46  N   UNL A   1      40.633  29.224  30.973  1.00  0.00    -0.248 NA
ATOM     47  C   UNL A   1      38.653  29.776  29.864  1.00  0.00     0.031 C 
ATOM     48  C   UNL A   1      39.865  32.487  33.933  1.00  0.00     0.029 A 
ATOM     49  N   UNL A   1      41.282  30.875  33.307  1.00  0.00    -0.354 N 
ATOM     50  C   UNL A   1      40.436  28.346  29.915  1.00  0.00     0.074 A 
ATOM     51  C   UNL A   1      39.170  28.692  29.306  1.00  0.00     0.031 C 
ATOM     52  C   UNL A   1      40.894  32.498  34.795  1.00  0.00     0.029 A 
ATOM     53  C   UNL A   1      41.828  31.438  34.436  1.00  0.00     0.049 A 
ATOM     54  H   UNL A   1      41.705  30.134  32.816  1.00  0.00     0.167 HD
ATOM     55  C   UNL A   1      41.244  27.352  29.475  1.00  0.00     0.031 A 
ATOM     56  C   UNL A   1      42.949  31.126  35.115  1.00  0.00     0.031 A 
ATOM     57  C   UNL A   1      42.508  27.014  30.076  1.00  0.00     0.049 A 
ATOM     58  C   UNL A   1      43.816  30.002  34.621  1.00  0.00     0.074 A 
ATOM     59  C   UNL A   1      43.428  26.065  29.667  1.00  0.00     0.029 A 
ATOM     60  N   UNL A   1      43.023  27.609  31.216  1.00  0.00    -0.354 N 
ATOM     61  N   UNL A   1      43.654  29.232  33.572  1.00  0.00    -0.248 NA
ATOM     62  C   UNL A   1      45.028  29.710  35.400  1.00  0.00     0.031 C 
ATOM     63  C   UNL A   1      44.471  26.040  30.598  1.00  0.00     0.029 A 
ATOM     64  C   UNL A   1      44.234  27.023  31.546  1.00  0.00     0.049 A 
ATOM     65  H   UNL A   1      42.594  28.339  31.718  1.00  0.00     0.167 HD
ATOM     66  C   UNL A   1      44.755  28.385  33.550  1.00  0.00     0.074 A 
ATOM     67  C   UNL A   1      45.586  28.749  34.678  1.00  0.00     0.031 C 
ATOM     68  C   UNL A   1      45.050  27.395  32.673  1.00  0.00     0.031 A 
BRANCH  55  69
ATOM     69  C   UNL A   1      40.779  26.547  28.293  1.00  0.00    -0.014 A 
ATOM     70  C   UNL A   1      41.258  26.807  26.999  1.00  0.00     0.009 A 
ATOM     71  C   UNL A   1      39.882  25.484  28.483  1.00  0.00     0.009 A 
ATOM     72  C   UNL A   1      40.820  26.042  25.915  1.00  0.00     0.001 A 
ATOM     73  C   UNL A   1      39.471  24.702  27.403  1.00  0.00     0.001 A 
ATOM     74  C   UNL A   1      39.931  24.986  26.118  1.00  0.00     0.000 A 
ENDBRANCH  55  69
BRANCH  56  75
ATOM     75  C   UNL A   1      43.318  31.889  36.337  1.00  0.00    -0.014 A 
ATOM     76  C   UNL A   1      42.859  31.483  37.599  1.00  0.00     0.009 A 
ATOM     77  C   UNL A   1      44.125  33.035  36.246  1.00  0.00     0.009 A 
ATOM     78  C   UNL A   1      43.173  32.227  38.740  1.00  0.00     0.001 A 
ATOM     79  C   UNL A   1      44.465  33.757  37.392  1.00  0.00     0.001 A 
ATOM     80  C   UNL A   1      43.979  33.359  38.636  1.00  0.00     0.000 A 
ENDBRANCH  56  75
BRANCH  68  81
ATOM     81  C   UNL A   1      46.344  26.656  32.876  1.00  0.00    -0.014 A 
ATOM     82  C   UNL A   1      47.549  27.125  32.329  1.00  0.00     0.009 A 
ATOM     83  C   UNL A   1      46.362  25.498  33.670  1.00  0.00     0.009 A 
ATOM     84  C   UNL A   1      48.740  26.429  32.549  1.00  0.00     0.001 A 
ATOM     85  C   UNL A   1      47.560  24.824  33.914  1.00  0.00     0.001 A 
ATOM     86  C   UNL A   1      48.746  25.285  33.346  1.00  0.00     0.000 A 
ENDBRANCH  68  81
ENDBRANCH  42  43
ENDBRANCH  34  37
ENDBRANCH  32  33
ENDBRANCH  31  32
ENDBRANCH   1  31
TORSDOF 14
ENDMDL
MODEL 3
REMARK VINA RESULT:     -10.5      1.803      6.113
REMARK SMILES CC[NH+]1CCC2(CC1)OC[C@@H](C(=O)NCCCNC(=O)c1ccc(-c3c4nc(c(-c5ccccc5)c5ccc([nH]5)c(-c5ccccc5)c5nc(c(-c6ccccc6)c6ccc3[nH]6)C=C5)C=C4)cc1)N2C(=O)c1ccc(Cl)c([N+](=O)[O-])c1
REMARK SMILES IDX 15 1 14 2 12 3 13 4 11 6 3 7 4 8 8 9 5 11 7 12 6 13 9 14
REMARK SMILES IDX 69 15 10 16 2 17 1 18 70 19 71 20 72 21 73 22 81 23 74 24
REMARK SMILES IDX 77 25 75 26 76 27 78 28 79 29 80 30 16 31 17 32 18 33 19 34
REMARK SMILES IDX 20 36 21 37 22 38 68 39 23 40 67 41 24 42 25 43 26 44 61 45
REMARK SMILES IDX 27 46 66 47 60 48 62 49 28 50 65 51 59 52 58 53 29 55 51 56
REMARK SMILES IDX 36 57 50 58 37 59 40 60 49 61 63 62 38 63 39 64 48 66 64 67
REMARK SMILES IDX 41 68 30 69 31 70 35 71 32 72 34 73 33 74 52 75 53 76 57 77
REMARK SMILES IDX 54 78 56 79 55 80 42 81 43 82 47 83 44 84 46 85 45 86
REMARK H PARENT 14 5 3 10 18 35 62 54 40 65
REMARK Flexibility Score: inf
ROOT
ATOM      1  C   UNL A   1      38.823  21.173  25.923  1.00  0.00     0.117 C 
ENDROOT
BRANCH   1   2
ATOM      2  N   UNL A   1      38.306  21.678  24.670  1.00  0.00    -0.354 N 
ATOM      3  C   UNL A   1      37.028  21.940  24.284  1.00  0.00     0.245 C 
ATOM      4  O   UNL A   1      36.892  22.502  23.191  1.00  0.00    -0.273 OA
ATOM      5  H   UNL A   1      38.990  21.862  23.986  1.00  0.00     0.163 HD
BRANCH   3   6
ATOM      6  C   UNL A   1      35.826  21.800  25.236  1.00  0.00     0.203 C 
ATOM      7  N   UNL A   1      30.899  23.145  26.228  1.00  0.00    -0.335 N 
ATOM      8  C   UNL A   1      31.933  22.721  27.178  1.00  0.00     0.267 C 
ATOM      9  C   UNL A   1      31.327  23.271  24.841  1.00  0.00     0.267 C 
ATOM     10  H   UNL A   1      30.696  24.123  26.433  1.00  0.00     0.348 HD
ATOM     11  C   UNL A   1      32.903  21.662  26.683  1.00  0.00     0.120 C 
ATOM     12  C   UNL A   1      32.274  22.217  24.320  1.00  0.00     0.120 C 
ATOM     13  C   UNL A   1      33.432  21.901  25.260  1.00  0.00     0.155 C 
ATOM     14  O   UNL A   1      33.848  20.578  24.809  1.00  0.00    -0.352 OA
ATOM     15  N   UNL A   1      34.674  22.706  25.161  1.00  0.00    -0.295 N 
ATOM     16  C   UNL A   1      35.251  20.415  25.012  1.00  0.00     0.198 C 
BRANCH   7  17
ATOM     17  C   UNL A   1      29.646  22.418  26.460  1.00  0.00     0.258 C 
ATOM     18  C   UNL A   1      28.838  22.849  27.679  1.00  0.00     0.071 C 
ENDBRANCH   7  17
BRANCH  15  19
ATOM     19  C   UNL A   1      34.985  24.061  25.332  1.00  0.00     0.257 C 
ATOM     20  O   UNL A   1      36.067  24.430  25.787  1.00  0.00    -0.269 OA
BRANCH  19  21
ATOM     21  C   UNL A   1      34.100  25.169  24.926  1.00  0.00     0.047 A 
ATOM     22  C   UNL A   1      34.070  25.610  23.601  1.00  0.00     0.016 A 
ATOM     23  C   UNL A   1      33.365  25.869  25.881  1.00  0.00     0.101 A 
ATOM     24  C   UNL A   1      33.174  26.611  23.209  1.00  0.00     0.028 A 
ATOM     25  C   UNL A   1      32.378  26.800  25.478  1.00  0.00     0.288 A 
ATOM     26  C   UNL A   1      32.281  27.177  24.131  1.00  0.00     0.118 A 
ATOM     27  Cl  UNL A   1      31.161  28.312  23.471  1.00  0.00    -0.077 Cl
BRANCH  25  28
ATOM     28  N   UNL A   1      31.420  27.240  26.502  1.00  0.00     0.064 N 
ATOM     29  O   UNL A   1      31.433  28.418  26.878  1.00  0.00    -0.258 OA
ATOM     30  O   UNL A   1      30.604  26.399  26.908  1.00  0.00    -0.258 OA
ENDBRANCH  25  28
ENDBRANCH  19  21
ENDBRANCH  15  19
ENDBRANCH   3   6
ENDBRANCH   1   2
BRANCH   1  31
ATOM     31  C   UNL A   1      40.292  21.510  26.084  1.00  0.00     0.042 C 
BRANCH  31  32
ATOM     32  C   UNL A   1      41.157  20.349  26.554  1.00  0.00     0.118 C 
BRANCH  32  33
ATOM     33  N   UNL A   1      42.375  20.205  25.775  1.00  0.00    -0.352 N 
ATOM     34  C   UNL A   1      43.327  21.137  25.439  1.00  0.00     0.251 C 
ATOM     35  H   UNL A   1      42.546  19.297  25.435  1.00  0.00     0.163 HD
ATOM     36  O   UNL A   1      44.190  20.856  24.618  1.00  0.00    -0.269 OA
BRANCH  34  37
ATOM     37  C   UNL A   1      43.291  22.487  26.043  1.00  0.00     0.039 A 
ATOM     38  C   UNL A   1      43.475  22.610  27.423  1.00  0.00     0.014 A 
ATOM     39  C   UNL A   1      43.072  23.624  25.262  1.00  0.00     0.014 A 
ATOM     40  C   UNL A   1      43.515  23.878  28.005  1.00  0.00     0.010 A 
ATOM     41  C   UNL A   1      43.208  24.888  25.828  1.00  0.00     0.010 A 
ATOM     42  C   UNL A   1      43.426  25.029  27.206  1.00  0.00    -0.014 A 
BRANCH  42  43
ATOM     43  C   UNL A   1      43.561  26.387  27.790  1.00  0.00     0.031 A 
ATOM     44  C   UNL A   1      42.335  27.177  28.162  1.00  0.00     0.074 A 
ATOM     45  C   UNL A   1      44.784  26.938  27.921  1.00  0.00     0.049 A 
ATOM     46  N   UNL A   1      42.250  28.401  28.619  1.00  0.00    -0.248 NA
ATOM     47  C   UNL A   1      41.034  26.515  27.972  1.00  0.00     0.031 C 
ATOM     48  C   UNL A   1      46.049  26.292  27.561  1.00  0.00     0.029 A 
ATOM     49  N   UNL A   1      45.163  28.172  28.385  1.00  0.00    -0.354 N 
ATOM     50  C   UNL A   1      40.891  28.659  28.751  1.00  0.00     0.074 A 
ATOM     51  C   UNL A   1      40.188  27.487  28.278  1.00  0.00     0.031 C 
ATOM     52  C   UNL A   1      47.063  27.125  27.845  1.00  0.00     0.029 A 
ATOM     53  C   UNL A   1      46.522  28.377  28.358  1.00  0.00     0.049 A 
ATOM     54  H   UNL A   1      44.523  28.847  28.708  1.00  0.00     0.167 HD
ATOM     55  C   UNL A   1      40.283  29.765  29.241  1.00  0.00     0.031 A 
ATOM     56  C   UNL A   1      47.251  29.458  28.696  1.00  0.00     0.031 A 
ATOM     57  C   UNL A   1      40.983  30.927  29.719  1.00  0.00     0.049 A 
ATOM     58  C   UNL A   1      46.549  30.683  29.213  1.00  0.00     0.074 A 
ATOM     59  C   UNL A   1      40.458  32.074  30.290  1.00  0.00     0.029 A 
ATOM     60  N   UNL A   1      42.358  31.094  29.675  1.00  0.00    -0.354 N 
ATOM     61  N   UNL A   1      45.267  30.883  29.404  1.00  0.00    -0.248 NA
ATOM     62  C   UNL A   1      47.396  31.830  29.569  1.00  0.00     0.031 C 
ATOM     63  C   UNL A   1      41.511  32.961  30.532  1.00  0.00     0.029 A 
ATOM     64  C   UNL A   1      42.698  32.338  30.178  1.00  0.00     0.049 A 
ATOM     65  H   UNL A   1      42.999  30.427  29.338  1.00  0.00     0.167 HD
ATOM     66  C   UNL A   1      45.157  32.165  29.929  1.00  0.00     0.074 A 
ATOM     67  C   UNL A   1      46.503  32.687  30.043  1.00  0.00     0.031 C 
ATOM     68  C   UNL A   1      44.041  32.846  30.284  1.00  0.00     0.031 A 
BRANCH  55  69
ATOM     69  C   UNL A   1      38.778  29.778  29.270  1.00  0.00    -0.014 A 
ATOM     70  C   UNL A   1      38.029  30.121  28.133  1.00  0.00     0.009 A 
ATOM     71  C   UNL A   1      38.101  29.398  30.439  1.00  0.00     0.009 A 
ATOM     72  C   UNL A   1      36.632  30.119  28.178  1.00  0.00     0.001 A 
ATOM     73  C   UNL A   1      36.706  29.367  30.472  1.00  0.00     0.001 A 
ATOM     74  C   UNL A   1      35.972  29.736  29.345  1.00  0.00     0.000 A 
ENDBRANCH  55  69
BRANCH  56  75
ATOM     75  C   UNL A   1      48.732  29.434  28.559  1.00  0.00    -0.014 A 
ATOM     76  C   UNL A   1      49.341  29.745  27.334  1.00  0.00     0.009 A 
ATOM     77  C   UNL A   1      49.544  29.089  29.650  1.00  0.00     0.009 A 
ATOM     78  C   UNL A   1      50.730  29.679  27.196  1.00  0.00     0.001 A 
ATOM     79  C   UNL A   1      50.934  29.057  29.520  1.00  0.00     0.001 A 
ATOM     80  C   UNL A   1      51.525  29.341  28.290  1.00  0.00     0.000 A 
ENDBRANCH  56  75
BRANCH  68  81
ATOM     81  C   UNL A   1      44.228  34.221  30.865  1.00  0.00    -0.014 A 
ATOM     82  C   UNL A   1      44.163  35.370  30.061  1.00  0.00     0.009 A 
ATOM     83  C   UNL A   1      44.420  34.368  32.248  1.00  0.00     0.009 A 
ATOM     84  C   UNL A   1      44.321  36.636  30.628  1.00  0.00     0.001 A 
ATOM     85  C   UNL A   1      44.545  35.637  32.816  1.00  0.00     0.001 A 
ATOM     86  C   UNL A   1      44.504  36.769  32.004  1.00  0.00     0.000 A 
ENDBRANCH  68  81
ENDBRANCH  42  43
ENDBRANCH  34  37
ENDBRANCH  32  33
ENDBRANCH  31  32
ENDBRANCH   1  31
TORSDOF 14
ENDMDL
