MODEL 1
REMARK VINA RESULT:     -11.1      0.000      0.000
REMARK SMILES O=C(NCCCNC(=O)c1ccc(Cl)nc1NC[C@@H]1C[N@@H+]2CCC[C@@H]2CO1)c1ccc(-c2c3nc(c(-c4ccccc4)c4ccc([nH]4)c(-c4ccccc4)c4nc(c(-c5ccccc5)c5ccc2[nH]5)C=C4)C=C3)cc1
REMARK SMILES IDX 5 1 4 2 3 3 1 4 2 5 28 7 29 8 75 9 30 10 74 11 31 12 32 13
REMARK SMILES IDX 33 14 68 15 34 16 73 17 67 18 69 19 35 20 72 21 66 22 65 23
REMARK SMILES IDX 36 25 58 26 43 27 57 28 44 29 47 30 56 31 70 32 45 33 46 34
REMARK SMILES IDX 55 36 71 37 48 38 37 39 38 40 42 41 39 42 41 43 40 44 59 45
REMARK SMILES IDX 60 46 64 47 61 48 63 49 62 50 49 51 50 52 54 53 51 54 53 55
REMARK SMILES IDX 52 56 6 57 7 58 8 59 9 61 10 62 11 63 16 64 12 65 15 66
REMARK SMILES IDX 13 67 14 68 17 69 18 71 19 72 20 73 27 74 21 75 26 76 22 77
REMARK SMILES IDX 25 78 23 80 24 81
REMARK H PARENT 3 6 69 24 47 35 7 60 17 70 21 79
REMARK Flexibility Score: inf
ROOT
ATOM      1  C   UNL A   1      33.277  27.779  26.649  1.00  0.00     0.042 C 
ENDROOT
BRANCH   1   2
ATOM      2  C   UNL A   1      34.057  28.923  26.018  1.00  0.00     0.118 C 
BRANCH   2   3
ATOM      3  N   UNL A   1      33.779  30.209  26.648  1.00  0.00    -0.352 N 
ATOM      4  O   UNL A   1      33.927  31.863  28.166  1.00  0.00    -0.269 OA
ATOM      5  C   UNL A   1      34.443  30.875  27.647  1.00  0.00     0.251 C 
ATOM      6  H   UNL A   1      32.985  30.675  26.298  1.00  0.00     0.163 HD
BRANCH   5   7
ATOM      7  C   UNL A   1      35.762  30.403  28.119  1.00  0.00     0.039 A 
ATOM      8  C   UNL A   1      36.912  30.619  27.359  1.00  0.00     0.014 A 
ATOM      9  C   UNL A   1      35.858  29.766  29.361  1.00  0.00     0.014 A 
ATOM     10  C   UNL A   1      38.117  30.052  27.752  1.00  0.00     0.010 A 
ATOM     11  C   UNL A   1      37.094  29.291  29.807  1.00  0.00     0.010 A 
ATOM     12  C   UNL A   1      38.229  29.402  28.991  1.00  0.00    -0.014 A 
BRANCH  12  13
ATOM     13  C   UNL A   1      39.561  28.918  29.433  1.00  0.00     0.031 A 
ATOM     14  C   UNL A   1      40.392  29.700  30.411  1.00  0.00     0.074 A 
ATOM     15  C   UNL A   1      40.002  27.735  28.962  1.00  0.00     0.049 A 
ATOM     16  N   UNL A   1      41.561  29.397  30.919  1.00  0.00    -0.248 NA
ATOM     17  C   UNL A   1      39.850  30.985  30.876  1.00  0.00     0.031 C 
ATOM     18  C   UNL A   1      39.286  26.887  28.006  1.00  0.00     0.029 A 
ATOM     19  N   UNL A   1      41.144  27.028  29.240  1.00  0.00    -0.354 N 
ATOM     20  C   UNL A   1      41.903  30.460  31.746  1.00  0.00     0.074 A 
ATOM     21  C   UNL A   1      40.830  31.427  31.652  1.00  0.00     0.031 C 
ATOM     22  C   UNL A   1      39.975  25.752  27.820  1.00  0.00     0.029 A 
ATOM     23  C   UNL A   1      41.214  25.824  28.583  1.00  0.00     0.049 A 
ATOM     24  H   UNL A   1      41.846  27.353  29.850  1.00  0.00     0.167 HD
ATOM     25  C   UNL A   1      43.009  30.612  32.515  1.00  0.00     0.031 A 
ATOM     26  C   UNL A   1      42.177  24.884  28.578  1.00  0.00     0.031 A 
ATOM     27  C   UNL A   1      44.075  29.648  32.601  1.00  0.00     0.049 A 
ATOM     28  C   UNL A   1      43.409  25.101  29.405  1.00  0.00     0.074 A 
ATOM     29  C   UNL A   1      45.222  29.698  33.376  1.00  0.00     0.029 A 
ATOM     30  N   UNL A   1      44.131  28.463  31.884  1.00  0.00    -0.354 N 
ATOM     31  N   UNL A   1      43.698  26.095  30.208  1.00  0.00    -0.248 NA
ATOM     32  C   UNL A   1      44.446  24.066  29.323  1.00  0.00     0.031 C 
ATOM     33  C   UNL A   1      45.999  28.572  33.083  1.00  0.00     0.029 A 
ATOM     34  C   UNL A   1      45.307  27.789  32.174  1.00  0.00     0.049 A 
ATOM     35  H   UNL A   1      43.438  28.147  31.260  1.00  0.00     0.167 HD
ATOM     36  C   UNL A   1      44.943  25.798  30.741  1.00  0.00     0.074 A 
ATOM     37  C   UNL A   1      45.342  24.519  30.189  1.00  0.00     0.031 C 
ATOM     38  C   UNL A   1      45.692  26.521  31.609  1.00  0.00     0.031 A 
BRANCH  25  39
ATOM     39  C   UNL A   1      43.138  31.886  33.304  1.00  0.00    -0.014 A 
ATOM     40  C   UNL A   1      42.649  31.988  34.617  1.00  0.00     0.009 A 
ATOM     41  C   UNL A   1      43.806  32.987  32.744  1.00  0.00     0.009 A 
ATOM     42  C   UNL A   1      42.797  33.176  35.338  1.00  0.00     0.001 A 
ATOM     43  C   UNL A   1      43.977  34.163  33.476  1.00  0.00     0.001 A 
ATOM     44  C   UNL A   1      43.465  34.260  34.768  1.00  0.00     0.000 A 
ENDBRANCH  25  39
BRANCH  26  45
ATOM     45  C   UNL A   1      42.016  23.668  27.742  1.00  0.00    -0.014 A 
ATOM     46  C   UNL A   1      42.511  23.629  26.430  1.00  0.00     0.009 A 
ATOM     47  C   UNL A   1      41.371  22.532  28.258  1.00  0.00     0.009 A 
ATOM     48  C   UNL A   1      42.346  22.484  25.646  1.00  0.00     0.001 A 
ATOM     49  C   UNL A   1      41.237  21.378  27.484  1.00  0.00     0.001 A 
ATOM     50  C   UNL A   1      41.716  21.359  26.176  1.00  0.00     0.000 A 
ENDBRANCH  26  45
BRANCH  38  51
ATOM     51  C   UNL A   1      47.006  25.927  32.032  1.00  0.00    -0.014 A 
ATOM     52  C   UNL A   1      48.168  26.109  31.268  1.00  0.00     0.009 A 
ATOM     53  C   UNL A   1      47.083  25.193  33.227  1.00  0.00     0.009 A 
ATOM     54  C   UNL A   1      49.375  25.535  31.673  1.00  0.00     0.001 A 
ATOM     55  C   UNL A   1      48.298  24.647  33.644  1.00  0.00     0.001 A 
ATOM     56  C   UNL A   1      49.439  24.809  32.862  1.00  0.00     0.000 A 
ENDBRANCH  38  51
ENDBRANCH  12  13
ENDBRANCH   5   7
ENDBRANCH   2   3
ENDBRANCH   1   2
BRANCH   1  57
ATOM     57  C   UNL A   1      31.773  28.005  26.679  1.00  0.00     0.118 C 
BRANCH  57  58
ATOM     58  N   UNL A   1      31.034  26.770  26.907  1.00  0.00    -0.352 N 
ATOM     59  C   UNL A   1      30.615  25.819  26.008  1.00  0.00     0.255 C 
ATOM     60  H   UNL A   1      30.799  26.591  27.846  1.00  0.00     0.163 HD
ATOM     61  O   UNL A   1      29.819  24.955  26.363  1.00  0.00    -0.269 OA
BRANCH  59  62
ATOM     62  C   UNL A   1      31.130  25.826  24.626  1.00  0.00     0.082 A 
ATOM     63  C   UNL A   1      30.549  26.686  23.683  1.00  0.00     0.021 A 
ATOM     64  C   UNL A   1      32.227  25.032  24.261  1.00  0.00     0.140 A 
ATOM     65  C   UNL A   1      30.987  26.649  22.368  1.00  0.00     0.042 A 
ATOM     66  N   UNL A   1      32.649  25.003  22.974  1.00  0.00    -0.219 NA
ATOM     67  C   UNL A   1      32.021  25.786  22.072  1.00  0.00     0.131 A 
ATOM     68  Cl  UNL A   1      32.597  25.623  20.466  1.00  0.00    -0.062 Cl
BRANCH  64  69
ATOM     69  N   UNL A   1      32.846  24.186  25.170  1.00  0.00    -0.367 N 
ATOM     70  H   UNL A   1      33.542  24.541  25.771  1.00  0.00     0.162 HD
BRANCH  69  71
ATOM     71  C   UNL A   1      32.476  22.772  25.245  1.00  0.00     0.152 C 
BRANCH  71  72
ATOM     72  C   UNL A   1      33.348  22.028  26.294  1.00  0.00     0.192 C 
ATOM     73  C   UNL A   1      34.559  22.886  26.771  1.00  0.00     0.296 C 
ATOM     74  O   UNL A   1      33.709  20.721  25.800  1.00  0.00    -0.364 OA
ATOM     75  N   UNL A   1      35.915  22.400  26.537  1.00  0.00    -0.328 N 
ATOM     76  C   UNL A   1      34.827  20.778  24.912  1.00  0.00     0.225 C 
ATOM     77  C   UNL A   1      36.887  23.430  26.184  1.00  0.00     0.262 C 
ATOM     78  C   UNL A   1      36.077  21.239  25.658  1.00  0.00     0.210 C 
ATOM     79  H   UNL A   1      36.127  22.061  27.475  1.00  0.00     0.348 HD
ATOM     80  C   UNL A   1      37.996  22.655  25.494  1.00  0.00     0.068 C 
ATOM     81  C   UNL A   1      37.226  21.602  24.718  1.00  0.00     0.073 C 
ENDBRANCH  71  72
ENDBRANCH  69  71
ENDBRANCH  64  69
ENDBRANCH  59  62
ENDBRANCH  57  58
ENDBRANCH   1  57
TORSDOF 13
ENDMDL
MODEL 2
REMARK VINA RESULT:     -11.0      1.697      2.585
REMARK SMILES O=C(NCCCNC(=O)c1ccc(Cl)nc1NC[C@@H]1C[N@@H+]2CCC[C@@H]2CO1)c1ccc(-c2c3nc(c(-c4ccccc4)c4ccc([nH]4)c(-c4ccccc4)c4nc(c(-c5ccccc5)c5ccc2[nH]5)C=C4)C=C3)cc1
REMARK SMILES IDX 5 1 4 2 3 3 1 4 2 5 28 7 29 8 75 9 30 10 74 11 31 12 32 13
REMARK SMILES IDX 33 14 68 15 34 16 73 17 67 18 69 19 35 20 72 21 66 22 65 23
REMARK SMILES IDX 36 25 58 26 43 27 57 28 44 29 47 30 56 31 70 32 45 33 46 34
REMARK SMILES IDX 55 36 71 37 48 38 37 39 38 40 42 41 39 42 41 43 40 44 59 45
REMARK SMILES IDX 60 46 64 47 61 48 63 49 62 50 49 51 50 52 54 53 51 54 53 55
REMARK SMILES IDX 52 56 6 57 7 58 8 59 9 61 10 62 11 63 16 64 12 65 15 66
REMARK SMILES IDX 13 67 14 68 17 69 18 71 19 72 20 73 27 74 21 75 26 76 22 77
REMARK SMILES IDX 25 78 23 80 24 81
REMARK H PARENT 3 6 69 24 47 35 7 60 17 70 21 79
REMARK Flexibility Score: inf
ROOT
ATOM      1  C   UNL A   1      33.955  28.032  26.175  1.00  0.00     0.042 C 
ENDROOT
BRANCH   1   2
ATOM      2  C   UNL A   1      33.427  28.502  27.522  1.00  0.00     0.118 C 
BRANCH   2   3
ATOM      3  N   UNL A   1      33.414  29.955  27.646  1.00  0.00    -0.352 N 
ATOM      4  O   UNL A   1      34.088  31.999  28.305  1.00  0.00    -0.269 OA
ATOM      5  C   UNL A   1      34.376  30.821  28.103  1.00  0.00     0.251 C 
ATOM      6  H   UNL A   1      32.578  30.385  27.353  1.00  0.00     0.163 HD
BRANCH   5   7
ATOM      7  C   UNL A   1      35.749  30.344  28.375  1.00  0.00     0.039 A 
ATOM      8  C   UNL A   1      36.085  29.807  29.618  1.00  0.00     0.014 A 
ATOM      9  C   UNL A   1      36.707  30.400  27.358  1.00  0.00     0.014 A 
ATOM     10  C   UNL A   1      37.408  29.489  29.899  1.00  0.00     0.010 A 
ATOM     11  C   UNL A   1      38.016  29.977  27.610  1.00  0.00     0.010 A 
ATOM     12  C   UNL A   1      38.384  29.548  28.893  1.00  0.00    -0.014 A 
BRANCH  12  13
ATOM     13  C   UNL A   1      39.760  29.082  29.197  1.00  0.00     0.031 A 
ATOM     14  C   UNL A   1      40.726  29.941  29.964  1.00  0.00     0.074 A 
ATOM     15  C   UNL A   1      40.123  27.848  28.795  1.00  0.00     0.049 A 
ATOM     16  N   UNL A   1      41.952  29.666  30.336  1.00  0.00    -0.248 NA
ATOM     17  C   UNL A   1      40.264  31.279  30.363  1.00  0.00     0.031 C 
ATOM     18  C   UNL A   1      39.274  26.922  28.040  1.00  0.00     0.029 A 
ATOM     19  N   UNL A   1      41.287  27.148  28.986  1.00  0.00    -0.354 N 
ATOM     20  C   UNL A   1      42.413  30.800  30.993  1.00  0.00     0.074 A 
ATOM     21  C   UNL A   1      41.346  31.776  30.947  1.00  0.00     0.031 C 
ATOM     22  C   UNL A   1      39.922  25.760  27.881  1.00  0.00     0.029 A 
ATOM     23  C   UNL A   1      41.256  25.881  28.456  1.00  0.00     0.049 A 
ATOM     24  H   UNL A   1      42.069  27.518  29.457  1.00  0.00     0.167 HD
ATOM     25  C   UNL A   1      43.616  31.005  31.583  1.00  0.00     0.031 A 
ATOM     26  C   UNL A   1      42.201  24.925  28.417  1.00  0.00     0.031 A 
ATOM     27  C   UNL A   1      44.676  30.032  31.622  1.00  0.00     0.049 A 
ATOM     28  C   UNL A   1      43.537  25.197  29.040  1.00  0.00     0.074 A 
ATOM     29  C   UNL A   1      45.920  30.135  32.223  1.00  0.00     0.029 A 
ATOM     30  N   UNL A   1      44.622  28.778  31.032  1.00  0.00    -0.354 N 
ATOM     31  N   UNL A   1      43.943  26.262  29.687  1.00  0.00    -0.248 NA
ATOM     32  C   UNL A   1      44.545  24.136  28.925  1.00  0.00     0.031 C 
ATOM     33  C   UNL A   1      46.640  28.968  31.946  1.00  0.00     0.029 A 
ATOM     34  C   UNL A   1      45.822  28.111  31.227  1.00  0.00     0.049 A 
ATOM     35  H   UNL A   1      43.847  28.416  30.546  1.00  0.00     0.167 HD
ATOM     36  C   UNL A   1      45.248  25.993  30.073  1.00  0.00     0.074 A 
ATOM     37  C   UNL A   1      45.556  24.655  29.608  1.00  0.00     0.031 C 
ATOM     38  C   UNL A   1      46.115  26.784  30.749  1.00  0.00     0.031 A 
BRANCH  25  39
ATOM     39  C   UNL A   1      43.864  32.350  32.210  1.00  0.00    -0.014 A 
ATOM     40  C   UNL A   1      43.569  32.594  33.561  1.00  0.00     0.009 A 
ATOM     41  C   UNL A   1      44.449  33.375  31.450  1.00  0.00     0.009 A 
ATOM     42  C   UNL A   1      43.825  33.847  34.126  1.00  0.00     0.001 A 
ATOM     43  C   UNL A   1      44.730  34.615  32.023  1.00  0.00     0.001 A 
ATOM     44  C   UNL A   1      44.409  34.854  33.359  1.00  0.00     0.000 A 
ENDBRANCH  25  39
BRANCH  26  45
ATOM     45  C   UNL A   1      41.915  23.633  27.742  1.00  0.00    -0.014 A 
ATOM     46  C   UNL A   1      41.312  22.578  28.442  1.00  0.00     0.009 A 
ATOM     47  C   UNL A   1      42.237  23.453  26.387  1.00  0.00     0.009 A 
ATOM     48  C   UNL A   1      41.056  21.362  27.803  1.00  0.00     0.001 A 
ATOM     49  C   UNL A   1      41.950  22.249  25.742  1.00  0.00     0.001 A 
ATOM     50  C   UNL A   1      41.369  21.201  26.454  1.00  0.00     0.000 A 
ENDBRANCH  26  45
BRANCH  38  51
ATOM     51  C   UNL A   1      47.470  26.207  31.049  1.00  0.00    -0.014 A 
ATOM     52  C   UNL A   1      47.765  25.653  32.305  1.00  0.00     0.009 A 
ATOM     53  C   UNL A   1      48.457  26.197  30.051  1.00  0.00     0.009 A 
ATOM     54  C   UNL A   1      49.036  25.136  32.565  1.00  0.00     0.001 A 
ATOM     55  C   UNL A   1      49.716  25.652  30.305  1.00  0.00     0.001 A 
ATOM     56  C   UNL A   1      50.007  25.132  31.566  1.00  0.00     0.000 A 
ENDBRANCH  38  51
ENDBRANCH  12  13
ENDBRANCH   5   7
ENDBRANCH   2   3
ENDBRANCH   1   2
BRANCH   1  57
ATOM     57  C   UNL A   1      33.317  28.736  24.987  1.00  0.00     0.118 C 
BRANCH  57  58
ATOM     58  N   UNL A   1      33.597  28.058  23.728  1.00  0.00    -0.352 N 
ATOM     59  C   UNL A   1      32.728  27.583  22.775  1.00  0.00     0.255 C 
ATOM     60  H   UNL A   1      34.551  27.920  23.531  1.00  0.00     0.163 HD
ATOM     61  O   UNL A   1      33.146  26.849  21.884  1.00  0.00    -0.269 OA
BRANCH  59  62
ATOM     62  C   UNL A   1      31.304  27.963  22.814  1.00  0.00     0.082 A 
ATOM     63  C   UNL A   1      30.895  29.148  22.187  1.00  0.00     0.021 A 
ATOM     64  C   UNL A   1      30.350  27.128  23.415  1.00  0.00     0.140 A 
ATOM     65  C   UNL A   1      29.569  29.543  22.276  1.00  0.00     0.042 A 
ATOM     66  N   UNL A   1      29.057  27.521  23.496  1.00  0.00    -0.219 NA
ATOM     67  C   UNL A   1      28.706  28.703  22.949  1.00  0.00     0.131 A 
ATOM     68  Cl  UNL A   1      27.059  29.126  23.164  1.00  0.00    -0.062 Cl
BRANCH  64  69
ATOM     69  N   UNL A   1      30.710  25.935  24.024  1.00  0.00    -0.367 N 
ATOM     70  H   UNL A   1      31.140  25.225  23.492  1.00  0.00     0.162 HD
BRANCH  69  71
ATOM     71  C   UNL A   1      30.458  25.720  25.449  1.00  0.00     0.152 C 
BRANCH  71  72
ATOM     72  C   UNL A   1      31.720  25.151  26.155  1.00  0.00     0.192 C 
ATOM     73  C   UNL A   1      32.768  24.604  25.138  1.00  0.00     0.296 C 
ATOM     74  O   UNL A   1      31.336  24.204  27.172  1.00  0.00    -0.364 OA
ATOM     75  N   UNL A   1      33.136  23.192  25.183  1.00  0.00    -0.328 N 
ATOM     76  C   UNL A   1      31.063  22.914  26.622  1.00  0.00     0.225 C 
ATOM     77  C   UNL A   1      33.354  22.571  23.880  1.00  0.00     0.262 C 
ATOM     78  C   UNL A   1      32.332  22.308  26.029  1.00  0.00     0.210 C 
ATOM     79  H   UNL A   1      34.036  23.277  25.657  1.00  0.00     0.348 HD
ATOM     80  C   UNL A   1      33.182  21.088  24.157  1.00  0.00     0.068 C 
ATOM     81  C   UNL A   1      32.054  21.073  25.173  1.00  0.00     0.073 C 
ENDBRANCH  71  72
ENDBRANCH  69  71
ENDBRANCH  64  69
ENDBRANCH  59  62
ENDBRANCH  57  58
ENDBRANCH   1  57
TORSDOF 13
ENDMDL
MODEL 3
REMARK VINA RESULT:     -11.0      2.630      7.574
REMARK SMILES O=C(NCCCNC(=O)c1ccc(Cl)nc1NC[C@@H]1C[N@@H+]2CCC[C@@H]2CO1)c1ccc(-c2c3nc(c(-c4ccccc4)c4ccc([nH]4)c(-c4ccccc4)c4nc(c(-c5ccccc5)c5ccc2[nH]5)C=C4)C=C3)cc1
REMARK SMILES IDX 5 1 4 2 3 3 1 4 2 5 28 7 29 8 75 9 30 10 74 11 31 12 32 13
REMARK SMILES IDX 33 14 68 15 34 16 73 17 67 18 69 19 35 20 72 21 66 22 65 23
REMARK SMILES IDX 36 25 58 26 43 27 57 28 44 29 47 30 56 31 70 32 45 33 46 34
REMARK SMILES IDX 55 36 71 37 48 38 37 39 38 40 42 41 39 42 41 43 40 44 59 45
REMARK SMILES IDX 60 46 64 47 61 48 63 49 62 50 49 51 50 52 54 53 51 54 53 55
REMARK SMILES IDX 52 56 6 57 7 58 8 59 9 61 10 62 11 63 16 64 12 65 15 66
REMARK SMILES IDX 13 67 14 68 17 69 18 71 19 72 20 73 27 74 21 75 26 76 22 77
REMARK SMILES IDX 25 78 23 80 24 81
REMARK H PARENT 3 6 69 24 47 35 7 60 17 70 21 79
REMARK Flexibility Score: inf
ROOT
ATOM      1  C   UNL A   1      36.259  23.812  24.738  1.00  0.00     0.042 C 
ENDROOT
BRANCH   1   2
ATOM      2  C   UNL A   1      36.692  23.402  26.137  1.00  0.00     0.118 C 
BRANCH   2   3
ATOM      3  N   UNL A   1      37.854  22.520  26.131  1.00  0.00    -0.352 N 
ATOM      4  O   UNL A   1      40.027  21.932  26.132  1.00  0.00    -0.269 OA
ATOM      5  C   UNL A   1      39.178  22.785  26.380  1.00  0.00     0.251 C 
ATOM      6  H   UNL A   1      37.657  21.580  25.913  1.00  0.00     0.163 HD
BRANCH   5   7
ATOM      7  C   UNL A   1      39.593  24.096  26.923  1.00  0.00     0.039 A 
ATOM      8  C   UNL A   1      39.464  24.378  28.284  1.00  0.00     0.014 A 
ATOM      9  C   UNL A   1      40.155  25.047  26.066  1.00  0.00     0.014 A 
ATOM     10  C   UNL A   1      39.732  25.658  28.753  1.00  0.00     0.010 A 
ATOM     11  C   UNL A   1      40.528  26.300  26.562  1.00  0.00     0.010 A 
ATOM     12  C   UNL A   1      40.289  26.626  27.904  1.00  0.00    -0.014 A 
BRANCH  12  13
ATOM     13  C   UNL A   1      40.678  27.942  28.470  1.00  0.00     0.031 A 
ATOM     14  C   UNL A   1      39.665  29.029  28.692  1.00  0.00     0.074 A 
ATOM     15  C   UNL A   1      41.967  28.136  28.816  1.00  0.00     0.049 A 
ATOM     16  N   UNL A   1      39.841  30.222  29.206  1.00  0.00    -0.248 NA
ATOM     17  C   UNL A   1      38.280  28.750  28.284  1.00  0.00     0.031 C 
ATOM     18  C   UNL A   1      43.043  27.156  28.645  1.00  0.00     0.029 A 
ATOM     19  N   UNL A   1      42.586  29.209  29.404  1.00  0.00    -0.354 N 
ATOM     20  C   UNL A   1      38.597  30.841  29.164  1.00  0.00     0.074 A 
ATOM     21  C   UNL A   1      37.681  29.903  28.552  1.00  0.00     0.031 C 
ATOM     22  C   UNL A   1      44.175  27.648  29.167  1.00  0.00     0.029 A 
ATOM     23  C   UNL A   1      43.923  29.004  29.642  1.00  0.00     0.049 A 
ATOM     24  H   UNL A   1      42.118  30.044  29.633  1.00  0.00     0.167 HD
ATOM     25  C   UNL A   1      38.253  32.077  29.601  1.00  0.00     0.031 A 
ATOM     26  C   UNL A   1      44.855  29.821  30.167  1.00  0.00     0.031 A 
ATOM     27  C   UNL A   1      39.169  33.008  30.205  1.00  0.00     0.049 A 
ATOM     28  C   UNL A   1      44.452  31.198  30.600  1.00  0.00     0.074 A 
ATOM     29  C   UNL A   1      38.909  34.272  30.708  1.00  0.00     0.029 A 
ATOM     30  N   UNL A   1      40.526  32.781  30.385  1.00  0.00    -0.354 N 
ATOM     31  N   UNL A   1      43.265  31.753  30.586  1.00  0.00    -0.248 NA
ATOM     32  C   UNL A   1      45.519  32.062  31.120  1.00  0.00     0.031 C 
ATOM     33  C   UNL A   1      40.117  34.832  31.136  1.00  0.00     0.029 A 
ATOM     34  C   UNL A   1      41.120  33.893  30.960  1.00  0.00     0.049 A 
ATOM     35  H   UNL A   1      40.996  31.952  30.139  1.00  0.00     0.167 HD
ATOM     36  C   UNL A   1      43.438  33.025  31.111  1.00  0.00     0.074 A 
ATOM     37  C   UNL A   1      44.840  33.150  31.456  1.00  0.00     0.031 C 
ATOM     38  C   UNL A   1      42.518  34.004  31.289  1.00  0.00     0.031 A 
BRANCH  25  39
ATOM     39  C   UNL A   1      36.824  32.509  29.411  1.00  0.00    -0.014 A 
ATOM     40  C   UNL A   1      35.856  32.296  30.406  1.00  0.00     0.009 A 
ATOM     41  C   UNL A   1      36.452  33.186  28.239  1.00  0.00     0.009 A 
ATOM     42  C   UNL A   1      34.539  32.723  30.215  1.00  0.00     0.001 A 
ATOM     43  C   UNL A   1      35.143  33.636  28.062  1.00  0.00     0.001 A 
ATOM     44  C   UNL A   1      34.185  33.396  29.046  1.00  0.00     0.000 A 
ENDBRANCH  25  39
BRANCH  26  45
ATOM     45  C   UNL A   1      46.260  29.356  30.286  1.00  0.00    -0.014 A 
ATOM     46  C   UNL A   1      46.696  28.681  31.435  1.00  0.00     0.009 A 
ATOM     47  C   UNL A   1      47.172  29.578  29.241  1.00  0.00     0.009 A 
ATOM     48  C   UNL A   1      48.023  28.256  31.544  1.00  0.00     0.001 A 
ATOM     49  C   UNL A   1      48.488  29.123  29.339  1.00  0.00     0.001 A 
ATOM     50  C   UNL A   1      48.915  28.472  30.494  1.00  0.00     0.000 A 
ENDBRANCH  26  45
BRANCH  38  51
ATOM     51  C   UNL A   1      43.000  35.284  31.910  1.00  0.00    -0.014 A 
ATOM     52  C   UNL A   1      43.597  36.291  31.135  1.00  0.00     0.009 A 
ATOM     53  C   UNL A   1      42.832  35.495  33.288  1.00  0.00     0.009 A 
ATOM     54  C   UNL A   1      44.051  37.467  31.737  1.00  0.00     0.001 A 
ATOM     55  C   UNL A   1      43.259  36.684  33.880  1.00  0.00     0.001 A 
ATOM     56  C   UNL A   1      43.878  37.663  33.106  1.00  0.00     0.000 A 
ENDBRANCH  38  51
ENDBRANCH  12  13
ENDBRANCH   5   7
ENDBRANCH   2   3
ENDBRANCH   1   2
BRANCH   1  57
ATOM     57  C   UNL A   1      35.811  22.646  23.868  1.00  0.00     0.118 C 
BRANCH  57  58
ATOM     58  N   UNL A   1      35.063  23.087  22.698  1.00  0.00    -0.352 N 
ATOM     59  C   UNL A   1      33.705  23.173  22.507  1.00  0.00     0.255 C 
ATOM     60  H   UNL A   1      35.613  23.364  21.930  1.00  0.00     0.163 HD
ATOM     61  O   UNL A   1      33.260  23.364  21.378  1.00  0.00    -0.269 OA
BRANCH  59  62
ATOM     62  C   UNL A   1      32.785  23.052  23.653  1.00  0.00     0.082 A 
ATOM     63  C   UNL A   1      32.692  21.828  24.330  1.00  0.00     0.021 A 
ATOM     64  C   UNL A   1      32.050  24.157  24.107  1.00  0.00     0.140 A 
ATOM     65  C   UNL A   1      31.781  21.691  25.366  1.00  0.00     0.042 A 
ATOM     66  N   UNL A   1      31.163  24.015  25.121  1.00  0.00    -0.219 NA
ATOM     67  C   UNL A   1      31.041  22.805  25.706  1.00  0.00     0.131 A 
ATOM     68  Cl  UNL A   1      29.848  22.725  26.934  1.00  0.00    -0.062 Cl
BRANCH  64  69
ATOM     69  N   UNL A   1      32.132  25.392  23.480  1.00  0.00    -0.367 N 
ATOM     70  H   UNL A   1      32.574  25.466  22.603  1.00  0.00     0.162 HD
BRANCH  69  71
ATOM     71  C   UNL A   1      31.568  26.587  24.109  1.00  0.00     0.152 C 
BRANCH  71  72
ATOM     72  C   UNL A   1      32.378  27.853  23.717  1.00  0.00     0.192 C 
ATOM     73  C   UNL A   1      33.700  27.983  24.534  1.00  0.00     0.296 C 
ATOM     74  O   UNL A   1      31.532  29.020  23.773  1.00  0.00    -0.364 OA
ATOM     75  N   UNL A   1      33.897  29.149  25.391  1.00  0.00    -0.328 N 
ATOM     76  C   UNL A   1      31.400  29.518  25.106  1.00  0.00     0.225 C 
ATOM     77  C   UNL A   1      34.576  28.876  26.654  1.00  0.00     0.262 C 
ATOM     78  C   UNL A   1      32.745  30.024  25.622  1.00  0.00     0.210 C 
ATOM     79  H   UNL A   1      34.527  29.682  24.792  1.00  0.00     0.348 HD
ATOM     80  C   UNL A   1      34.180  30.049  27.533  1.00  0.00     0.068 C 
ATOM     81  C   UNL A   1      32.738  30.294  27.126  1.00  0.00     0.073 C 
ENDBRANCH  71  72
ENDBRANCH  69  71
ENDBRANCH  64  69
ENDBRANCH  59  62
ENDBRANCH  57  58
ENDBRANCH   1  57
TORSDOF 13
ENDMDL
