MODEL 1
REMARK VINA RESULT:     -11.1      0.000      0.000
REMARK SMILES C[C@@H]1[C@H](C(=O)NCCCNC(=O)c2ccc(-c3c4nc(c(-c5ccccc5)c5ccc([nH]5)c(-c5ccccc5)c5nc(c(-c6ccccc6)c6ccc3[nH]6)C=C5)C=C4)cc2)CCN1S(=O)(=O)c1cc(F)cc(F)c1
REMARK SMILES IDX 8 1 7 2 6 3 4 4 5 5 3 7 1 8 2 9 63 10 61 11 62 12 64 13
REMARK SMILES IDX 65 14 66 15 67 16 68 17 74 18 69 19 72 20 70 21 71 22 73 23
REMARK SMILES IDX 9 24 10 25 11 26 12 28 13 29 14 30 60 31 15 32 59 33 16 34
REMARK SMILES IDX 17 35 18 36 53 37 19 38 58 39 52 40 54 41 20 42 57 43 51 44
REMARK SMILES IDX 50 45 21 47 43 48 28 49 42 50 29 51 32 52 41 53 55 54 30 55
REMARK SMILES IDX 31 56 40 58 56 59 33 60 22 61 23 62 27 63 24 64 26 65 25 66
REMARK SMILES IDX 44 67 45 68 49 69 46 70 48 71 47 72 34 73 35 74 39 75 36 76
REMARK SMILES IDX 38 77 37 78
REMARK H PARENT 6 6 10 27 54 46 32 57
REMARK Flexibility Score: inf
ROOT
ATOM      1  C   UNL A   1      32.003  28.904  26.630  1.00  0.00     0.042 C 
ENDROOT
BRANCH   1   2
ATOM      2  C   UNL A   1      31.899  29.288  25.149  1.00  0.00     0.117 C 
BRANCH   2   3
ATOM      3  N   UNL A   1      31.053  28.395  24.366  1.00  0.00    -0.356 N 
ATOM      4  C   UNL A   1      31.186  27.157  23.831  1.00  0.00     0.224 C 
ATOM      5  O   UNL A   1      30.188  26.736  23.231  1.00  0.00    -0.275 OA
ATOM      6  H   UNL A   1      30.168  28.786  24.182  1.00  0.00     0.163 HD
BRANCH   4   7
ATOM      7  C   UNL A   1      32.437  26.285  23.848  1.00  0.00     0.098 C 
ATOM      8  C   UNL A   1      31.727  25.261  26.081  1.00  0.00     0.026 C 
ATOM      9  C   UNL A   1      32.874  25.698  25.202  1.00  0.00     0.082 C 
ATOM     10  N   UNL A   1      33.862  24.609  24.853  1.00  0.00    -0.194 NA
ATOM     11  C   UNL A   1      32.567  25.136  22.877  1.00  0.00     0.032 C 
ATOM     12  C   UNL A   1      33.850  24.467  23.351  1.00  0.00     0.104 C 
BRANCH  10  13
ATOM     13  S   UNL A   1      33.958  23.097  25.626  1.00  0.00     0.243 S 
ATOM     14  O   UNL A   1      33.785  23.332  27.048  1.00  0.00    -0.207 OA
ATOM     15  O   UNL A   1      33.057  22.215  24.919  1.00  0.00    -0.207 OA
BRANCH  13  16
ATOM     16  C   UNL A   1      35.569  22.384  25.425  1.00  0.00     0.088 A 
ATOM     17  C   UNL A   1      35.598  21.033  25.052  1.00  0.00     0.061 A 
ATOM     18  C   UNL A   1      36.760  23.056  25.684  1.00  0.00     0.061 A 
ATOM     19  C   UNL A   1      36.810  20.355  25.010  1.00  0.00     0.127 A 
ATOM     20  C   UNL A   1      37.955  22.338  25.684  1.00  0.00     0.127 A 
ATOM     21  F   UNL A   1      36.831  19.062  24.661  1.00  0.00    -0.207 F 
ATOM     22  C   UNL A   1      37.994  20.990  25.353  1.00  0.00     0.078 A 
ATOM     23  F   UNL A   1      39.087  22.957  26.041  1.00  0.00    -0.207 F 
ENDBRANCH  13  16
ENDBRANCH  10  13
ENDBRANCH   4   7
ENDBRANCH   2   3
ENDBRANCH   1   2
BRANCH   1  24
ATOM     24  C   UNL A   1      33.380  29.094  27.253  1.00  0.00     0.118 C 
BRANCH  24  25
ATOM     25  N   UNL A   1      33.554  30.443  27.758  1.00  0.00    -0.352 N 
ATOM     26  C   UNL A   1      34.590  31.008  28.461  1.00  0.00     0.251 C 
ATOM     27  H   UNL A   1      32.808  31.054  27.564  1.00  0.00     0.163 HD
ATOM     28  O   UNL A   1      34.394  32.082  29.028  1.00  0.00    -0.269 OA
BRANCH  26  29
ATOM     29  C   UNL A   1      35.932  30.374  28.564  1.00  0.00     0.039 A 
ATOM     30  C   UNL A   1      36.300  29.798  29.787  1.00  0.00     0.014 A 
ATOM     31  C   UNL A   1      36.878  30.446  27.539  1.00  0.00     0.014 A 
ATOM     32  C   UNL A   1      37.591  29.289  29.976  1.00  0.00     0.010 A 
ATOM     33  C   UNL A   1      38.143  29.869  27.699  1.00  0.00     0.010 A 
ATOM     34  C   UNL A   1      38.526  29.312  28.929  1.00  0.00    -0.014 A 
BRANCH  34  35
ATOM     35  C   UNL A   1      39.920  28.827  29.126  1.00  0.00     0.031 A 
ATOM     36  C   UNL A   1      40.957  29.731  29.746  1.00  0.00     0.074 A 
ATOM     37  C   UNL A   1      40.275  27.591  28.725  1.00  0.00     0.049 A 
ATOM     38  N   UNL A   1      42.235  29.515  29.940  1.00  0.00    -0.248 NA
ATOM     39  C   UNL A   1      40.502  31.060  30.184  1.00  0.00     0.031 C 
ATOM     40  C   UNL A   1      39.387  26.613  28.096  1.00  0.00     0.029 A 
ATOM     41  N   UNL A   1      41.489  26.948  28.787  1.00  0.00    -0.354 N 
ATOM     42  C   UNL A   1      42.738  30.687  30.493  1.00  0.00     0.074 A 
ATOM     43  C   UNL A   1      41.638  31.623  30.570  1.00  0.00     0.031 C 
ATOM     44  C   UNL A   1      40.077  25.487  27.853  1.00  0.00     0.029 A 
ATOM     45  C   UNL A   1      41.463  25.673  28.276  1.00  0.00     0.049 A 
ATOM     46  H   UNL A   1      42.299  27.361  29.163  1.00  0.00     0.167 HD
ATOM     47  C   UNL A   1      43.997  30.960  30.915  1.00  0.00     0.031 A 
ATOM     48  C   UNL A   1      42.443  24.757  28.156  1.00  0.00     0.031 A 
ATOM     49  C   UNL A   1      45.091  30.029  30.877  1.00  0.00     0.049 A 
ATOM     50  C   UNL A   1      43.830  25.080  28.637  1.00  0.00     0.074 A 
ATOM     51  C   UNL A   1      46.386  30.201  31.335  1.00  0.00     0.029 A 
ATOM     52  N   UNL A   1      45.016  28.747  30.359  1.00  0.00    -0.354 N 
ATOM     53  N   UNL A   1      44.276  26.181  29.191  1.00  0.00    -0.248 NA
ATOM     54  C   UNL A   1      44.845  24.028  28.483  1.00  0.00     0.031 C 
ATOM     55  C   UNL A   1      47.106  29.032  31.062  1.00  0.00     0.029 A 
ATOM     56  C   UNL A   1      46.246  28.120  30.473  1.00  0.00     0.049 A 
ATOM     57  H   UNL A   1      44.208  28.341  29.969  1.00  0.00     0.167 HD
ATOM     58  C   UNL A   1      45.616  25.945  29.472  1.00  0.00     0.074 A 
ATOM     59  C   UNL A   1      45.907  24.594  29.040  1.00  0.00     0.031 C 
ATOM     60  C   UNL A   1      46.522  26.776  30.041  1.00  0.00     0.031 A 
BRANCH  47  61
ATOM     61  C   UNL A   1      44.257  32.338  31.457  1.00  0.00    -0.014 A 
ATOM     62  C   UNL A   1      44.108  32.622  32.824  1.00  0.00     0.009 A 
ATOM     63  C   UNL A   1      44.688  33.357  30.594  1.00  0.00     0.009 A 
ATOM     64  C   UNL A   1      44.349  33.909  33.309  1.00  0.00     0.001 A 
ATOM     65  C   UNL A   1      44.954  34.637  31.086  1.00  0.00     0.001 A 
ATOM     66  C   UNL A   1      44.775  34.914  32.441  1.00  0.00     0.000 A 
ENDBRANCH  47  61
BRANCH  48  67
ATOM     67  C   UNL A   1      42.143  23.427  27.569  1.00  0.00    -0.014 A 
ATOM     68  C   UNL A   1      41.552  22.424  28.351  1.00  0.00     0.009 A 
ATOM     69  C   UNL A   1      42.453  23.150  26.228  1.00  0.00     0.009 A 
ATOM     70  C   UNL A   1      41.292  21.164  27.808  1.00  0.00     0.001 A 
ATOM     71  C   UNL A   1      42.170  21.897  25.681  1.00  0.00     0.001 A 
ATOM     72  C   UNL A   1      41.598  20.902  26.473  1.00  0.00     0.000 A 
ENDBRANCH  48  67
BRANCH  60  73
ATOM     73  C   UNL A   1      47.906  26.238  30.257  1.00  0.00    -0.014 A 
ATOM     74  C   UNL A   1      48.300  25.729  31.505  1.00  0.00     0.009 A 
ATOM     75  C   UNL A   1      48.815  26.204  29.188  1.00  0.00     0.009 A 
ATOM     76  C   UNL A   1      49.589  25.221  31.683  1.00  0.00     0.001 A 
ATOM     77  C   UNL A   1      50.094  25.675  29.364  1.00  0.00     0.001 A 
ATOM     78  C   UNL A   1      50.483  25.192  30.613  1.00  0.00     0.000 A 
ENDBRANCH  60  73
ENDBRANCH  34  35
ENDBRANCH  26  29
ENDBRANCH  24  25
ENDBRANCH   1  24
TORSDOF 12
ENDMDL
MODEL 2
REMARK VINA RESULT:     -11.0      2.651      7.805
REMARK SMILES C[C@@H]1[C@H](C(=O)NCCCNC(=O)c2ccc(-c3c4nc(c(-c5ccccc5)c5ccc([nH]5)c(-c5ccccc5)c5nc(c(-c6ccccc6)c6ccc3[nH]6)C=C5)C=C4)cc2)CCN1S(=O)(=O)c1cc(F)cc(F)c1
REMARK SMILES IDX 8 1 7 2 6 3 4 4 5 5 3 7 1 8 2 9 63 10 61 11 62 12 64 13
REMARK SMILES IDX 65 14 66 15 67 16 68 17 74 18 69 19 72 20 70 21 71 22 73 23
REMARK SMILES IDX 9 24 10 25 11 26 12 28 13 29 14 30 60 31 15 32 59 33 16 34
REMARK SMILES IDX 17 35 18 36 53 37 19 38 58 39 52 40 54 41 20 42 57 43 51 44
REMARK SMILES IDX 50 45 21 47 43 48 28 49 42 50 29 51 32 52 41 53 55 54 30 55
REMARK SMILES IDX 31 56 40 58 56 59 33 60 22 61 23 62 27 63 24 64 26 65 25 66
REMARK SMILES IDX 44 67 45 68 49 69 46 70 48 71 47 72 34 73 35 74 39 75 36 76
REMARK SMILES IDX 38 77 37 78
REMARK H PARENT 6 6 10 27 54 46 32 57
REMARK Flexibility Score: inf
ROOT
ATOM      1  C   UNL A   1      37.499  19.962  24.772  1.00  0.00     0.042 C 
ENDROOT
BRANCH   1   2
ATOM      2  C   UNL A   1      36.143  20.640  25.007  1.00  0.00     0.117 C 
BRANCH   2   3
ATOM      3  N   UNL A   1      35.027  19.707  25.112  1.00  0.00    -0.356 N 
ATOM      4  C   UNL A   1      33.686  19.779  24.933  1.00  0.00     0.224 C 
ATOM      5  O   UNL A   1      33.076  18.717  25.113  1.00  0.00    -0.275 OA
ATOM      6  H   UNL A   1      35.319  18.804  25.375  1.00  0.00     0.163 HD
BRANCH   4   7
ATOM      7  C   UNL A   1      32.874  21.026  24.599  1.00  0.00     0.098 C 
ATOM      8  C   UNL A   1      33.166  21.890  26.988  1.00  0.00     0.026 C 
ATOM      9  C   UNL A   1      32.271  21.815  25.775  1.00  0.00     0.082 C 
ATOM     10  N   UNL A   1      31.879  23.151  25.187  1.00  0.00    -0.194 NA
ATOM     11  C   UNL A   1      33.457  22.084  23.693  1.00  0.00     0.032 C 
ATOM     12  C   UNL A   1      32.404  23.181  23.773  1.00  0.00     0.104 C 
BRANCH  10  13
ATOM     13  S   UNL A   1      32.077  24.652  25.962  1.00  0.00     0.243 S 
ATOM     14  O   UNL A   1      31.377  24.573  27.231  1.00  0.00    -0.207 OA
ATOM     15  O   UNL A   1      33.492  24.949  25.929  1.00  0.00    -0.207 OA
BRANCH  13  16
ATOM     16  C   UNL A   1      31.302  25.950  25.036  1.00  0.00     0.088 A 
ATOM     17  C   UNL A   1      29.921  25.819  24.836  1.00  0.00     0.061 A 
ATOM     18  C   UNL A   1      31.988  27.014  24.455  1.00  0.00     0.061 A 
ATOM     19  C   UNL A   1      29.257  26.712  24.003  1.00  0.00     0.127 A 
ATOM     20  C   UNL A   1      31.306  27.863  23.586  1.00  0.00     0.127 A 
ATOM     21  F   UNL A   1      27.939  26.577  23.809  1.00  0.00    -0.207 F 
ATOM     22  C   UNL A   1      29.946  27.721  23.348  1.00  0.00     0.078 A 
ATOM     23  F   UNL A   1      31.987  28.818  22.940  1.00  0.00    -0.207 F 
ENDBRANCH  13  16
ENDBRANCH  10  13
ENDBRANCH   4   7
ENDBRANCH   2   3
ENDBRANCH   1   2
BRANCH   1  24
ATOM     24  C   UNL A   1      38.654  20.526  25.589  1.00  0.00     0.118 C 
BRANCH  24  25
ATOM     25  N   UNL A   1      39.707  19.544  25.770  1.00  0.00    -0.352 N 
ATOM     26  C   UNL A   1      41.040  19.705  26.059  1.00  0.00     0.251 C 
ATOM     27  H   UNL A   1      39.419  18.609  25.669  1.00  0.00     0.163 HD
ATOM     28  O   UNL A   1      41.795  18.749  25.883  1.00  0.00    -0.269 OA
BRANCH  26  29
ATOM     29  C   UNL A   1      41.603  20.982  26.572  1.00  0.00     0.039 A 
ATOM     30  C   UNL A   1      41.556  21.219  27.953  1.00  0.00     0.014 A 
ATOM     31  C   UNL A   1      42.053  21.999  25.727  1.00  0.00     0.014 A 
ATOM     32  C   UNL A   1      41.966  22.451  28.479  1.00  0.00     0.010 A 
ATOM     33  C   UNL A   1      42.535  23.201  26.257  1.00  0.00     0.010 A 
ATOM     34  C   UNL A   1      42.468  23.454  27.636  1.00  0.00    -0.014 A 
BRANCH  34  35
ATOM     35  C   UNL A   1      42.858  24.789  28.169  1.00  0.00     0.031 A 
ATOM     36  C   UNL A   1      41.808  25.848  28.400  1.00  0.00     0.074 A 
ATOM     37  C   UNL A   1      44.150  25.073  28.420  1.00  0.00     0.049 A 
ATOM     38  N   UNL A   1      41.956  27.089  28.795  1.00  0.00    -0.248 NA
ATOM     39  C   UNL A   1      40.412  25.470  28.129  1.00  0.00     0.031 C 
ATOM     40  C   UNL A   1      45.274  24.156  28.229  1.00  0.00     0.029 A 
ATOM     41  N   UNL A   1      44.735  26.225  28.889  1.00  0.00    -0.354 N 
ATOM     42  C   UNL A   1      40.682  27.643  28.791  1.00  0.00     0.074 A 
ATOM     43  C   UNL A   1      39.777  26.617  28.321  1.00  0.00     0.031 C 
ATOM     44  C   UNL A   1      46.409  24.771  28.601  1.00  0.00     0.029 A 
ATOM     45  C   UNL A   1      46.099  26.135  29.023  1.00  0.00     0.049 A 
ATOM     46  H   UNL A   1      44.224  27.037  29.109  1.00  0.00     0.167 HD
ATOM     47  C   UNL A   1      40.290  28.887  29.160  1.00  0.00     0.031 A 
ATOM     48  C   UNL A   1      47.001  27.046  29.435  1.00  0.00     0.031 A 
ATOM     49  C   UNL A   1      41.172  29.905  29.663  1.00  0.00     0.049 A 
ATOM     50  C   UNL A   1      46.543  28.417  29.846  1.00  0.00     0.074 A 
ATOM     51  C   UNL A   1      40.855  31.175  30.113  1.00  0.00     0.029 A 
ATOM     52  N   UNL A   1      42.544  29.766  29.790  1.00  0.00    -0.354 N 
ATOM     53  N   UNL A   1      45.329  28.909  29.870  1.00  0.00    -0.248 NA
ATOM     54  C   UNL A   1      47.583  29.355  30.293  1.00  0.00     0.031 C 
ATOM     55  C   UNL A   1      42.042  31.818  30.482  1.00  0.00     0.029 A 
ATOM     56  C   UNL A   1      43.091  30.932  30.299  1.00  0.00     0.049 A 
ATOM     57  H   UNL A   1      43.054  28.957  29.553  1.00  0.00     0.167 HD
ATOM     58  C   UNL A   1      45.456  30.204  30.357  1.00  0.00     0.074 A 
ATOM     59  C   UNL A   1      46.863  30.417  30.627  1.00  0.00     0.031 C 
ATOM     60  C   UNL A   1      44.490  31.131  30.564  1.00  0.00     0.031 A 
BRANCH  47  61
ATOM     61  C   UNL A   1      38.829  29.217  29.029  1.00  0.00    -0.014 A 
ATOM     62  C   UNL A   1      38.292  29.667  27.813  1.00  0.00     0.009 A 
ATOM     63  C   UNL A   1      37.974  29.044  30.127  1.00  0.00     0.009 A 
ATOM     64  C   UNL A   1      36.934  29.974  27.710  1.00  0.00     0.001 A 
ATOM     65  C   UNL A   1      36.610  29.326  30.014  1.00  0.00     0.001 A 
ATOM     66  C   UNL A   1      36.094  29.800  28.810  1.00  0.00     0.000 A 
ENDBRANCH  47  61
BRANCH  48  67
ATOM     67  C   UNL A   1      48.440  26.684  29.501  1.00  0.00    -0.014 A 
ATOM     68  C   UNL A   1      48.964  26.074  30.651  1.00  0.00     0.009 A 
ATOM     69  C   UNL A   1      49.296  26.952  28.421  1.00  0.00     0.009 A 
ATOM     70  C   UNL A   1      50.323  25.756  30.725  1.00  0.00     0.001 A 
ATOM     71  C   UNL A   1      50.648  26.611  28.490  1.00  0.00     0.001 A 
ATOM     72  C   UNL A   1      51.162  26.021  29.644  1.00  0.00     0.000 A 
ENDBRANCH  48  67
BRANCH  60  73
ATOM     73  C   UNL A   1      44.917  32.451  31.138  1.00  0.00    -0.014 A 
ATOM     74  C   UNL A   1      45.272  33.523  30.305  1.00  0.00     0.009 A 
ATOM     75  C   UNL A   1      44.927  32.634  32.529  1.00  0.00     0.009 A 
ATOM     76  C   UNL A   1      45.656  34.747  30.858  1.00  0.00     0.001 A 
ATOM     77  C   UNL A   1      45.289  33.865  33.077  1.00  0.00     0.001 A 
ATOM     78  C   UNL A   1      45.661  34.918  32.242  1.00  0.00     0.000 A 
ENDBRANCH  60  73
ENDBRANCH  34  35
ENDBRANCH  26  29
ENDBRANCH  24  25
ENDBRANCH   1  24
TORSDOF 12
ENDMDL
MODEL 3
REMARK VINA RESULT:     -10.9      2.592      7.832
REMARK SMILES C[C@@H]1[C@H](C(=O)NCCCNC(=O)c2ccc(-c3c4nc(c(-c5ccccc5)c5ccc([nH]5)c(-c5ccccc5)c5nc(c(-c6ccccc6)c6ccc3[nH]6)C=C5)C=C4)cc2)CCN1S(=O)(=O)c1cc(F)cc(F)c1
REMARK SMILES IDX 8 1 7 2 6 3 4 4 5 5 3 7 1 8 2 9 63 10 61 11 62 12 64 13
REMARK SMILES IDX 65 14 66 15 67 16 68 17 74 18 69 19 72 20 70 21 71 22 73 23
REMARK SMILES IDX 9 24 10 25 11 26 12 28 13 29 14 30 60 31 15 32 59 33 16 34
REMARK SMILES IDX 17 35 18 36 53 37 19 38 58 39 52 40 54 41 20 42 57 43 51 44
REMARK SMILES IDX 50 45 21 47 43 48 28 49 42 50 29 51 32 52 41 53 55 54 30 55
REMARK SMILES IDX 31 56 40 58 56 59 33 60 22 61 23 62 27 63 24 64 26 65 25 66
REMARK SMILES IDX 44 67 45 68 49 69 46 70 48 71 47 72 34 73 35 74 39 75 36 76
REMARK SMILES IDX 38 77 37 78
REMARK H PARENT 6 6 10 27 54 46 32 57
REMARK Flexibility Score: inf
ROOT
ATOM      1  C   UNL A   1      37.271  19.625  24.997  1.00  0.00     0.042 C 
ENDROOT
BRANCH   1   2
ATOM      2  C   UNL A   1      36.006  20.491  25.043  1.00  0.00     0.117 C 
BRANCH   2   3
ATOM      3  N   UNL A   1      34.780  19.734  25.267  1.00  0.00    -0.356 N 
ATOM      4  C   UNL A   1      33.456  19.962  25.092  1.00  0.00     0.224 C 
ATOM      5  O   UNL A   1      32.717  19.019  25.403  1.00  0.00    -0.275 OA
ATOM      6  H   UNL A   1      34.957  18.838  25.635  1.00  0.00     0.163 HD
BRANCH   4   7
ATOM      7  C   UNL A   1      32.807  21.258  24.617  1.00  0.00     0.098 C 
ATOM      8  C   UNL A   1      32.916  22.213  26.987  1.00  0.00     0.026 C 
ATOM      9  C   UNL A   1      32.156  22.157  25.683  1.00  0.00     0.082 C 
ATOM     10  N   UNL A   1      31.959  23.490  25.001  1.00  0.00    -0.194 NA
ATOM     11  C   UNL A   1      33.583  22.211  23.741  1.00  0.00     0.032 C 
ATOM     12  C   UNL A   1      32.636  23.401  23.655  1.00  0.00     0.104 C 
BRANCH  10  13
ATOM     13  S   UNL A   1      32.212  25.005  25.732  1.00  0.00     0.243 S 
ATOM     14  O   UNL A   1      31.415  25.033  26.944  1.00  0.00    -0.207 OA
ATOM     15  O   UNL A   1      33.644  25.197  25.798  1.00  0.00    -0.207 OA
BRANCH  13  16
ATOM     16  C   UNL A   1      31.609  26.315  24.700  1.00  0.00     0.088 A 
ATOM     17  C   UNL A   1      30.218  26.375  24.537  1.00  0.00     0.061 A 
ATOM     18  C   UNL A   1      32.426  27.205  24.008  1.00  0.00     0.061 A 
ATOM     19  C   UNL A   1      29.668  27.277  23.634  1.00  0.00     0.127 A 
ATOM     20  C   UNL A   1      31.851  28.064  23.073  1.00  0.00     0.127 A 
ATOM     21  F   UNL A   1      28.339  27.325  23.476  1.00  0.00    -0.207 F 
ATOM     22  C   UNL A   1      30.478  28.107  22.874  1.00  0.00     0.078 A 
ATOM     23  F   UNL A   1      32.646  28.842  22.328  1.00  0.00    -0.207 F 
ENDBRANCH  13  16
ENDBRANCH  10  13
ENDBRANCH   4   7
ENDBRANCH   2   3
ENDBRANCH   1   2
BRANCH   1  24
ATOM     24  C   UNL A   1      38.558  20.339  25.389  1.00  0.00     0.118 C 
BRANCH  24  25
ATOM     25  N   UNL A   1      39.629  19.397  25.655  1.00  0.00    -0.352 N 
ATOM     26  C   UNL A   1      40.933  19.607  26.032  1.00  0.00     0.251 C 
ATOM     27  H   UNL A   1      39.381  18.451  25.548  1.00  0.00     0.163 HD
ATOM     28  O   UNL A   1      41.731  18.677  25.922  1.00  0.00    -0.269 OA
BRANCH  26  29
ATOM     29  C   UNL A   1      41.415  20.910  26.565  1.00  0.00     0.039 A 
ATOM     30  C   UNL A   1      41.231  21.176  27.929  1.00  0.00     0.014 A 
ATOM     31  C   UNL A   1      41.919  21.919  25.741  1.00  0.00     0.014 A 
ATOM     32  C   UNL A   1      41.561  22.429  28.461  1.00  0.00     0.010 A 
ATOM     33  C   UNL A   1      42.321  23.144  26.285  1.00  0.00     0.010 A 
ATOM     34  C   UNL A   1      42.118  23.425  27.645  1.00  0.00    -0.014 A 
BRANCH  34  35
ATOM     35  C   UNL A   1      42.424  24.782  28.179  1.00  0.00     0.031 A 
ATOM     36  C   UNL A   1      43.831  25.130  28.599  1.00  0.00     0.074 A 
ATOM     37  C   UNL A   1      41.447  25.696  28.322  1.00  0.00     0.049 A 
ATOM     38  N   UNL A   1      44.284  26.232  29.148  1.00  0.00    -0.248 NA
ATOM     39  C   UNL A   1      44.860  24.097  28.397  1.00  0.00     0.031 C 
ATOM     40  C   UNL A   1      40.039  25.496  27.976  1.00  0.00     0.029 A 
ATOM     41  N   UNL A   1      41.492  26.982  28.804  1.00  0.00    -0.354 N 
ATOM     42  C   UNL A   1      45.636  26.012  29.381  1.00  0.00     0.074 A 
ATOM     43  C   UNL A   1      45.924  24.662  28.950  1.00  0.00     0.031 C 
ATOM     44  C   UNL A   1      39.360  26.627  28.232  1.00  0.00     0.029 A 
ATOM     45  C   UNL A   1      40.274  27.618  28.792  1.00  0.00     0.049 A 
ATOM     46  H   UNL A   1      42.319  27.408  29.126  1.00  0.00     0.167 HD
ATOM     47  C   UNL A   1      46.563  26.858  29.892  1.00  0.00     0.031 A 
ATOM     48  C   UNL A   1      39.929  28.858  29.190  1.00  0.00     0.031 A 
ATOM     49  C   UNL A   1      46.299  28.214  30.292  1.00  0.00     0.049 A 
ATOM     50  C   UNL A   1      40.975  29.781  29.748  1.00  0.00     0.074 A 
ATOM     51  C   UNL A   1      47.188  29.161  30.769  1.00  0.00     0.029 A 
ATOM     52  N   UNL A   1      45.053  28.817  30.254  1.00  0.00    -0.354 N 
ATOM     53  N   UNL A   1      42.256  29.567  29.926  1.00  0.00    -0.248 NA
ATOM     54  C   UNL A   1      40.526  31.122  30.152  1.00  0.00     0.031 C 
ATOM     55  C   UNL A   1      46.473  30.330  31.051  1.00  0.00     0.029 A 
ATOM     56  C   UNL A   1      45.147  30.121  30.711  1.00  0.00     0.049 A 
ATOM     57  H   UNL A   1      44.224  28.383  29.946  1.00  0.00     0.167 HD
ATOM     58  C   UNL A   1      42.768  30.751  30.439  1.00  0.00     0.074 A 
ATOM     59  C   UNL A   1      41.665  31.684  30.534  1.00  0.00     0.031 C 
ATOM     60  C   UNL A   1      44.043  31.038  30.798  1.00  0.00     0.031 A 
BRANCH  47  61
ATOM     61  C   UNL A   1      47.962  26.332  30.051  1.00  0.00    -0.014 A 
ATOM     62  C   UNL A   1      48.386  25.744  31.253  1.00  0.00     0.009 A 
ATOM     63  C   UNL A   1      48.858  26.398  28.973  1.00  0.00     0.009 A 
ATOM     64  C   UNL A   1      49.691  25.266  31.384  1.00  0.00     0.001 A 
ATOM     65  C   UNL A   1      50.156  25.895  29.099  1.00  0.00     0.001 A 
ATOM     66  C   UNL A   1      50.573  25.338  30.306  1.00  0.00     0.000 A 
ENDBRANCH  47  61
BRANCH  48  67
ATOM     67  C   UNL A   1      38.521  29.312  29.056  1.00  0.00    -0.014 A 
ATOM     68  C   UNL A   1      38.058  29.830  27.837  1.00  0.00     0.009 A 
ATOM     69  C   UNL A   1      37.638  29.236  30.144  1.00  0.00     0.009 A 
ATOM     70  C   UNL A   1      36.741  30.282  27.717  1.00  0.00     0.001 A 
ATOM     71  C   UNL A   1      36.316  29.666  30.013  1.00  0.00     0.001 A 
ATOM     72  C   UNL A   1      35.871  30.196  28.802  1.00  0.00     0.000 A 
ENDBRANCH  48  67
BRANCH  60  73
ATOM     73  C   UNL A   1      44.319  32.427  31.297  1.00  0.00    -0.014 A 
ATOM     74  C   UNL A   1      44.266  32.730  32.666  1.00  0.00     0.009 A 
ATOM     75  C   UNL A   1      44.675  33.435  30.387  1.00  0.00     0.009 A 
ATOM     76  C   UNL A   1      44.538  34.026  33.112  1.00  0.00     0.001 A 
ATOM     77  C   UNL A   1      44.967  34.723  30.838  1.00  0.00     0.001 A 
ATOM     78  C   UNL A   1      44.891  35.019  32.198  1.00  0.00     0.000 A 
ENDBRANCH  60  73
ENDBRANCH  34  35
ENDBRANCH  26  29
ENDBRANCH  24  25
ENDBRANCH   1  24
TORSDOF 12
ENDMDL
