MODEL 1
REMARK VINA RESULT:     -11.9      0.000      0.000
REMARK SMILES Cc1ccccc1C(=O)N1CSC[C@H]1C(=O)NCCCNC(=O)c1ccc(-c2c3nc(c(-c4ccccc4)c4ccc([nH]4)c(-c4ccccc4)c4nc(c(-c5ccccc5)c5ccc2[nH]5)C=C4)C=C3)cc1
REMARK SMILES IDX 19 1 18 2 17 3 15 4 16 5 14 7 10 8 11 9 12 10 13 11 8 12
REMARK SMILES IDX 9 13 7 14 1 15 2 16 3 17 4 18 6 19 5 20 20 21 21 22 22 23
REMARK SMILES IDX 23 25 24 26 25 27 71 28 26 29 70 30 27 31 28 32 29 33 64 34
REMARK SMILES IDX 30 35 69 36 63 37 65 38 31 39 68 40 62 41 61 42 32 44 54 45
REMARK SMILES IDX 39 46 53 47 40 48 43 49 52 50 66 51 41 52 42 53 51 55 67 56
REMARK SMILES IDX 44 57 33 58 34 59 38 60 35 61 37 62 36 63 55 64 56 65 60 66
REMARK SMILES IDX 57 67 59 68 58 69 45 70 46 71 50 72 47 73 49 74 48 75
REMARK H PARENT 17 6 21 24 65 43 43 54
REMARK Flexibility Score: inf
ROOT
ATOM      1  C   UNL A   1      34.660  29.063  27.265  1.00  0.00     0.042 C 
ENDROOT
BRANCH   1   2
ATOM      2  C   UNL A   1      33.566  29.084  26.210  1.00  0.00     0.117 C 
BRANCH   2   3
ATOM      3  N   UNL A   1      34.107  29.113  24.865  1.00  0.00    -0.354 N 
ATOM      4  C   UNL A   1      33.926  28.316  23.778  1.00  0.00     0.243 C 
ATOM      5  O   UNL A   1      34.469  28.717  22.741  1.00  0.00    -0.273 OA
ATOM      6  H   UNL A   1      34.732  29.858  24.707  1.00  0.00     0.163 HD
BRANCH   4   7
ATOM      7  C   UNL A   1      33.086  27.011  23.760  1.00  0.00     0.185 C 
ATOM      8  N   UNL A   1      31.711  27.040  23.239  1.00  0.00    -0.317 N 
ATOM      9  C   UNL A   1      31.536  26.457  21.933  1.00  0.00     0.190 C 
ATOM     10  S   UNL A   1      32.905  25.309  21.675  1.00  0.00    -0.138 SA
ATOM     11  C   UNL A   1      33.805  25.800  23.181  1.00  0.00     0.106 C 
BRANCH   8  12
ATOM     12  C   UNL A   1      30.706  27.506  24.072  1.00  0.00     0.255 C 
ATOM     13  O   UNL A   1      30.651  27.183  25.257  1.00  0.00    -0.269 OA
BRANCH  12  14
ATOM     14  C   UNL A   1      29.604  28.368  23.554  1.00  0.00     0.042 A 
ATOM     15  C   UNL A   1      27.743  26.599  23.846  1.00  0.00     0.045 C 
ATOM     16  C   UNL A   1      28.250  27.969  23.488  1.00  0.00    -0.038 A 
ATOM     17  C   UNL A   1      27.286  28.917  23.094  1.00  0.00     0.004 A 
ATOM     18  C   UNL A   1      27.632  30.247  22.861  1.00  0.00     0.000 A 
ATOM     19  C   UNL A   1      29.937  29.716  23.325  1.00  0.00     0.014 A 
ATOM     20  C   UNL A   1      28.957  30.651  22.990  1.00  0.00     0.001 A 
ENDBRANCH  12  14
ENDBRANCH   8  12
ENDBRANCH   4   7
ENDBRANCH   2   3
ENDBRANCH   1   2
BRANCH   1  21
ATOM     21  C   UNL A   1      35.237  30.433  27.569  1.00  0.00     0.118 C 
BRANCH  21  22
ATOM     22  N   UNL A   1      34.236  31.500  27.581  1.00  0.00    -0.352 N 
ATOM     23  C   UNL A   1      34.236  32.664  28.337  1.00  0.00     0.251 C 
ATOM     24  H   UNL A   1      33.467  31.376  26.979  1.00  0.00     0.163 HD
ATOM     25  O   UNL A   1      33.358  33.496  28.227  1.00  0.00    -0.269 OA
BRANCH  23  26
ATOM     26  C   UNL A   1      35.423  32.918  29.184  1.00  0.00     0.039 A 
ATOM     27  C   UNL A   1      36.479  33.608  28.586  1.00  0.00     0.014 A 
ATOM     28  C   UNL A   1      35.609  32.164  30.341  1.00  0.00     0.014 A 
ATOM     29  C   UNL A   1      37.775  33.311  28.983  1.00  0.00     0.010 A 
ATOM     30  C   UNL A   1      36.899  31.794  30.667  1.00  0.00     0.010 A 
ATOM     31  C   UNL A   1      37.973  32.303  29.927  1.00  0.00    -0.014 A 
BRANCH  31  32
ATOM     32  C   UNL A   1      39.257  31.633  30.082  1.00  0.00     0.031 A 
ATOM     33  C   UNL A   1      39.471  30.308  29.477  1.00  0.00     0.074 A 
ATOM     34  C   UNL A   1      40.243  32.210  30.806  1.00  0.00     0.049 A 
ATOM     35  N   UNL A   1      40.346  29.458  29.900  1.00  0.00    -0.248 NA
ATOM     36  C   UNL A   1      38.627  29.783  28.405  1.00  0.00     0.031 C 
ATOM     37  C   UNL A   1      41.645  31.809  30.886  1.00  0.00     0.029 A 
ATOM     38  N   UNL A   1      40.092  33.151  31.829  1.00  0.00    -0.354 N 
ATOM     39  C   UNL A   1      40.392  28.437  28.985  1.00  0.00     0.074 A 
ATOM     40  C   UNL A   1      39.210  28.604  28.176  1.00  0.00     0.031 C 
ATOM     41  C   UNL A   1      42.167  32.281  32.029  1.00  0.00     0.029 A 
ATOM     42  C   UNL A   1      41.079  32.870  32.792  1.00  0.00     0.049 A 
ATOM     43  H   UNL A   1      39.422  33.871  31.869  1.00  0.00     0.167 HD
ATOM     44  C   UNL A   1      41.510  27.666  28.911  1.00  0.00     0.031 A 
ATOM     45  C   UNL A   1      40.753  32.528  34.072  1.00  0.00     0.031 A 
ATOM     46  C   UNL A   1      42.379  27.859  30.072  1.00  0.00     0.049 A 
ATOM     47  C   UNL A   1      41.258  31.166  34.493  1.00  0.00     0.074 A 
ATOM     48  C   UNL A   1      43.598  28.488  30.259  1.00  0.00     0.029 A 
ATOM     49  N   UNL A   1      41.879  27.584  31.342  1.00  0.00    -0.354 N 
ATOM     50  N   UNL A   1      41.662  30.244  33.664  1.00  0.00    -0.248 NA
ATOM     51  C   UNL A   1      41.293  30.719  35.884  1.00  0.00     0.031 C 
ATOM     52  C   UNL A   1      43.786  28.667  31.658  1.00  0.00     0.029 A 
ATOM     53  C   UNL A   1      42.705  28.107  32.316  1.00  0.00     0.049 A 
ATOM     54  H   UNL A   1      41.049  27.085  31.520  1.00  0.00     0.167 HD
ATOM     55  C   UNL A   1      41.972  29.105  34.360  1.00  0.00     0.074 A 
ATOM     56  C   UNL A   1      41.748  29.460  35.749  1.00  0.00     0.031 C 
ATOM     57  C   UNL A   1      42.359  27.958  33.726  1.00  0.00     0.031 A 
BRANCH  44  58
ATOM     58  C   UNL A   1      41.929  26.915  27.665  1.00  0.00    -0.014 A 
ATOM     59  C   UNL A   1      42.604  27.599  26.638  1.00  0.00     0.009 A 
ATOM     60  C   UNL A   1      41.583  25.579  27.377  1.00  0.00     0.009 A 
ATOM     61  C   UNL A   1      42.888  26.996  25.402  1.00  0.00     0.001 A 
ATOM     62  C   UNL A   1      41.887  24.960  26.159  1.00  0.00     0.001 A 
ATOM     63  C   UNL A   1      42.531  25.674  25.163  1.00  0.00     0.000 A 
ENDBRANCH  44  58
BRANCH  45  64
ATOM     64  C   UNL A   1      39.484  33.137  34.557  1.00  0.00    -0.014 A 
ATOM     65  C   UNL A   1      38.262  32.552  34.165  1.00  0.00     0.009 A 
ATOM     66  C   UNL A   1      39.481  34.035  35.633  1.00  0.00     0.009 A 
ATOM     67  C   UNL A   1      37.093  32.773  34.899  1.00  0.00     0.001 A 
ATOM     68  C   UNL A   1      38.305  34.263  36.359  1.00  0.00     0.001 A 
ATOM     69  C   UNL A   1      37.123  33.607  36.014  1.00  0.00     0.000 A 
ENDBRANCH  45  64
BRANCH  57  70
ATOM     70  C   UNL A   1      42.500  26.590  34.359  1.00  0.00    -0.014 A 
ATOM     71  C   UNL A   1      41.527  25.974  35.158  1.00  0.00     0.009 A 
ATOM     72  C   UNL A   1      43.630  25.805  34.033  1.00  0.00     0.009 A 
ATOM     73  C   UNL A   1      41.696  24.669  35.645  1.00  0.00     0.001 A 
ATOM     74  C   UNL A   1      43.781  24.488  34.475  1.00  0.00     0.001 A 
ATOM     75  C   UNL A   1      42.817  23.923  35.295  1.00  0.00     0.000 A 
ENDBRANCH  57  70
ENDBRANCH  31  32
ENDBRANCH  23  26
ENDBRANCH  21  22
ENDBRANCH   1  21
TORSDOF 12
ENDMDL
MODEL 2
REMARK VINA RESULT:     -11.9      1.982      3.032
REMARK SMILES Cc1ccccc1C(=O)N1CSC[C@H]1C(=O)NCCCNC(=O)c1ccc(-c2c3nc(c(-c4ccccc4)c4ccc([nH]4)c(-c4ccccc4)c4nc(c(-c5ccccc5)c5ccc2[nH]5)C=C4)C=C3)cc1
REMARK SMILES IDX 19 1 18 2 17 3 15 4 16 5 14 7 10 8 11 9 12 10 13 11 8 12
REMARK SMILES IDX 9 13 7 14 1 15 2 16 3 17 4 18 6 19 5 20 20 21 21 22 22 23
REMARK SMILES IDX 23 25 24 26 25 27 71 28 26 29 70 30 27 31 28 32 29 33 64 34
REMARK SMILES IDX 30 35 69 36 63 37 65 38 31 39 68 40 62 41 61 42 32 44 54 45
REMARK SMILES IDX 39 46 53 47 40 48 43 49 52 50 66 51 41 52 42 53 51 55 67 56
REMARK SMILES IDX 44 57 33 58 34 59 38 60 35 61 37 62 36 63 55 64 56 65 60 66
REMARK SMILES IDX 57 67 59 68 58 69 45 70 46 71 50 72 47 73 49 74 48 75
REMARK H PARENT 17 6 21 24 65 43 43 54
REMARK Flexibility Score: inf
ROOT
ATOM      1  C   UNL A   1      32.469  31.584  27.252  1.00  0.00     0.042 C 
ENDROOT
BRANCH   1   2
ATOM      2  C   UNL A   1      31.856  30.848  26.072  1.00  0.00     0.117 C 
BRANCH   2   3
ATOM      3  N   UNL A   1      32.841  30.070  25.345  1.00  0.00    -0.354 N 
ATOM      4  C   UNL A   1      32.803  28.838  24.770  1.00  0.00     0.243 C 
ATOM      5  O   UNL A   1      33.812  28.536  24.120  1.00  0.00    -0.273 OA
ATOM      6  H   UNL A   1      33.710  30.523  25.250  1.00  0.00     0.163 HD
BRANCH   4   7
ATOM      7  C   UNL A   1      31.608  27.852  24.853  1.00  0.00     0.185 C 
ATOM      8  N   UNL A   1      31.448  26.819  23.819  1.00  0.00    -0.317 N 
ATOM      9  C   UNL A   1      31.799  25.482  24.225  1.00  0.00     0.190 C 
ATOM     10  S   UNL A   1      31.676  25.424  26.025  1.00  0.00    -0.138 SA
ATOM     11  C   UNL A   1      31.403  27.214  26.220  1.00  0.00     0.106 C 
BRANCH   8  12
ATOM     12  C   UNL A   1      30.877  27.186  22.610  1.00  0.00     0.255 C 
ATOM     13  O   UNL A   1      31.311  26.767  21.540  1.00  0.00    -0.269 OA
BRANCH  12  14
ATOM     14  C   UNL A   1      29.750  28.162  22.547  1.00  0.00     0.042 A 
ATOM     15  C   UNL A   1      28.080  26.706  23.876  1.00  0.00     0.045 C 
ATOM     16  C   UNL A   1      28.491  27.961  23.155  1.00  0.00    -0.038 A 
ATOM     17  C   UNL A   1      27.552  29.009  23.127  1.00  0.00     0.004 A 
ATOM     18  C   UNL A   1      27.876  30.257  22.594  1.00  0.00     0.000 A 
ATOM     19  C   UNL A   1      30.066  29.429  22.022  1.00  0.00     0.014 A 
ATOM     20  C   UNL A   1      29.139  30.471  22.054  1.00  0.00     0.001 A 
ENDBRANCH  12  14
ENDBRANCH   8  12
ENDBRANCH   4   7
ENDBRANCH   2   3
ENDBRANCH   1   2
BRANCH   1  21
ATOM     21  C   UNL A   1      33.822  31.039  27.672  1.00  0.00     0.118 C 
BRANCH  21  22
ATOM     22  N   UNL A   1      34.466  31.819  28.729  1.00  0.00    -0.352 N 
ATOM     23  C   UNL A   1      35.636  31.525  29.417  1.00  0.00     0.251 C 
ATOM     24  H   UNL A   1      34.012  32.654  28.985  1.00  0.00     0.163 HD
ATOM     25  O   UNL A   1      36.089  32.279  30.254  1.00  0.00    -0.269 OA
BRANCH  23  26
ATOM     26  C   UNL A   1      36.383  30.321  28.991  1.00  0.00     0.039 A 
ATOM     27  C   UNL A   1      36.591  29.341  29.963  1.00  0.00     0.014 A 
ATOM     28  C   UNL A   1      37.154  30.371  27.831  1.00  0.00     0.014 A 
ATOM     29  C   UNL A   1      37.756  28.590  29.908  1.00  0.00     0.010 A 
ATOM     30  C   UNL A   1      38.359  29.696  27.830  1.00  0.00     0.010 A 
ATOM     31  C   UNL A   1      38.693  28.876  28.915  1.00  0.00    -0.014 A 
BRANCH  31  32
ATOM     32  C   UNL A   1      40.087  28.467  29.028  1.00  0.00     0.031 A 
ATOM     33  C   UNL A   1      40.497  27.125  28.581  1.00  0.00     0.074 A 
ATOM     34  C   UNL A   1      41.000  29.305  29.568  1.00  0.00     0.049 A 
ATOM     35  N   UNL A   1      41.543  26.510  29.021  1.00  0.00    -0.248 NA
ATOM     36  C   UNL A   1      39.686  26.312  27.676  1.00  0.00     0.031 C 
ATOM     37  C   UNL A   1      42.454  29.169  29.559  1.00  0.00     0.029 A 
ATOM     38  N   UNL A   1      40.754  30.345  30.471  1.00  0.00    -0.354 N 
ATOM     39  C   UNL A   1      41.709  25.391  28.247  1.00  0.00     0.074 A 
ATOM     40  C   UNL A   1      40.459  25.231  27.545  1.00  0.00     0.031 C 
ATOM     41  C   UNL A   1      42.964  29.886  30.574  1.00  0.00     0.029 A 
ATOM     42  C   UNL A   1      41.846  30.383  31.358  1.00  0.00     0.049 A 
ATOM     43  H   UNL A   1      39.968  30.937  30.483  1.00  0.00     0.167 HD
ATOM     44  C   UNL A   1      42.941  24.822  28.163  1.00  0.00     0.031 A 
ATOM     45  C   UNL A   1      41.684  30.179  32.698  1.00  0.00     0.031 A 
ATOM     46  C   UNL A   1      43.844  25.329  29.196  1.00  0.00     0.049 A 
ATOM     47  C   UNL A   1      42.464  29.001  33.240  1.00  0.00     0.074 A 
ATOM     48  C   UNL A   1      44.936  26.180  29.177  1.00  0.00     0.029 A 
ATOM     49  N   UNL A   1      43.500  25.160  30.534  1.00  0.00    -0.354 N 
ATOM     50  N   UNL A   1      42.967  28.052  32.502  1.00  0.00    -0.248 NA
ATOM     51  C   UNL A   1      42.684  28.774  34.667  1.00  0.00     0.031 C 
ATOM     52  C   UNL A   1      45.191  26.591  30.515  1.00  0.00     0.029 A 
ATOM     53  C   UNL A   1      44.284  25.954  31.346  1.00  0.00     0.049 A 
ATOM     54  H   UNL A   1      42.792  24.557  30.857  1.00  0.00     0.167 HD
ATOM     55  C   UNL A   1      43.535  27.097  33.305  1.00  0.00     0.074 A 
ATOM     56  C   UNL A   1      43.353  27.607  34.652  1.00  0.00     0.031 C 
ATOM     57  C   UNL A   1      44.079  25.955  32.790  1.00  0.00     0.031 A 
BRANCH  44  58
ATOM     58  C   UNL A   1      43.398  23.981  26.989  1.00  0.00    -0.014 A 
ATOM     59  C   UNL A   1      43.779  24.613  25.792  1.00  0.00     0.009 A 
ATOM     60  C   UNL A   1      43.354  22.574  26.944  1.00  0.00     0.009 A 
ATOM     61  C   UNL A   1      44.071  23.886  24.626  1.00  0.00     0.001 A 
ATOM     62  C   UNL A   1      43.671  21.839  25.795  1.00  0.00     0.001 A 
ATOM     63  C   UNL A   1      44.020  22.497  24.628  1.00  0.00     0.000 A 
ENDBRANCH  44  58
BRANCH  45  64
ATOM     64  C   UNL A   1      40.365  30.623  33.225  1.00  0.00    -0.014 A 
ATOM     65  C   UNL A   1      40.114  32.006  33.336  1.00  0.00     0.009 A 
ATOM     66  C   UNL A   1      39.280  29.739  33.287  1.00  0.00     0.009 A 
ATOM     67  C   UNL A   1      38.805  32.495  33.394  1.00  0.00     0.001 A 
ATOM     68  C   UNL A   1      37.970  30.232  33.357  1.00  0.00     0.001 A 
ATOM     69  C   UNL A   1      37.733  31.606  33.375  1.00  0.00     0.000 A 
ENDBRANCH  45  64
BRANCH  57  70
ATOM     70  C   UNL A   1      44.517  24.739  33.578  1.00  0.00    -0.014 A 
ATOM     71  C   UNL A   1      45.849  24.398  33.849  1.00  0.00     0.009 A 
ATOM     72  C   UNL A   1      43.529  23.943  34.202  1.00  0.00     0.009 A 
ATOM     73  C   UNL A   1      46.176  23.297  34.655  1.00  0.00     0.001 A 
ATOM     74  C   UNL A   1      43.848  22.874  35.044  1.00  0.00     0.001 A 
ATOM     75  C   UNL A   1      45.176  22.542  35.260  1.00  0.00     0.000 A 
ENDBRANCH  57  70
ENDBRANCH  31  32
ENDBRANCH  23  26
ENDBRANCH  21  22
ENDBRANCH   1  21
TORSDOF 12
ENDMDL
MODEL 3
REMARK VINA RESULT:     -11.7      4.234      8.985
REMARK SMILES Cc1ccccc1C(=O)N1CSC[C@H]1C(=O)NCCCNC(=O)c1ccc(-c2c3nc(c(-c4ccccc4)c4ccc([nH]4)c(-c4ccccc4)c4nc(c(-c5ccccc5)c5ccc2[nH]5)C=C4)C=C3)cc1
REMARK SMILES IDX 19 1 18 2 17 3 15 4 16 5 14 7 10 8 11 9 12 10 13 11 8 12
REMARK SMILES IDX 9 13 7 14 1 15 2 16 3 17 4 18 6 19 5 20 20 21 21 22 22 23
REMARK SMILES IDX 23 25 24 26 25 27 71 28 26 29 70 30 27 31 28 32 29 33 64 34
REMARK SMILES IDX 30 35 69 36 63 37 65 38 31 39 68 40 62 41 61 42 32 44 54 45
REMARK SMILES IDX 39 46 53 47 40 48 43 49 52 50 66 51 41 52 42 53 51 55 67 56
REMARK SMILES IDX 44 57 33 58 34 59 38 60 35 61 37 62 36 63 55 64 56 65 60 66
REMARK SMILES IDX 57 67 59 68 58 69 45 70 46 71 50 72 47 73 49 74 48 75
REMARK H PARENT 17 6 21 24 65 43 43 54
REMARK Flexibility Score: inf
ROOT
ATOM      1  C   UNL A   1      38.955  21.397  25.826  1.00  0.00     0.042 C 
ENDROOT
BRANCH   1   2
ATOM      2  C   UNL A   1      37.562  21.343  25.220  1.00  0.00     0.117 C 
BRANCH   2   3
ATOM      3  N   UNL A   1      36.552  21.841  26.134  1.00  0.00    -0.354 N 
ATOM      4  C   UNL A   1      35.238  22.155  25.976  1.00  0.00     0.243 C 
ATOM      5  O   UNL A   1      34.643  22.445  27.021  1.00  0.00    -0.273 OA
ATOM      6  H   UNL A   1      36.883  21.981  27.050  1.00  0.00     0.163 HD
BRANCH   4   7
ATOM      7  C   UNL A   1      34.473  22.138  24.626  1.00  0.00     0.185 C 
ATOM      8  N   UNL A   1      33.020  22.360  24.613  1.00  0.00    -0.317 N 
ATOM      9  C   UNL A   1      32.599  23.656  24.144  1.00  0.00     0.190 C 
ATOM     10  S   UNL A   1      33.933  24.309  23.119  1.00  0.00    -0.138 SA
ATOM     11  C   UNL A   1      35.108  22.976  23.525  1.00  0.00     0.106 C 
BRANCH   8  12
ATOM     12  C   UNL A   1      32.193  21.294  24.932  1.00  0.00     0.255 C 
ATOM     13  O   UNL A   1      31.305  21.399  25.776  1.00  0.00    -0.269 OA
BRANCH  12  14
ATOM     14  C   UNL A   1      32.384  19.949  24.315  1.00  0.00     0.042 A 
ATOM     15  C   UNL A   1      31.838  20.698  21.903  1.00  0.00     0.045 C 
ATOM     16  C   UNL A   1      32.261  19.686  22.933  1.00  0.00    -0.038 A 
ATOM     17  C   UNL A   1      32.585  18.400  22.459  1.00  0.00     0.004 A 
ATOM     18  C   UNL A   1      33.106  17.426  23.310  1.00  0.00     0.000 A 
ATOM     19  C   UNL A   1      32.919  18.959  25.160  1.00  0.00     0.014 A 
ATOM     20  C   UNL A   1      33.286  17.709  24.659  1.00  0.00     0.001 A 
ENDBRANCH  12  14
ENDBRANCH   8  12
ENDBRANCH   4   7
ENDBRANCH   2   3
ENDBRANCH   1   2
BRANCH   1  21
ATOM     21  C   UNL A   1      39.289  22.733  26.465  1.00  0.00     0.118 C 
BRANCH  21  22
ATOM     22  N   UNL A   1      40.722  23.023  26.500  1.00  0.00    -0.352 N 
ATOM     23  C   UNL A   1      41.342  24.237  26.760  1.00  0.00     0.251 C 
ATOM     24  H   UNL A   1      41.320  22.263  26.315  1.00  0.00     0.163 HD
ATOM     25  O   UNL A   1      42.552  24.341  26.797  1.00  0.00    -0.269 OA
BRANCH  23  26
ATOM     26  C   UNL A   1      40.469  25.375  27.127  1.00  0.00     0.039 A 
ATOM     27  C   UNL A   1      40.652  26.558  26.408  1.00  0.00     0.014 A 
ATOM     28  C   UNL A   1      39.817  25.365  28.359  1.00  0.00     0.014 A 
ATOM     29  C   UNL A   1      40.437  27.766  27.055  1.00  0.00     0.010 A 
ATOM     30  C   UNL A   1      39.701  26.564  29.034  1.00  0.00     0.010 A 
ATOM     31  C   UNL A   1      40.096  27.752  28.407  1.00  0.00    -0.014 A 
BRANCH  31  32
ATOM     32  C   UNL A   1      40.273  28.920  29.260  1.00  0.00     0.031 A 
ATOM     33  C   UNL A   1      39.222  29.949  29.324  1.00  0.00     0.074 A 
ATOM     34  C   UNL A   1      41.413  29.077  29.970  1.00  0.00     0.049 A 
ATOM     35  N   UNL A   1      39.437  31.176  29.661  1.00  0.00    -0.248 NA
ATOM     36  C   UNL A   1      37.846  29.700  28.897  1.00  0.00     0.031 C 
ATOM     37  C   UNL A   1      41.679  30.043  31.033  1.00  0.00     0.029 A 
ATOM     38  N   UNL A   1      42.667  28.531  29.677  1.00  0.00    -0.354 N 
ATOM     39  C   UNL A   1      38.213  31.778  29.797  1.00  0.00     0.074 A 
ATOM     40  C   UNL A   1      37.280  30.879  29.163  1.00  0.00     0.031 C 
ATOM     41  C   UNL A   1      43.005  30.220  31.138  1.00  0.00     0.029 A 
ATOM     42  C   UNL A   1      43.628  29.490  30.046  1.00  0.00     0.049 A 
ATOM     43  H   UNL A   1      42.843  27.644  29.286  1.00  0.00     0.167 HD
ATOM     44  C   UNL A   1      38.105  32.889  30.573  1.00  0.00     0.031 A 
ATOM     45  C   UNL A   1      44.479  30.037  29.131  1.00  0.00     0.031 A 
ATOM     46  C   UNL A   1      39.415  33.458  30.892  1.00  0.00     0.049 A 
ATOM     47  C   UNL A   1      44.366  31.541  29.005  1.00  0.00     0.074 A 
ATOM     48  C   UNL A   1      40.183  33.504  32.043  1.00  0.00     0.029 A 
ATOM     49  N   UNL A   1      40.242  33.870  29.850  1.00  0.00    -0.354 N 
ATOM     50  N   UNL A   1      43.354  32.239  29.440  1.00  0.00    -0.248 NA
ATOM     51  C   UNL A   1      45.362  32.366  28.326  1.00  0.00     0.031 C 
ATOM     52  C   UNL A   1      41.507  33.866  31.669  1.00  0.00     0.029 A 
ATOM     53  C   UNL A   1      41.528  34.082  30.301  1.00  0.00     0.049 A 
ATOM     54  H   UNL A   1      39.948  33.993  28.918  1.00  0.00     0.167 HD
ATOM     55  C   UNL A   1      43.522  33.555  29.095  1.00  0.00     0.074 A 
ATOM     56  C   UNL A   1      44.806  33.587  28.419  1.00  0.00     0.031 C 
ATOM     57  C   UNL A   1      42.572  34.497  29.370  1.00  0.00     0.031 A 
BRANCH  44  58
ATOM     58  C   UNL A   1      36.818  33.320  31.246  1.00  0.00    -0.014 A 
ATOM     59  C   UNL A   1      36.586  32.968  32.587  1.00  0.00     0.009 A 
ATOM     60  C   UNL A   1      35.743  33.954  30.591  1.00  0.00     0.009 A 
ATOM     61  C   UNL A   1      35.355  33.211  33.219  1.00  0.00     0.001 A 
ATOM     62  C   UNL A   1      34.523  34.226  31.221  1.00  0.00     0.001 A 
ATOM     63  C   UNL A   1      34.323  33.842  32.536  1.00  0.00     0.000 A 
ENDBRANCH  44  58
BRANCH  45  64
ATOM     64  C   UNL A   1      44.825  29.127  28.004  1.00  0.00    -0.014 A 
ATOM     65  C   UNL A   1      45.765  28.101  28.230  1.00  0.00     0.009 A 
ATOM     66  C   UNL A   1      44.015  29.054  26.864  1.00  0.00     0.009 A 
ATOM     67  C   UNL A   1      45.814  26.978  27.400  1.00  0.00     0.001 A 
ATOM     68  C   UNL A   1      44.075  27.931  26.027  1.00  0.00     0.001 A 
ATOM     69  C   UNL A   1      44.947  26.881  26.314  1.00  0.00     0.000 A 
ENDBRANCH  45  64
BRANCH  57  70
ATOM     70  C   UNL A   1      42.538  35.914  28.840  1.00  0.00    -0.014 A 
ATOM     71  C   UNL A   1      43.154  37.013  29.453  1.00  0.00     0.009 A 
ATOM     72  C   UNL A   1      41.957  36.151  27.573  1.00  0.00     0.009 A 
ATOM     73  C   UNL A   1      43.147  38.285  28.859  1.00  0.00     0.001 A 
ATOM     74  C   UNL A   1      41.988  37.403  26.954  1.00  0.00     0.001 A 
ATOM     75  C   UNL A   1      42.574  38.477  27.607  1.00  0.00     0.000 A 
ENDBRANCH  57  70
ENDBRANCH  31  32
ENDBRANCH  23  26
ENDBRANCH  21  22
ENDBRANCH   1  21
TORSDOF 12
ENDMDL
