MODEL 1
REMARK VINA RESULT:     -12.0      0.000      0.000
REMARK SMILES C=C(C)[C@@H]1CC=C(CN2C[C@]34C=C[C@H](O3)[C@H](C(=O)NCCCNC(=O)c3ccc(-c5c6nc(c(-c7ccccc7)c7ccc([nH]7)c(-c7ccccc7)c7nc(c(-c8ccccc8)c8ccc5[nH]8)C=C7)C=C6)cc3)[C@@H]4C2=O)CC1
REMARK SMILES IDX 20 1 19 2 17 3 18 4 16 6 9 7 10 8 75 9 11 10 74 11 76 12
REMARK SMILES IDX 12 13 15 14 13 15 14 16 8 17 7 18 4 19 5 20 78 21 6 22 77 23
REMARK SMILES IDX 2 24 1 25 3 26 21 27 22 28 23 29 24 30 25 32 26 33 27 34
REMARK SMILES IDX 73 35 28 36 72 37 29 38 30 39 31 40 66 41 32 42 71 43 65 44
REMARK SMILES IDX 67 45 33 46 70 47 64 48 63 49 34 51 56 52 41 53 55 54 42 55
REMARK SMILES IDX 45 56 54 57 68 58 43 59 44 60 53 62 69 63 46 64 35 65 36 66
REMARK SMILES IDX 40 67 37 68 39 69 38 70 57 71 58 72 62 73 59 74 61 75 60 76
REMARK SMILES IDX 47 77 48 78 52 79 49 80 51 81 50 82
REMARK H PARENT 19 5 23 31 67 50 45 61
REMARK Flexibility Score: inf
ROOT
ATOM      1  C   UNL A   1      33.873  29.218  26.927  1.00  0.00     0.117 C 
ENDROOT
BRANCH   1   2
ATOM      2  N   UNL A   1      34.046  29.054  25.502  1.00  0.00    -0.356 N 
ATOM      3  C   UNL A   1      33.199  29.129  24.464  1.00  0.00     0.227 C 
ATOM      4  O   UNL A   1      33.770  29.355  23.381  1.00  0.00    -0.275 OA
ATOM      5  H   UNL A   1      34.972  28.845  25.241  1.00  0.00     0.163 HD
BRANCH   3   6
ATOM      6  C   UNL A   1      31.704  28.851  24.390  1.00  0.00     0.127 C 
ATOM      7  N   UNL A   1      30.572  25.474  25.196  1.00  0.00    -0.335 N 
ATOM      8  C   UNL A   1      29.574  25.856  24.216  1.00  0.00     0.160 C 
ATOM      9  C   UNL A   1      31.097  26.598  25.836  1.00  0.00     0.230 C 
ATOM     10  C   UNL A   1      30.060  27.218  23.818  1.00  0.00     0.117 C 
ATOM     11  C   UNL A   1      30.734  27.846  25.056  1.00  0.00     0.132 C 
ATOM     12  O   UNL A   1      31.652  26.585  26.920  1.00  0.00    -0.274 OA
ATOM     13  C   UNL A   1      29.196  28.186  23.079  1.00  0.00     0.009 C 
ATOM     14  O   UNL A   1      31.194  27.159  22.910  1.00  0.00    -0.360 OA
ATOM     15  C   UNL A   1      30.050  29.040  22.498  1.00  0.00     0.004 C 
ATOM     16  C   UNL A   1      31.435  28.587  22.880  1.00  0.00     0.155 C 
BRANCH   7  17
ATOM     17  C   UNL A   1      30.767  24.110  25.665  1.00  0.00     0.150 C 
BRANCH  17  18
ATOM     18  C   UNL A   1      32.166  23.631  25.358  1.00  0.00    -0.055 C 
ATOM     19  C   UNL A   1      34.943  22.828  24.873  1.00  0.00     0.018 C 
ATOM     20  C   UNL A   1      34.006  23.175  23.697  1.00  0.00     0.035 C 
ATOM     21  C   UNL A   1      34.570  23.606  26.144  1.00  0.00     0.013 C 
ATOM     22  C   UNL A   1      32.593  23.505  24.088  1.00  0.00    -0.025 C 
ATOM     23  C   UNL A   1      33.101  23.374  26.520  1.00  0.00     0.033 C 
BRANCH  19  24
ATOM     24  C   UNL A   1      36.417  22.998  24.508  1.00  0.00    -0.077 C 
ATOM     25  C   UNL A   1      36.855  22.722  23.267  1.00  0.00     0.008 C 
ATOM     26  C   UNL A   1      37.380  23.472  25.568  1.00  0.00     0.039 C 
ENDBRANCH  19  24
ENDBRANCH  17  18
ENDBRANCH   7  17
ENDBRANCH   3   6
ENDBRANCH   1   2
BRANCH   1  27
ATOM     27  C   UNL A   1      33.577  30.651  27.339  1.00  0.00     0.042 C 
BRANCH  27  28
ATOM     28  C   UNL A   1      34.809  31.473  27.689  1.00  0.00     0.118 C 
BRANCH  28  29
ATOM     29  N   UNL A   1      34.922  31.671  29.127  1.00  0.00    -0.352 N 
ATOM     30  C   UNL A   1      35.749  31.105  30.064  1.00  0.00     0.251 C 
ATOM     31  H   UNL A   1      34.290  32.330  29.493  1.00  0.00     0.163 HD
ATOM     32  O   UNL A   1      35.422  31.193  31.248  1.00  0.00    -0.269 OA
BRANCH  30  33
ATOM     33  C   UNL A   1      37.023  30.417  29.722  1.00  0.00     0.039 A 
ATOM     34  C   UNL A   1      37.827  29.967  30.780  1.00  0.00     0.014 A 
ATOM     35  C   UNL A   1      37.523  30.338  28.420  1.00  0.00     0.014 A 
ATOM     36  C   UNL A   1      39.106  29.455  30.536  1.00  0.00     0.010 A 
ATOM     37  C   UNL A   1      38.769  29.752  28.168  1.00  0.00     0.010 A 
ATOM     38  C   UNL A   1      39.591  29.338  29.225  1.00  0.00    -0.014 A 
BRANCH  38  39
ATOM     39  C   UNL A   1      40.972  28.844  28.968  1.00  0.00     0.031 A 
ATOM     40  C   UNL A   1      41.213  27.412  28.555  1.00  0.00     0.074 A 
ATOM     41  C   UNL A   1      42.019  29.682  29.095  1.00  0.00     0.049 A 
ATOM     42  N   UNL A   1      42.344  26.812  28.272  1.00  0.00    -0.248 NA
ATOM     43  C   UNL A   1      40.034  26.535  28.462  1.00  0.00     0.031 C 
ATOM     44  C   UNL A   1      41.940  31.084  29.506  1.00  0.00     0.029 A 
ATOM     45  N   UNL A   1      43.360  29.476  28.874  1.00  0.00    -0.354 N 
ATOM     46  C   UNL A   1      42.014  25.493  27.982  1.00  0.00     0.074 A 
ATOM     47  C   UNL A   1      40.584  25.367  28.164  1.00  0.00     0.031 C 
ATOM     48  C   UNL A   1      43.170  31.623  29.471  1.00  0.00     0.029 A 
ATOM     49  C   UNL A   1      44.127  30.599  29.064  1.00  0.00     0.049 A 
ATOM     50  H   UNL A   1      43.734  28.605  28.605  1.00  0.00     0.167 HD
ATOM     51  C   UNL A   1      42.819  24.479  27.582  1.00  0.00     0.031 A 
ATOM     52  C   UNL A   1      45.453  30.788  28.920  1.00  0.00     0.031 A 
ATOM     53  C   UNL A   1      44.239  24.593  27.379  1.00  0.00     0.049 A 
ATOM     54  C   UNL A   1      46.322  29.647  28.469  1.00  0.00     0.074 A 
ATOM     55  C   UNL A   1      45.130  23.624  26.945  1.00  0.00     0.029 A 
ATOM     56  N   UNL A   1      44.975  25.748  27.586  1.00  0.00    -0.354 N 
ATOM     57  N   UNL A   1      45.983  28.419  28.162  1.00  0.00    -0.248 NA
ATOM     58  C   UNL A   1      47.760  29.926  28.334  1.00  0.00     0.031 C 
ATOM     59  C   UNL A   1      46.412  24.185  26.925  1.00  0.00     0.029 A 
ATOM     60  C   UNL A   1      46.310  25.513  27.302  1.00  0.00     0.049 A 
ATOM     61  H   UNL A   1      44.604  26.607  27.889  1.00  0.00     0.167 HD
ATOM     62  C   UNL A   1      47.160  27.787  27.780  1.00  0.00     0.074 A 
ATOM     63  C   UNL A   1      48.216  28.773  27.868  1.00  0.00     0.031 C 
ATOM     64  C   UNL A   1      47.350  26.502  27.398  1.00  0.00     0.031 A 
BRANCH  51  65
ATOM     65  C   UNL A   1      42.180  23.140  27.332  1.00  0.00    -0.014 A 
ATOM     66  C   UNL A   1      42.109  22.171  28.345  1.00  0.00     0.009 A 
ATOM     67  C   UNL A   1      41.588  22.867  26.088  1.00  0.00     0.009 A 
ATOM     68  C   UNL A   1      41.482  20.947  28.110  1.00  0.00     0.001 A 
ATOM     69  C   UNL A   1      40.940  21.651  25.864  1.00  0.00     0.001 A 
ATOM     70  C   UNL A   1      40.894  20.688  26.872  1.00  0.00     0.000 A 
ENDBRANCH  51  65
BRANCH  52  71
ATOM     71  C   UNL A   1      46.050  32.122  29.188  1.00  0.00    -0.014 A 
ATOM     72  C   UNL A   1      46.511  32.450  30.473  1.00  0.00     0.009 A 
ATOM     73  C   UNL A   1      46.135  33.081  28.168  1.00  0.00     0.009 A 
ATOM     74  C   UNL A   1      47.014  33.725  30.739  1.00  0.00     0.001 A 
ATOM     75  C   UNL A   1      46.665  34.346  28.431  1.00  0.00     0.001 A 
ATOM     76  C   UNL A   1      47.094  34.671  29.717  1.00  0.00     0.000 A 
ENDBRANCH  52  71
BRANCH  64  77
ATOM     77  C   UNL A   1      48.750  26.101  27.026  1.00  0.00    -0.014 A 
ATOM     78  C   UNL A   1      49.610  25.513  27.967  1.00  0.00     0.009 A 
ATOM     79  C   UNL A   1      49.210  26.302  25.716  1.00  0.00     0.009 A 
ATOM     80  C   UNL A   1      50.918  25.176  27.614  1.00  0.00     0.001 A 
ATOM     81  C   UNL A   1      50.509  25.940  25.359  1.00  0.00     0.001 A 
ATOM     82  C   UNL A   1      51.365  25.388  26.311  1.00  0.00     0.000 A 
ENDBRANCH  64  77
ENDBRANCH  38  39
ENDBRANCH  30  33
ENDBRANCH  28  29
ENDBRANCH  27  28
ENDBRANCH   1  27
TORSDOF 13
ENDMDL
MODEL 2
REMARK VINA RESULT:     -12.0      2.684      7.960
REMARK SMILES C=C(C)[C@@H]1CC=C(CN2C[C@]34C=C[C@H](O3)[C@H](C(=O)NCCCNC(=O)c3ccc(-c5c6nc(c(-c7ccccc7)c7ccc([nH]7)c(-c7ccccc7)c7nc(c(-c8ccccc8)c8ccc5[nH]8)C=C7)C=C6)cc3)[C@@H]4C2=O)CC1
REMARK SMILES IDX 20 1 19 2 17 3 18 4 16 6 9 7 10 8 75 9 11 10 74 11 76 12
REMARK SMILES IDX 12 13 15 14 13 15 14 16 8 17 7 18 4 19 5 20 78 21 6 22 77 23
REMARK SMILES IDX 2 24 1 25 3 26 21 27 22 28 23 29 24 30 25 32 26 33 27 34
REMARK SMILES IDX 73 35 28 36 72 37 29 38 30 39 31 40 66 41 32 42 71 43 65 44
REMARK SMILES IDX 67 45 33 46 70 47 64 48 63 49 34 51 56 52 41 53 55 54 42 55
REMARK SMILES IDX 45 56 54 57 68 58 43 59 44 60 53 62 69 63 46 64 35 65 36 66
REMARK SMILES IDX 40 67 37 68 39 69 38 70 57 71 58 72 62 73 59 74 61 75 60 76
REMARK SMILES IDX 47 77 48 78 52 79 49 80 51 81 50 82
REMARK H PARENT 19 5 23 31 67 50 45 61
REMARK Flexibility Score: inf
ROOT
ATOM      1  C   UNL A   1      37.667  22.600  25.711  1.00  0.00     0.117 C 
ENDROOT
BRANCH   1   2
ATOM      2  N   UNL A   1      36.455  22.610  26.495  1.00  0.00    -0.356 N 
ATOM      3  C   UNL A   1      35.332  21.875  26.452  1.00  0.00     0.227 C 
ATOM      4  O   UNL A   1      34.704  21.876  27.527  1.00  0.00    -0.275 OA
ATOM      5  H   UNL A   1      36.451  23.293  27.204  1.00  0.00     0.163 HD
BRANCH   3   6
ATOM      6  C   UNL A   1      34.658  21.173  25.281  1.00  0.00     0.127 C 
ATOM      7  N   UNL A   1      32.980  23.262  22.800  1.00  0.00    -0.335 N 
ATOM      8  C   UNL A   1      32.151  22.073  22.742  1.00  0.00     0.160 C 
ATOM      9  C   UNL A   1      34.273  22.947  23.221  1.00  0.00     0.230 C 
ATOM     10  C   UNL A   1      32.782  21.225  23.807  1.00  0.00     0.117 C 
ATOM     11  C   UNL A   1      34.288  21.558  23.828  1.00  0.00     0.132 C 
ATOM     12  O   UNL A   1      35.258  23.634  23.017  1.00  0.00    -0.274 OA
ATOM     13  C   UNL A   1      32.514  19.761  23.920  1.00  0.00     0.009 C 
ATOM     14  O   UNL A   1      32.406  21.647  25.147  1.00  0.00    -0.360 OA
ATOM     15  C   UNL A   1      32.825  19.446  25.185  1.00  0.00     0.004 C 
ATOM     16  C   UNL A   1      33.279  20.723  25.843  1.00  0.00     0.155 C 
BRANCH   7  17
ATOM     17  C   UNL A   1      32.611  24.536  22.203  1.00  0.00     0.150 C 
BRANCH  17  18
ATOM     18  C   UNL A   1      32.470  25.605  23.261  1.00  0.00    -0.055 C 
ATOM     19  C   UNL A   1      32.369  27.656  25.352  1.00  0.00     0.018 C 
ATOM     20  C   UNL A   1      31.390  26.464  25.370  1.00  0.00     0.035 C 
ATOM     21  C   UNL A   1      33.707  27.282  24.694  1.00  0.00     0.013 C 
ATOM     22  C   UNL A   1      31.511  25.526  24.202  1.00  0.00    -0.025 C 
ATOM     23  C   UNL A   1      33.489  26.724  23.281  1.00  0.00     0.033 C 
BRANCH  19  24
ATOM     24  C   UNL A   1      32.564  28.266  26.740  1.00  0.00    -0.077 C 
ATOM     25  C   UNL A   1      33.729  28.844  27.080  1.00  0.00     0.008 C 
ATOM     26  C   UNL A   1      31.428  28.200  27.731  1.00  0.00     0.039 C 
ENDBRANCH  19  24
ENDBRANCH  17  18
ENDBRANCH   7  17
ENDBRANCH   3   6
ENDBRANCH   1   2
BRANCH   1  27
ATOM     27  C   UNL A   1      38.659  21.533  26.146  1.00  0.00     0.042 C 
BRANCH  27  28
ATOM     28  C   UNL A   1      38.789  20.363  25.181  1.00  0.00     0.118 C 
BRANCH  28  29
ATOM     29  N   UNL A   1      39.762  19.390  25.657  1.00  0.00    -0.352 N 
ATOM     30  C   UNL A   1      41.059  19.529  26.082  1.00  0.00     0.251 C 
ATOM     31  H   UNL A   1      39.428  18.465  25.680  1.00  0.00     0.163 HD
ATOM     32  O   UNL A   1      41.765  18.521  26.114  1.00  0.00    -0.269 OA
BRANCH  30  33
ATOM     33  C   UNL A   1      41.642  20.825  26.523  1.00  0.00     0.039 A 
ATOM     34  C   UNL A   1      41.648  21.104  27.897  1.00  0.00     0.014 A 
ATOM     35  C   UNL A   1      42.032  21.829  25.633  1.00  0.00     0.014 A 
ATOM     36  C   UNL A   1      42.034  22.364  28.368  1.00  0.00     0.010 A 
ATOM     37  C   UNL A   1      42.495  23.062  26.108  1.00  0.00     0.010 A 
ATOM     38  C   UNL A   1      42.465  23.358  27.478  1.00  0.00    -0.014 A 
BRANCH  38  39
ATOM     39  C   UNL A   1      42.824  24.716  27.972  1.00  0.00     0.031 A 
ATOM     40  C   UNL A   1      44.269  25.122  28.125  1.00  0.00     0.074 A 
ATOM     41  C   UNL A   1      41.851  25.598  28.278  1.00  0.00     0.049 A 
ATOM     42  N   UNL A   1      44.769  26.268  28.523  1.00  0.00    -0.248 NA
ATOM     43  C   UNL A   1      45.287  24.108  27.804  1.00  0.00     0.031 C 
ATOM     44  C   UNL A   1      40.414  25.337  28.199  1.00  0.00     0.029 A 
ATOM     45  N   UNL A   1      41.930  26.902  28.704  1.00  0.00    -0.354 N 
ATOM     46  C   UNL A   1      46.150  26.106  28.513  1.00  0.00     0.074 A 
ATOM     47  C   UNL A   1      46.411  24.741  28.111  1.00  0.00     0.031 C 
ATOM     48  C   UNL A   1      39.746  26.456  28.526  1.00  0.00     0.029 A 
ATOM     49  C   UNL A   1      40.706  27.502  28.866  1.00  0.00     0.049 A 
ATOM     50  H   UNL A   1      42.784  27.361  28.877  1.00  0.00     0.167 HD
ATOM     51  C   UNL A   1      47.118  27.012  28.793  1.00  0.00     0.031 A 
ATOM     52  C   UNL A   1      40.389  28.756  29.240  1.00  0.00     0.031 A 
ATOM     53  C   UNL A   1      46.876  28.378  29.176  1.00  0.00     0.049 A 
ATOM     54  C   UNL A   1      41.483  29.743  29.539  1.00  0.00     0.074 A 
ATOM     55  C   UNL A   1      47.798  29.375  29.449  1.00  0.00     0.029 A 
ATOM     56  N   UNL A   1      45.620  28.942  29.331  1.00  0.00    -0.354 N 
ATOM     57  N   UNL A   1      42.783  29.580  29.484  1.00  0.00    -0.248 NA
ATOM     58  C   UNL A   1      41.062  31.093  29.941  1.00  0.00     0.031 C 
ATOM     59  C   UNL A   1      47.099  30.534  29.805  1.00  0.00     0.029 A 
ATOM     60  C   UNL A   1      45.743  30.269  29.709  1.00  0.00     0.049 A 
ATOM     61  H   UNL A   1      44.768  28.469  29.192  1.00  0.00     0.167 HD
ATOM     62  C   UNL A   1      43.331  30.809  29.825  1.00  0.00     0.074 A 
ATOM     63  C   UNL A   1      42.227  31.715  30.059  1.00  0.00     0.031 C 
ATOM     64  C   UNL A   1      44.636  31.156  29.941  1.00  0.00     0.031 A 
BRANCH  51  65
ATOM     65  C   UNL A   1      48.548  26.555  28.693  1.00  0.00    -0.014 A 
ATOM     66  C   UNL A   1      49.276  26.712  27.503  1.00  0.00     0.009 A 
ATOM     67  C   UNL A   1      49.193  26.018  29.819  1.00  0.00     0.009 A 
ATOM     68  C   UNL A   1      50.612  26.315  27.434  1.00  0.00     0.001 A 
ATOM     69  C   UNL A   1      50.537  25.645  29.754  1.00  0.00     0.001 A 
ATOM     70  C   UNL A   1      51.244  25.788  28.560  1.00  0.00     0.000 A 
ENDBRANCH  51  65
BRANCH  52  71
ATOM     71  C   UNL A   1      38.964  29.167  29.339  1.00  0.00    -0.014 A 
ATOM     72  C   UNL A   1      38.258  29.004  30.541  1.00  0.00     0.009 A 
ATOM     73  C   UNL A   1      38.298  29.698  28.224  1.00  0.00     0.009 A 
ATOM     74  C   UNL A   1      36.903  29.332  30.615  1.00  0.00     0.001 A 
ATOM     75  C   UNL A   1      36.950  30.052  28.309  1.00  0.00     0.001 A 
ATOM     76  C   UNL A   1      36.251  29.859  29.500  1.00  0.00     0.000 A 
ENDBRANCH  52  71
BRANCH  64  77
ATOM     77  C   UNL A   1      44.932  32.580  30.318  1.00  0.00    -0.014 A 
ATOM     78  C   UNL A   1      45.068  32.962  31.662  1.00  0.00     0.009 A 
ATOM     79  C   UNL A   1      45.087  33.550  29.316  1.00  0.00     0.009 A 
ATOM     80  C   UNL A   1      45.312  34.295  31.997  1.00  0.00     0.001 A 
ATOM     81  C   UNL A   1      45.356  34.877  29.652  1.00  0.00     0.001 A 
ATOM     82  C   UNL A   1      45.457  35.251  30.992  1.00  0.00     0.000 A 
ENDBRANCH  64  77
ENDBRANCH  38  39
ENDBRANCH  30  33
ENDBRANCH  28  29
ENDBRANCH  27  28
ENDBRANCH   1  27
TORSDOF 13
ENDMDL
MODEL 3
REMARK VINA RESULT:     -12.0      2.709      8.261
REMARK SMILES C=C(C)[C@@H]1CC=C(CN2C[C@]34C=C[C@H](O3)[C@H](C(=O)NCCCNC(=O)c3ccc(-c5c6nc(c(-c7ccccc7)c7ccc([nH]7)c(-c7ccccc7)c7nc(c(-c8ccccc8)c8ccc5[nH]8)C=C7)C=C6)cc3)[C@@H]4C2=O)CC1
REMARK SMILES IDX 20 1 19 2 17 3 18 4 16 6 9 7 10 8 75 9 11 10 74 11 76 12
REMARK SMILES IDX 12 13 15 14 13 15 14 16 8 17 7 18 4 19 5 20 78 21 6 22 77 23
REMARK SMILES IDX 2 24 1 25 3 26 21 27 22 28 23 29 24 30 25 32 26 33 27 34
REMARK SMILES IDX 73 35 28 36 72 37 29 38 30 39 31 40 66 41 32 42 71 43 65 44
REMARK SMILES IDX 67 45 33 46 70 47 64 48 63 49 34 51 56 52 41 53 55 54 42 55
REMARK SMILES IDX 45 56 54 57 68 58 43 59 44 60 53 62 69 63 46 64 35 65 36 66
REMARK SMILES IDX 40 67 37 68 39 69 38 70 57 71 58 72 62 73 59 74 61 75 60 76
REMARK SMILES IDX 47 77 48 78 52 79 49 80 51 81 50 82
REMARK H PARENT 19 5 23 31 67 50 45 61
REMARK Flexibility Score: inf
ROOT
ATOM      1  C   UNL A   1      36.431  20.112  24.984  1.00  0.00     0.117 C 
ENDROOT
BRANCH   1   2
ATOM      2  N   UNL A   1      36.376  21.504  25.363  1.00  0.00    -0.356 N 
ATOM      3  C   UNL A   1      35.426  22.445  25.251  1.00  0.00     0.227 C 
ATOM      4  O   UNL A   1      35.568  23.384  26.057  1.00  0.00    -0.275 OA
ATOM      5  H   UNL A   1      37.202  21.828  25.790  1.00  0.00     0.163 HD
BRANCH   3   6
ATOM      6  C   UNL A   1      34.312  22.604  24.224  1.00  0.00     0.127 C 
ATOM      7  N   UNL A   1      31.842  25.229  24.805  1.00  0.00    -0.335 N 
ATOM      8  C   UNL A   1      31.022  24.248  24.120  1.00  0.00     0.160 C 
ATOM      9  C   UNL A   1      33.184  25.097  24.444  1.00  0.00     0.230 C 
ATOM     10  C   UNL A   1      32.003  23.128  23.933  1.00  0.00     0.117 C 
ATOM     11  C   UNL A   1      33.398  23.762  23.758  1.00  0.00     0.132 C 
ATOM     12  O   UNL A   1      34.023  25.973  24.553  1.00  0.00    -0.274 OA
ATOM     13  C   UNL A   1      31.756  22.007  22.978  1.00  0.00     0.009 C 
ATOM     14  O   UNL A   1      32.216  22.368  25.154  1.00  0.00    -0.360 OA
ATOM     15  C   UNL A   1      32.543  21.009  23.403  1.00  0.00     0.004 C 
ATOM     16  C   UNL A   1      33.265  21.523  24.620  1.00  0.00     0.155 C 
BRANCH   7  17
ATOM     17  C   UNL A   1      31.304  26.381  25.514  1.00  0.00     0.150 C 
BRANCH  17  18
ATOM     18  C   UNL A   1      30.644  27.342  24.555  1.00  0.00    -0.055 C 
ATOM     19  C   UNL A   1      29.378  29.336  22.818  1.00  0.00     0.018 C 
ATOM     20  C   UNL A   1      28.672  27.999  23.129  1.00  0.00     0.035 C 
ATOM     21  C   UNL A   1      30.288  29.778  23.975  1.00  0.00     0.013 C 
ATOM     22  C   UNL A   1      29.465  27.045  23.977  1.00  0.00    -0.025 C 
ATOM     23  C   UNL A   1      31.305  28.684  24.325  1.00  0.00     0.033 C 
BRANCH  19  24
ATOM     24  C   UNL A   1      28.391  30.430  22.414  1.00  0.00    -0.077 C 
ATOM     25  C   UNL A   1      28.206  30.745  21.120  1.00  0.00     0.008 C 
ATOM     26  C   UNL A   1      27.634  31.164  23.492  1.00  0.00     0.039 C 
ENDBRANCH  19  24
ENDBRANCH  17  18
ENDBRANCH   7  17
ENDBRANCH   3   6
ENDBRANCH   1   2
BRANCH   1  27
ATOM     27  C   UNL A   1      37.846  19.601  24.764  1.00  0.00     0.042 C 
BRANCH  27  28
ATOM     28  C   UNL A   1      38.888  20.211  25.692  1.00  0.00     0.118 C 
BRANCH  28  29
ATOM     29  N   UNL A   1      40.049  19.344  25.825  1.00  0.00    -0.352 N 
ATOM     30  C   UNL A   1      41.379  19.622  26.017  1.00  0.00     0.251 C 
ATOM     31  H   UNL A   1      39.843  18.384  25.768  1.00  0.00     0.163 HD
ATOM     32  O   UNL A   1      42.195  18.735  25.764  1.00  0.00    -0.269 OA
BRANCH  30  33
ATOM     33  C   UNL A   1      41.876  20.926  26.535  1.00  0.00     0.039 A 
ATOM     34  C   UNL A   1      41.833  21.138  27.920  1.00  0.00     0.014 A 
ATOM     35  C   UNL A   1      42.231  21.991  25.704  1.00  0.00     0.014 A 
ATOM     36  C   UNL A   1      42.135  22.393  28.460  1.00  0.00     0.010 A 
ATOM     37  C   UNL A   1      42.612  23.224  26.248  1.00  0.00     0.010 A 
ATOM     38  C   UNL A   1      42.531  23.451  27.629  1.00  0.00    -0.014 A 
BRANCH  38  39
ATOM     39  C   UNL A   1      42.800  24.801  28.196  1.00  0.00     0.031 A 
ATOM     40  C   UNL A   1      44.203  25.214  28.569  1.00  0.00     0.074 A 
ATOM     41  C   UNL A   1      41.785  25.671  28.370  1.00  0.00     0.049 A 
ATOM     42  N   UNL A   1      44.628  26.355  29.058  1.00  0.00    -0.248 NA
ATOM     43  C   UNL A   1      45.267  24.213  28.384  1.00  0.00     0.031 C 
ATOM     44  C   UNL A   1      40.378  25.403  28.074  1.00  0.00     0.029 A 
ATOM     45  N   UNL A   1      41.788  26.966  28.827  1.00  0.00    -0.354 N 
ATOM     46  C   UNL A   1      45.996  26.202  29.250  1.00  0.00     0.074 A 
ATOM     47  C   UNL A   1      46.327  24.847  28.866  1.00  0.00     0.031 C 
ATOM     48  C   UNL A   1      39.659  26.511  28.320  1.00  0.00     0.029 A 
ATOM     49  C   UNL A   1      40.548  27.556  28.818  1.00  0.00     0.049 A 
ATOM     50  H   UNL A   1      42.603  27.428  29.134  1.00  0.00     0.167 HD
ATOM     51  C   UNL A   1      46.904  27.108  29.687  1.00  0.00     0.031 A 
ATOM     52  C   UNL A   1      40.167  28.800  29.163  1.00  0.00     0.031 A 
ATOM     53  C   UNL A   1      46.595  28.464  30.055  1.00  0.00     0.049 A 
ATOM     54  C   UNL A   1      41.196  29.788  29.639  1.00  0.00     0.074 A 
ATOM     55  C   UNL A   1      47.457  29.462  30.480  1.00  0.00     0.029 A 
ATOM     56  N   UNL A   1      45.325  29.017  30.032  1.00  0.00    -0.354 N 
ATOM     57  N   UNL A   1      42.491  29.634  29.775  1.00  0.00    -0.248 NA
ATOM     58  C   UNL A   1      40.708  31.127  29.999  1.00  0.00     0.031 C 
ATOM     59  C   UNL A   1      46.703  30.609  30.750  1.00  0.00     0.029 A 
ATOM     60  C   UNL A   1      45.378  30.337  30.448  1.00  0.00     0.049 A 
ATOM     61  H   UNL A   1      44.508  28.543  29.760  1.00  0.00     0.167 HD
ATOM     62  C   UNL A   1      42.971  30.860  30.216  1.00  0.00     0.074 A 
ATOM     63  C   UNL A   1      41.836  31.754  30.300  1.00  0.00     0.031 C 
ATOM     64  C   UNL A   1      44.241  31.213  30.531  1.00  0.00     0.031 A 
BRANCH  51  65
ATOM     65  C   UNL A   1      48.337  26.662  29.792  1.00  0.00    -0.014 A 
ATOM     66  C   UNL A   1      49.242  26.882  28.741  1.00  0.00     0.009 A 
ATOM     67  C   UNL A   1      48.803  26.071  30.977  1.00  0.00     0.009 A 
ATOM     68  C   UNL A   1      50.577  26.495  28.865  1.00  0.00     0.001 A 
ATOM     69  C   UNL A   1      50.145  25.708  31.107  1.00  0.00     0.001 A 
ATOM     70  C   UNL A   1      51.030  25.913  30.049  1.00  0.00     0.000 A 
ENDBRANCH  51  65
BRANCH  52  71
ATOM     71  C   UNL A   1      38.740  29.200  29.057  1.00  0.00    -0.014 A 
ATOM     72  C   UNL A   1      37.884  29.081  30.162  1.00  0.00     0.009 A 
ATOM     73  C   UNL A   1      38.223  29.677  27.843  1.00  0.00     0.009 A 
ATOM     74  C   UNL A   1      36.528  29.398  30.044  1.00  0.00     0.001 A 
ATOM     75  C   UNL A   1      36.874  30.019  27.736  1.00  0.00     0.001 A 
ATOM     76  C   UNL A   1      36.026  29.870  28.833  1.00  0.00     0.000 A 
ENDBRANCH  52  71
BRANCH  64  77
ATOM     77  C   UNL A   1      44.465  32.631  30.973  1.00  0.00    -0.014 A 
ATOM     78  C   UNL A   1      44.382  32.990  32.328  1.00  0.00     0.009 A 
ATOM     79  C   UNL A   1      44.773  33.619  30.025  1.00  0.00     0.009 A 
ATOM     80  C   UNL A   1      44.562  34.318  32.719  1.00  0.00     0.001 A 
ATOM     81  C   UNL A   1      44.978  34.941  30.422  1.00  0.00     0.001 A 
ATOM     82  C   UNL A   1      44.861  35.291  31.766  1.00  0.00     0.000 A 
ENDBRANCH  64  77
ENDBRANCH  38  39
ENDBRANCH  30  33
ENDBRANCH  28  29
ENDBRANCH  27  28
ENDBRANCH   1  27
TORSDOF 13
ENDMDL
