MODEL 1
REMARK VINA RESULT:     -12.7      0.000      0.000
REMARK SMILES CC1=C(CC(=O)NCCCNC(=O)c2ccc(-c3c4nc(c(-c5ccccc5)c5ccc([nH]5)c(-c5ccccc5)c5nc(c(-c6ccccc6)c6ccc3[nH]6)C=C5)C=C4)cc2)c2cc(F)ccc2/C1=C\c1ccc([S@@+](C)[O-])cc1
REMARK SMILES IDX 8 1 7 2 5 3 6 4 4 6 3 7 1 8 2 9 69 10 62 11 68 12 70 13
REMARK SMILES IDX 63 14 67 15 64 16 66 17 65 18 71 19 72 20 79 21 73 22 78 23
REMARK SMILES IDX 74 24 75 25 76 26 77 27 9 28 10 29 11 30 12 31 13 33 14 34
REMARK SMILES IDX 15 35 61 36 16 37 60 38 17 39 18 40 19 41 54 42 20 43 59 44
REMARK SMILES IDX 53 45 55 46 21 47 58 48 52 49 51 50 22 52 44 53 29 54 43 55
REMARK SMILES IDX 30 56 33 57 42 58 56 59 31 60 32 61 41 63 57 64 34 65 23 66
REMARK SMILES IDX 24 67 28 68 25 69 27 70 26 71 45 72 46 73 50 74 47 75 49 76
REMARK SMILES IDX 48 77 35 78 36 79 40 80 37 81 39 82 38 83
REMARK H PARENT 7 5 11 32 55 51 33 62
REMARK Flexibility Score: inf
ROOT
ATOM      1  C   UNL A   1      36.749  20.830  24.932  1.00  0.00     0.117 C 
ENDROOT
BRANCH   1   2
ATOM      2  N   UNL A   1      35.416  20.275  25.049  1.00  0.00    -0.356 N 
ATOM      3  C   UNL A   1      34.367  20.704  25.808  1.00  0.00     0.224 C 
ATOM      4  O   UNL A   1      33.327  20.045  25.782  1.00  0.00    -0.275 OA
ATOM      5  H   UNL A   1      35.242  19.474  24.504  1.00  0.00     0.163 HD
BRANCH   3   6
ATOM      6  C   UNL A   1      34.479  21.985  26.633  1.00  0.00     0.136 C 
BRANCH   6   7
ATOM      7  C   UNL A   1      33.853  23.176  25.981  1.00  0.00    -0.027 C 
ATOM      8  C   UNL A   1      35.784  24.092  24.569  1.00  0.00     0.045 C 
ATOM      9  C   UNL A   1      34.397  24.072  25.121  1.00  0.00    -0.039 C 
ATOM     10  C   UNL A   1      33.390  25.086  24.760  1.00  0.00    -0.014 C 
ATOM     11  C   UNL A   1      32.433  23.529  26.158  1.00  0.00    -0.011 A 
ATOM     12  C   UNL A   1      32.120  24.659  25.380  1.00  0.00    -0.010 A 
ATOM     13  C   UNL A   1      33.653  26.202  24.052  1.00  0.00     0.017 C 
ATOM     14  C   UNL A   1      31.452  22.901  26.916  1.00  0.00     0.048 A 
ATOM     15  C   UNL A   1      30.812  25.123  25.305  1.00  0.00     0.012 A 
ATOM     16  C   UNL A   1      30.158  23.412  26.879  1.00  0.00     0.123 A 
ATOM     17  C   UNL A   1      29.829  24.504  26.077  1.00  0.00     0.040 A 
ATOM     18  F   UNL A   1      29.200  22.835  27.617  1.00  0.00    -0.207 F 
BRANCH  13  19
ATOM     19  C   UNL A   1      32.679  27.249  23.729  1.00  0.00    -0.025 A 
ATOM     20  C   UNL A   1      32.439  28.306  24.614  1.00  0.00     0.013 A 
ATOM     21  C   UNL A   1      31.897  27.123  22.579  1.00  0.00     0.013 A 
ATOM     22  C   UNL A   1      31.337  29.148  24.422  1.00  0.00     0.061 A 
ATOM     23  C   UNL A   1      30.812  27.979  22.376  1.00  0.00     0.061 A 
ATOM     24  C   UNL A   1      30.497  28.970  23.316  1.00  0.00     0.152 A 
BRANCH  24  25
ATOM     25  S   UNL A   1      28.919  29.848  23.182  1.00  0.00    -0.018 S 
ATOM     26  C   UNL A   1      29.157  30.693  21.609  1.00  0.00     0.346 C 
ATOM     27  O   UNL A   1      27.807  28.757  22.983  1.00  0.00    -0.612 OA
ENDBRANCH  24  25
ENDBRANCH  13  19
ENDBRANCH   6   7
ENDBRANCH   3   6
ENDBRANCH   1   2
BRANCH   1  28
ATOM     28  C   UNL A   1      37.828  19.754  24.998  1.00  0.00     0.042 C 
BRANCH  28  29
ATOM     29  C   UNL A   1      39.085  20.184  25.746  1.00  0.00     0.118 C 
BRANCH  29  30
ATOM     30  N   UNL A   1      40.104  19.143  25.794  1.00  0.00    -0.352 N 
ATOM     31  C   UNL A   1      41.456  19.233  26.016  1.00  0.00     0.251 C 
ATOM     32  H   UNL A   1      39.769  18.229  25.644  1.00  0.00     0.163 HD
ATOM     33  O   UNL A   1      42.166  18.243  25.855  1.00  0.00    -0.269 OA
BRANCH  31  34
ATOM     34  C   UNL A   1      42.070  20.521  26.407  1.00  0.00     0.039 A 
ATOM     35  C   UNL A   1      42.243  20.859  27.750  1.00  0.00     0.014 A 
ATOM     36  C   UNL A   1      42.478  21.408  25.407  1.00  0.00     0.014 A 
ATOM     37  C   UNL A   1      42.650  22.144  28.092  1.00  0.00     0.010 A 
ATOM     38  C   UNL A   1      42.970  22.670  25.754  1.00  0.00     0.010 A 
ATOM     39  C   UNL A   1      43.005  23.069  27.098  1.00  0.00    -0.014 A 
BRANCH  39  40
ATOM     40  C   UNL A   1      43.383  24.453  27.484  1.00  0.00     0.031 A 
ATOM     41  C   UNL A   1      44.814  24.911  27.384  1.00  0.00     0.074 A 
ATOM     42  C   UNL A   1      42.426  25.320  27.869  1.00  0.00     0.049 A 
ATOM     43  N   UNL A   1      45.321  26.091  27.642  1.00  0.00    -0.248 NA
ATOM     44  C   UNL A   1      45.808  23.920  26.935  1.00  0.00     0.031 C 
ATOM     45  C   UNL A   1      41.001  25.006  27.978  1.00  0.00     0.029 A 
ATOM     46  N   UNL A   1      42.501  26.647  28.210  1.00  0.00    -0.354 N 
ATOM     47  C   UNL A   1      46.686  25.978  27.409  1.00  0.00     0.074 A 
ATOM     48  C   UNL A   1      46.937  24.611  27.013  1.00  0.00     0.031 C 
ATOM     49  C   UNL A   1      40.330  26.121  28.302  1.00  0.00     0.029 A 
ATOM     50  C   UNL A   1      41.281  27.213  28.490  1.00  0.00     0.049 A 
ATOM     51  H   UNL A   1      43.350  27.147  28.251  1.00  0.00     0.167 HD
ATOM     52  C   UNL A   1      47.641  26.933  27.505  1.00  0.00     0.031 A 
ATOM     53  C   UNL A   1      40.958  28.465  28.864  1.00  0.00     0.031 A 
ATOM     54  C   UNL A   1      47.388  28.296  27.890  1.00  0.00     0.049 A 
ATOM     55  C   UNL A   1      42.044  29.491  29.018  1.00  0.00     0.074 A 
ATOM     56  C   UNL A   1      48.294  29.339  27.993  1.00  0.00     0.029 A 
ATOM     57  N   UNL A   1      46.147  28.806  28.237  1.00  0.00    -0.354 N 
ATOM     58  N   UNL A   1      43.328  29.371  28.779  1.00  0.00    -0.248 NA
ATOM     59  C   UNL A   1      41.642  30.820  29.497  1.00  0.00     0.031 C 
ATOM     60  C   UNL A   1      47.611  30.464  28.459  1.00  0.00     0.029 A 
ATOM     61  C   UNL A   1      46.268  30.142  28.580  1.00  0.00     0.049 A 
ATOM     62  H   UNL A   1      45.306  28.295  28.239  1.00  0.00     0.167 HD
ATOM     63  C   UNL A   1      43.883  30.610  29.063  1.00  0.00     0.074 A 
ATOM     64  C   UNL A   1      42.796  31.474  29.475  1.00  0.00     0.031 C 
ATOM     65  C   UNL A   1      45.181  30.993  28.990  1.00  0.00     0.031 A 
BRANCH  52  66
ATOM     66  C   UNL A   1      49.062  26.546  27.202  1.00  0.00    -0.014 A 
ATOM     67  C   UNL A   1      49.483  26.435  25.866  1.00  0.00     0.009 A 
ATOM     68  C   UNL A   1      49.956  26.198  28.225  1.00  0.00     0.009 A 
ATOM     69  C   UNL A   1      50.762  25.967  25.561  1.00  0.00     0.001 A 
ATOM     70  C   UNL A   1      51.245  25.754  27.919  1.00  0.00     0.001 A 
ATOM     71  C   UNL A   1      51.642  25.629  26.588  1.00  0.00     0.000 A 
ENDBRANCH  52  66
BRANCH  53  72
ATOM     72  C   UNL A   1      39.532  28.809  29.107  1.00  0.00    -0.014 A 
ATOM     73  C   UNL A   1      38.756  29.397  28.094  1.00  0.00     0.009 A 
ATOM     74  C   UNL A   1      38.953  28.599  30.367  1.00  0.00     0.009 A 
ATOM     75  C   UNL A   1      37.443  29.797  28.347  1.00  0.00     0.001 A 
ATOM     76  C   UNL A   1      37.628  28.972  30.608  1.00  0.00     0.001 A 
ATOM     77  C   UNL A   1      36.878  29.580  29.602  1.00  0.00     0.000 A 
ENDBRANCH  53  72
BRANCH  65  78
ATOM     78  C   UNL A   1      45.517  32.415  29.344  1.00  0.00    -0.014 A 
ATOM     79  C   UNL A   1      45.792  32.752  30.679  1.00  0.00     0.009 A 
ATOM     80  C   UNL A   1      45.450  33.434  28.384  1.00  0.00     0.009 A 
ATOM     81  C   UNL A   1      45.974  34.085  31.050  1.00  0.00     0.001 A 
ATOM     82  C   UNL A   1      45.661  34.765  28.752  1.00  0.00     0.001 A 
ATOM     83  C   UNL A   1      45.912  35.089  30.085  1.00  0.00     0.000 A 
ENDBRANCH  65  78
ENDBRANCH  39  40
ENDBRANCH  31  34
ENDBRANCH  29  30
ENDBRANCH  28  29
ENDBRANCH   1  28
TORSDOF 13
ENDMDL
MODEL 2
REMARK VINA RESULT:     -12.6      5.073     10.147
REMARK SMILES CC1=C(CC(=O)NCCCNC(=O)c2ccc(-c3c4nc(c(-c5ccccc5)c5ccc([nH]5)c(-c5ccccc5)c5nc(c(-c6ccccc6)c6ccc3[nH]6)C=C5)C=C4)cc2)c2cc(F)ccc2/C1=C\c1ccc([S@@+](C)[O-])cc1
REMARK SMILES IDX 8 1 7 2 5 3 6 4 4 6 3 7 1 8 2 9 69 10 62 11 68 12 70 13
REMARK SMILES IDX 63 14 67 15 64 16 66 17 65 18 71 19 72 20 79 21 73 22 78 23
REMARK SMILES IDX 74 24 75 25 76 26 77 27 9 28 10 29 11 30 12 31 13 33 14 34
REMARK SMILES IDX 15 35 61 36 16 37 60 38 17 39 18 40 19 41 54 42 20 43 59 44
REMARK SMILES IDX 53 45 55 46 21 47 58 48 52 49 51 50 22 52 44 53 29 54 43 55
REMARK SMILES IDX 30 56 33 57 42 58 56 59 31 60 32 61 41 63 57 64 34 65 23 66
REMARK SMILES IDX 24 67 28 68 25 69 27 70 26 71 45 72 46 73 50 74 47 75 49 76
REMARK SMILES IDX 48 77 35 78 36 79 40 80 37 81 39 82 38 83
REMARK H PARENT 7 5 11 32 55 51 33 62
REMARK Flexibility Score: inf
ROOT
ATOM      1  C   UNL A   1      31.822  30.372  26.084  1.00  0.00     0.117 C 
ENDROOT
BRANCH   1   2
ATOM      2  N   UNL A   1      31.247  30.072  24.789  1.00  0.00    -0.356 N 
ATOM      3  C   UNL A   1      31.798  29.406  23.734  1.00  0.00     0.224 C 
ATOM      4  O   UNL A   1      31.132  29.303  22.703  1.00  0.00    -0.275 OA
ATOM      5  H   UNL A   1      30.328  30.395  24.649  1.00  0.00     0.163 HD
BRANCH   3   6
ATOM      6  C   UNL A   1      33.186  28.780  23.852  1.00  0.00     0.136 C 
BRANCH   6   7
ATOM      7  C   UNL A   1      33.162  27.308  24.115  1.00  0.00    -0.027 C 
ATOM      8  C   UNL A   1      33.207  27.218  26.674  1.00  0.00     0.045 C 
ATOM      9  C   UNL A   1      33.180  26.644  25.296  1.00  0.00    -0.039 C 
ATOM     10  C   UNL A   1      33.157  25.191  25.049  1.00  0.00    -0.014 C 
ATOM     11  C   UNL A   1      33.047  26.307  23.039  1.00  0.00    -0.011 A 
ATOM     12  C   UNL A   1      32.990  25.014  23.592  1.00  0.00    -0.010 A 
ATOM     13  C   UNL A   1      33.326  24.253  26.002  1.00  0.00     0.017 C 
ATOM     14  C   UNL A   1      32.964  26.489  21.664  1.00  0.00     0.048 A 
ATOM     15  C   UNL A   1      32.781  23.907  22.779  1.00  0.00     0.012 A 
ATOM     16  C   UNL A   1      32.815  25.367  20.855  1.00  0.00     0.123 A 
ATOM     17  C   UNL A   1      32.713  24.087  21.397  1.00  0.00     0.040 A 
ATOM     18  F   UNL A   1      32.752  25.518  19.525  1.00  0.00    -0.207 F 
BRANCH  13  19
ATOM     19  C   UNL A   1      33.361  22.806  25.769  1.00  0.00    -0.025 A 
ATOM     20  C   UNL A   1      34.552  22.164  25.409  1.00  0.00     0.013 A 
ATOM     21  C   UNL A   1      32.168  22.083  25.788  1.00  0.00     0.013 A 
ATOM     22  C   UNL A   1      34.526  20.846  24.940  1.00  0.00     0.061 A 
ATOM     23  C   UNL A   1      32.147  20.758  25.343  1.00  0.00     0.061 A 
ATOM     24  C   UNL A   1      33.317  20.143  24.876  1.00  0.00     0.152 A 
BRANCH  24  25
ATOM     25  S   UNL A   1      33.198  18.550  24.022  1.00  0.00    -0.018 S 
ATOM     26  C   UNL A   1      34.802  17.844  24.440  1.00  0.00     0.346 C 
ATOM     27  O   UNL A   1      32.093  17.717  24.765  1.00  0.00    -0.612 OA
ENDBRANCH  24  25
ENDBRANCH  13  19
ENDBRANCH   6   7
ENDBRANCH   3   6
ENDBRANCH   1   2
BRANCH   1  28
ATOM     28  C   UNL A   1      31.538  31.805  26.522  1.00  0.00     0.042 C 
BRANCH  28  29
ATOM     29  C   UNL A   1      32.706  32.476  27.237  1.00  0.00     0.118 C 
BRANCH  29  30
ATOM     30  N   UNL A   1      32.428  33.859  27.607  1.00  0.00    -0.352 N 
ATOM     31  C   UNL A   1      33.054  34.677  28.515  1.00  0.00     0.251 C 
ATOM     32  H   UNL A   1      31.673  34.271  27.129  1.00  0.00     0.163 HD
ATOM     33  O   UNL A   1      32.559  35.767  28.793  1.00  0.00    -0.269 OA
BRANCH  31  34
ATOM     34  C   UNL A   1      34.296  34.241  29.190  1.00  0.00     0.039 A 
ATOM     35  C   UNL A   1      35.550  34.548  28.661  1.00  0.00     0.014 A 
ATOM     36  C   UNL A   1      34.200  33.509  30.378  1.00  0.00     0.014 A 
ATOM     37  C   UNL A   1      36.692  33.973  29.212  1.00  0.00     0.010 A 
ATOM     38  C   UNL A   1      35.356  33.004  30.979  1.00  0.00     0.010 A 
ATOM     39  C   UNL A   1      36.606  33.183  30.369  1.00  0.00    -0.014 A 
BRANCH  39  40
ATOM     40  C   UNL A   1      37.829  32.534  30.906  1.00  0.00     0.031 A 
ATOM     41  C   UNL A   1      38.466  33.034  32.175  1.00  0.00     0.074 A 
ATOM     42  C   UNL A   1      38.336  31.452  30.282  1.00  0.00     0.049 A 
ATOM     43  N   UNL A   1      39.512  32.568  32.811  1.00  0.00    -0.248 NA
ATOM     44  C   UNL A   1      37.849  34.206  32.821  1.00  0.00     0.031 C 
ATOM     45  C   UNL A   1      37.794  30.855  29.061  1.00  0.00     0.029 A 
ATOM     46  N   UNL A   1      39.400  30.647  30.603  1.00  0.00    -0.354 N 
ATOM     47  C   UNL A   1      39.691  33.399  33.910  1.00  0.00     0.074 A 
ATOM     48  C   UNL A   1      38.663  34.413  33.847  1.00  0.00     0.031 C 
ATOM     49  C   UNL A   1      38.490  29.746  28.769  1.00  0.00     0.029 A 
ATOM     50  C   UNL A   1      39.568  29.590  29.741  1.00  0.00     0.049 A 
ATOM     51  H   UNL A   1      39.987  30.810  31.378  1.00  0.00     0.167 HD
ATOM     52  C   UNL A   1      40.622  33.316  34.890  1.00  0.00     0.031 A 
ATOM     53  C   UNL A   1      40.490  28.609  29.724  1.00  0.00     0.031 A 
ATOM     54  C   UNL A   1      41.638  32.299  34.957  1.00  0.00     0.049 A 
ATOM     55  C   UNL A   1      41.546  28.572  30.791  1.00  0.00     0.074 A 
ATOM     56  C   UNL A   1      42.611  32.124  35.927  1.00  0.00     0.029 A 
ATOM     57  N   UNL A   1      41.818  31.293  34.021  1.00  0.00    -0.354 N 
ATOM     58  N   UNL A   1      41.691  29.357  31.832  1.00  0.00    -0.248 NA
ATOM     59  C   UNL A   1      42.567  27.521  30.682  1.00  0.00     0.031 C 
ATOM     60  C   UNL A   1      43.415  31.047  35.548  1.00  0.00     0.029 A 
ATOM     61  C   UNL A   1      42.901  30.509  34.378  1.00  0.00     0.049 A 
ATOM     62  H   UNL A   1      41.258  31.156  33.223  1.00  0.00     0.167 HD
ATOM     63  C   UNL A   1      42.807  28.886  32.509  1.00  0.00     0.074 A 
ATOM     64  C   UNL A   1      43.292  27.737  31.772  1.00  0.00     0.031 C 
ATOM     65  C   UNL A   1      43.378  29.369  33.639  1.00  0.00     0.031 A 
BRANCH  52  66
ATOM     66  C   UNL A   1      40.602  34.356  35.976  1.00  0.00    -0.014 A 
ATOM     67  C   UNL A   1      39.786  34.169  37.104  1.00  0.00     0.009 A 
ATOM     68  C   UNL A   1      41.310  35.559  35.843  1.00  0.00     0.009 A 
ATOM     69  C   UNL A   1      39.666  35.173  38.067  1.00  0.00     0.001 A 
ATOM     70  C   UNL A   1      41.209  36.553  36.820  1.00  0.00     0.001 A 
ATOM     71  C   UNL A   1      40.379  36.362  37.925  1.00  0.00     0.000 A 
ENDBRANCH  52  66
BRANCH  53  72
ATOM     72  C   UNL A   1      40.437  27.577  28.654  1.00  0.00    -0.014 A 
ATOM     73  C   UNL A   1      41.104  27.778  27.434  1.00  0.00     0.009 A 
ATOM     74  C   UNL A   1      39.677  26.411  28.826  1.00  0.00     0.009 A 
ATOM     75  C   UNL A   1      40.985  26.850  26.399  1.00  0.00     0.001 A 
ATOM     76  C   UNL A   1      39.586  25.468  27.799  1.00  0.00     0.001 A 
ATOM     77  C   UNL A   1      40.231  25.694  26.583  1.00  0.00     0.000 A 
ENDBRANCH  53  72
BRANCH  65  78
ATOM     78  C   UNL A   1      44.587  28.656  34.177  1.00  0.00    -0.014 A 
ATOM     79  C   UNL A   1      45.867  29.020  33.726  1.00  0.00     0.009 A 
ATOM     80  C   UNL A   1      44.455  27.556  35.037  1.00  0.00     0.009 A 
ATOM     81  C   UNL A   1      46.989  28.285  34.110  1.00  0.00     0.001 A 
ATOM     82  C   UNL A   1      45.583  26.840  35.443  1.00  0.00     0.001 A 
ATOM     83  C   UNL A   1      46.846  27.198  34.970  1.00  0.00     0.000 A 
ENDBRANCH  65  78
ENDBRANCH  39  40
ENDBRANCH  31  34
ENDBRANCH  29  30
ENDBRANCH  28  29
ENDBRANCH   1  28
TORSDOF 13
ENDMDL
MODEL 3
REMARK VINA RESULT:     -12.5      0.573      5.797
REMARK SMILES CC1=C(CC(=O)NCCCNC(=O)c2ccc(-c3c4nc(c(-c5ccccc5)c5ccc([nH]5)c(-c5ccccc5)c5nc(c(-c6ccccc6)c6ccc3[nH]6)C=C5)C=C4)cc2)c2cc(F)ccc2/C1=C\c1ccc([S@@+](C)[O-])cc1
REMARK SMILES IDX 8 1 7 2 5 3 6 4 4 6 3 7 1 8 2 9 69 10 62 11 68 12 70 13
REMARK SMILES IDX 63 14 67 15 64 16 66 17 65 18 71 19 72 20 79 21 73 22 78 23
REMARK SMILES IDX 74 24 75 25 76 26 77 27 9 28 10 29 11 30 12 31 13 33 14 34
REMARK SMILES IDX 15 35 61 36 16 37 60 38 17 39 18 40 19 41 54 42 20 43 59 44
REMARK SMILES IDX 53 45 55 46 21 47 58 48 52 49 51 50 22 52 44 53 29 54 43 55
REMARK SMILES IDX 30 56 33 57 42 58 56 59 31 60 32 61 41 63 57 64 34 65 23 66
REMARK SMILES IDX 24 67 28 68 25 69 27 70 26 71 45 72 46 73 50 74 47 75 49 76
REMARK SMILES IDX 48 77 35 78 36 79 40 80 37 81 39 82 38 83
REMARK H PARENT 7 5 11 32 55 51 33 62
REMARK Flexibility Score: inf
ROOT
ATOM      1  C   UNL A   1      36.877  20.836  24.928  1.00  0.00     0.117 C 
ENDROOT
BRANCH   1   2
ATOM      2  N   UNL A   1      35.543  20.276  25.006  1.00  0.00    -0.356 N 
ATOM      3  C   UNL A   1      34.476  20.690  25.746  1.00  0.00     0.224 C 
ATOM      4  O   UNL A   1      33.438  20.028  25.685  1.00  0.00    -0.275 OA
ATOM      5  H   UNL A   1      35.385  19.483  24.444  1.00  0.00     0.163 HD
BRANCH   3   6
ATOM      6  C   UNL A   1      34.564  21.957  26.593  1.00  0.00     0.136 C 
BRANCH   6   7
ATOM      7  C   UNL A   1      33.932  23.152  25.955  1.00  0.00    -0.027 C 
ATOM      8  C   UNL A   1      35.852  24.084  24.538  1.00  0.00     0.045 C 
ATOM      9  C   UNL A   1      34.468  24.056  25.099  1.00  0.00    -0.039 C 
ATOM     10  C   UNL A   1      33.457  25.071  24.751  1.00  0.00    -0.014 C 
ATOM     11  C   UNL A   1      32.511  23.501  26.143  1.00  0.00    -0.011 A 
ATOM     12  C   UNL A   1      32.192  24.636  25.375  1.00  0.00    -0.010 A 
ATOM     13  C   UNL A   1      33.713  26.193  24.050  1.00  0.00     0.017 C 
ATOM     14  C   UNL A   1      31.536  22.865  26.902  1.00  0.00     0.048 A 
ATOM     15  C   UNL A   1      30.882  25.098  25.311  1.00  0.00     0.012 A 
ATOM     16  C   UNL A   1      30.241  23.373  26.876  1.00  0.00     0.123 A 
ATOM     17  C   UNL A   1      29.905  24.470  26.084  1.00  0.00     0.040 A 
ATOM     18  F   UNL A   1      29.289  22.788  27.615  1.00  0.00    -0.207 F 
BRANCH  13  19
ATOM     19  C   UNL A   1      32.735  27.240  23.741  1.00  0.00    -0.025 A 
ATOM     20  C   UNL A   1      32.468  28.267  24.653  1.00  0.00     0.013 A 
ATOM     21  C   UNL A   1      31.976  27.142  22.574  1.00  0.00     0.013 A 
ATOM     22  C   UNL A   1      31.362  29.104  24.467  1.00  0.00     0.061 A 
ATOM     23  C   UNL A   1      30.886  27.993  22.376  1.00  0.00     0.061 A 
ATOM     24  C   UNL A   1      30.544  28.952  23.340  1.00  0.00     0.152 A 
BRANCH  24  25
ATOM     25  S   UNL A   1      28.960  29.819  23.203  1.00  0.00    -0.018 S 
ATOM     26  C   UNL A   1      29.153  30.582  21.582  1.00  0.00     0.346 C 
ATOM     27  O   UNL A   1      27.846  28.716  23.090  1.00  0.00    -0.612 OA
ENDBRANCH  24  25
ENDBRANCH  13  19
ENDBRANCH   6   7
ENDBRANCH   3   6
ENDBRANCH   1   2
BRANCH   1  28
ATOM     28  C   UNL A   1      37.958  19.763  25.001  1.00  0.00     0.042 C 
BRANCH  28  29
ATOM     29  C   UNL A   1      39.212  20.197  25.751  1.00  0.00     0.118 C 
BRANCH  29  30
ATOM     30  N   UNL A   1      40.184  19.122  25.906  1.00  0.00    -0.352 N 
ATOM     31  C   UNL A   1      41.539  19.175  26.126  1.00  0.00     0.251 C 
ATOM     32  H   UNL A   1      39.810  18.213  25.843  1.00  0.00     0.163 HD
ATOM     33  O   UNL A   1      42.204  18.144  26.067  1.00  0.00    -0.269 OA
BRANCH  31  34
ATOM     34  C   UNL A   1      42.207  20.467  26.396  1.00  0.00     0.039 A 
ATOM     35  C   UNL A   1      42.245  21.005  27.682  1.00  0.00     0.014 A 
ATOM     36  C   UNL A   1      42.807  21.152  25.335  1.00  0.00     0.014 A 
ATOM     37  C   UNL A   1      42.716  22.300  27.876  1.00  0.00     0.010 A 
ATOM     38  C   UNL A   1      43.358  22.419  25.547  1.00  0.00     0.010 A 
ATOM     39  C   UNL A   1      43.265  23.027  26.808  1.00  0.00    -0.014 A 
BRANCH  39  40
ATOM     40  C   UNL A   1      43.709  24.428  27.025  1.00  0.00     0.031 A 
ATOM     41  C   UNL A   1      42.737  25.472  27.507  1.00  0.00     0.074 A 
ATOM     42  C   UNL A   1      45.005  24.750  26.847  1.00  0.00     0.049 A 
ATOM     43  N   UNL A   1      42.954  26.733  27.786  1.00  0.00    -0.248 NA
ATOM     44  C   UNL A   1      41.339  25.050  27.704  1.00  0.00     0.031 C 
ATOM     45  C   UNL A   1      46.050  23.821  26.410  1.00  0.00     0.029 A 
ATOM     46  N   UNL A   1      45.671  25.934  27.038  1.00  0.00    -0.354 N 
ATOM     47  C   UNL A   1      41.725  27.256  28.168  1.00  0.00     0.074 A 
ATOM     48  C   UNL A   1      40.758  26.187  28.063  1.00  0.00     0.031 C 
ATOM     49  C   UNL A   1      47.232  24.455  26.424  1.00  0.00     0.029 A 
ATOM     50  C   UNL A   1      47.022  25.849  26.803  1.00  0.00     0.049 A 
ATOM     51  H   UNL A   1      45.224  26.767  27.316  1.00  0.00     0.167 HD
ATOM     52  C   UNL A   1      41.432  28.512  28.581  1.00  0.00     0.031 A 
ATOM     53  C   UNL A   1      47.987  26.785  26.875  1.00  0.00     0.031 A 
ATOM     54  C   UNL A   1      42.398  29.573  28.694  1.00  0.00     0.049 A 
ATOM     55  C   UNL A   1      47.626  28.185  27.280  1.00  0.00     0.074 A 
ATOM     56  C   UNL A   1      42.195  30.873  29.126  1.00  0.00     0.029 A 
ATOM     57  N   UNL A   1      43.742  29.461  28.375  1.00  0.00    -0.354 N 
ATOM     58  N   UNL A   1      46.461  28.658  27.653  1.00  0.00    -0.248 NA
ATOM     59  C   UNL A   1      48.706  29.181  27.273  1.00  0.00     0.031 C 
ATOM     60  C   UNL A   1      43.403  31.564  29.011  1.00  0.00     0.029 A 
ATOM     61  C   UNL A   1      44.374  30.676  28.574  1.00  0.00     0.049 A 
ATOM     62  H   UNL A   1      44.181  28.640  28.054  1.00  0.00     0.167 HD
ATOM     63  C   UNL A   1      46.671  30.000  27.938  1.00  0.00     0.074 A 
ATOM     64  C   UNL A   1      48.078  30.263  27.714  1.00  0.00     0.031 C 
ATOM     65  C   UNL A   1      45.773  30.929  28.347  1.00  0.00     0.031 A 
BRANCH  52  66
ATOM     66  C   UNL A   1      40.005  28.827  28.934  1.00  0.00    -0.014 A 
ATOM     67  C   UNL A   1      39.524  28.527  30.220  1.00  0.00     0.009 A 
ATOM     68  C   UNL A   1      39.112  29.327  27.976  1.00  0.00     0.009 A 
ATOM     69  C   UNL A   1      38.175  28.705  30.532  1.00  0.00     0.001 A 
ATOM     70  C   UNL A   1      37.767  29.528  28.298  1.00  0.00     0.001 A 
ATOM     71  C   UNL A   1      37.299  29.207  29.572  1.00  0.00     0.000 A 
ENDBRANCH  52  66
BRANCH  53  72
ATOM     72  C   UNL A   1      49.392  26.410  26.560  1.00  0.00    -0.014 A 
ATOM     73  C   UNL A   1      50.233  25.889  27.557  1.00  0.00     0.009 A 
ATOM     74  C   UNL A   1      49.914  26.620  25.275  1.00  0.00     0.009 A 
ATOM     75  C   UNL A   1      51.574  25.617  27.284  1.00  0.00     0.001 A 
ATOM     76  C   UNL A   1      51.249  26.316  24.996  1.00  0.00     0.001 A 
ATOM     77  C   UNL A   1      52.080  25.825  26.003  1.00  0.00     0.000 A 
ENDBRANCH  53  72
BRANCH  65  78
ATOM     78  C   UNL A   1      46.271  32.325  28.601  1.00  0.00    -0.014 A 
ATOM     79  C   UNL A   1      46.686  32.691  29.891  1.00  0.00     0.009 A 
ATOM     80  C   UNL A   1      46.222  33.303  27.597  1.00  0.00     0.009 A 
ATOM     81  C   UNL A   1      47.023  34.014  30.179  1.00  0.00     0.001 A 
ATOM     82  C   UNL A   1      46.588  34.621  27.880  1.00  0.00     0.001 A 
ATOM     83  C   UNL A   1      46.977  34.977  29.171  1.00  0.00     0.000 A 
ENDBRANCH  65  78
ENDBRANCH  39  40
ENDBRANCH  31  34
ENDBRANCH  29  30
ENDBRANCH  28  29
ENDBRANCH   1  28
TORSDOF 13
ENDMDL
