MODEL 1
REMARK VINA RESULT:     -12.9      0.000      0.000
REMARK SMILES Cc1ccc(-c2cc(C(=O)NCCCNC(=O)c3ccc(-c4c5nc(c(-c6ccccc6)c6ccc([nH]6)c(-c6ccccc6)c6nc(c(-c7ccccc7)c7ccc4[nH]7)C=C6)C=C5)cc3)c3cc(C)ccc3n2)c(C)c1
REMARK SMILES IDX 13 1 12 2 11 3 9 4 10 5 8 7 6 8 7 9 73 10 72 11 66 12 71 13
REMARK SMILES IDX 67 14 70 15 68 16 69 17 5 18 1 19 2 20 3 21 76 22 4 23 74 24
REMARK SMILES IDX 75 25 14 26 15 27 16 28 17 30 18 31 19 32 65 33 20 34 64 35
REMARK SMILES IDX 21 36 22 37 23 38 58 39 24 40 63 41 57 42 59 43 25 44 62 45
REMARK SMILES IDX 56 46 55 47 26 49 48 50 33 51 47 52 34 53 37 54 46 55 60 56
REMARK SMILES IDX 35 57 36 58 45 60 61 61 38 62 27 63 28 64 32 65 29 66 31 67
REMARK SMILES IDX 30 68 49 69 50 70 54 71 51 72 53 73 52 74 39 75 40 76 44 77
REMARK SMILES IDX 41 78 43 79 42 80
REMARK H PARENT 11 6 15 29 59 48 37 59
REMARK Flexibility Score: inf
ROOT
ATOM      1  C   UNL A   1      33.730  28.430  26.068  1.00  0.00     0.042 C 
ENDROOT
BRANCH   1   2
ATOM      2  C   UNL A   1      33.339  29.238  24.846  1.00  0.00     0.118 C 
BRANCH   2   3
ATOM      3  N   UNL A   1      33.887  28.791  23.575  1.00  0.00    -0.352 N 
ATOM      4  C   UNL A   1      33.428  27.851  22.674  1.00  0.00     0.252 C 
ATOM      5  O   UNL A   1      34.046  27.720  21.617  1.00  0.00    -0.269 OA
ATOM      6  H   UNL A   1      34.728  29.231  23.313  1.00  0.00     0.163 HD
BRANCH   4   7
ATOM      7  C   UNL A   1      32.297  26.922  22.966  1.00  0.00     0.051 A 
ATOM      8  C   UNL A   1      31.682  24.757  23.775  1.00  0.00     0.072 A 
ATOM      9  C   UNL A   1      32.670  25.632  23.360  1.00  0.00     0.043 A 
ATOM     10  N   UNL A   1      30.397  25.152  23.940  1.00  0.00    -0.248 NA
ATOM     11  C   UNL A   1      30.037  26.378  23.537  1.00  0.00     0.072 A 
ATOM     12  C   UNL A   1      30.929  27.264  22.914  1.00  0.00     0.013 A 
ATOM     13  C   UNL A   1      28.731  26.797  23.756  1.00  0.00     0.029 A 
ATOM     14  C   UNL A   1      30.404  28.428  22.313  1.00  0.00     0.014 A 
ATOM     15  C   UNL A   1      28.282  28.058  23.354  1.00  0.00     0.005 A 
ATOM     16  C   UNL A   1      29.115  28.879  22.601  1.00  0.00    -0.050 A 
ATOM     17  C   UNL A   1      28.715  30.279  22.243  1.00  0.00     0.044 C 
BRANCH   8  18
ATOM     18  C   UNL A   1      31.938  23.326  23.979  1.00  0.00     0.003 A 
ATOM     19  C   UNL A   1      32.696  19.093  24.538  1.00  0.00     0.044 C 
ATOM     20  C   UNL A   1      32.425  20.552  24.328  1.00  0.00    -0.051 A 
ATOM     21  C   UNL A   1      32.181  21.074  23.056  1.00  0.00     0.004 A 
ATOM     22  C   UNL A   1      32.420  21.419  25.425  1.00  0.00     0.007 A 
ATOM     23  C   UNL A   1      31.942  22.442  22.885  1.00  0.00     0.011 A 
ATOM     24  C   UNL A   1      32.166  22.794  25.271  1.00  0.00    -0.041 A 
ATOM     25  C   UNL A   1      32.194  23.650  26.512  1.00  0.00     0.045 C 
ENDBRANCH   8  18
ENDBRANCH   4   7
ENDBRANCH   2   3
ENDBRANCH   1   2
BRANCH   1  26
ATOM     26  C   UNL A   1      33.102  28.901  27.372  1.00  0.00     0.118 C 
BRANCH  26  27
ATOM     27  N   UNL A   1      33.372  30.296  27.712  1.00  0.00    -0.352 N 
ATOM     28  C   UNL A   1      34.484  30.957  28.177  1.00  0.00     0.251 C 
ATOM     29  H   UNL A   1      32.593  30.885  27.583  1.00  0.00     0.163 HD
ATOM     30  O   UNL A   1      34.385  32.152  28.458  1.00  0.00    -0.269 OA
BRANCH  28  31
ATOM     31  C   UNL A   1      35.777  30.269  28.401  1.00  0.00     0.039 A 
ATOM     32  C   UNL A   1      36.725  30.253  27.369  1.00  0.00     0.014 A 
ATOM     33  C   UNL A   1      36.073  29.625  29.597  1.00  0.00     0.014 A 
ATOM     34  C   UNL A   1      37.991  29.700  27.584  1.00  0.00     0.010 A 
ATOM     35  C   UNL A   1      37.372  29.202  29.860  1.00  0.00     0.010 A 
ATOM     36  C   UNL A   1      38.350  29.230  28.856  1.00  0.00    -0.014 A 
BRANCH  36  37
ATOM     37  C   UNL A   1      39.724  28.760  29.174  1.00  0.00     0.031 A 
ATOM     38  C   UNL A   1      40.713  29.690  29.830  1.00  0.00     0.074 A 
ATOM     39  C   UNL A   1      40.124  27.536  28.774  1.00  0.00     0.049 A 
ATOM     40  N   UNL A   1      41.993  29.521  30.044  1.00  0.00    -0.248 NA
ATOM     41  C   UNL A   1      40.203  31.003  30.260  1.00  0.00     0.031 C 
ATOM     42  C   UNL A   1      39.291  26.552  28.076  1.00  0.00     0.029 A 
ATOM     43  N   UNL A   1      41.344  26.915  28.883  1.00  0.00    -0.354 N 
ATOM     44  C   UNL A   1      42.444  30.714  30.595  1.00  0.00     0.074 A 
ATOM     45  C   UNL A   1      41.316  31.619  30.624  1.00  0.00     0.031 C 
ATOM     46  C   UNL A   1      40.014  25.445  27.848  1.00  0.00     0.029 A 
ATOM     47  C   UNL A   1      41.372  25.654  28.336  1.00  0.00     0.049 A 
ATOM     48  H   UNL A   1      42.125  27.333  29.314  1.00  0.00     0.167 HD
ATOM     49  C   UNL A   1      43.677  31.028  31.059  1.00  0.00     0.031 A 
ATOM     50  C   UNL A   1      42.380  24.768  28.227  1.00  0.00     0.031 A 
ATOM     51  C   UNL A   1      44.792  30.120  31.063  1.00  0.00     0.049 A 
ATOM     52  C   UNL A   1      43.735  25.126  28.768  1.00  0.00     0.074 A 
ATOM     53  C   UNL A   1      46.063  30.315  31.575  1.00  0.00     0.029 A 
ATOM     54  N   UNL A   1      44.764  28.838  30.536  1.00  0.00    -0.354 N 
ATOM     55  N   UNL A   1      44.128  26.239  29.340  1.00  0.00    -0.248 NA
ATOM     56  C   UNL A   1      44.782  24.102  28.657  1.00  0.00     0.031 C 
ATOM     57  C   UNL A   1      46.817  29.165  31.318  1.00  0.00     0.029 A 
ATOM     58  C   UNL A   1      46.001  28.236  30.694  1.00  0.00     0.049 A 
ATOM     59  H   UNL A   1      43.982  28.418  30.111  1.00  0.00     0.167 HD
ATOM     60  C   UNL A   1      45.460  26.042  29.674  1.00  0.00     0.074 A 
ATOM     61  C   UNL A   1      45.803  24.696  29.260  1.00  0.00     0.031 C 
ATOM     62  C   UNL A   1      46.325  26.898  30.272  1.00  0.00     0.031 A 
BRANCH  49  63
ATOM     63  C   UNL A   1      43.874  32.415  31.606  1.00  0.00    -0.014 A 
ATOM     64  C   UNL A   1      44.288  33.473  30.777  1.00  0.00     0.009 A 
ATOM     65  C   UNL A   1      43.636  32.674  32.964  1.00  0.00     0.009 A 
ATOM     66  C   UNL A   1      44.511  34.745  31.308  1.00  0.00     0.001 A 
ATOM     67  C   UNL A   1      43.827  33.956  33.486  1.00  0.00     0.001 A 
ATOM     68  C   UNL A   1      44.276  34.986  32.661  1.00  0.00     0.000 A 
ENDBRANCH  49  63
BRANCH  50  69
ATOM     69  C   UNL A   1      42.138  23.446  27.595  1.00  0.00    -0.014 A 
ATOM     70  C   UNL A   1      41.517  22.417  28.318  1.00  0.00     0.009 A 
ATOM     71  C   UNL A   1      42.514  23.208  26.264  1.00  0.00     0.009 A 
ATOM     72  C   UNL A   1      41.298  21.169  27.730  1.00  0.00     0.001 A 
ATOM     73  C   UNL A   1      42.270  21.968  25.669  1.00  0.00     0.001 A 
ATOM     74  C   UNL A   1      41.670  20.947  26.404  1.00  0.00     0.000 A 
ENDBRANCH  50  69
BRANCH  62  75
ATOM     75  C   UNL A   1      47.715  26.395  30.536  1.00  0.00    -0.014 A 
ATOM     76  C   UNL A   1      48.060  25.825  31.770  1.00  0.00     0.009 A 
ATOM     77  C   UNL A   1      48.681  26.458  29.519  1.00  0.00     0.009 A 
ATOM     78  C   UNL A   1      49.356  25.355  31.991  1.00  0.00     0.001 A 
ATOM     79  C   UNL A   1      49.967  25.962  29.734  1.00  0.00     0.001 A 
ATOM     80  C   UNL A   1      50.306  25.419  30.972  1.00  0.00     0.000 A 
ENDBRANCH  62  75
ENDBRANCH  36  37
ENDBRANCH  28  31
ENDBRANCH  26  27
ENDBRANCH   1  26
TORSDOF 11
ENDMDL
MODEL 2
REMARK VINA RESULT:     -12.8      3.122      6.938
REMARK SMILES Cc1ccc(-c2cc(C(=O)NCCCNC(=O)c3ccc(-c4c5nc(c(-c6ccccc6)c6ccc([nH]6)c(-c6ccccc6)c6nc(c(-c7ccccc7)c7ccc4[nH]7)C=C6)C=C5)cc3)c3cc(C)ccc3n2)c(C)c1
REMARK SMILES IDX 13 1 12 2 11 3 9 4 10 5 8 7 6 8 7 9 73 10 72 11 66 12 71 13
REMARK SMILES IDX 67 14 70 15 68 16 69 17 5 18 1 19 2 20 3 21 76 22 4 23 74 24
REMARK SMILES IDX 75 25 14 26 15 27 16 28 17 30 18 31 19 32 65 33 20 34 64 35
REMARK SMILES IDX 21 36 22 37 23 38 58 39 24 40 63 41 57 42 59 43 25 44 62 45
REMARK SMILES IDX 56 46 55 47 26 49 48 50 33 51 47 52 34 53 37 54 46 55 60 56
REMARK SMILES IDX 35 57 36 58 45 60 61 61 38 62 27 63 28 64 32 65 29 66 31 67
REMARK SMILES IDX 30 68 49 69 50 70 54 71 51 72 53 73 52 74 39 75 40 76 44 77
REMARK SMILES IDX 41 78 43 79 42 80
REMARK H PARENT 11 6 15 29 59 48 37 59
REMARK Flexibility Score: inf
ROOT
ATOM      1  C   UNL A   1      34.428  21.469  26.414  1.00  0.00     0.042 C 
ENDROOT
BRANCH   1   2
ATOM      2  C   UNL A   1      34.016  22.213  27.670  1.00  0.00     0.118 C 
BRANCH   2   3
ATOM      3  N   UNL A   1      32.598  22.504  27.811  1.00  0.00    -0.352 N 
ATOM      4  C   UNL A   1      31.783  23.378  27.121  1.00  0.00     0.252 C 
ATOM      5  O   UNL A   1      30.580  23.371  27.386  1.00  0.00    -0.269 OA
ATOM      6  H   UNL A   1      32.143  21.991  28.517  1.00  0.00     0.163 HD
BRANCH   4   7
ATOM      7  C   UNL A   1      32.301  24.397  26.161  1.00  0.00     0.051 A 
ATOM      8  C   UNL A   1      33.276  26.568  25.924  1.00  0.00     0.072 A 
ATOM      9  C   UNL A   1      32.663  25.623  26.729  1.00  0.00     0.043 A 
ATOM     10  N   UNL A   1      33.655  26.291  24.655  1.00  0.00    -0.248 NA
ATOM     11  C   UNL A   1      33.284  25.126  24.105  1.00  0.00     0.072 A 
ATOM     12  C   UNL A   1      32.484  24.191  24.777  1.00  0.00     0.013 A 
ATOM     13  C   UNL A   1      33.720  24.825  22.821  1.00  0.00     0.029 A 
ATOM     14  C   UNL A   1      31.950  23.114  24.037  1.00  0.00     0.014 A 
ATOM     15  C   UNL A   1      33.364  23.635  22.180  1.00  0.00     0.005 A 
ATOM     16  C   UNL A   1      32.449  22.775  22.778  1.00  0.00    -0.050 A 
ATOM     17  C   UNL A   1      32.124  21.440  22.180  1.00  0.00     0.044 C 
BRANCH   8  18
ATOM     18  C   UNL A   1      33.476  27.956  26.359  1.00  0.00     0.003 A 
ATOM     19  C   UNL A   1      34.110  32.045  27.656  1.00  0.00     0.044 C 
ATOM     20  C   UNL A   1      33.902  30.625  27.221  1.00  0.00    -0.051 A 
ATOM     21  C   UNL A   1      34.820  29.622  27.542  1.00  0.00     0.004 A 
ATOM     22  C   UNL A   1      32.770  30.290  26.473  1.00  0.00     0.007 A 
ATOM     23  C   UNL A   1      34.609  28.306  27.116  1.00  0.00     0.011 A 
ATOM     24  C   UNL A   1      32.538  28.969  26.050  1.00  0.00    -0.041 A 
ATOM     25  C   UNL A   1      31.294  28.708  25.237  1.00  0.00     0.045 C 
ENDBRANCH   8  18
ENDBRANCH   4   7
ENDBRANCH   2   3
ENDBRANCH   1   2
BRANCH   1  26
ATOM     26  C   UNL A   1      35.623  22.063  25.683  1.00  0.00     0.118 C 
BRANCH  26  27
ATOM     27  N   UNL A   1      36.715  21.126  25.433  1.00  0.00    -0.352 N 
ATOM     28  C   UNL A   1      38.077  21.193  25.610  1.00  0.00     0.251 C 
ATOM     29  H   UNL A   1      36.413  20.267  25.058  1.00  0.00     0.163 HD
ATOM     30  O   UNL A   1      38.770  20.253  25.221  1.00  0.00    -0.269 OA
BRANCH  28  31
ATOM     31  C   UNL A   1      38.740  22.380  26.199  1.00  0.00     0.039 A 
ATOM     32  C   UNL A   1      39.905  22.200  26.957  1.00  0.00     0.014 A 
ATOM     33  C   UNL A   1      38.234  23.665  26.039  1.00  0.00     0.014 A 
ATOM     34  C   UNL A   1      40.609  23.307  27.442  1.00  0.00     0.010 A 
ATOM     35  C   UNL A   1      39.002  24.768  26.397  1.00  0.00     0.010 A 
ATOM     36  C   UNL A   1      40.200  24.606  27.107  1.00  0.00    -0.014 A 
BRANCH  36  37
ATOM     37  C   UNL A   1      40.987  25.811  27.480  1.00  0.00     0.031 A 
ATOM     38  C   UNL A   1      40.370  26.885  28.339  1.00  0.00     0.074 A 
ATOM     39  C   UNL A   1      42.216  25.998  26.958  1.00  0.00     0.049 A 
ATOM     40  N   UNL A   1      40.833  28.072  28.642  1.00  0.00    -0.248 NA
ATOM     41  C   UNL A   1      39.034  26.605  28.892  1.00  0.00     0.031 C 
ATOM     42  C   UNL A   1      42.914  25.069  26.064  1.00  0.00     0.029 A 
ATOM     43  N   UNL A   1      43.093  27.046  27.092  1.00  0.00    -0.354 N 
ATOM     44  C   UNL A   1      39.833  28.688  29.383  1.00  0.00     0.074 A 
ATOM     45  C   UNL A   1      38.716  27.771  29.433  1.00  0.00     0.031 C 
ATOM     46  C   UNL A   1      44.118  25.574  25.756  1.00  0.00     0.029 A 
ATOM     47  C   UNL A   1      44.261  26.881  26.387  1.00  0.00     0.049 A 
ATOM     48  H   UNL A   1      42.903  27.841  27.641  1.00  0.00     0.167 HD
ATOM     49  C   UNL A   1      39.846  29.898  29.993  1.00  0.00     0.031 A 
ATOM     50  C   UNL A   1      45.325  27.694  26.251  1.00  0.00     0.031 A 
ATOM     51  C   UNL A   1      40.967  30.798  29.976  1.00  0.00     0.049 A 
ATOM     52  C   UNL A   1      45.330  29.022  26.952  1.00  0.00     0.074 A 
ATOM     53  C   UNL A   1      41.109  32.015  30.619  1.00  0.00     0.029 A 
ATOM     54  N   UNL A   1      42.147  30.572  29.282  1.00  0.00    -0.354 N 
ATOM     55  N   UNL A   1      44.398  29.564  27.700  1.00  0.00    -0.248 NA
ATOM     56  C   UNL A   1      46.537  29.846  26.800  1.00  0.00     0.031 C 
ATOM     57  C   UNL A   1      42.358  32.545  30.280  1.00  0.00     0.029 A 
ATOM     58  C   UNL A   1      43.015  31.635  29.468  1.00  0.00     0.049 A 
ATOM     59  H   UNL A   1      42.338  29.775  28.738  1.00  0.00     0.167 HD
ATOM     60  C   UNL A   1      44.913  30.782  28.122  1.00  0.00     0.074 A 
ATOM     61  C   UNL A   1      46.246  30.890  27.565  1.00  0.00     0.031 C 
ATOM     62  C   UNL A   1      44.335  31.727  28.902  1.00  0.00     0.031 A 
BRANCH  49  63
ATOM     63  C   UNL A   1      38.603  30.308  30.734  1.00  0.00    -0.014 A 
ATOM     64  C   UNL A   1      38.442  30.020  32.101  1.00  0.00     0.009 A 
ATOM     65  C   UNL A   1      37.582  30.998  30.064  1.00  0.00     0.009 A 
ATOM     66  C   UNL A   1      37.264  30.367  32.765  1.00  0.00     0.001 A 
ATOM     67  C   UNL A   1      36.418  31.374  30.739  1.00  0.00     0.001 A 
ATOM     68  C   UNL A   1      36.255  31.046  32.084  1.00  0.00     0.000 A 
ENDBRANCH  49  63
BRANCH  50  69
ATOM     69  C   UNL A   1      46.486  27.264  25.429  1.00  0.00    -0.014 A 
ATOM     70  C   UNL A   1      47.376  26.292  25.912  1.00  0.00     0.009 A 
ATOM     71  C   UNL A   1      46.705  27.811  24.156  1.00  0.00     0.009 A 
ATOM     72  C   UNL A   1      48.474  25.894  25.147  1.00  0.00     0.001 A 
ATOM     73  C   UNL A   1      47.789  27.391  23.381  1.00  0.00     0.001 A 
ATOM     74  C   UNL A   1      48.677  26.439  23.879  1.00  0.00     0.000 A 
ENDBRANCH  50  69
BRANCH  62  75
ATOM     75  C   UNL A   1      45.151  32.948  29.219  1.00  0.00    -0.014 A 
ATOM     76  C   UNL A   1      45.959  33.004  30.365  1.00  0.00     0.009 A 
ATOM     77  C   UNL A   1      45.141  34.038  28.336  1.00  0.00     0.009 A 
ATOM     78  C   UNL A   1      46.717  34.145  30.636  1.00  0.00     0.001 A 
ATOM     79  C   UNL A   1      45.921  35.165  28.596  1.00  0.00     0.001 A 
ATOM     80  C   UNL A   1      46.702  35.222  29.749  1.00  0.00     0.000 A 
ENDBRANCH  62  75
ENDBRANCH  36  37
ENDBRANCH  28  31
ENDBRANCH  26  27
ENDBRANCH   1  26
TORSDOF 11
ENDMDL
MODEL 3
REMARK VINA RESULT:     -12.8      2.568      7.708
REMARK SMILES Cc1ccc(-c2cc(C(=O)NCCCNC(=O)c3ccc(-c4c5nc(c(-c6ccccc6)c6ccc([nH]6)c(-c6ccccc6)c6nc(c(-c7ccccc7)c7ccc4[nH]7)C=C6)C=C5)cc3)c3cc(C)ccc3n2)c(C)c1
REMARK SMILES IDX 13 1 12 2 11 3 9 4 10 5 8 7 6 8 7 9 73 10 72 11 66 12 71 13
REMARK SMILES IDX 67 14 70 15 68 16 69 17 5 18 1 19 2 20 3 21 76 22 4 23 74 24
REMARK SMILES IDX 75 25 14 26 15 27 16 28 17 30 18 31 19 32 65 33 20 34 64 35
REMARK SMILES IDX 21 36 22 37 23 38 58 39 24 40 63 41 57 42 59 43 25 44 62 45
REMARK SMILES IDX 56 46 55 47 26 49 48 50 33 51 47 52 34 53 37 54 46 55 60 56
REMARK SMILES IDX 35 57 36 58 45 60 61 61 38 62 27 63 28 64 32 65 29 66 31 67
REMARK SMILES IDX 30 68 49 69 50 70 54 71 51 72 53 73 52 74 39 75 40 76 44 77
REMARK SMILES IDX 41 78 43 79 42 80
REMARK H PARENT 11 6 15 29 59 48 37 59
REMARK Flexibility Score: inf
ROOT
ATOM      1  C   UNL A   1      37.522  20.184  24.963  1.00  0.00     0.042 C 
ENDROOT
BRANCH   1   2
ATOM      2  C   UNL A   1      36.336  21.121  25.085  1.00  0.00     0.118 C 
BRANCH   2   3
ATOM      3  N   UNL A   1      35.696  21.183  26.390  1.00  0.00    -0.352 N 
ATOM      4  C   UNL A   1      34.503  21.757  26.784  1.00  0.00     0.252 C 
ATOM      5  O   UNL A   1      34.146  21.593  27.951  1.00  0.00    -0.269 OA
ATOM      6  H   UNL A   1      36.197  20.743  27.114  1.00  0.00     0.163 HD
BRANCH   4   7
ATOM      7  C   UNL A   1      33.693  22.648  25.903  1.00  0.00     0.051 A 
ATOM      8  C   UNL A   1      33.106  24.909  25.390  1.00  0.00     0.072 A 
ATOM      9  C   UNL A   1      33.723  24.006  26.238  1.00  0.00     0.043 A 
ATOM     10  N   UNL A   1      32.600  24.536  24.190  1.00  0.00    -0.248 NA
ATOM     11  C   UNL A   1      32.550  23.233  23.883  1.00  0.00     0.072 A 
ATOM     12  C   UNL A   1      32.965  22.228  24.770  1.00  0.00     0.013 A 
ATOM     13  C   UNL A   1      32.079  22.859  22.631  1.00  0.00     0.029 A 
ATOM     14  C   UNL A   1      32.651  20.888  24.456  1.00  0.00     0.014 A 
ATOM     15  C   UNL A   1      31.988  21.518  22.246  1.00  0.00     0.005 A 
ATOM     16  C   UNL A   1      32.251  20.514  23.171  1.00  0.00    -0.050 A 
ATOM     17  C   UNL A   1      32.273  19.069  22.773  1.00  0.00     0.044 C 
BRANCH   8  18
ATOM     18  C   UNL A   1      32.877  26.310  25.767  1.00  0.00     0.003 A 
ATOM     19  C   UNL A   1      32.246  30.456  26.870  1.00  0.00     0.044 C 
ATOM     20  C   UNL A   1      32.482  29.024  26.493  1.00  0.00    -0.051 A 
ATOM     21  C   UNL A   1      33.755  28.559  26.154  1.00  0.00     0.004 A 
ATOM     22  C   UNL A   1      31.409  28.128  26.473  1.00  0.00     0.007 A 
ATOM     23  C   UNL A   1      33.949  27.221  25.796  1.00  0.00     0.011 A 
ATOM     24  C   UNL A   1      31.591  26.776  26.129  1.00  0.00    -0.041 A 
ATOM     25  C   UNL A   1      30.371  25.890  26.125  1.00  0.00     0.045 C 
ENDBRANCH   8  18
ENDBRANCH   4   7
ENDBRANCH   2   3
ENDBRANCH   1   2
BRANCH   1  26
ATOM     26  C   UNL A   1      38.790  20.667  25.651  1.00  0.00     0.118 C 
BRANCH  26  27
ATOM     27  N   UNL A   1      39.888  19.704  25.659  1.00  0.00    -0.352 N 
ATOM     28  C   UNL A   1      41.209  19.780  26.034  1.00  0.00     0.251 C 
ATOM     29  H   UNL A   1      39.628  18.815  25.326  1.00  0.00     0.163 HD
ATOM     30  O   UNL A   1      41.933  18.802  25.846  1.00  0.00    -0.269 OA
BRANCH  28  31
ATOM     31  C   UNL A   1      41.800  21.013  26.603  1.00  0.00     0.039 A 
ATOM     32  C   UNL A   1      42.212  22.032  25.734  1.00  0.00     0.014 A 
ATOM     33  C   UNL A   1      41.973  21.187  27.972  1.00  0.00     0.014 A 
ATOM     34  C   UNL A   1      42.680  23.247  26.244  1.00  0.00     0.010 A 
ATOM     35  C   UNL A   1      42.304  22.438  28.482  1.00  0.00     0.010 A 
ATOM     36  C   UNL A   1      42.665  23.486  27.626  1.00  0.00    -0.014 A 
BRANCH  36  37
ATOM     37  C   UNL A   1      43.021  24.807  28.211  1.00  0.00     0.031 A 
ATOM     38  C   UNL A   1      41.955  25.847  28.442  1.00  0.00     0.074 A 
ATOM     39  C   UNL A   1      44.315  25.116  28.430  1.00  0.00     0.049 A 
ATOM     40  N   UNL A   1      42.084  27.102  28.793  1.00  0.00    -0.248 NA
ATOM     41  C   UNL A   1      40.562  25.434  28.202  1.00  0.00     0.031 C 
ATOM     42  C   UNL A   1      45.456  24.228  28.194  1.00  0.00     0.029 A 
ATOM     43  N   UNL A   1      44.890  26.277  28.886  1.00  0.00    -0.354 N 
ATOM     44  C   UNL A   1      40.800  27.631  28.778  1.00  0.00     0.074 A 
ATOM     45  C   UNL A   1      39.915  26.581  28.324  1.00  0.00     0.031 C 
ATOM     46  C   UNL A   1      46.587  24.864  28.536  1.00  0.00     0.029 A 
ATOM     47  C   UNL A   1      46.261  26.218  28.967  1.00  0.00     0.049 A 
ATOM     48  H   UNL A   1      44.369  27.075  29.133  1.00  0.00     0.167 HD
ATOM     49  C   UNL A   1      40.384  28.871  29.132  1.00  0.00     0.031 A 
ATOM     50  C   UNL A   1      47.158  27.152  29.333  1.00  0.00     0.031 A 
ATOM     51  C   UNL A   1      41.256  29.906  29.617  1.00  0.00     0.049 A 
ATOM     52  C   UNL A   1      46.675  28.514  29.744  1.00  0.00     0.074 A 
ATOM     53  C   UNL A   1      40.926  31.172  30.069  1.00  0.00     0.029 A 
ATOM     54  N   UNL A   1      42.634  29.789  29.720  1.00  0.00    -0.354 N 
ATOM     55  N   UNL A   1      45.449  28.979  29.780  1.00  0.00    -0.248 NA
ATOM     56  C   UNL A   1      47.699  29.476  30.174  1.00  0.00     0.031 C 
ATOM     57  C   UNL A   1      42.110  31.837  30.406  1.00  0.00     0.029 A 
ATOM     58  C   UNL A   1      43.171  30.967  30.214  1.00  0.00     0.049 A 
ATOM     59  H   UNL A   1      43.153  28.989  29.479  1.00  0.00     0.167 HD
ATOM     60  C   UNL A   1      45.553  30.279  30.254  1.00  0.00     0.074 A 
ATOM     61  C   UNL A   1      46.957  30.523  30.512  1.00  0.00     0.031 C 
ATOM     62  C   UNL A   1      44.572  31.192  30.458  1.00  0.00     0.031 A 
BRANCH  49  63
ATOM     63  C   UNL A   1      38.914  29.164  29.009  1.00  0.00    -0.014 A 
ATOM     64  C   UNL A   1      38.356  29.595  27.793  1.00  0.00     0.009 A 
ATOM     65  C   UNL A   1      38.071  29.002  30.119  1.00  0.00     0.009 A 
ATOM     66  C   UNL A   1      36.998  29.907  27.706  1.00  0.00     0.001 A 
ATOM     67  C   UNL A   1      36.706  29.283  30.021  1.00  0.00     0.001 A 
ATOM     68  C   UNL A   1      36.174  29.747  28.819  1.00  0.00     0.000 A 
ENDBRANCH  49  63
BRANCH  50  69
ATOM     69  C   UNL A   1      48.607  26.822  29.347  1.00  0.00    -0.014 A 
ATOM     70  C   UNL A   1      49.404  27.080  28.221  1.00  0.00     0.009 A 
ATOM     71  C   UNL A   1      49.203  26.259  30.486  1.00  0.00     0.009 A 
ATOM     72  C   UNL A   1      50.763  26.760  28.227  1.00  0.00     0.001 A 
ATOM     73  C   UNL A   1      50.569  25.966  30.499  1.00  0.00     0.001 A 
ATOM     74  C   UNL A   1      51.346  26.208  29.368  1.00  0.00     0.000 A 
ENDBRANCH  50  69
BRANCH  62  75
ATOM     75  C   UNL A   1      44.982  32.527  31.011  1.00  0.00    -0.014 A 
ATOM     76  C   UNL A   1      45.364  33.578  30.163  1.00  0.00     0.009 A 
ATOM     77  C   UNL A   1      44.945  32.746  32.397  1.00  0.00     0.009 A 
ATOM     78  C   UNL A   1      45.733  34.814  30.697  1.00  0.00     0.001 A 
ATOM     79  C   UNL A   1      45.288  33.992  32.925  1.00  0.00     0.001 A 
ATOM     80  C   UNL A   1      45.689  35.022  32.076  1.00  0.00     0.000 A 
ENDBRANCH  62  75
ENDBRANCH  36  37
ENDBRANCH  28  31
ENDBRANCH  26  27
ENDBRANCH   1  26
TORSDOF 11
ENDMDL
