MODEL 1
REMARK VINA RESULT:     -11.9      0.000      0.000
REMARK SMILES C[NH+](C)CCc1nc(Nc2ccc(O)c(C(=O)NCCCNC(=O)c3ccc(-c4c5nc(c(-c6ccccc6)c6ccc([nH]6)c(-c6ccccc6)c6nc(c(-c7ccccc7)c7ccc4[nH]7)C=C6)C=C5)cc3)c2)c2ccccc2n1
REMARK SMILES IDX 16 1 17 2 18 3 15 5 10 6 11 7 73 8 12 9 13 10 9 11 8 13 6 14
REMARK SMILES IDX 7 15 80 16 79 17 74 18 78 19 75 20 77 21 76 22 5 23 4 24
REMARK SMILES IDX 2 25 1 26 3 27 14 29 19 31 20 32 21 33 22 34 23 35 24 37
REMARK SMILES IDX 25 38 26 39 72 40 27 41 71 42 28 43 29 44 30 45 65 46 31 47
REMARK SMILES IDX 70 48 64 49 66 50 32 51 69 52 63 53 62 54 33 56 55 57 40 58
REMARK SMILES IDX 54 59 41 60 44 61 53 62 67 63 42 64 43 65 52 67 68 68 45 69
REMARK SMILES IDX 34 70 35 71 39 72 36 73 38 74 37 75 56 76 57 77 61 78 58 79
REMARK SMILES IDX 60 80 59 81 46 82 47 83 51 84 48 85 50 86 49 87
REMARK H PARENT 18 4 9 12 2 28 14 30 22 36 66 55 44 66
REMARK Flexibility Score: inf
ROOT
ATOM      1  C   UNL A   1      33.950  22.696  26.803  1.00  0.00     0.255 C 
ATOM      2  O   UNL A   1      34.082  22.394  27.994  1.00  0.00    -0.269 OA
ATOM      3  N   UNL A   1      34.876  22.145  25.956  1.00  0.00    -0.352 N 
ATOM      4  H   UNL A   1      35.520  21.556  26.413  1.00  0.00     0.163 HD
ENDROOT
BRANCH   1   5
ATOM      5  C   UNL A   1      32.776  23.545  26.418  1.00  0.00     0.083 A 
ATOM      6  C   UNL A   1      32.154  25.535  25.092  1.00  0.00     0.041 A 
ATOM      7  C   UNL A   1      30.835  25.393  25.510  1.00  0.00     0.030 A 
ATOM      8  C   UNL A   1      33.105  24.611  25.548  1.00  0.00     0.043 A 
ATOM      9  C   UNL A   1      30.472  24.334  26.338  1.00  0.00     0.049 A 
ATOM     10  C   UNL A   1      31.432  23.415  26.786  1.00  0.00     0.128 A 
BRANCH   6  11
ATOM     11  N   UNL A   1      32.570  26.654  24.346  1.00  0.00    -0.340 N 
ATOM     12  H   UNL A   1      33.192  26.490  23.600  1.00  0.00     0.168 HD
BRANCH  11  13
ATOM     13  C   UNL A   1      32.171  27.994  24.572  1.00  0.00     0.142 A 
ATOM     14  C   UNL A   1      30.637  29.667  24.186  1.00  0.00     0.137 A 
ATOM     15  N   UNL A   1      31.144  28.479  23.848  1.00  0.00    -0.215 NA
ATOM     16  N   UNL A   1      31.165  30.462  25.132  1.00  0.00    -0.233 NA
ATOM     17  C   UNL A   1      32.234  30.013  25.800  1.00  0.00     0.076 A 
ATOM     18  C   UNL A   1      32.798  28.753  25.572  1.00  0.00     0.043 A 
ATOM     19  C   UNL A   1      32.786  30.816  26.791  1.00  0.00     0.029 A 
ATOM     20  C   UNL A   1      33.910  28.331  26.348  1.00  0.00     0.014 A 
ATOM     21  C   UNL A   1      33.873  30.399  27.565  1.00  0.00     0.002 A 
ATOM     22  C   UNL A   1      34.437  29.150  27.342  1.00  0.00     0.001 A 
BRANCH  14  23
ATOM     23  C   UNL A   1      29.356  30.141  23.548  1.00  0.00     0.138 C 
BRANCH  23  24
ATOM     24  C   UNL A   1      29.396  30.637  22.087  1.00  0.00     0.269 C 
BRANCH  24  25
ATOM     25  N   UNL A   1      29.133  32.049  21.743  1.00  0.00    -0.339 N 
ATOM     26  C   UNL A   1      28.089  32.207  20.741  1.00  0.00     0.332 C 
ATOM     27  C   UNL A   1      28.877  32.909  22.889  1.00  0.00     0.332 C 
ATOM     28  H   UNL A   1      30.013  32.365  21.336  1.00  0.00     0.347 HD
ENDBRANCH  24  25
ENDBRANCH  23  24
ENDBRANCH  14  23
ENDBRANCH  11  13
ENDBRANCH   6  11
BRANCH  10  29
ATOM     29  O   UNL A   1      30.969  22.390  27.552  1.00  0.00    -0.507 OA
ATOM     30  H   UNL A   1      30.283  21.838  27.232  1.00  0.00     0.293 HD
ENDBRANCH  10  29
ENDBRANCH   1   5
BRANCH   3  31
ATOM     31  C   UNL A   1      35.103  22.249  24.530  1.00  0.00     0.118 C 
BRANCH  31  32
ATOM     32  C   UNL A   1      36.270  23.190  24.231  1.00  0.00     0.042 C 
BRANCH  32  33
ATOM     33  C   UNL A   1      37.068  23.590  25.466  1.00  0.00     0.118 C 
BRANCH  33  34
ATOM     34  N   UNL A   1      38.214  22.717  25.684  1.00  0.00    -0.352 N 
ATOM     35  C   UNL A   1      39.454  23.006  26.199  1.00  0.00     0.251 C 
ATOM     36  H   UNL A   1      38.079  21.778  25.424  1.00  0.00     0.163 HD
ATOM     37  O   UNL A   1      40.359  22.183  26.102  1.00  0.00    -0.269 OA
BRANCH  35  38
ATOM     38  C   UNL A   1      39.714  24.305  26.860  1.00  0.00     0.039 A 
ATOM     39  C   UNL A   1      39.254  24.503  28.166  1.00  0.00     0.014 A 
ATOM     40  C   UNL A   1      40.370  25.341  26.190  1.00  0.00     0.014 A 
ATOM     41  C   UNL A   1      39.499  25.715  28.816  1.00  0.00     0.010 A 
ATOM     42  C   UNL A   1      40.681  26.518  26.863  1.00  0.00     0.010 A 
ATOM     43  C   UNL A   1      40.241  26.722  28.180  1.00  0.00    -0.014 A 
BRANCH  43  44
ATOM     44  C   UNL A   1      40.556  28.006  28.858  1.00  0.00     0.031 A 
ATOM     45  C   UNL A   1      41.883  28.187  29.543  1.00  0.00     0.074 A 
ATOM     46  C   UNL A   1      39.626  28.979  28.920  1.00  0.00     0.049 A 
ATOM     47  N   UNL A   1      42.304  29.181  30.284  1.00  0.00    -0.248 NA
ATOM     48  C   UNL A   1      42.859  27.094  29.395  1.00  0.00     0.031 C 
ATOM     49  C   UNL A   1      38.295  28.924  28.312  1.00  0.00     0.029 A 
ATOM     50  N   UNL A   1      39.656  30.206  29.537  1.00  0.00    -0.354 N 
ATOM     51  C   UNL A   1      43.580  28.825  30.703  1.00  0.00     0.074 A 
ATOM     52  C   UNL A   1      43.846  27.504  30.177  1.00  0.00     0.031 C 
ATOM     53  C   UNL A   1      37.645  30.070  28.570  1.00  0.00     0.029 A 
ATOM     54  C   UNL A   1      38.490  30.920  29.401  1.00  0.00     0.049 A 
ATOM     55  H   UNL A   1      40.440  30.540  30.032  1.00  0.00     0.167 HD
ATOM     56  C   UNL A   1      44.459  29.541  31.445  1.00  0.00     0.031 A 
ATOM     57  C   UNL A   1      38.137  32.119  29.902  1.00  0.00     0.031 A 
ATOM     58  C   UNL A   1      44.197  30.856  31.962  1.00  0.00     0.049 A 
ATOM     59  C   UNL A   1      39.117  32.874  30.761  1.00  0.00     0.074 A 
ATOM     60  C   UNL A   1      45.036  31.677  32.695  1.00  0.00     0.029 A 
ATOM     61  N   UNL A   1      43.005  31.544  31.799  1.00  0.00    -0.354 N 
ATOM     62  N   UNL A   1      40.337  32.542  31.110  1.00  0.00    -0.248 NA
ATOM     63  C   UNL A   1      38.672  34.172  31.287  1.00  0.00     0.031 C 
ATOM     64  C   UNL A   1      44.333  32.841  33.017  1.00  0.00     0.029 A 
ATOM     65  C   UNL A   1      43.080  32.772  32.432  1.00  0.00     0.049 A 
ATOM     66  H   UNL A   1      42.221  31.208  31.305  1.00  0.00     0.167 HD
ATOM     67  C   UNL A   1      40.817  33.608  31.861  1.00  0.00     0.074 A 
ATOM     68  C   UNL A   1      39.762  34.597  31.909  1.00  0.00     0.031 C 
ATOM     69  C   UNL A   1      42.027  33.754  32.455  1.00  0.00     0.031 A 
BRANCH  56  70
ATOM     70  C   UNL A   1      45.791  28.908  31.744  1.00  0.00    -0.014 A 
ATOM     71  C   UNL A   1      46.891  29.093  30.891  1.00  0.00     0.009 A 
ATOM     72  C   UNL A   1      45.961  28.153  32.915  1.00  0.00     0.009 A 
ATOM     73  C   UNL A   1      48.123  28.505  31.185  1.00  0.00     0.001 A 
ATOM     74  C   UNL A   1      47.203  27.592  33.222  1.00  0.00     0.001 A 
ATOM     75  C   UNL A   1      48.279  27.760  32.353  1.00  0.00     0.000 A 
ENDBRANCH  56  70
BRANCH  57  76
ATOM     76  C   UNL A   1      36.796  32.692  29.608  1.00  0.00    -0.014 A 
ATOM     77  C   UNL A   1      35.743  32.540  30.523  1.00  0.00     0.009 A 
ATOM     78  C   UNL A   1      36.553  33.370  28.403  1.00  0.00     0.009 A 
ATOM     79  C   UNL A   1      34.467  33.023  30.221  1.00  0.00     0.001 A 
ATOM     80  C   UNL A   1      35.285  33.880  28.119  1.00  0.00     0.001 A 
ATOM     81  C   UNL A   1      34.240  33.695  29.021  1.00  0.00     0.000 A 
ENDBRANCH  57  76
BRANCH  69  82
ATOM     82  C   UNL A   1      42.302  35.054  33.155  1.00  0.00    -0.014 A 
ATOM     83  C   UNL A   1      41.840  35.299  34.457  1.00  0.00     0.009 A 
ATOM     84  C   UNL A   1      43.092  36.025  32.518  1.00  0.00     0.009 A 
ATOM     85  C   UNL A   1      42.140  36.504  35.095  1.00  0.00     0.001 A 
ATOM     86  C   UNL A   1      43.415  37.215  33.171  1.00  0.00     0.001 A 
ATOM     87  C   UNL A   1      42.932  37.457  34.455  1.00  0.00     0.000 A 
ENDBRANCH  69  82
ENDBRANCH  43  44
ENDBRANCH  35  38
ENDBRANCH  33  34
ENDBRANCH  32  33
ENDBRANCH  31  32
ENDBRANCH   3  31
TORSDOF 16
ENDMDL
MODEL 2
REMARK VINA RESULT:     -11.5      2.693      6.880
REMARK SMILES C[NH+](C)CCc1nc(Nc2ccc(O)c(C(=O)NCCCNC(=O)c3ccc(-c4c5nc(c(-c6ccccc6)c6ccc([nH]6)c(-c6ccccc6)c6nc(c(-c7ccccc7)c7ccc4[nH]7)C=C6)C=C5)cc3)c2)c2ccccc2n1
REMARK SMILES IDX 16 1 17 2 18 3 15 5 10 6 11 7 73 8 12 9 13 10 9 11 8 13 6 14
REMARK SMILES IDX 7 15 80 16 79 17 74 18 78 19 75 20 77 21 76 22 5 23 4 24
REMARK SMILES IDX 2 25 1 26 3 27 14 29 19 31 20 32 21 33 22 34 23 35 24 37
REMARK SMILES IDX 25 38 26 39 72 40 27 41 71 42 28 43 29 44 30 45 65 46 31 47
REMARK SMILES IDX 70 48 64 49 66 50 32 51 69 52 63 53 62 54 33 56 55 57 40 58
REMARK SMILES IDX 54 59 41 60 44 61 53 62 67 63 42 64 43 65 52 67 68 68 45 69
REMARK SMILES IDX 34 70 35 71 39 72 36 73 38 74 37 75 56 76 57 77 61 78 58 79
REMARK SMILES IDX 60 80 59 81 46 82 47 83 51 84 48 85 50 86 49 87
REMARK H PARENT 18 4 9 12 2 28 14 30 22 36 66 55 44 66
REMARK Flexibility Score: inf
ROOT
ATOM      1  C   UNL A   1      37.091  23.281  25.920  1.00  0.00     0.255 C 
ATOM      2  O   UNL A   1      37.831  24.088  26.493  1.00  0.00    -0.269 OA
ATOM      3  N   UNL A   1      37.714  22.157  25.444  1.00  0.00    -0.352 N 
ATOM      4  H   UNL A   1      38.679  22.132  25.641  1.00  0.00     0.163 HD
ENDROOT
BRANCH   1   5
ATOM      5  C   UNL A   1      35.622  23.576  25.883  1.00  0.00     0.083 A 
ATOM      6  C   UNL A   1      33.941  24.991  24.752  1.00  0.00     0.041 A 
ATOM      7  C   UNL A   1      32.946  24.435  25.550  1.00  0.00     0.030 A 
ATOM      8  C   UNL A   1      35.263  24.555  24.926  1.00  0.00     0.043 A 
ATOM      9  C   UNL A   1      33.261  23.444  26.475  1.00  0.00     0.049 A 
ATOM     10  C   UNL A   1      34.587  23.015  26.639  1.00  0.00     0.128 A 
BRANCH   6  11
ATOM     11  N   UNL A   1      33.670  26.068  23.887  1.00  0.00    -0.340 N 
ATOM     12  H   UNL A   1      34.196  26.119  23.055  1.00  0.00     0.168 HD
BRANCH  11  13
ATOM     13  C   UNL A   1      32.708  27.084  24.106  1.00  0.00     0.142 A 
ATOM     14  C   UNL A   1      30.604  27.908  23.665  1.00  0.00     0.137 A 
ATOM     15  N   UNL A   1      31.599  27.081  23.341  1.00  0.00    -0.215 NA
ATOM     16  N   UNL A   1      30.687  28.830  24.639  1.00  0.00    -0.233 NA
ATOM     17  C   UNL A   1      31.819  28.886  25.351  1.00  0.00     0.076 A 
ATOM     18  C   UNL A   1      32.894  28.016  25.138  1.00  0.00     0.043 A 
ATOM     19  C   UNL A   1      31.919  29.824  26.371  1.00  0.00     0.029 A 
ATOM     20  C   UNL A   1      34.049  28.112  25.960  1.00  0.00     0.014 A 
ATOM     21  C   UNL A   1      33.049  29.914  27.189  1.00  0.00     0.002 A 
ATOM     22  C   UNL A   1      34.119  29.053  26.983  1.00  0.00     0.001 A 
BRANCH  14  23
ATOM     23  C   UNL A   1      29.270  27.780  22.974  1.00  0.00     0.138 C 
BRANCH  23  24
ATOM     24  C   UNL A   1      28.270  28.951  23.071  1.00  0.00     0.269 C 
BRANCH  24  25
ATOM     25  N   UNL A   1      28.689  30.347  22.833  1.00  0.00    -0.339 N 
ATOM     26  C   UNL A   1      28.797  30.677  21.419  1.00  0.00     0.332 C 
ATOM     27  C   UNL A   1      27.889  31.342  23.532  1.00  0.00     0.332 C 
ATOM     28  H   UNL A   1      29.623  30.390  23.240  1.00  0.00     0.347 HD
ENDBRANCH  24  25
ENDBRANCH  23  24
ENDBRANCH  14  23
ENDBRANCH  11  13
ENDBRANCH   6  11
BRANCH  10  29
ATOM     29  O   UNL A   1      34.785  22.010  27.536  1.00  0.00    -0.507 OA
ATOM     30  H   UNL A   1      34.318  21.203  27.445  1.00  0.00     0.293 HD
ENDBRANCH  10  29
ENDBRANCH   1   5
BRANCH   3  31
ATOM     31  C   UNL A   1      37.248  21.000  24.709  1.00  0.00     0.118 C 
BRANCH  31  32
ATOM     32  C   UNL A   1      38.191  19.812  24.907  1.00  0.00     0.042 C 
BRANCH  32  33
ATOM     33  C   UNL A   1      39.163  19.987  26.068  1.00  0.00     0.118 C 
BRANCH  33  34
ATOM     34  N   UNL A   1      40.370  19.190  25.897  1.00  0.00    -0.352 N 
ATOM     35  C   UNL A   1      41.689  19.571  25.942  1.00  0.00     0.251 C 
ATOM     36  H   UNL A   1      40.217  18.234  25.722  1.00  0.00     0.163 HD
ATOM     37  O   UNL A   1      42.559  18.795  25.558  1.00  0.00    -0.269 OA
BRANCH  35  38
ATOM     38  C   UNL A   1      42.072  20.911  26.441  1.00  0.00     0.039 A 
ATOM     39  C   UNL A   1      42.185  21.112  27.821  1.00  0.00     0.014 A 
ATOM     40  C   UNL A   1      42.280  21.978  25.564  1.00  0.00     0.014 A 
ATOM     41  C   UNL A   1      42.558  22.365  28.315  1.00  0.00     0.010 A 
ATOM     42  C   UNL A   1      42.726  23.203  26.051  1.00  0.00     0.010 A 
ATOM     43  C   UNL A   1      42.862  23.412  27.432  1.00  0.00    -0.014 A 
BRANCH  43  44
ATOM     44  C   UNL A   1      43.302  24.744  27.922  1.00  0.00     0.031 A 
ATOM     45  C   UNL A   1      42.278  25.788  28.277  1.00  0.00     0.074 A 
ATOM     46  C   UNL A   1      44.615  25.039  27.980  1.00  0.00     0.049 A 
ATOM     47  N   UNL A   1      42.455  27.041  28.611  1.00  0.00    -0.248 NA
ATOM     48  C   UNL A   1      40.865  25.375  28.227  1.00  0.00     0.031 C 
ATOM     49  C   UNL A   1      45.708  24.123  27.649  1.00  0.00     0.029 A 
ATOM     50  N   UNL A   1      45.254  26.204  28.329  1.00  0.00    -0.354 N 
ATOM     51  C   UNL A   1      41.181  27.568  28.791  1.00  0.00     0.074 A 
ATOM     52  C   UNL A   1      40.240  26.514  28.481  1.00  0.00     0.031 C 
ATOM     53  C   UNL A   1      46.880  24.753  27.828  1.00  0.00     0.029 A 
ATOM     54  C   UNL A   1      46.623  26.129  28.238  1.00  0.00     0.049 A 
ATOM     55  H   UNL A   1      44.775  27.016  28.615  1.00  0.00     0.167 HD
ATOM     56  C   UNL A   1      40.826  28.811  29.195  1.00  0.00     0.031 A 
ATOM     57  C   UNL A   1      47.565  27.069  28.448  1.00  0.00     0.031 A 
ATOM     58  C   UNL A   1      41.762  29.856  29.509  1.00  0.00     0.049 A 
ATOM     59  C   UNL A   1      47.141  28.456  28.853  1.00  0.00     0.074 A 
ATOM     60  C   UNL A   1      41.503  31.138  29.960  1.00  0.00     0.029 A 
ATOM     61  N   UNL A   1      43.140  29.737  29.407  1.00  0.00    -0.354 N 
ATOM     62  N   UNL A   1      45.934  28.923  29.062  1.00  0.00    -0.248 NA
ATOM     63  C   UNL A   1      48.212  29.441  29.058  1.00  0.00     0.031 C 
ATOM     64  C   UNL A   1      42.722  31.811  30.083  1.00  0.00     0.029 A 
ATOM     65  C   UNL A   1      43.742  30.928  29.769  1.00  0.00     0.049 A 
ATOM     66  H   UNL A   1      43.618  28.925  29.119  1.00  0.00     0.167 HD
ATOM     67  C   UNL A   1      46.104  30.243  29.463  1.00  0.00     0.074 A 
ATOM     68  C   UNL A   1      47.529  30.497  29.475  1.00  0.00     0.031 C 
ATOM     69  C   UNL A   1      45.163  31.160  29.794  1.00  0.00     0.031 A 
BRANCH  56  70
ATOM     70  C   UNL A   1      39.357  29.108  29.316  1.00  0.00    -0.014 A 
ATOM     71  C   UNL A   1      38.635  29.650  28.240  1.00  0.00     0.009 A 
ATOM     72  C   UNL A   1      38.675  28.805  30.505  1.00  0.00     0.009 A 
ATOM     73  C   UNL A   1      37.269  29.915  28.364  1.00  0.00     0.001 A 
ATOM     74  C   UNL A   1      37.304  29.042  30.616  1.00  0.00     0.001 A 
ATOM     75  C   UNL A   1      36.604  29.605  29.550  1.00  0.00     0.000 A 
ENDBRANCH  56  70
BRANCH  57  76
ATOM     76  C   UNL A   1      49.006  26.740  28.284  1.00  0.00    -0.014 A 
ATOM     77  C   UNL A   1      49.614  26.818  27.021  1.00  0.00     0.009 A 
ATOM     78  C   UNL A   1      49.776  26.320  29.380  1.00  0.00     0.009 A 
ATOM     79  C   UNL A   1      50.950  26.449  26.853  1.00  0.00     0.001 A 
ATOM     80  C   UNL A   1      51.121  25.983  29.215  1.00  0.00     0.001 A 
ATOM     81  C   UNL A   1      51.703  26.035  27.951  1.00  0.00     0.000 A 
ENDBRANCH  57  76
BRANCH  69  82
ATOM     82  C   UNL A   1      45.642  32.506  30.259  1.00  0.00    -0.014 A 
ATOM     83  C   UNL A   1      45.781  33.583  29.371  1.00  0.00     0.009 A 
ATOM     84  C   UNL A   1      45.898  32.711  31.624  1.00  0.00     0.009 A 
ATOM     85  C   UNL A   1      46.195  34.832  29.838  1.00  0.00     0.001 A 
ATOM     86  C   UNL A   1      46.283  33.968  32.092  1.00  0.00     0.001 A 
ATOM     87  C   UNL A   1      46.439  35.024  31.198  1.00  0.00     0.000 A 
ENDBRANCH  69  82
ENDBRANCH  43  44
ENDBRANCH  35  38
ENDBRANCH  33  34
ENDBRANCH  32  33
ENDBRANCH  31  32
ENDBRANCH   3  31
TORSDOF 16
ENDMDL
MODEL 3
REMARK VINA RESULT:     -11.2      1.458      1.986
REMARK SMILES C[NH+](C)CCc1nc(Nc2ccc(O)c(C(=O)NCCCNC(=O)c3ccc(-c4c5nc(c(-c6ccccc6)c6ccc([nH]6)c(-c6ccccc6)c6nc(c(-c7ccccc7)c7ccc4[nH]7)C=C6)C=C5)cc3)c2)c2ccccc2n1
REMARK SMILES IDX 16 1 17 2 18 3 15 5 10 6 11 7 73 8 12 9 13 10 9 11 8 13 6 14
REMARK SMILES IDX 7 15 80 16 79 17 74 18 78 19 75 20 77 21 76 22 5 23 4 24
REMARK SMILES IDX 2 25 1 26 3 27 14 29 19 31 20 32 21 33 22 34 23 35 24 37
REMARK SMILES IDX 25 38 26 39 72 40 27 41 71 42 28 43 29 44 30 45 65 46 31 47
REMARK SMILES IDX 70 48 64 49 66 50 32 51 69 52 63 53 62 54 33 56 55 57 40 58
REMARK SMILES IDX 54 59 41 60 44 61 53 62 67 63 42 64 43 65 52 67 68 68 45 69
REMARK SMILES IDX 34 70 35 71 39 72 36 73 38 74 37 75 56 76 57 77 61 78 58 79
REMARK SMILES IDX 60 80 59 81 46 82 47 83 51 84 48 85 50 86 49 87
REMARK H PARENT 18 4 9 12 2 28 14 30 22 36 66 55 44 66
REMARK Flexibility Score: inf
ROOT
ATOM      1  C   UNL A   1      33.654  23.490  22.631  1.00  0.00     0.255 C 
ATOM      2  O   UNL A   1      33.222  23.943  21.565  1.00  0.00    -0.269 OA
ATOM      3  N   UNL A   1      35.017  23.371  22.704  1.00  0.00    -0.352 N 
ATOM      4  H   UNL A   1      35.480  23.686  21.893  1.00  0.00     0.163 HD
ENDROOT
BRANCH   1   5
ATOM      5  C   UNL A   1      32.669  23.204  23.724  1.00  0.00     0.083 A 
ATOM      6  C   UNL A   1      30.831  24.234  25.018  1.00  0.00     0.041 A 
ATOM      7  C   UNL A   1      30.706  23.062  25.758  1.00  0.00     0.030 A 
ATOM      8  C   UNL A   1      31.807  24.289  24.011  1.00  0.00     0.043 A 
ATOM      9  C   UNL A   1      31.514  21.964  25.476  1.00  0.00     0.049 A 
ATOM     10  C   UNL A   1      32.485  22.032  24.465  1.00  0.00     0.128 A 
BRANCH   6  11
ATOM     11  N   UNL A   1      30.106  25.392  25.351  1.00  0.00    -0.340 N 
ATOM     12  H   UNL A   1      29.380  25.293  26.009  1.00  0.00     0.168 HD
BRANCH  11  13
ATOM     13  C   UNL A   1      30.328  26.689  24.824  1.00  0.00     0.142 A 
ATOM     14  C   UNL A   1      29.610  28.385  23.442  1.00  0.00     0.137 A 
ATOM     15  N   UNL A   1      29.540  27.104  23.813  1.00  0.00    -0.215 NA
ATOM     16  N   UNL A   1      30.504  29.257  23.937  1.00  0.00    -0.233 NA
ATOM     17  C   UNL A   1      31.339  28.824  24.888  1.00  0.00     0.076 A 
ATOM     18  C   UNL A   1      31.300  27.521  25.398  1.00  0.00     0.043 A 
ATOM     19  C   UNL A   1      32.262  29.716  25.421  1.00  0.00     0.029 A 
ATOM     20  C   UNL A   1      32.196  27.146  26.435  1.00  0.00     0.014 A 
ATOM     21  C   UNL A   1      33.137  29.353  26.450  1.00  0.00     0.002 A 
ATOM     22  C   UNL A   1      33.103  28.062  26.959  1.00  0.00     0.001 A 
BRANCH  14  23
ATOM     23  C   UNL A   1      28.596  28.938  22.473  1.00  0.00     0.138 C 
BRANCH  23  24
ATOM     24  C   UNL A   1      28.071  30.372  22.689  1.00  0.00     0.269 C 
BRANCH  24  25
ATOM     25  N   UNL A   1      28.706  31.534  22.033  1.00  0.00    -0.339 N 
ATOM     26  C   UNL A   1      28.160  31.813  20.713  1.00  0.00     0.332 C 
ATOM     27  C   UNL A   1      28.729  32.743  22.844  1.00  0.00     0.332 C 
ATOM     28  H   UNL A   1      29.677  31.244  21.919  1.00  0.00     0.347 HD
ENDBRANCH  24  25
ENDBRANCH  23  24
ENDBRANCH  14  23
ENDBRANCH  11  13
ENDBRANCH   6  11
BRANCH  10  29
ATOM     29  O   UNL A   1      33.192  20.891  24.236  1.00  0.00    -0.507 OA
ATOM     30  H   UNL A   1      33.427  20.654  23.361  1.00  0.00     0.293 HD
ENDBRANCH  10  29
ENDBRANCH   1   5
BRANCH   3  31
ATOM     31  C   UNL A   1      35.917  22.878  23.725  1.00  0.00     0.118 C 
BRANCH  31  32
ATOM     32  C   UNL A   1      36.157  23.939  24.799  1.00  0.00     0.042 C 
BRANCH  32  33
ATOM     33  C   UNL A   1      36.527  23.362  26.160  1.00  0.00     0.118 C 
BRANCH  33  34
ATOM     34  N   UNL A   1      37.672  22.465  26.081  1.00  0.00    -0.352 N 
ATOM     35  C   UNL A   1      39.007  22.725  26.270  1.00  0.00     0.251 C 
ATOM     36  H   UNL A   1      37.456  21.531  25.859  1.00  0.00     0.163 HD
ATOM     37  O   UNL A   1      39.842  21.886  25.947  1.00  0.00    -0.269 OA
BRANCH  35  38
ATOM     38  C   UNL A   1      39.451  24.013  26.851  1.00  0.00     0.039 A 
ATOM     39  C   UNL A   1      40.088  24.944  26.025  1.00  0.00     0.014 A 
ATOM     40  C   UNL A   1      39.280  24.292  28.210  1.00  0.00     0.014 A 
ATOM     41  C   UNL A   1      40.503  26.172  26.547  1.00  0.00     0.010 A 
ATOM     42  C   UNL A   1      39.623  25.543  28.712  1.00  0.00     0.010 A 
ATOM     43  C   UNL A   1      40.247  26.493  27.888  1.00  0.00    -0.014 A 
BRANCH  43  44
ATOM     44  C   UNL A   1      40.637  27.806  28.465  1.00  0.00     0.031 A 
ATOM     45  C   UNL A   1      42.044  28.021  28.954  1.00  0.00     0.074 A 
ATOM     46  C   UNL A   1      39.715  28.776  28.616  1.00  0.00     0.049 A 
ATOM     47  N   UNL A   1      42.552  29.046  29.591  1.00  0.00    -0.248 NA
ATOM     48  C   UNL A   1      43.002  26.928  28.717  1.00  0.00     0.031 C 
ATOM     49  C   UNL A   1      38.313  28.689  28.199  1.00  0.00     0.029 A 
ATOM     50  N   UNL A   1      39.816  30.026  29.174  1.00  0.00    -0.354 N 
ATOM     51  C   UNL A   1      43.877  28.714  29.845  1.00  0.00     0.074 A 
ATOM     52  C   UNL A   1      44.083  27.374  29.339  1.00  0.00     0.031 C 
ATOM     53  C   UNL A   1      37.693  29.842  28.498  1.00  0.00     0.029 A 
ATOM     54  C   UNL A   1      38.635  30.729  29.171  1.00  0.00     0.049 A 
ATOM     55  H   UNL A   1      40.656  30.384  29.543  1.00  0.00     0.167 HD
ATOM     56  C   UNL A   1      44.842  29.462  30.430  1.00  0.00     0.031 A 
ATOM     57  C   UNL A   1      38.342  31.945  29.669  1.00  0.00     0.031 A 
ATOM     58  C   UNL A   1      44.639  30.797  30.926  1.00  0.00     0.049 A 
ATOM     59  C   UNL A   1      39.422  32.739  30.355  1.00  0.00     0.074 A 
ATOM     60  C   UNL A   1      45.562  31.650  31.504  1.00  0.00     0.029 A 
ATOM     61  N   UNL A   1      43.429  31.471  30.901  1.00  0.00    -0.354 N 
ATOM     62  N   UNL A   1      40.681  32.428  30.546  1.00  0.00    -0.248 NA
ATOM     63  C   UNL A   1      39.040  34.055  30.886  1.00  0.00     0.031 C 
ATOM     64  C   UNL A   1      44.898  32.823  31.874  1.00  0.00     0.029 A 
ATOM     65  C   UNL A   1      43.576  32.724  31.469  1.00  0.00     0.049 A 
ATOM     66  H   UNL A   1      42.588  31.112  30.533  1.00  0.00     0.167 HD
ATOM     67  C   UNL A   1      41.249  33.525  31.181  1.00  0.00     0.074 A 
ATOM     68  C   UNL A   1      40.200  34.511  31.335  1.00  0.00     0.031 C 
ATOM     69  C   UNL A   1      42.527  33.701  31.597  1.00  0.00     0.031 A 
BRANCH  56  70
ATOM     70  C   UNL A   1      46.208  28.849  30.569  1.00  0.00    -0.014 A 
ATOM     71  C   UNL A   1      46.545  28.071  31.688  1.00  0.00     0.009 A 
ATOM     72  C   UNL A   1      47.158  29.015  29.549  1.00  0.00     0.009 A 
ATOM     73  C   UNL A   1      47.815  27.502  31.800  1.00  0.00     0.001 A 
ATOM     74  C   UNL A   1      48.417  28.419  29.649  1.00  0.00     0.001 A 
ATOM     75  C   UNL A   1      48.748  27.672  30.777  1.00  0.00     0.000 A 
ENDBRANCH  56  70
BRANCH  57  76
ATOM     76  C   UNL A   1      36.967  32.499  29.539  1.00  0.00    -0.014 A 
ATOM     77  C   UNL A   1      36.606  33.242  28.404  1.00  0.00     0.009 A 
ATOM     78  C   UNL A   1      36.018  32.314  30.556  1.00  0.00     0.009 A 
ATOM     79  C   UNL A   1      35.336  33.816  28.307  1.00  0.00     0.001 A 
ATOM     80  C   UNL A   1      34.739  32.861  30.442  1.00  0.00     0.001 A 
ATOM     81  C   UNL A   1      34.403  33.623  29.325  1.00  0.00     0.000 A 
ENDBRANCH  57  76
BRANCH  69  82
ATOM     82  C   UNL A   1      42.882  35.030  32.201  1.00  0.00    -0.014 A 
ATOM     83  C   UNL A   1      43.481  36.045  31.441  1.00  0.00     0.009 A 
ATOM     84  C   UNL A   1      42.552  35.287  33.541  1.00  0.00     0.009 A 
ATOM     85  C   UNL A   1      43.769  37.283  32.020  1.00  0.00     0.001 A 
ATOM     86  C   UNL A   1      42.813  36.535  34.109  1.00  0.00     0.001 A 
ATOM     87  C   UNL A   1      43.429  37.528  33.350  1.00  0.00     0.000 A 
ENDBRANCH  69  82
ENDBRANCH  43  44
ENDBRANCH  35  38
ENDBRANCH  33  34
ENDBRANCH  32  33
ENDBRANCH  31  32
ENDBRANCH   3  31
TORSDOF 16
ENDMDL
