MODEL 1
REMARK VINA RESULT:     -11.8      0.000      0.000
REMARK SMILES CC(C)CSc1cc2c(cc1Cl)C=C(C(=O)NCCCNC(=O)c1ccc(-c3c4nc(c(-c5ccccc5)c5ccc([nH]5)c(-c5ccccc5)c5nc(c(-c6ccccc6)c6ccc3[nH]6)C=C5)C=C4)cc1)[C@@H](C(F)(F)F)O2
REMARK SMILES IDX 18 1 17 2 15 3 16 4 14 6 6 7 7 8 11 9 8 10 10 11 12 12 9 13
REMARK SMILES IDX 77 14 13 15 72 16 5 17 4 18 2 19 1 20 3 21 73 22 74 23 75 24
REMARK SMILES IDX 76 25 19 26 20 27 21 28 22 29 23 31 24 32 25 33 71 34 26 35
REMARK SMILES IDX 70 36 27 37 28 38 29 39 64 40 30 41 69 42 63 43 65 44 31 45
REMARK SMILES IDX 68 46 62 47 61 48 32 50 54 51 39 52 53 53 40 54 43 55 52 56
REMARK SMILES IDX 66 57 41 58 42 59 51 61 67 62 44 63 33 64 34 65 38 66 35 67
REMARK SMILES IDX 37 68 36 69 55 70 56 71 60 72 57 73 59 74 58 75 45 76 46 77
REMARK SMILES IDX 50 78 47 79 49 80 48 81
REMARK H PARENT 17 5 21 30 65 49 43 60
REMARK Flexibility Score: inf
ROOT
ATOM      1  C   UNL A   1      36.470  20.584  25.011  1.00  0.00     0.118 C 
ENDROOT
BRANCH   1   2
ATOM      2  N   UNL A   1      35.313  19.706  24.921  1.00  0.00    -0.352 N 
ATOM      3  C   UNL A   1      33.966  19.832  24.918  1.00  0.00     0.251 C 
ATOM      4  O   UNL A   1      33.344  18.768  24.840  1.00  0.00    -0.270 OA
ATOM      5  H   UNL A   1      35.585  18.764  24.840  1.00  0.00     0.163 HD
BRANCH   3   6
ATOM      6  C   UNL A   1      33.219  21.121  25.004  1.00  0.00     0.067 C 
ATOM      7  C   UNL A   1      31.119  25.592  23.920  1.00  0.00     0.030 A 
ATOM      8  C   UNL A   1      31.044  24.699  25.002  1.00  0.00     0.063 A 
ATOM      9  C   UNL A   1      31.831  25.192  22.778  1.00  0.00     0.055 A 
ATOM     10  C   UNL A   1      31.726  23.484  24.976  1.00  0.00     0.129 A 
ATOM     11  C   UNL A   1      32.527  23.973  22.764  1.00  0.00     0.033 A 
ATOM     12  Cl  UNL A   1      31.858  26.106  21.311  1.00  0.00    -0.083 Cl
ATOM     13  C   UNL A   1      32.485  23.121  23.869  1.00  0.00     0.019 A 
ATOM     14  O   UNL A   1      31.568  22.674  26.062  1.00  0.00    -0.475 OA
ATOM     15  C   UNL A   1      33.176  21.839  23.867  1.00  0.00     0.025 C 
ATOM     16  C   UNL A   1      32.572  21.640  26.258  1.00  0.00     0.314 C 
BRANCH   7  17
ATOM     17  S   UNL A   1      30.236  27.132  24.151  1.00  0.00    -0.124 SA
BRANCH  17  18
ATOM     18  C   UNL A   1      31.463  28.226  24.963  1.00  0.00     0.078 C 
BRANCH  18  19
ATOM     19  C   UNL A   1      32.225  27.672  26.182  1.00  0.00    -0.007 C 
ATOM     20  C   UNL A   1      33.721  27.990  26.189  1.00  0.00     0.008 C 
ATOM     21  C   UNL A   1      31.596  28.262  27.452  1.00  0.00     0.008 C 
ENDBRANCH  18  19
ENDBRANCH  17  18
ENDBRANCH   7  17
BRANCH  16  22
ATOM     22  C   UNL A   1      33.591  22.138  27.300  1.00  0.00     0.429 C 
ATOM     23  F   UNL A   1      34.397  21.120  27.693  1.00  0.00    -0.167 F 
ATOM     24  F   UNL A   1      34.405  23.106  26.817  1.00  0.00    -0.167 F 
ATOM     25  F   UNL A   1      32.999  22.640  28.407  1.00  0.00    -0.167 F 
ENDBRANCH  16  22
ENDBRANCH   3   6
ENDBRANCH   1   2
BRANCH   1  26
ATOM     26  C   UNL A   1      37.774  19.829  24.804  1.00  0.00     0.042 C 
BRANCH  26  27
ATOM     27  C   UNL A   1      38.875  20.300  25.746  1.00  0.00     0.118 C 
BRANCH  27  28
ATOM     28  N   UNL A   1      39.995  19.363  25.798  1.00  0.00    -0.352 N 
ATOM     29  C   UNL A   1      41.328  19.571  26.057  1.00  0.00     0.251 C 
ATOM     30  H   UNL A   1      39.754  18.426  25.618  1.00  0.00     0.163 HD
ATOM     31  O   UNL A   1      42.141  18.681  25.818  1.00  0.00    -0.269 OA
BRANCH  29  32
ATOM     32  C   UNL A   1      41.793  20.862  26.604  1.00  0.00     0.039 A 
ATOM     33  C   UNL A   1      41.838  21.069  27.981  1.00  0.00     0.014 A 
ATOM     34  C   UNL A   1      42.208  21.874  25.733  1.00  0.00     0.014 A 
ATOM     35  C   UNL A   1      42.099  22.337  28.480  1.00  0.00     0.010 A 
ATOM     36  C   UNL A   1      42.586  23.120  26.245  1.00  0.00     0.010 A 
ATOM     37  C   UNL A   1      42.487  23.378  27.619  1.00  0.00    -0.014 A 
BRANCH  37  38
ATOM     38  C   UNL A   1      42.794  24.712  28.199  1.00  0.00     0.031 A 
ATOM     39  C   UNL A   1      44.213  25.128  28.468  1.00  0.00     0.074 A 
ATOM     40  C   UNL A   1      41.782  25.580  28.402  1.00  0.00     0.049 A 
ATOM     41  N   UNL A   1      44.658  26.275  28.919  1.00  0.00    -0.248 NA
ATOM     42  C   UNL A   1      45.275  24.143  28.201  1.00  0.00     0.031 C 
ATOM     43  C   UNL A   1      40.366  25.297  28.152  1.00  0.00     0.029 A 
ATOM     44  N   UNL A   1      41.788  26.889  28.813  1.00  0.00    -0.354 N 
ATOM     45  C   UNL A   1      46.039  26.140  29.009  1.00  0.00     0.074 A 
ATOM     46  C   UNL A   1      46.362  24.796  28.588  1.00  0.00     0.031 C 
ATOM     47  C   UNL A   1      39.654  26.418  28.331  1.00  0.00     0.029 A 
ATOM     48  C   UNL A   1      40.545  27.476  28.790  1.00  0.00     0.049 A 
ATOM     49  H   UNL A   1      42.603  27.362  29.099  1.00  0.00     0.167 HD
ATOM     50  C   UNL A   1      46.951  27.061  29.397  1.00  0.00     0.031 A 
ATOM     51  C   UNL A   1      40.158  28.726  29.109  1.00  0.00     0.031 A 
ATOM     52  C   UNL A   1      46.627  28.406  29.791  1.00  0.00     0.049 A 
ATOM     53  C   UNL A   1      41.190  29.707  29.584  1.00  0.00     0.074 A 
ATOM     54  C   UNL A   1      47.491  29.414  30.186  1.00  0.00     0.029 A 
ATOM     55  N   UNL A   1      45.348  28.934  29.833  1.00  0.00    -0.354 N 
ATOM     56  N   UNL A   1      42.489  29.559  29.664  1.00  0.00    -0.248 NA
ATOM     57  C   UNL A   1      40.703  31.023  30.021  1.00  0.00     0.031 C 
ATOM     58  C   UNL A   1      46.729  30.534  30.521  1.00  0.00     0.029 A 
ATOM     59  C   UNL A   1      45.397  30.246  30.272  1.00  0.00     0.049 A 
ATOM     60  H   UNL A   1      44.527  28.450  29.587  1.00  0.00     0.167 HD
ATOM     61  C   UNL A   1      42.977  30.765  30.150  1.00  0.00     0.074 A 
ATOM     62  C   UNL A   1      41.837  31.641  30.321  1.00  0.00     0.031 C 
ATOM     63  C   UNL A   1      44.256  31.108  30.436  1.00  0.00     0.031 A 
BRANCH  50  64
ATOM     64  C   UNL A   1      48.401  26.663  29.429  1.00  0.00    -0.014 A 
ATOM     65  C   UNL A   1      48.951  26.140  30.610  1.00  0.00     0.009 A 
ATOM     66  C   UNL A   1      49.249  26.924  28.342  1.00  0.00     0.009 A 
ATOM     67  C   UNL A   1      50.324  25.909  30.712  1.00  0.00     0.001 A 
ATOM     68  C   UNL A   1      50.618  26.669  28.438  1.00  0.00     0.001 A 
ATOM     69  C   UNL A   1      51.156  26.173  29.627  1.00  0.00     0.000 A 
ENDBRANCH  50  64
BRANCH  51  70
ATOM     70  C   UNL A   1      38.726  29.109  28.993  1.00  0.00    -0.014 A 
ATOM     71  C   UNL A   1      38.215  29.613  27.785  1.00  0.00     0.009 A 
ATOM     72  C   UNL A   1      37.867  29.006  30.098  1.00  0.00     0.009 A 
ATOM     73  C   UNL A   1      36.885  30.028  27.691  1.00  0.00     0.001 A 
ATOM     74  C   UNL A   1      36.527  29.388  29.992  1.00  0.00     0.001 A 
ATOM     75  C   UNL A   1      36.041  29.909  28.793  1.00  0.00     0.000 A 
ENDBRANCH  51  70
BRANCH  63  76
ATOM     76  C   UNL A   1      44.507  32.494  30.952  1.00  0.00    -0.014 A 
ATOM     77  C   UNL A   1      44.803  33.531  30.051  1.00  0.00     0.009 A 
ATOM     78  C   UNL A   1      44.551  32.755  32.330  1.00  0.00     0.009 A 
ATOM     79  C   UNL A   1      45.151  34.797  30.520  1.00  0.00     0.001 A 
ATOM     80  C   UNL A   1      44.872  34.031  32.795  1.00  0.00     0.001 A 
ATOM     81  C   UNL A   1      45.182  35.048  31.891  1.00  0.00     0.000 A 
ENDBRANCH  63  76
ENDBRANCH  37  38
ENDBRANCH  29  32
ENDBRANCH  27  28
ENDBRANCH  26  27
ENDBRANCH   1  26
TORSDOF 14
ENDMDL
MODEL 2
REMARK VINA RESULT:     -11.8      0.471      5.920
REMARK SMILES CC(C)CSc1cc2c(cc1Cl)C=C(C(=O)NCCCNC(=O)c1ccc(-c3c4nc(c(-c5ccccc5)c5ccc([nH]5)c(-c5ccccc5)c5nc(c(-c6ccccc6)c6ccc3[nH]6)C=C5)C=C4)cc1)[C@@H](C(F)(F)F)O2
REMARK SMILES IDX 18 1 17 2 15 3 16 4 14 6 6 7 7 8 11 9 8 10 10 11 12 12 9 13
REMARK SMILES IDX 77 14 13 15 72 16 5 17 4 18 2 19 1 20 3 21 73 22 74 23 75 24
REMARK SMILES IDX 76 25 19 26 20 27 21 28 22 29 23 31 24 32 25 33 71 34 26 35
REMARK SMILES IDX 70 36 27 37 28 38 29 39 64 40 30 41 69 42 63 43 65 44 31 45
REMARK SMILES IDX 68 46 62 47 61 48 32 50 54 51 39 52 53 53 40 54 43 55 52 56
REMARK SMILES IDX 66 57 41 58 42 59 51 61 67 62 44 63 33 64 34 65 38 66 35 67
REMARK SMILES IDX 37 68 36 69 55 70 56 71 60 72 57 73 59 74 58 75 45 76 46 77
REMARK SMILES IDX 50 78 47 79 49 80 48 81
REMARK H PARENT 17 5 21 30 65 49 43 60
REMARK Flexibility Score: inf
ROOT
ATOM      1  C   UNL A   1      36.482  20.456  25.084  1.00  0.00     0.118 C 
ENDROOT
BRANCH   1   2
ATOM      2  N   UNL A   1      35.308  19.604  24.960  1.00  0.00    -0.352 N 
ATOM      3  C   UNL A   1      33.967  19.763  24.890  1.00  0.00     0.251 C 
ATOM      4  O   UNL A   1      33.322  18.713  24.808  1.00  0.00    -0.270 OA
ATOM      5  H   UNL A   1      35.559  18.654  24.916  1.00  0.00     0.163 HD
BRANCH   3   6
ATOM      6  C   UNL A   1      33.250  21.071  24.908  1.00  0.00     0.067 C 
ATOM      7  C   UNL A   1      31.270  25.537  23.596  1.00  0.00     0.030 A 
ATOM      8  C   UNL A   1      31.160  24.695  24.715  1.00  0.00     0.063 A 
ATOM      9  C   UNL A   1      31.987  25.069  22.483  1.00  0.00     0.055 A 
ATOM     10  C   UNL A   1      31.813  23.465  24.754  1.00  0.00     0.129 A 
ATOM     11  C   UNL A   1      32.654  23.835  22.533  1.00  0.00     0.033 A 
ATOM     12  Cl  UNL A   1      32.055  25.915  20.977  1.00  0.00    -0.083 Cl
ATOM     13  C   UNL A   1      32.578  23.035  23.675  1.00  0.00     0.019 A 
ATOM     14  O   UNL A   1      31.623  22.708  25.873  1.00  0.00    -0.475 OA
ATOM     15  C   UNL A   1      33.238  21.739  23.739  1.00  0.00     0.025 C 
ATOM     16  C   UNL A   1      32.599  21.661  26.128  1.00  0.00     0.314 C 
BRANCH   7  17
ATOM     17  S   UNL A   1      30.422  27.105  23.746  1.00  0.00    -0.124 SA
BRANCH  17  18
ATOM     18  C   UNL A   1      31.632  28.181  24.608  1.00  0.00     0.078 C 
BRANCH  18  19
ATOM     19  C   UNL A   1      33.123  27.813  24.501  1.00  0.00    -0.007 C 
ATOM     20  C   UNL A   1      33.877  28.551  23.394  1.00  0.00     0.008 C 
ATOM     21  C   UNL A   1      33.796  28.132  25.844  1.00  0.00     0.008 C 
ENDBRANCH  18  19
ENDBRANCH  17  18
ENDBRANCH   7  17
BRANCH  16  22
ATOM     22  C   UNL A   1      33.616  22.182  27.161  1.00  0.00     0.429 C 
ATOM     23  F   UNL A   1      32.970  22.736  28.218  1.00  0.00    -0.167 F 
ATOM     24  F   UNL A   1      34.401  21.201  27.665  1.00  0.00    -0.167 F 
ATOM     25  F   UNL A   1      34.442  23.122  26.650  1.00  0.00    -0.167 F 
ENDBRANCH  16  22
ENDBRANCH   3   6
ENDBRANCH   1   2
BRANCH   1  26
ATOM     26  C   UNL A   1      37.773  19.677  24.887  1.00  0.00     0.042 C 
BRANCH  26  27
ATOM     27  C   UNL A   1      38.924  20.239  25.714  1.00  0.00     0.118 C 
BRANCH  27  28
ATOM     28  N   UNL A   1      40.036  19.297  25.822  1.00  0.00    -0.352 N 
ATOM     29  C   UNL A   1      41.371  19.510  26.069  1.00  0.00     0.251 C 
ATOM     30  H   UNL A   1      39.788  18.353  25.697  1.00  0.00     0.163 HD
ATOM     31  O   UNL A   1      42.177  18.601  25.884  1.00  0.00    -0.269 OA
BRANCH  29  32
ATOM     32  C   UNL A   1      41.845  20.828  26.540  1.00  0.00     0.039 A 
ATOM     33  C   UNL A   1      41.849  21.130  27.900  1.00  0.00     0.014 A 
ATOM     34  C   UNL A   1      42.311  21.766  25.615  1.00  0.00     0.014 A 
ATOM     35  C   UNL A   1      42.121  22.426  28.317  1.00  0.00     0.010 A 
ATOM     36  C   UNL A   1      42.699  23.038  26.050  1.00  0.00     0.010 A 
ATOM     37  C   UNL A   1      42.560  23.395  27.399  1.00  0.00    -0.014 A 
BRANCH  37  38
ATOM     38  C   UNL A   1      42.877  24.760  27.894  1.00  0.00     0.031 A 
ATOM     39  C   UNL A   1      41.786  25.765  28.142  1.00  0.00     0.074 A 
ATOM     40  C   UNL A   1      44.157  25.059  28.201  1.00  0.00     0.049 A 
ATOM     41  N   UNL A   1      41.885  26.979  28.624  1.00  0.00    -0.248 NA
ATOM     42  C   UNL A   1      40.406  25.367  27.812  1.00  0.00     0.031 C 
ATOM     43  C   UNL A   1      45.297  24.155  28.027  1.00  0.00     0.029 A 
ATOM     44  N   UNL A   1      44.708  26.180  28.767  1.00  0.00    -0.354 N 
ATOM     45  C   UNL A   1      40.593  27.492  28.634  1.00  0.00     0.074 A 
ATOM     46  C   UNL A   1      39.727  26.472  28.090  1.00  0.00     0.031 C 
ATOM     47  C   UNL A   1      46.392  24.721  28.555  1.00  0.00     0.029 A 
ATOM     48  C   UNL A   1      46.053  26.058  29.026  1.00  0.00     0.049 A 
ATOM     49  H   UNL A   1      44.192  26.993  28.968  1.00  0.00     0.167 HD
ATOM     50  C   UNL A   1      40.172  28.702  29.069  1.00  0.00     0.031 A 
ATOM     51  C   UNL A   1      46.924  26.926  29.574  1.00  0.00     0.031 A 
ATOM     52  C   UNL A   1      41.034  29.706  29.633  1.00  0.00     0.049 A 
ATOM     53  C   UNL A   1      46.431  28.279  30.000  1.00  0.00     0.074 A 
ATOM     54  C   UNL A   1      40.690  30.958  30.114  1.00  0.00     0.029 A 
ATOM     55  N   UNL A   1      42.402  29.573  29.800  1.00  0.00    -0.354 N 
ATOM     56  N   UNL A   1      45.207  28.745  29.997  1.00  0.00    -0.248 NA
ATOM     57  C   UNL A   1      47.440  29.227  30.493  1.00  0.00     0.031 C 
ATOM     58  C   UNL A   1      41.858  31.604  30.520  1.00  0.00     0.029 A 
ATOM     59  C   UNL A   1      42.921  30.731  30.353  1.00  0.00     0.049 A 
ATOM     60  H   UNL A   1      42.927  28.776  29.561  1.00  0.00     0.167 HD
ATOM     61  C   UNL A   1      45.295  30.038  30.498  1.00  0.00     0.074 A 
ATOM     62  C   UNL A   1      46.689  30.271  30.818  1.00  0.00     0.031 C 
ATOM     63  C   UNL A   1      44.308  30.949  30.668  1.00  0.00     0.031 A 
BRANCH  50  64
ATOM     64  C   UNL A   1      38.709  29.035  28.954  1.00  0.00    -0.014 A 
ATOM     65  C   UNL A   1      38.220  29.613  27.773  1.00  0.00     0.009 A 
ATOM     66  C   UNL A   1      37.847  28.898  30.052  1.00  0.00     0.009 A 
ATOM     67  C   UNL A   1      36.904  30.071  27.698  1.00  0.00     0.001 A 
ATOM     68  C   UNL A   1      36.523  29.334  29.967  1.00  0.00     0.001 A 
ATOM     69  C   UNL A   1      36.056  29.931  28.796  1.00  0.00     0.000 A 
ENDBRANCH  50  64
BRANCH  51  70
ATOM     70  C   UNL A   1      48.349  26.537  29.743  1.00  0.00    -0.014 A 
ATOM     71  C   UNL A   1      48.781  25.890  30.913  1.00  0.00     0.009 A 
ATOM     72  C   UNL A   1      49.295  26.838  28.751  1.00  0.00     0.009 A 
ATOM     73  C   UNL A   1      50.129  25.576  31.099  1.00  0.00     0.001 A 
ATOM     74  C   UNL A   1      50.637  26.491  28.923  1.00  0.00     0.001 A 
ATOM     75  C   UNL A   1      51.054  25.871  30.100  1.00  0.00     0.000 A 
ENDBRANCH  51  70
BRANCH  63  76
ATOM     76  C   UNL A   1      44.684  32.285  31.239  1.00  0.00    -0.014 A 
ATOM     77  C   UNL A   1      44.620  32.494  32.627  1.00  0.00     0.009 A 
ATOM     78  C   UNL A   1      45.003  33.365  30.401  1.00  0.00     0.009 A 
ATOM     79  C   UNL A   1      44.855  33.760  33.162  1.00  0.00     0.001 A 
ATOM     80  C   UNL A   1      45.266  34.624  30.944  1.00  0.00     0.001 A 
ATOM     81  C   UNL A   1      45.181  34.823  32.321  1.00  0.00     0.000 A 
ENDBRANCH  63  76
ENDBRANCH  37  38
ENDBRANCH  29  32
ENDBRANCH  27  28
ENDBRANCH  26  27
ENDBRANCH   1  26
TORSDOF 14
ENDMDL
MODEL 3
REMARK VINA RESULT:     -11.7      1.675      2.264
REMARK SMILES CC(C)CSc1cc2c(cc1Cl)C=C(C(=O)NCCCNC(=O)c1ccc(-c3c4nc(c(-c5ccccc5)c5ccc([nH]5)c(-c5ccccc5)c5nc(c(-c6ccccc6)c6ccc3[nH]6)C=C5)C=C4)cc1)[C@@H](C(F)(F)F)O2
REMARK SMILES IDX 18 1 17 2 15 3 16 4 14 6 6 7 7 8 11 9 8 10 10 11 12 12 9 13
REMARK SMILES IDX 77 14 13 15 72 16 5 17 4 18 2 19 1 20 3 21 73 22 74 23 75 24
REMARK SMILES IDX 76 25 19 26 20 27 21 28 22 29 23 31 24 32 25 33 71 34 26 35
REMARK SMILES IDX 70 36 27 37 28 38 29 39 64 40 30 41 69 42 63 43 65 44 31 45
REMARK SMILES IDX 68 46 62 47 61 48 32 50 54 51 39 52 53 53 40 54 43 55 52 56
REMARK SMILES IDX 66 57 41 58 42 59 51 61 67 62 44 63 33 64 34 65 38 66 35 67
REMARK SMILES IDX 37 68 36 69 55 70 56 71 60 72 57 73 59 74 58 75 45 76 46 77
REMARK SMILES IDX 50 78 47 79 49 80 48 81
REMARK H PARENT 17 5 21 30 65 49 43 60
REMARK Flexibility Score: inf
ROOT
ATOM      1  C   UNL A   1      36.841  20.748  24.666  1.00  0.00     0.118 C 
ENDROOT
BRANCH   1   2
ATOM      2  N   UNL A   1      35.772  20.772  25.654  1.00  0.00    -0.352 N 
ATOM      3  C   UNL A   1      34.709  21.554  25.951  1.00  0.00     0.251 C 
ATOM      4  O   UNL A   1      34.055  21.192  26.935  1.00  0.00    -0.270 OA
ATOM      5  H   UNL A   1      35.843  20.012  26.276  1.00  0.00     0.163 HD
BRANCH   3   6
ATOM      6  C   UNL A   1      34.298  22.774  25.199  1.00  0.00     0.067 C 
ATOM      7  C   UNL A   1      33.201  27.541  23.912  1.00  0.00     0.030 A 
ATOM      8  C   UNL A   1      33.328  26.330  23.212  1.00  0.00     0.063 A 
ATOM      9  C   UNL A   1      33.546  27.558  25.274  1.00  0.00     0.055 A 
ATOM     10  C   UNL A   1      33.704  25.160  23.867  1.00  0.00     0.129 A 
ATOM     11  C   UNL A   1      33.910  26.372  25.931  1.00  0.00     0.033 A 
ATOM     12  Cl  UNL A   1      33.612  29.006  26.216  1.00  0.00    -0.083 Cl
ATOM     13  C   UNL A   1      33.978  25.167  25.230  1.00  0.00     0.019 A 
ATOM     14  O   UNL A   1      33.825  24.041  23.094  1.00  0.00    -0.475 OA
ATOM     15  C   UNL A   1      34.381  23.930  25.883  1.00  0.00     0.025 C 
ATOM     16  C   UNL A   1      33.786  22.762  23.785  1.00  0.00     0.314 C 
BRANCH   7  17
ATOM     17  S   UNL A   1      32.645  28.928  22.928  1.00  0.00    -0.124 SA
BRANCH  17  18
ATOM     18  C   UNL A   1      30.906  29.173  23.454  1.00  0.00     0.078 C 
BRANCH  18  19
ATOM     19  C   UNL A   1      29.853  28.172  22.942  1.00  0.00    -0.007 C 
ATOM     20  C   UNL A   1      29.670  26.939  23.828  1.00  0.00     0.008 C 
ATOM     21  C   UNL A   1      28.505  28.901  22.838  1.00  0.00     0.008 C 
ENDBRANCH  18  19
ENDBRANCH  17  18
ENDBRANCH   7  17
BRANCH  16  22
ATOM     22  C   UNL A   1      32.363  22.184  23.664  1.00  0.00     0.429 C 
ATOM     23  F   UNL A   1      32.413  20.905  23.214  1.00  0.00    -0.167 F 
ATOM     24  F   UNL A   1      31.709  22.147  24.849  1.00  0.00    -0.167 F 
ATOM     25  F   UNL A   1      31.587  22.887  22.809  1.00  0.00    -0.167 F 
ENDBRANCH  16  22
ENDBRANCH   3   6
ENDBRANCH   1   2
BRANCH   1  26
ATOM     26  C   UNL A   1      37.881  19.684  24.979  1.00  0.00     0.042 C 
BRANCH  26  27
ATOM     27  C   UNL A   1      39.049  20.232  25.791  1.00  0.00     0.118 C 
BRANCH  27  28
ATOM     28  N   UNL A   1      40.157  19.284  25.873  1.00  0.00    -0.352 N 
ATOM     29  C   UNL A   1      41.497  19.487  26.102  1.00  0.00     0.251 C 
ATOM     30  H   UNL A   1      39.902  18.343  25.744  1.00  0.00     0.163 HD
ATOM     31  O   UNL A   1      42.295  18.576  25.896  1.00  0.00    -0.269 OA
BRANCH  29  32
ATOM     32  C   UNL A   1      41.985  20.798  26.578  1.00  0.00     0.039 A 
ATOM     33  C   UNL A   1      42.061  21.069  27.942  1.00  0.00     0.014 A 
ATOM     34  C   UNL A   1      42.394  21.762  25.652  1.00  0.00     0.014 A 
ATOM     35  C   UNL A   1      42.345  22.357  28.374  1.00  0.00     0.010 A 
ATOM     36  C   UNL A   1      42.794  23.027  26.095  1.00  0.00     0.010 A 
ATOM     37  C   UNL A   1      42.726  23.351  27.457  1.00  0.00    -0.014 A 
BRANCH  37  38
ATOM     38  C   UNL A   1      43.058  24.707  27.967  1.00  0.00     0.031 A 
ATOM     39  C   UNL A   1      44.488  25.155  28.093  1.00  0.00     0.074 A 
ATOM     40  C   UNL A   1      42.052  25.565  28.234  1.00  0.00     0.049 A 
ATOM     41  N   UNL A   1      44.950  26.323  28.467  1.00  0.00    -0.248 NA
ATOM     42  C   UNL A   1      45.540  24.179  27.760  1.00  0.00     0.031 C 
ATOM     43  C   UNL A   1      40.625  25.250  28.123  1.00  0.00     0.029 A 
ATOM     44  N   UNL A   1      42.071  26.886  28.604  1.00  0.00    -0.354 N 
ATOM     45  C   UNL A   1      46.336  26.214  28.435  1.00  0.00     0.074 A 
ATOM     46  C   UNL A   1      46.645  24.863  28.027  1.00  0.00     0.031 C 
ATOM     47  C   UNL A   1      39.911  26.365  28.332  1.00  0.00     0.029 A 
ATOM     48  C   UNL A   1      40.820  27.452  28.676  1.00  0.00     0.049 A 
ATOM     49  H   UNL A   1      42.898  27.381  28.800  1.00  0.00     0.167 HD
ATOM     50  C   UNL A   1      47.261  27.161  28.710  1.00  0.00     0.031 A 
ATOM     51  C   UNL A   1      40.439  28.704  28.991  1.00  0.00     0.031 A 
ATOM     52  C   UNL A   1      46.948  28.513  29.092  1.00  0.00     0.049 A 
ATOM     53  C   UNL A   1      41.490  29.717  29.340  1.00  0.00     0.074 A 
ATOM     54  C   UNL A   1      47.825  29.546  29.376  1.00  0.00     0.029 A 
ATOM     55  N   UNL A   1      45.668  29.020  29.234  1.00  0.00    -0.354 N 
ATOM     56  N   UNL A   1      42.795  29.593  29.307  1.00  0.00    -0.248 NA
ATOM     57  C   UNL A   1      41.020  31.038  29.780  1.00  0.00     0.031 C 
ATOM     58  C   UNL A   1      47.075  30.664  29.745  1.00  0.00     0.029 A 
ATOM     59  C   UNL A   1      45.731  30.346  29.627  1.00  0.00     0.049 A 
ATOM     60  H   UNL A   1      44.838  28.516  29.078  1.00  0.00     0.167 HD
ATOM     61  C   UNL A   1      43.301  30.821  29.710  1.00  0.00     0.074 A 
ATOM     62  C   UNL A   1      42.164  31.684  29.958  1.00  0.00     0.031 C 
ATOM     63  C   UNL A   1      44.593  31.194  29.868  1.00  0.00     0.031 A 
BRANCH  50  64
ATOM     64  C   UNL A   1      48.716  26.789  28.622  1.00  0.00    -0.014 A 
ATOM     65  C   UNL A   1      49.374  26.850  27.384  1.00  0.00     0.009 A 
ATOM     66  C   UNL A   1      49.395  26.257  29.728  1.00  0.00     0.009 A 
ATOM     67  C   UNL A   1      50.675  26.365  27.247  1.00  0.00     0.001 A 
ATOM     68  C   UNL A   1      50.706  25.794  29.594  1.00  0.00     0.001 A 
ATOM     69  C   UNL A   1      51.341  25.837  28.352  1.00  0.00     0.000 A 
ENDBRANCH  50  64
BRANCH  51  70
ATOM     70  C   UNL A   1      38.995  29.060  28.995  1.00  0.00    -0.014 A 
ATOM     71  C   UNL A   1      38.217  28.885  30.151  1.00  0.00     0.009 A 
ATOM     72  C   UNL A   1      38.377  29.548  27.834  1.00  0.00     0.009 A 
ATOM     73  C   UNL A   1      36.849  29.164  30.140  1.00  0.00     0.001 A 
ATOM     74  C   UNL A   1      37.015  29.861  27.834  1.00  0.00     0.001 A 
ATOM     75  C   UNL A   1      36.251  29.658  28.983  1.00  0.00     0.000 A 
ENDBRANCH  51  70
BRANCH  63  76
ATOM     76  C   UNL A   1      44.863  32.600  30.317  1.00  0.00    -0.014 A 
ATOM     77  C   UNL A   1      45.050  33.613  29.362  1.00  0.00     0.009 A 
ATOM     78  C   UNL A   1      45.034  32.904  31.676  1.00  0.00     0.009 A 
ATOM     79  C   UNL A   1      45.415  34.900  29.759  1.00  0.00     0.001 A 
ATOM     80  C   UNL A   1      45.371  34.200  32.071  1.00  0.00     0.001 A 
ATOM     81  C   UNL A   1      45.571  35.193  31.113  1.00  0.00     0.000 A 
ENDBRANCH  63  76
ENDBRANCH  37  38
ENDBRANCH  29  32
ENDBRANCH  27  28
ENDBRANCH  26  27
ENDBRANCH   1  26
TORSDOF 14
ENDMDL
