MODEL 1
REMARK VINA RESULT:     -10.9      0.000      0.000
REMARK SMILES CCN(C(=O)c1ccccc1C(=O)NCCCNC(=O)c1ccc(-c2c3nc(c(-c4ccccc4)c4ccc([nH]4)c(-c4ccccc4)c4nc(c(-c5ccccc5)c5ccc2[nH]5)C=C4)C=C3)cc1)[C@H](CCO)c1ccccc1
REMARK SMILES IDX 12 1 13 2 14 3 11 5 6 6 7 7 8 8 10 9 9 10 4 11 5 12 3 13
REMARK SMILES IDX 2 14 1 15 69 16 73 17 74 18 78 19 75 20 77 21 76 22 70 23
REMARK SMILES IDX 71 24 72 25 15 27 16 28 17 29 18 30 19 31 20 33 21 34 22 35
REMARK SMILES IDX 68 36 23 37 67 38 24 39 25 40 26 41 61 42 27 43 66 44 60 45
REMARK SMILES IDX 62 46 28 47 65 48 59 49 58 50 29 52 51 53 36 54 50 55 37 56
REMARK SMILES IDX 40 57 49 58 63 59 38 60 39 61 48 63 64 64 41 65 30 66 31 67
REMARK SMILES IDX 35 68 32 69 34 70 33 71 52 72 53 73 57 74 54 75 56 76 55 77
REMARK SMILES IDX 42 78 43 79 47 80 44 81 46 82 45 83
REMARK H PARENT 14 4 72 26 18 32 62 51 40 62
REMARK Flexibility Score: inf
ROOT
ATOM      1  C   UNL A   1      31.989  28.741  23.678  1.00  0.00     0.252 C 
ATOM      2  O   UNL A   1      32.793  28.484  22.778  1.00  0.00    -0.269 OA
ATOM      3  N   UNL A   1      32.353  29.707  24.586  1.00  0.00    -0.352 N 
ATOM      4  H   UNL A   1      33.283  30.024  24.527  1.00  0.00     0.163 HD
ENDROOT
BRANCH   1   5
ATOM      5  C   UNL A   1      30.753  27.906  23.760  1.00  0.00     0.052 A 
ATOM      6  C   UNL A   1      30.543  26.698  24.444  1.00  0.00     0.052 A 
ATOM      7  C   UNL A   1      29.260  26.098  24.441  1.00  0.00     0.014 A 
ATOM      8  C   UNL A   1      28.179  26.698  23.806  1.00  0.00     0.001 A 
ATOM      9  C   UNL A   1      29.633  28.499  23.131  1.00  0.00     0.014 A 
ATOM     10  C   UNL A   1      28.365  27.907  23.153  1.00  0.00     0.001 A 
BRANCH   6  11
ATOM     11  C   UNL A   1      31.541  25.899  25.185  1.00  0.00     0.255 C 
ATOM     12  O   UNL A   1      31.831  26.388  26.273  1.00  0.00    -0.269 OA
BRANCH  11  13
ATOM     13  N   UNL A   1      32.110  24.745  24.631  1.00  0.00    -0.332 N 
BRANCH  13  14
ATOM     14  C   UNL A   1      31.328  23.482  24.686  1.00  0.00     0.117 C 
ATOM     15  C   UNL A   1      31.434  22.668  25.969  1.00  0.00     0.027 C 
ENDBRANCH  13  14
BRANCH  13  16
ATOM     16  C   UNL A   1      33.337  24.792  23.752  1.00  0.00     0.118 C 
BRANCH  16  17
ATOM     17  C   UNL A   1      34.701  24.184  24.197  1.00  0.00    -0.025 A 
ATOM     18  C   UNL A   1      35.364  23.311  23.312  1.00  0.00     0.006 A 
ATOM     19  C   UNL A   1      35.334  24.379  25.433  1.00  0.00     0.006 A 
ATOM     20  C   UNL A   1      36.601  22.728  23.629  1.00  0.00     0.000 A 
ATOM     21  C   UNL A   1      36.575  23.815  25.756  1.00  0.00     0.000 A 
ATOM     22  C   UNL A   1      37.215  22.990  24.848  1.00  0.00     0.000 A 
ENDBRANCH  16  17
BRANCH  16  23
ATOM     23  C   UNL A   1      33.104  24.507  22.227  1.00  0.00     0.058 C 
BRANCH  23  24
ATOM     24  C   UNL A   1      32.350  25.528  21.374  1.00  0.00     0.158 C 
BRANCH  24  25
ATOM     25  O   UNL A   1      33.250  26.295  20.581  1.00  0.00    -0.396 OA
ATOM     26  H   UNL A   1      33.842  26.800  21.159  1.00  0.00     0.210 HD
ENDBRANCH  24  25
ENDBRANCH  23  24
ENDBRANCH  16  23
ENDBRANCH  13  16
ENDBRANCH  11  13
ENDBRANCH   6  11
ENDBRANCH   1   5
BRANCH   3  27
ATOM     27  C   UNL A   1      31.549  30.313  25.607  1.00  0.00     0.118 C 
BRANCH  27  28
ATOM     28  C   UNL A   1      32.230  30.654  26.928  1.00  0.00     0.042 C 
BRANCH  28  29
ATOM     29  C   UNL A   1      33.134  31.895  27.019  1.00  0.00     0.118 C 
BRANCH  29  30
ATOM     30  N   UNL A   1      32.665  33.029  27.802  1.00  0.00    -0.352 N 
ATOM     31  C   UNL A   1      33.302  33.991  28.554  1.00  0.00     0.251 C 
ATOM     32  H   UNL A   1      31.685  33.129  27.792  1.00  0.00     0.163 HD
ATOM     33  O   UNL A   1      32.745  35.064  28.785  1.00  0.00    -0.269 OA
BRANCH  31  34
ATOM     34  C   UNL A   1      34.601  33.751  29.187  1.00  0.00     0.039 A 
ATOM     35  C   UNL A   1      34.648  32.879  30.288  1.00  0.00     0.014 A 
ATOM     36  C   UNL A   1      35.761  34.337  28.706  1.00  0.00     0.014 A 
ATOM     37  C   UNL A   1      35.874  32.503  30.825  1.00  0.00     0.010 A 
ATOM     38  C   UNL A   1      36.982  33.873  29.155  1.00  0.00     0.010 A 
ATOM     39  C   UNL A   1      37.047  32.945  30.208  1.00  0.00    -0.014 A 
BRANCH  39  40
ATOM     40  C   UNL A   1      38.387  32.477  30.614  1.00  0.00     0.031 A 
ATOM     41  C   UNL A   1      38.928  31.234  29.971  1.00  0.00     0.074 A 
ATOM     42  C   UNL A   1      38.996  33.058  31.663  1.00  0.00     0.049 A 
ATOM     43  N   UNL A   1      39.888  30.447  30.372  1.00  0.00    -0.248 NA
ATOM     44  C   UNL A   1      38.235  30.778  28.752  1.00  0.00     0.031 C 
ATOM     45  C   UNL A   1      38.519  34.245  32.379  1.00  0.00     0.029 A 
ATOM     46  N   UNL A   1      40.135  32.702  32.336  1.00  0.00    -0.354 N 
ATOM     47  C   UNL A   1      39.865  29.366  29.499  1.00  0.00     0.074 A 
ATOM     48  C   UNL A   1      38.776  29.582  28.573  1.00  0.00     0.031 C 
ATOM     49  C   UNL A   1      39.367  34.528  33.380  1.00  0.00     0.029 A 
ATOM     50  C   UNL A   1      40.411  33.513  33.411  1.00  0.00     0.049 A 
ATOM     51  H   UNL A   1      40.700  31.941  32.075  1.00  0.00     0.167 HD
ATOM     52  C   UNL A   1      40.690  28.295  29.476  1.00  0.00     0.031 A 
ATOM     53  C   UNL A   1      41.391  33.422  34.328  1.00  0.00     0.031 A 
ATOM     54  C   UNL A   1      41.799  28.142  30.375  1.00  0.00     0.049 A 
ATOM     55  C   UNL A   1      42.349  32.270  34.224  1.00  0.00     0.074 A 
ATOM     56  C   UNL A   1      42.756  27.147  30.413  1.00  0.00     0.029 A 
ATOM     57  N   UNL A   1      42.109  29.043  31.386  1.00  0.00    -0.354 N 
ATOM     58  N   UNL A   1      42.339  31.264  33.380  1.00  0.00    -0.248 NA
ATOM     59  C   UNL A   1      43.456  32.243  35.187  1.00  0.00     0.031 C 
ATOM     60  C   UNL A   1      43.640  27.439  31.458  1.00  0.00     0.029 A 
ATOM     61  C   UNL A   1      43.250  28.634  32.047  1.00  0.00     0.049 A 
ATOM     62  H   UNL A   1      41.592  29.854  31.599  1.00  0.00     0.167 HD
ATOM     63  C   UNL A   1      43.452  30.497  33.692  1.00  0.00     0.074 A 
ATOM     64  C   UNL A   1      44.121  31.165  34.794  1.00  0.00     0.031 C 
ATOM     65  C   UNL A   1      43.885  29.343  33.128  1.00  0.00     0.031 A 
BRANCH  52  66
ATOM     66  C   UNL A   1      40.410  27.232  28.451  1.00  0.00    -0.014 A 
ATOM     67  C   UNL A   1      39.598  26.125  28.751  1.00  0.00     0.009 A 
ATOM     68  C   UNL A   1      40.979  27.326  27.171  1.00  0.00     0.009 A 
ATOM     69  C   UNL A   1      39.408  25.109  27.812  1.00  0.00     0.001 A 
ATOM     70  C   UNL A   1      40.761  26.323  26.223  1.00  0.00     0.001 A 
ATOM     71  C   UNL A   1      39.987  25.209  26.548  1.00  0.00     0.000 A 
ENDBRANCH  52  66
BRANCH  53  72
ATOM     72  C   UNL A   1      41.529  34.455  35.387  1.00  0.00    -0.014 A 
ATOM     73  C   UNL A   1      40.907  34.275  36.632  1.00  0.00     0.009 A 
ATOM     74  C   UNL A   1      42.293  35.613  35.175  1.00  0.00     0.009 A 
ATOM     75  C   UNL A   1      41.020  35.245  37.631  1.00  0.00     0.001 A 
ATOM     76  C   UNL A   1      42.426  36.570  36.185  1.00  0.00     0.001 A 
ATOM     77  C   UNL A   1      41.783  36.389  37.409  1.00  0.00     0.000 A 
ENDBRANCH  53  72
BRANCH  65  78
ATOM     78  C   UNL A   1      45.159  28.769  33.668  1.00  0.00    -0.014 A 
ATOM     79  C   UNL A   1      46.403  29.150  33.147  1.00  0.00     0.009 A 
ATOM     80  C   UNL A   1      45.107  27.875  34.748  1.00  0.00     0.009 A 
ATOM     81  C   UNL A   1      47.577  28.624  33.685  1.00  0.00     0.001 A 
ATOM     82  C   UNL A   1      46.284  27.370  35.300  1.00  0.00     0.001 A 
ATOM     83  C   UNL A   1      47.516  27.739  34.762  1.00  0.00     0.000 A 
ENDBRANCH  65  78
ENDBRANCH  39  40
ENDBRANCH  31  34
ENDBRANCH  29  30
ENDBRANCH  28  29
ENDBRANCH  27  28
ENDBRANCH   3  27
TORSDOF 18
ENDMDL
MODEL 2
REMARK VINA RESULT:     -10.9      4.421      9.304
REMARK SMILES CCN(C(=O)c1ccccc1C(=O)NCCCNC(=O)c1ccc(-c2c3nc(c(-c4ccccc4)c4ccc([nH]4)c(-c4ccccc4)c4nc(c(-c5ccccc5)c5ccc2[nH]5)C=C4)C=C3)cc1)[C@H](CCO)c1ccccc1
REMARK SMILES IDX 12 1 13 2 14 3 11 5 6 6 7 7 8 8 10 9 9 10 4 11 5 12 3 13
REMARK SMILES IDX 2 14 1 15 69 16 73 17 74 18 78 19 75 20 77 21 76 22 70 23
REMARK SMILES IDX 71 24 72 25 15 27 16 28 17 29 18 30 19 31 20 33 21 34 22 35
REMARK SMILES IDX 68 36 23 37 67 38 24 39 25 40 26 41 61 42 27 43 66 44 60 45
REMARK SMILES IDX 62 46 28 47 65 48 59 49 58 50 29 52 51 53 36 54 50 55 37 56
REMARK SMILES IDX 40 57 49 58 63 59 38 60 39 61 48 63 64 64 41 65 30 66 31 67
REMARK SMILES IDX 35 68 32 69 34 70 33 71 52 72 53 73 57 74 54 75 56 76 55 77
REMARK SMILES IDX 42 78 43 79 47 80 44 81 46 82 45 83
REMARK H PARENT 14 4 72 26 18 32 62 51 40 62
REMARK Flexibility Score: inf
ROOT
ATOM      1  C   UNL A   1      34.598  21.648  25.741  1.00  0.00     0.252 C 
ATOM      2  O   UNL A   1      34.191  22.304  26.703  1.00  0.00    -0.269 OA
ATOM      3  N   UNL A   1      35.904  21.219  25.782  1.00  0.00    -0.352 N 
ATOM      4  H   UNL A   1      36.453  21.584  26.513  1.00  0.00     0.163 HD
ENDROOT
BRANCH   1   5
ATOM      5  C   UNL A   1      33.673  21.475  24.580  1.00  0.00     0.052 A 
ATOM      6  C   UNL A   1      33.342  22.388  23.567  1.00  0.00     0.052 A 
ATOM      7  C   UNL A   1      32.481  21.994  22.514  1.00  0.00     0.014 A 
ATOM      8  C   UNL A   1      31.979  20.701  22.432  1.00  0.00     0.001 A 
ATOM      9  C   UNL A   1      33.155  20.163  24.467  1.00  0.00     0.014 A 
ATOM     10  C   UNL A   1      32.322  19.780  23.409  1.00  0.00     0.001 A 
BRANCH   6  11
ATOM     11  C   UNL A   1      33.767  23.799  23.454  1.00  0.00     0.255 C 
ATOM     12  O   UNL A   1      34.941  23.918  23.112  1.00  0.00    -0.269 OA
BRANCH  11  13
ATOM     13  N   UNL A   1      32.900  24.851  23.774  1.00  0.00    -0.332 N 
BRANCH  13  14
ATOM     14  C   UNL A   1      32.299  25.628  22.659  1.00  0.00     0.117 C 
ATOM     15  C   UNL A   1      33.245  26.506  21.851  1.00  0.00     0.027 C 
ENDBRANCH  13  14
BRANCH  13  16
ATOM     16  C   UNL A   1      32.344  25.044  25.165  1.00  0.00     0.118 C 
BRANCH  16  17
ATOM     17  C   UNL A   1      32.515  26.379  25.949  1.00  0.00    -0.025 A 
ATOM     18  C   UNL A   1      33.775  27.010  25.928  1.00  0.00     0.006 A 
ATOM     19  C   UNL A   1      31.540  27.014  26.732  1.00  0.00     0.006 A 
ATOM     20  C   UNL A   1      34.012  28.221  26.597  1.00  0.00     0.000 A 
ATOM     21  C   UNL A   1      31.760  28.229  27.394  1.00  0.00     0.000 A 
ATOM     22  C   UNL A   1      33.000  28.840  27.321  1.00  0.00     0.000 A 
ENDBRANCH  16  17
BRANCH  16  23
ATOM     23  C   UNL A   1      30.910  24.460  25.422  1.00  0.00     0.058 C 
BRANCH  23  24
ATOM     24  C   UNL A   1      30.708  23.404  26.510  1.00  0.00     0.158 C 
BRANCH  24  25
ATOM     25  O   UNL A   1      29.537  23.673  27.273  1.00  0.00    -0.396 OA
ATOM     26  H   UNL A   1      28.756  23.599  26.703  1.00  0.00     0.210 HD
ENDBRANCH  24  25
ENDBRANCH  23  24
ENDBRANCH  16  23
ENDBRANCH  13  16
ENDBRANCH  11  13
ENDBRANCH   6  11
ENDBRANCH   1   5
BRANCH   3  27
ATOM     27  C   UNL A   1      36.568  20.308  24.896  1.00  0.00     0.118 C 
BRANCH  27  28
ATOM     28  C   UNL A   1      38.093  20.309  24.900  1.00  0.00     0.042 C 
BRANCH  28  29
ATOM     29  C   UNL A   1      38.851  19.366  25.850  1.00  0.00     0.118 C 
BRANCH  29  30
ATOM     30  N   UNL A   1      40.214  18.992  25.501  1.00  0.00    -0.352 N 
ATOM     31  C   UNL A   1      41.452  19.402  25.943  1.00  0.00     0.251 C 
ATOM     32  H   UNL A   1      40.260  18.302  24.800  1.00  0.00     0.163 HD
ATOM     33  O   UNL A   1      42.432  18.672  25.798  1.00  0.00    -0.269 OA
BRANCH  31  34
ATOM     34  C   UNL A   1      41.678  20.738  26.501  1.00  0.00     0.039 A 
ATOM     35  C   UNL A   1      41.901  20.846  27.884  1.00  0.00     0.014 A 
ATOM     36  C   UNL A   1      41.703  21.864  25.695  1.00  0.00     0.014 A 
ATOM     37  C   UNL A   1      42.269  22.069  28.434  1.00  0.00     0.010 A 
ATOM     38  C   UNL A   1      42.186  23.049  26.215  1.00  0.00     0.010 A 
ATOM     39  C   UNL A   1      42.484  23.157  27.584  1.00  0.00    -0.014 A 
BRANCH  39  40
ATOM     40  C   UNL A   1      43.020  24.448  28.059  1.00  0.00     0.031 A 
ATOM     41  C   UNL A   1      42.046  25.522  28.440  1.00  0.00     0.074 A 
ATOM     42  C   UNL A   1      44.340  24.686  27.961  1.00  0.00     0.049 A 
ATOM     43  N   UNL A   1      42.238  26.807  28.558  1.00  0.00    -0.248 NA
ATOM     44  C   UNL A   1      40.649  25.095  28.635  1.00  0.00     0.031 C 
ATOM     45  C   UNL A   1      45.358  23.711  27.556  1.00  0.00     0.029 A 
ATOM     46  N   UNL A   1      45.051  25.840  28.161  1.00  0.00    -0.354 N 
ATOM     47  C   UNL A   1      40.976  27.349  28.768  1.00  0.00     0.074 A 
ATOM     48  C   UNL A   1      40.026  26.260  28.724  1.00  0.00     0.031 C 
ATOM     49  C   UNL A   1      46.562  24.305  27.552  1.00  0.00     0.029 A 
ATOM     50  C   UNL A   1      46.394  25.709  27.898  1.00  0.00     0.049 A 
ATOM     51  H   UNL A   1      44.639  26.681  28.463  1.00  0.00     0.167 HD
ATOM     52  C   UNL A   1      40.649  28.643  28.984  1.00  0.00     0.031 A 
ATOM     53  C   UNL A   1      47.368  26.636  27.915  1.00  0.00     0.031 A 
ATOM     54  C   UNL A   1      41.626  29.691  29.080  1.00  0.00     0.049 A 
ATOM     55  C   UNL A   1      46.990  28.051  28.249  1.00  0.00     0.074 A 
ATOM     56  C   UNL A   1      41.440  31.029  29.369  1.00  0.00     0.029 A 
ATOM     57  N   UNL A   1      42.991  29.498  28.913  1.00  0.00    -0.354 N 
ATOM     58  N   UNL A   1      45.798  28.554  28.472  1.00  0.00    -0.248 NA
ATOM     59  C   UNL A   1      48.085  29.023  28.343  1.00  0.00     0.031 C 
ATOM     60  C   UNL A   1      42.694  31.650  29.363  1.00  0.00     0.029 A 
ATOM     61  C   UNL A   1      43.662  30.690  29.104  1.00  0.00     0.049 A 
ATOM     62  H   UNL A   1      43.418  28.639  28.691  1.00  0.00     0.167 HD
ATOM     63  C   UNL A   1      46.000  29.895  28.758  1.00  0.00     0.074 A 
ATOM     64  C   UNL A   1      47.433  30.122  28.695  1.00  0.00     0.031 C 
ATOM     65  C   UNL A   1      45.091  30.859  29.045  1.00  0.00     0.031 A 
BRANCH  52  66
ATOM     66  C   UNL A   1      39.189  28.970  29.127  1.00  0.00    -0.014 A 
ATOM     67  C   UNL A   1      38.416  29.357  28.020  1.00  0.00     0.009 A 
ATOM     68  C   UNL A   1      38.579  28.910  30.390  1.00  0.00     0.009 A 
ATOM     69  C   UNL A   1      37.079  29.728  28.182  1.00  0.00     0.001 A 
ATOM     70  C   UNL A   1      37.233  29.252  30.544  1.00  0.00     0.001 A 
ATOM     71  C   UNL A   1      36.488  29.674  29.443  1.00  0.00     0.000 A 
ENDBRANCH  52  66
BRANCH  53  72
ATOM     72  C   UNL A   1      48.778  26.251  27.645  1.00  0.00    -0.014 A 
ATOM     73  C   UNL A   1      49.286  26.316  26.338  1.00  0.00     0.009 A 
ATOM     74  C   UNL A   1      49.628  25.836  28.681  1.00  0.00     0.009 A 
ATOM     75  C   UNL A   1      50.606  25.946  26.070  1.00  0.00     0.001 A 
ATOM     76  C   UNL A   1      50.956  25.491  28.413  1.00  0.00     0.001 A 
ATOM     77  C   UNL A   1      51.442  25.538  27.107  1.00  0.00     0.000 A 
ENDBRANCH  53  72
BRANCH  65  78
ATOM     78  C   UNL A   1      45.632  32.222  29.351  1.00  0.00    -0.014 A 
ATOM     79  C   UNL A   1      46.070  32.554  30.641  1.00  0.00     0.009 A 
ATOM     80  C   UNL A   1      45.751  33.164  28.318  1.00  0.00     0.009 A 
ATOM     81  C   UNL A   1      46.596  33.820  30.896  1.00  0.00     0.001 A 
ATOM     82  C   UNL A   1      46.300  34.420  28.571  1.00  0.00     0.001 A 
ATOM     83  C   UNL A   1      46.715  34.748  29.861  1.00  0.00     0.000 A 
ENDBRANCH  65  78
ENDBRANCH  39  40
ENDBRANCH  31  34
ENDBRANCH  29  30
ENDBRANCH  28  29
ENDBRANCH  27  28
ENDBRANCH   3  27
TORSDOF 18
ENDMDL
MODEL 3
REMARK VINA RESULT:     -10.8      4.335      9.015
REMARK SMILES CCN(C(=O)c1ccccc1C(=O)NCCCNC(=O)c1ccc(-c2c3nc(c(-c4ccccc4)c4ccc([nH]4)c(-c4ccccc4)c4nc(c(-c5ccccc5)c5ccc2[nH]5)C=C4)C=C3)cc1)[C@H](CCO)c1ccccc1
REMARK SMILES IDX 12 1 13 2 14 3 11 5 6 6 7 7 8 8 10 9 9 10 4 11 5 12 3 13
REMARK SMILES IDX 2 14 1 15 69 16 73 17 74 18 78 19 75 20 77 21 76 22 70 23
REMARK SMILES IDX 71 24 72 25 15 27 16 28 17 29 18 30 19 31 20 33 21 34 22 35
REMARK SMILES IDX 68 36 23 37 67 38 24 39 25 40 26 41 61 42 27 43 66 44 60 45
REMARK SMILES IDX 62 46 28 47 65 48 59 49 58 50 29 52 51 53 36 54 50 55 37 56
REMARK SMILES IDX 40 57 49 58 63 59 38 60 39 61 48 63 64 64 41 65 30 66 31 67
REMARK SMILES IDX 35 68 32 69 34 70 33 71 52 72 53 73 57 74 54 75 56 76 55 77
REMARK SMILES IDX 42 78 43 79 47 80 44 81 46 82 45 83
REMARK H PARENT 14 4 72 26 18 32 62 51 40 62
REMARK Flexibility Score: inf
ROOT
ATOM      1  C   UNL A   1      34.934  21.619  25.977  1.00  0.00     0.252 C 
ATOM      2  O   UNL A   1      34.487  21.886  27.096  1.00  0.00    -0.269 OA
ATOM      3  N   UNL A   1      36.295  21.713  25.808  1.00  0.00    -0.352 N 
ATOM      4  H   UNL A   1      36.794  22.117  26.555  1.00  0.00     0.163 HD
ENDROOT
BRANCH   1   5
ATOM      5  C   UNL A   1      33.951  21.327  24.890  1.00  0.00     0.052 A 
ATOM      6  C   UNL A   1      33.503  22.160  23.853  1.00  0.00     0.052 A 
ATOM      7  C   UNL A   1      32.604  21.658  22.881  1.00  0.00     0.014 A 
ATOM      8  C   UNL A   1      32.178  20.336  22.901  1.00  0.00     0.001 A 
ATOM      9  C   UNL A   1      33.508  19.983  24.881  1.00  0.00     0.014 A 
ATOM     10  C   UNL A   1      32.636  19.493  23.902  1.00  0.00     0.001 A 
BRANCH   6  11
ATOM     11  C   UNL A   1      33.833  23.585  23.638  1.00  0.00     0.255 C 
ATOM     12  O   UNL A   1      34.956  23.749  23.169  1.00  0.00    -0.269 OA
BRANCH  11  13
ATOM     13  N   UNL A   1      32.945  24.604  24.005  1.00  0.00    -0.332 N 
BRANCH  13  14
ATOM     14  C   UNL A   1      32.106  25.218  22.943  1.00  0.00     0.117 C 
ATOM     15  C   UNL A   1      32.815  25.612  21.655  1.00  0.00     0.027 C 
ENDBRANCH  13  14
BRANCH  13  16
ATOM     16  C   UNL A   1      32.612  24.904  25.448  1.00  0.00     0.118 C 
BRANCH  16  17
ATOM     17  C   UNL A   1      32.771  26.329  26.057  1.00  0.00    -0.025 A 
ATOM     18  C   UNL A   1      31.644  26.931  26.651  1.00  0.00     0.006 A 
ATOM     19  C   UNL A   1      33.931  27.116  26.038  1.00  0.00     0.006 A 
ATOM     20  C   UNL A   1      31.702  28.207  27.233  1.00  0.00     0.000 A 
ATOM     21  C   UNL A   1      34.006  28.385  26.627  1.00  0.00     0.000 A 
ATOM     22  C   UNL A   1      32.889  28.931  27.233  1.00  0.00     0.000 A 
ENDBRANCH  16  17
BRANCH  16  23
ATOM     23  C   UNL A   1      31.309  24.232  26.009  1.00  0.00     0.058 C 
BRANCH  23  24
ATOM     24  C   UNL A   1      31.418  23.186  27.120  1.00  0.00     0.158 C 
BRANCH  24  25
ATOM     25  O   UNL A   1      30.130  22.822  27.606  1.00  0.00    -0.396 OA
ATOM     26  H   UNL A   1      29.973  21.881  27.432  1.00  0.00     0.210 HD
ENDBRANCH  24  25
ENDBRANCH  23  24
ENDBRANCH  16  23
ENDBRANCH  13  16
ENDBRANCH  11  13
ENDBRANCH   6  11
ENDBRANCH   1   5
BRANCH   3  27
ATOM     27  C   UNL A   1      37.081  21.297  24.683  1.00  0.00     0.118 C 
BRANCH  27  28
ATOM     28  C   UNL A   1      37.978  20.077  24.865  1.00  0.00     0.042 C 
BRANCH  28  29
ATOM     29  C   UNL A   1      39.047  20.078  25.970  1.00  0.00     0.118 C 
BRANCH  29  30
ATOM     30  N   UNL A   1      40.250  19.284  25.761  1.00  0.00    -0.352 N 
ATOM     31  C   UNL A   1      41.561  19.427  26.156  1.00  0.00     0.251 C 
ATOM     32  H   UNL A   1      40.092  18.475  25.223  1.00  0.00     0.163 HD
ATOM     33  O   UNL A   1      42.302  18.446  26.206  1.00  0.00    -0.269 OA
BRANCH  31  34
ATOM     34  C   UNL A   1      42.154  20.739  26.430  1.00  0.00     0.039 A 
ATOM     35  C   UNL A   1      42.600  21.502  25.338  1.00  0.00     0.014 A 
ATOM     36  C   UNL A   1      42.250  21.236  27.720  1.00  0.00     0.014 A 
ATOM     37  C   UNL A   1      43.029  22.811  25.534  1.00  0.00     0.010 A 
ATOM     38  C   UNL A   1      42.557  22.570  27.903  1.00  0.00     0.010 A 
ATOM     39  C   UNL A   1      42.936  23.369  26.812  1.00  0.00    -0.014 A 
BRANCH  39  40
ATOM     40  C   UNL A   1      43.223  24.792  27.084  1.00  0.00     0.031 A 
ATOM     41  C   UNL A   1      44.657  25.224  27.151  1.00  0.00     0.074 A 
ATOM     42  C   UNL A   1      42.216  25.608  27.443  1.00  0.00     0.049 A 
ATOM     43  N   UNL A   1      45.173  26.295  27.688  1.00  0.00    -0.248 NA
ATOM     44  C   UNL A   1      45.649  24.278  26.606  1.00  0.00     0.031 C 
ATOM     45  C   UNL A   1      40.792  25.258  27.450  1.00  0.00     0.029 A 
ATOM     46  N   UNL A   1      42.242  26.895  27.910  1.00  0.00    -0.354 N 
ATOM     47  C   UNL A   1      46.549  26.117  27.614  1.00  0.00     0.074 A 
ATOM     48  C   UNL A   1      46.785  24.823  27.013  1.00  0.00     0.031 C 
ATOM     49  C   UNL A   1      40.080  26.310  27.884  1.00  0.00     0.029 A 
ATOM     50  C   UNL A   1      40.999  27.383  28.238  1.00  0.00     0.049 A 
ATOM     51  H   UNL A   1      43.069  27.420  28.001  1.00  0.00     0.167 HD
ATOM     52  C   UNL A   1      47.523  26.968  28.007  1.00  0.00     0.031 A 
ATOM     53  C   UNL A   1      40.655  28.562  28.786  1.00  0.00     0.031 A 
ATOM     54  C   UNL A   1      47.252  28.271  28.546  1.00  0.00     0.049 A 
ATOM     55  C   UNL A   1      41.753  29.528  29.130  1.00  0.00     0.074 A 
ATOM     56  C   UNL A   1      48.142  29.262  28.915  1.00  0.00     0.029 A 
ATOM     57  N   UNL A   1      45.975  28.772  28.764  1.00  0.00    -0.354 N 
ATOM     58  N   UNL A   1      43.053  29.365  29.033  1.00  0.00    -0.248 NA
ATOM     59  C   UNL A   1      41.343  30.838  29.648  1.00  0.00     0.031 C 
ATOM     60  C   UNL A   1      47.401  30.359  29.370  1.00  0.00     0.029 A 
ATOM     61  C   UNL A   1      46.051  30.062  29.252  1.00  0.00     0.049 A 
ATOM     62  H   UNL A   1      45.138  28.280  28.596  1.00  0.00     0.167 HD
ATOM     63  C   UNL A   1      43.616  30.560  29.453  1.00  0.00     0.074 A 
ATOM     64  C   UNL A   1      42.514  31.443  29.791  1.00  0.00     0.031 C 
ATOM     65  C   UNL A   1      44.923  30.904  29.557  1.00  0.00     0.031 A 
BRANCH  52  66
ATOM     66  C   UNL A   1      48.945  26.503  27.863  1.00  0.00    -0.014 A 
ATOM     67  C   UNL A   1      49.636  25.925  28.941  1.00  0.00     0.009 A 
ATOM     68  C   UNL A   1      49.612  26.660  26.638  1.00  0.00     0.009 A 
ATOM     69  C   UNL A   1      50.980  25.565  28.812  1.00  0.00     0.001 A 
ATOM     70  C   UNL A   1      50.946  26.269  26.502  1.00  0.00     0.001 A 
ATOM     71  C   UNL A   1      51.633  25.735  27.593  1.00  0.00     0.000 A 
ENDBRANCH  52  66
BRANCH  53  72
ATOM     72  C   UNL A   1      39.225  28.901  29.007  1.00  0.00    -0.014 A 
ATOM     73  C   UNL A   1      38.456  29.428  27.957  1.00  0.00     0.009 A 
ATOM     74  C   UNL A   1      38.612  28.687  30.251  1.00  0.00     0.009 A 
ATOM     75  C   UNL A   1      37.115  29.761  28.156  1.00  0.00     0.001 A 
ATOM     76  C   UNL A   1      37.263  28.998  30.440  1.00  0.00     0.001 A 
ATOM     77  C   UNL A   1      36.517  29.542  29.395  1.00  0.00     0.000 A 
ENDBRANCH  53  72
BRANCH  65  78
ATOM     78  C   UNL A   1      45.216  32.301  30.011  1.00  0.00    -0.014 A 
ATOM     79  C   UNL A   1      45.410  32.595  31.368  1.00  0.00     0.009 A 
ATOM     80  C   UNL A   1      45.350  33.321  29.058  1.00  0.00     0.009 A 
ATOM     81  C   UNL A   1      45.709  33.898  31.766  1.00  0.00     0.001 A 
ATOM     82  C   UNL A   1      45.674  34.617  29.456  1.00  0.00     0.001 A 
ATOM     83  C   UNL A   1      45.845  34.905  30.810  1.00  0.00     0.000 A 
ENDBRANCH  65  78
ENDBRANCH  39  40
ENDBRANCH  31  34
ENDBRANCH  29  30
ENDBRANCH  28  29
ENDBRANCH  27  28
ENDBRANCH   3  27
TORSDOF 18
ENDMDL
