MODEL 1
REMARK VINA RESULT:     -11.8      0.000      0.000
REMARK SMILES CCc1c(C(=O)NCCCNC(=O)c2ccc(-c3c4nc(c(-c5ccccc5)c5ccc([nH]5)c(-c5ccccc5)c5nc(c(-c6ccccc6)c6ccc3[nH]6)C=C5)C=C4)cc2)nnn1-c1ccc(OC)cc1
REMARK SMILES IDX 9 1 8 2 7 3 5 4 6 5 4 7 3 8 64 9 62 10 63 11 2 12 1 13 65 14
REMARK SMILES IDX 66 15 72 16 67 17 71 18 68 19 69 20 70 21 10 22 11 23 12 24
REMARK SMILES IDX 13 26 14 27 15 28 61 29 16 30 60 31 17 32 18 33 19 34 54 35
REMARK SMILES IDX 20 36 59 37 53 38 55 39 21 40 58 41 52 42 51 43 22 45 44 46
REMARK SMILES IDX 29 47 43 48 30 49 33 50 42 51 56 52 31 53 32 54 41 56 57 57
REMARK SMILES IDX 34 58 23 59 24 60 28 61 25 62 27 63 26 64 45 65 46 66 50 67
REMARK SMILES IDX 47 68 49 69 48 70 35 71 36 72 40 73 37 74 39 75 38 76
REMARK H PARENT 7 6 11 25 55 44 33 55
REMARK Flexibility Score: inf
ROOT
ATOM      1  C   UNL A   1      31.463  31.777  26.600  1.00  0.00     0.042 C 
ENDROOT
BRANCH   1   2
ATOM      2  C   UNL A   1      31.905  30.501  25.863  1.00  0.00     0.118 C 
BRANCH   2   3
ATOM      3  N   UNL A   1      31.016  30.169  24.784  1.00  0.00    -0.351 N 
ATOM      4  C   UNL A   1      30.760  29.012  24.101  1.00  0.00     0.273 C 
ATOM      5  O   UNL A   1      29.840  29.126  23.283  1.00  0.00    -0.267 OA
ATOM      6  H   UNL A   1      30.479  30.934  24.472  1.00  0.00     0.163 HD
BRANCH   4   7
ATOM      7  C   UNL A   1      31.459  27.725  24.262  1.00  0.00     0.174 A 
ATOM      8  C   UNL A   1      32.581  27.060  23.745  1.00  0.00     0.077 A 
ATOM      9  N   UNL A   1      32.620  25.874  24.488  1.00  0.00    -0.217 N 
ATOM     10  N   UNL A   1      30.830  26.848  25.137  1.00  0.00    -0.124 NA
ATOM     11  N   UNL A   1      31.480  25.706  25.168  1.00  0.00    -0.061 NA
BRANCH   8  12
ATOM     12  C   UNL A   1      33.567  27.249  22.637  1.00  0.00     0.055 C 
ATOM     13  C   UNL A   1      34.165  28.653  22.598  1.00  0.00     0.011 C 
ENDBRANCH   8  12
BRANCH   9  14
ATOM     14  C   UNL A   1      33.608  24.866  24.475  1.00  0.00     0.067 A 
ATOM     15  C   UNL A   1      33.508  23.830  23.545  1.00  0.00     0.032 A 
ATOM     16  C   UNL A   1      34.713  24.945  25.327  1.00  0.00     0.032 A 
ATOM     17  C   UNL A   1      34.577  22.943  23.402  1.00  0.00     0.048 A 
ATOM     18  C   UNL A   1      35.776  24.059  25.177  1.00  0.00     0.048 A 
ATOM     19  C   UNL A   1      35.722  23.066  24.199  1.00  0.00     0.119 A 
BRANCH  19  20
ATOM     20  O   UNL A   1      36.710  22.162  23.931  1.00  0.00    -0.497 OA
ATOM     21  C   UNL A   1      37.640  21.912  24.979  1.00  0.00     0.278 C 
ENDBRANCH  19  20
ENDBRANCH   9  14
ENDBRANCH   4   7
ENDBRANCH   2   3
ENDBRANCH   1   2
BRANCH   1  22
ATOM     22  C   UNL A   1      32.604  32.367  27.391  1.00  0.00     0.118 C 
BRANCH  22  23
ATOM     23  N   UNL A   1      32.423  33.819  27.607  1.00  0.00    -0.352 N 
ATOM     24  C   UNL A   1      33.024  34.658  28.541  1.00  0.00     0.251 C 
ATOM     25  H   UNL A   1      31.781  34.256  27.001  1.00  0.00     0.163 HD
ATOM     26  O   UNL A   1      32.573  35.755  28.801  1.00  0.00    -0.269 OA
BRANCH  24  27
ATOM     27  C   UNL A   1      34.254  34.169  29.181  1.00  0.00     0.039 A 
ATOM     28  C   UNL A   1      34.312  33.468  30.388  1.00  0.00     0.014 A 
ATOM     29  C   UNL A   1      35.372  34.293  28.390  1.00  0.00     0.014 A 
ATOM     30  C   UNL A   1      35.528  32.872  30.726  1.00  0.00     0.010 A 
ATOM     31  C   UNL A   1      36.248  33.270  28.468  1.00  0.00     0.010 A 
ATOM     32  C   UNL A   1      36.509  32.804  29.733  1.00  0.00    -0.014 A 
BRANCH  32  33
ATOM     33  C   UNL A   1      37.838  32.247  29.864  1.00  0.00     0.031 A 
ATOM     34  C   UNL A   1      37.970  30.855  29.396  1.00  0.00     0.074 A 
ATOM     35  C   UNL A   1      38.913  33.048  30.070  1.00  0.00     0.049 A 
ATOM     36  N   UNL A   1      38.153  29.812  30.128  1.00  0.00    -0.248 NA
ATOM     37  C   UNL A   1      37.727  30.564  27.976  1.00  0.00     0.031 C 
ATOM     38  C   UNL A   1      38.995  34.517  30.181  1.00  0.00     0.029 A 
ATOM     39  N   UNL A   1      40.219  32.698  30.084  1.00  0.00    -0.354 N 
ATOM     40  C   UNL A   1      38.257  28.746  29.245  1.00  0.00     0.074 A 
ATOM     41  C   UNL A   1      37.787  29.230  27.971  1.00  0.00     0.031 C 
ATOM     42  C   UNL A   1      40.273  34.922  29.996  1.00  0.00     0.029 A 
ATOM     43  C   UNL A   1      41.117  33.745  29.938  1.00  0.00     0.049 A 
ATOM     44  H   UNL A   1      40.513  31.763  30.192  1.00  0.00     0.167 HD
ATOM     45  C   UNL A   1      38.958  27.626  29.573  1.00  0.00     0.031 A 
ATOM     46  C   UNL A   1      42.455  33.632  29.749  1.00  0.00     0.031 A 
ATOM     47  C   UNL A   1      39.331  27.624  30.967  1.00  0.00     0.049 A 
ATOM     48  C   UNL A   1      42.834  32.269  30.213  1.00  0.00     0.074 A 
ATOM     49  C   UNL A   1      38.627  27.672  32.155  1.00  0.00     0.029 A 
ATOM     50  N   UNL A   1      40.608  28.043  31.273  1.00  0.00    -0.354 N 
ATOM     51  N   UNL A   1      42.723  31.894  31.459  1.00  0.00    -0.248 NA
ATOM     52  C   UNL A   1      42.808  31.187  29.236  1.00  0.00     0.031 C 
ATOM     53  C   UNL A   1      39.349  28.602  32.963  1.00  0.00     0.029 A 
ATOM     54  C   UNL A   1      40.495  28.988  32.265  1.00  0.00     0.049 A 
ATOM     55  H   UNL A   1      41.443  27.726  30.860  1.00  0.00     0.167 HD
ATOM     56  C   UNL A   1      42.181  30.615  31.404  1.00  0.00     0.074 A 
ATOM     57  C   UNL A   1      42.335  30.201  30.006  1.00  0.00     0.031 C 
ATOM     58  C   UNL A   1      41.375  30.132  32.399  1.00  0.00     0.031 A 
BRANCH  45  59
ATOM     59  C   UNL A   1      39.650  26.744  28.572  1.00  0.00    -0.014 A 
ATOM     60  C   UNL A   1      40.600  27.323  27.714  1.00  0.00     0.009 A 
ATOM     61  C   UNL A   1      39.217  25.443  28.262  1.00  0.00     0.009 A 
ATOM     62  C   UNL A   1      41.040  26.655  26.565  1.00  0.00     0.001 A 
ATOM     63  C   UNL A   1      39.684  24.758  27.138  1.00  0.00     0.001 A 
ATOM     64  C   UNL A   1      40.575  25.377  26.273  1.00  0.00     0.000 A 
ENDBRANCH  45  59
BRANCH  46  65
ATOM     65  C   UNL A   1      43.317  34.480  28.893  1.00  0.00    -0.014 A 
ATOM     66  C   UNL A   1      44.694  34.608  29.127  1.00  0.00     0.009 A 
ATOM     67  C   UNL A   1      42.819  34.981  27.672  1.00  0.00     0.009 A 
ATOM     68  C   UNL A   1      45.541  35.188  28.168  1.00  0.00     0.001 A 
ATOM     69  C   UNL A   1      43.661  35.558  26.715  1.00  0.00     0.001 A 
ATOM     70  C   UNL A   1      45.026  35.651  26.958  1.00  0.00     0.000 A 
ENDBRANCH  46  65
BRANCH  58  71
ATOM     71  C   UNL A   1      41.180  30.981  33.639  1.00  0.00    -0.014 A 
ATOM     72  C   UNL A   1      40.214  32.002  33.729  1.00  0.00     0.009 A 
ATOM     73  C   UNL A   1      41.856  30.618  34.813  1.00  0.00     0.009 A 
ATOM     74  C   UNL A   1      39.952  32.652  34.941  1.00  0.00     0.001 A 
ATOM     75  C   UNL A   1      41.584  31.255  36.028  1.00  0.00     0.001 A 
ATOM     76  C   UNL A   1      40.636  32.275  36.092  1.00  0.00     0.000 A 
ENDBRANCH  58  71
ENDBRANCH  32  33
ENDBRANCH  24  27
ENDBRANCH  22  23
ENDBRANCH   1  22
TORSDOF 13
ENDMDL
MODEL 2
REMARK VINA RESULT:     -11.2      5.034     10.275
REMARK SMILES CCc1c(C(=O)NCCCNC(=O)c2ccc(-c3c4nc(c(-c5ccccc5)c5ccc([nH]5)c(-c5ccccc5)c5nc(c(-c6ccccc6)c6ccc3[nH]6)C=C5)C=C4)cc2)nnn1-c1ccc(OC)cc1
REMARK SMILES IDX 9 1 8 2 7 3 5 4 6 5 4 7 3 8 64 9 62 10 63 11 2 12 1 13 65 14
REMARK SMILES IDX 66 15 72 16 67 17 71 18 68 19 69 20 70 21 10 22 11 23 12 24
REMARK SMILES IDX 13 26 14 27 15 28 61 29 16 30 60 31 17 32 18 33 19 34 54 35
REMARK SMILES IDX 20 36 59 37 53 38 55 39 21 40 58 41 52 42 51 43 22 45 44 46
REMARK SMILES IDX 29 47 43 48 30 49 33 50 42 51 56 52 31 53 32 54 41 56 57 57
REMARK SMILES IDX 34 58 23 59 24 60 28 61 25 62 27 63 26 64 45 65 46 66 50 67
REMARK SMILES IDX 47 68 49 69 48 70 35 71 36 72 40 73 37 74 39 75 38 76
REMARK H PARENT 7 6 11 25 55 44 33 55
REMARK Flexibility Score: inf
ROOT
ATOM      1  C   UNL A   1      44.342  22.318  25.990  1.00  0.00     0.042 C 
ENDROOT
BRANCH   1   2
ATOM      2  C   UNL A   1      45.447  21.942  24.989  1.00  0.00     0.118 C 
BRANCH   2   3
ATOM      3  N   UNL A   1      46.035  23.102  24.377  1.00  0.00    -0.351 N 
ATOM      4  C   UNL A   1      46.595  24.245  24.878  1.00  0.00     0.273 C 
ATOM      5  O   UNL A   1      47.074  24.974  24.001  1.00  0.00    -0.267 OA
ATOM      6  H   UNL A   1      46.034  23.066  23.393  1.00  0.00     0.163 HD
BRANCH   4   7
ATOM      7  C   UNL A   1      46.660  24.642  26.295  1.00  0.00     0.174 A 
ATOM      8  C   UNL A   1      45.920  25.396  27.218  1.00  0.00     0.077 A 
ATOM      9  N   UNL A   1      46.623  25.218  28.415  1.00  0.00    -0.217 N 
ATOM     10  N   UNL A   1      47.809  24.211  26.948  1.00  0.00    -0.124 NA
ATOM     11  N   UNL A   1      47.819  24.665  28.182  1.00  0.00    -0.061 NA
BRANCH   8  12
ATOM     12  C   UNL A   1      44.751  26.329  27.200  1.00  0.00     0.055 C 
ATOM     13  C   UNL A   1      43.946  26.258  25.905  1.00  0.00     0.011 C 
ENDBRANCH   8  12
BRANCH   9  14
ATOM     14  C   UNL A   1      46.272  25.658  29.709  1.00  0.00     0.067 A 
ATOM     15  C   UNL A   1      44.959  25.488  30.152  1.00  0.00     0.032 A 
ATOM     16  C   UNL A   1      47.244  26.183  30.566  1.00  0.00     0.032 A 
ATOM     17  C   UNL A   1      44.658  25.744  31.491  1.00  0.00     0.048 A 
ATOM     18  C   UNL A   1      46.935  26.434  31.901  1.00  0.00     0.048 A 
ATOM     19  C   UNL A   1      45.646  26.195  32.375  1.00  0.00     0.119 A 
BRANCH  19  20
ATOM     20  O   UNL A   1      45.230  26.368  33.665  1.00  0.00    -0.497 OA
ATOM     21  C   UNL A   1      45.775  27.482  34.361  1.00  0.00     0.278 C 
ENDBRANCH  19  20
ENDBRANCH   9  14
ENDBRANCH   4   7
ENDBRANCH   2   3
ENDBRANCH   1   2
BRANCH   1  22
ATOM     22  C   UNL A   1      43.034  22.573  25.282  1.00  0.00     0.118 C 
BRANCH  22  23
ATOM     23  N   UNL A   1      41.905  21.909  25.969  1.00  0.00    -0.352 N 
ATOM     24  C   UNL A   1      41.064  22.396  26.966  1.00  0.00     0.251 C 
ATOM     25  H   UNL A   1      41.723  20.986  25.679  1.00  0.00     0.163 HD
ATOM     26  O   UNL A   1      40.377  21.658  27.641  1.00  0.00    -0.269 OA
BRANCH  24  27
ATOM     27  C   UNL A   1      41.020  23.854  27.145  1.00  0.00     0.039 A 
ATOM     28  C   UNL A   1      40.059  24.706  26.595  1.00  0.00     0.014 A 
ATOM     29  C   UNL A   1      41.916  24.322  28.077  1.00  0.00     0.014 A 
ATOM     30  C   UNL A   1      40.025  26.021  27.061  1.00  0.00     0.010 A 
ATOM     31  C   UNL A   1      41.466  25.329  28.854  1.00  0.00     0.010 A 
ATOM     32  C   UNL A   1      40.772  26.319  28.204  1.00  0.00    -0.014 A 
BRANCH  32  33
ATOM     33  C   UNL A   1      40.895  27.608  28.848  1.00  0.00     0.031 A 
ATOM     34  C   UNL A   1      41.803  28.551  28.169  1.00  0.00     0.074 A 
ATOM     35  C   UNL A   1      39.996  28.012  29.779  1.00  0.00     0.049 A 
ATOM     36  N   UNL A   1      42.955  28.945  28.586  1.00  0.00    -0.248 NA
ATOM     37  C   UNL A   1      41.468  28.995  26.808  1.00  0.00     0.031 C 
ATOM     38  C   UNL A   1      38.794  27.329  30.298  1.00  0.00     0.029 A 
ATOM     39  N   UNL A   1      39.900  29.224  30.372  1.00  0.00    -0.354 N 
ATOM     40  C   UNL A   1      43.410  29.852  27.639  1.00  0.00     0.074 A 
ATOM     41  C   UNL A   1      42.561  29.688  26.485  1.00  0.00     0.031 C 
ATOM     42  C   UNL A   1      37.985  28.224  30.911  1.00  0.00     0.029 A 
ATOM     43  C   UNL A   1      38.687  29.490  30.989  1.00  0.00     0.049 A 
ATOM     44  H   UNL A   1      40.642  29.873  30.365  1.00  0.00     0.167 HD
ATOM     45  C   UNL A   1      44.284  30.841  27.974  1.00  0.00     0.031 A 
ATOM     46  C   UNL A   1      38.290  30.685  31.493  1.00  0.00     0.031 A 
ATOM     47  C   UNL A   1      44.813  30.653  29.303  1.00  0.00     0.049 A 
ATOM     48  C   UNL A   1      39.528  31.484  31.710  1.00  0.00     0.074 A 
ATOM     49  C   UNL A   1      45.530  29.648  29.924  1.00  0.00     0.029 A 
ATOM     50  N   UNL A   1      44.217  31.367  30.320  1.00  0.00    -0.354 N 
ATOM     51  N   UNL A   1      40.446  31.140  32.571  1.00  0.00    -0.248 NA
ATOM     52  C   UNL A   1      39.990  32.328  30.615  1.00  0.00     0.031 C 
ATOM     53  C   UNL A   1      44.906  29.494  31.198  1.00  0.00     0.029 A 
ATOM     54  C   UNL A   1      43.917  30.472  31.320  1.00  0.00     0.049 A 
ATOM     55  H   UNL A   1      44.040  32.335  30.329  1.00  0.00     0.167 HD
ATOM     56  C   UNL A   1      41.653  31.341  31.911  1.00  0.00     0.074 A 
ATOM     57  C   UNL A   1      41.311  32.155  30.741  1.00  0.00     0.031 C 
ATOM     58  C   UNL A   1      42.757  30.580  32.182  1.00  0.00     0.031 A 
BRANCH  45  59
ATOM     59  C   UNL A   1      44.351  32.173  27.282  1.00  0.00    -0.014 A 
ATOM     60  C   UNL A   1      43.774  33.286  27.914  1.00  0.00     0.009 A 
ATOM     61  C   UNL A   1      44.716  32.322  25.932  1.00  0.00     0.009 A 
ATOM     62  C   UNL A   1      43.513  34.466  27.208  1.00  0.00     0.001 A 
ATOM     63  C   UNL A   1      44.494  33.512  25.234  1.00  0.00     0.001 A 
ATOM     64  C   UNL A   1      43.865  34.575  25.866  1.00  0.00     0.000 A 
ENDBRANCH  45  59
BRANCH  46  65
ATOM     65  C   UNL A   1      36.928  31.267  31.461  1.00  0.00    -0.014 A 
ATOM     66  C   UNL A   1      36.344  31.845  32.598  1.00  0.00     0.009 A 
ATOM     67  C   UNL A   1      36.284  31.479  30.224  1.00  0.00     0.009 A 
ATOM     68  C   UNL A   1      35.179  32.624  32.497  1.00  0.00     0.001 A 
ATOM     69  C   UNL A   1      35.125  32.255  30.121  1.00  0.00     0.001 A 
ATOM     70  C   UNL A   1      34.578  32.839  31.257  1.00  0.00     0.000 A 
ENDBRANCH  46  65
BRANCH  58  71
ATOM     71  C   UNL A   1      42.676  29.578  33.317  1.00  0.00    -0.014 A 
ATOM     72  C   UNL A   1      42.954  29.909  34.658  1.00  0.00     0.009 A 
ATOM     73  C   UNL A   1      42.120  28.317  33.059  1.00  0.00     0.009 A 
ATOM     74  C   UNL A   1      42.709  29.003  35.697  1.00  0.00     0.001 A 
ATOM     75  C   UNL A   1      41.859  27.417  34.098  1.00  0.00     0.001 A 
ATOM     76  C   UNL A   1      42.158  27.758  35.416  1.00  0.00     0.000 A 
ENDBRANCH  58  71
ENDBRANCH  32  33
ENDBRANCH  24  27
ENDBRANCH  22  23
ENDBRANCH   1  22
TORSDOF 13
ENDMDL
MODEL 3
REMARK VINA RESULT:     -10.9      2.535      6.012
REMARK SMILES CCc1c(C(=O)NCCCNC(=O)c2ccc(-c3c4nc(c(-c5ccccc5)c5ccc([nH]5)c(-c5ccccc5)c5nc(c(-c6ccccc6)c6ccc3[nH]6)C=C5)C=C4)cc2)nnn1-c1ccc(OC)cc1
REMARK SMILES IDX 9 1 8 2 7 3 5 4 6 5 4 7 3 8 64 9 62 10 63 11 2 12 1 13 65 14
REMARK SMILES IDX 66 15 72 16 67 17 71 18 68 19 69 20 70 21 10 22 11 23 12 24
REMARK SMILES IDX 13 26 14 27 15 28 61 29 16 30 60 31 17 32 18 33 19 34 54 35
REMARK SMILES IDX 20 36 59 37 53 38 55 39 21 40 58 41 52 42 51 43 22 45 44 46
REMARK SMILES IDX 29 47 43 48 30 49 33 50 42 51 56 52 31 53 32 54 41 56 57 57
REMARK SMILES IDX 34 58 23 59 24 60 28 61 25 62 27 63 26 64 45 65 46 66 50 67
REMARK SMILES IDX 47 68 49 69 48 70 35 71 36 72 40 73 37 74 39 75 38 76
REMARK H PARENT 7 6 11 25 55 44 33 55
REMARK Flexibility Score: inf
ROOT
ATOM      1  C   UNL A   1      32.452  30.143  26.410  1.00  0.00     0.042 C 
ENDROOT
BRANCH   1   2
ATOM      2  C   UNL A   1      33.086  29.376  25.238  1.00  0.00     0.118 C 
BRANCH   2   3
ATOM      3  N   UNL A   1      32.256  29.405  24.065  1.00  0.00    -0.351 N 
ATOM      4  C   UNL A   1      31.893  28.456  23.149  1.00  0.00     0.273 C 
ATOM      5  O   UNL A   1      31.076  28.873  22.320  1.00  0.00    -0.267 OA
ATOM      6  H   UNL A   1      31.869  30.292  23.884  1.00  0.00     0.163 HD
BRANCH   4   7
ATOM      7  C   UNL A   1      32.377  27.066  23.086  1.00  0.00     0.174 A 
ATOM      8  C   UNL A   1      32.196  25.852  23.765  1.00  0.00     0.077 A 
ATOM      9  N   UNL A   1      32.971  24.952  23.024  1.00  0.00    -0.217 N 
ATOM     10  N   UNL A   1      33.346  26.850  22.114  1.00  0.00    -0.124 NA
ATOM     11  N   UNL A   1      33.768  25.607  22.172  1.00  0.00    -0.061 NA
BRANCH   8  12
ATOM     12  C   UNL A   1      31.532  25.371  25.016  1.00  0.00     0.055 C 
ATOM     13  C   UNL A   1      32.249  25.820  26.287  1.00  0.00     0.011 C 
ENDBRANCH   8  12
BRANCH   9  14
ATOM     14  C   UNL A   1      33.077  23.553  23.181  1.00  0.00     0.067 A 
ATOM     15  C   UNL A   1      34.069  23.037  24.017  1.00  0.00     0.032 A 
ATOM     16  C   UNL A   1      32.153  22.700  22.572  1.00  0.00     0.032 A 
ATOM     17  C   UNL A   1      34.054  21.675  24.323  1.00  0.00     0.048 A 
ATOM     18  C   UNL A   1      32.143  21.343  22.884  1.00  0.00     0.048 A 
ATOM     19  C   UNL A   1      33.081  20.828  23.778  1.00  0.00     0.119 A 
BRANCH  19  20
ATOM     20  O   UNL A   1      33.154  19.527  24.189  1.00  0.00    -0.497 OA
ATOM     21  C   UNL A   1      32.887  19.282  25.565  1.00  0.00     0.278 C 
ENDBRANCH  19  20
ENDBRANCH   9  14
ENDBRANCH   4   7
ENDBRANCH   2   3
ENDBRANCH   1   2
BRANCH   1  22
ATOM     22  C   UNL A   1      33.443  30.332  27.532  1.00  0.00     0.118 C 
BRANCH  22  23
ATOM     23  N   UNL A   1      33.972  31.713  27.564  1.00  0.00    -0.352 N 
ATOM     24  C   UNL A   1      35.160  32.195  28.107  1.00  0.00     0.251 C 
ATOM     25  H   UNL A   1      33.399  32.391  27.138  1.00  0.00     0.163 HD
ATOM     26  O   UNL A   1      35.332  33.378  28.323  1.00  0.00    -0.269 OA
BRANCH  24  27
ATOM     27  C   UNL A   1      36.215  31.209  28.381  1.00  0.00     0.039 A 
ATOM     28  C   UNL A   1      36.401  30.012  27.684  1.00  0.00     0.014 A 
ATOM     29  C   UNL A   1      37.155  31.645  29.284  1.00  0.00     0.014 A 
ATOM     30  C   UNL A   1      37.587  29.314  27.913  1.00  0.00     0.010 A 
ATOM     31  C   UNL A   1      38.425  31.278  29.015  1.00  0.00     0.010 A 
ATOM     32  C   UNL A   1      38.598  29.976  28.616  1.00  0.00    -0.014 A 
BRANCH  32  33
ATOM     33  C   UNL A   1      39.894  29.444  28.978  1.00  0.00     0.031 A 
ATOM     34  C   UNL A   1      40.091  29.236  30.425  1.00  0.00     0.074 A 
ATOM     35  C   UNL A   1      40.699  28.874  28.048  1.00  0.00     0.049 A 
ATOM     36  N   UNL A   1      40.862  29.914  31.201  1.00  0.00    -0.248 NA
ATOM     37  C   UNL A   1      39.232  28.266  31.120  1.00  0.00     0.031 C 
ATOM     38  C   UNL A   1      40.478  28.660  26.604  1.00  0.00     0.029 A 
ATOM     39  N   UNL A   1      41.869  28.225  28.247  1.00  0.00    -0.354 N 
ATOM     40  C   UNL A   1      40.746  29.328  32.454  1.00  0.00     0.074 A 
ATOM     41  C   UNL A   1      39.593  28.465  32.390  1.00  0.00     0.031 C 
ATOM     42  C   UNL A   1      41.345  27.730  26.140  1.00  0.00     0.029 A 
ATOM     43  C   UNL A   1      42.290  27.424  27.196  1.00  0.00     0.049 A 
ATOM     44  H   UNL A   1      42.386  28.315  29.081  1.00  0.00     0.167 HD
ATOM     45  C   UNL A   1      41.756  29.404  33.363  1.00  0.00     0.031 A 
ATOM     46  C   UNL A   1      43.326  26.548  27.221  1.00  0.00     0.031 A 
ATOM     47  C   UNL A   1      42.778  30.331  32.942  1.00  0.00     0.049 A 
ATOM     48  C   UNL A   1      44.196  26.957  28.357  1.00  0.00     0.074 A 
ATOM     49  C   UNL A   1      42.793  31.680  32.638  1.00  0.00     0.029 A 
ATOM     50  N   UNL A   1      43.892  29.800  32.328  1.00  0.00    -0.354 N 
ATOM     51  N   UNL A   1      44.830  28.098  28.383  1.00  0.00    -0.248 NA
ATOM     52  C   UNL A   1      43.929  26.367  29.664  1.00  0.00     0.031 C 
ATOM     53  C   UNL A   1      43.584  31.773  31.454  1.00  0.00     0.029 A 
ATOM     54  C   UNL A   1      44.084  30.502  31.162  1.00  0.00     0.049 A 
ATOM     55  H   UNL A   1      44.445  29.057  32.661  1.00  0.00     0.167 HD
ATOM     56  C   UNL A   1      44.654  28.580  29.675  1.00  0.00     0.074 A 
ATOM     57  C   UNL A   1      44.164  27.430  30.441  1.00  0.00     0.031 C 
ATOM     58  C   UNL A   1      44.612  29.921  29.943  1.00  0.00     0.031 A 
BRANCH  45  59
ATOM     59  C   UNL A   1      42.024  28.362  34.412  1.00  0.00    -0.014 A 
ATOM     60  C   UNL A   1      42.507  27.108  34.003  1.00  0.00     0.009 A 
ATOM     61  C   UNL A   1      41.572  28.471  35.739  1.00  0.00     0.009 A 
ATOM     62  C   UNL A   1      42.473  26.003  34.861  1.00  0.00     0.001 A 
ATOM     63  C   UNL A   1      41.573  27.380  36.611  1.00  0.00     0.001 A 
ATOM     64  C   UNL A   1      41.997  26.138  36.162  1.00  0.00     0.000 A 
ENDBRANCH  45  59
BRANCH  46  65
ATOM     65  C   UNL A   1      43.400  25.224  26.560  1.00  0.00    -0.014 A 
ATOM     66  C   UNL A   1      42.522  24.183  26.892  1.00  0.00     0.009 A 
ATOM     67  C   UNL A   1      44.192  25.060  25.405  1.00  0.00     0.009 A 
ATOM     68  C   UNL A   1      42.422  23.036  26.086  1.00  0.00     0.001 A 
ATOM     69  C   UNL A   1      44.094  23.919  24.601  1.00  0.00     0.001 A 
ATOM     70  C   UNL A   1      43.198  22.911  24.935  1.00  0.00     0.000 A 
ENDBRANCH  46  65
BRANCH  58  71
ATOM     71  C   UNL A   1      44.885  30.888  28.808  1.00  0.00    -0.014 A 
ATOM     72  C   UNL A   1      43.920  31.234  27.843  1.00  0.00     0.009 A 
ATOM     73  C   UNL A   1      46.084  31.615  28.822  1.00  0.00     0.009 A 
ATOM     74  C   UNL A   1      44.156  32.252  26.910  1.00  0.00     0.001 A 
ATOM     75  C   UNL A   1      46.314  32.643  27.902  1.00  0.00     0.001 A 
ATOM     76  C   UNL A   1      45.354  32.959  26.944  1.00  0.00     0.000 A 
ENDBRANCH  58  71
ENDBRANCH  32  33
ENDBRANCH  24  27
ENDBRANCH  22  23
ENDBRANCH   1  22
TORSDOF 13
ENDMDL
