MODEL 1
REMARK VINA RESULT:     -12.6      0.000      0.000
REMARK SMILES O=C(NCCCNC(=O)c1cccn1CC(=O)N1CC[C@H]2CCCC[C@H]2C1)c1ccc(-c2c3nc(c(-c4ccccc4)c4ccc([nH]4)c(-c4ccccc4)c4nc(c(-c5ccccc5)c5ccc2[nH]5)C=C4)C=C3)cc1
REMARK SMILES IDX 5 1 4 2 3 3 1 4 2 5 28 7 29 8 75 9 30 10 74 11 31 12 32 13
REMARK SMILES IDX 33 14 68 15 34 16 73 17 67 18 69 19 35 20 72 21 66 22 65 23
REMARK SMILES IDX 36 25 58 26 43 27 57 28 44 29 47 30 56 31 70 32 45 33 46 34
REMARK SMILES IDX 55 36 71 37 48 38 37 39 38 40 42 41 39 42 41 43 40 44 59 45
REMARK SMILES IDX 60 46 64 47 61 48 63 49 62 50 49 51 50 52 54 53 51 54 53 55
REMARK SMILES IDX 52 56 6 57 7 58 8 59 9 61 10 62 11 63 14 64 12 65 13 66
REMARK SMILES IDX 15 67 16 68 17 69 18 70 19 71 27 72 20 73 26 74 21 75 25 76
REMARK SMILES IDX 22 77 24 78 23 79
REMARK H PARENT 3 6 69 24 47 35 7 60
REMARK Flexibility Score: inf
ROOT
ATOM      1  C   UNL A   1      33.678  28.615  27.250  1.00  0.00     0.042 C 
ENDROOT
BRANCH   1   2
ATOM      2  C   UNL A   1      34.472  29.911  27.172  1.00  0.00     0.118 C 
BRANCH   2   3
ATOM      3  N   UNL A   1      34.762  30.555  28.434  1.00  0.00    -0.352 N 
ATOM      4  O   UNL A   1      35.904  31.565  30.055  1.00  0.00    -0.269 OA
ATOM      5  C   UNL A   1      35.922  30.736  29.144  1.00  0.00     0.251 C 
ATOM      6  H   UNL A   1      33.968  30.940  28.871  1.00  0.00     0.163 HD
BRANCH   5   7
ATOM      7  C   UNL A   1      37.153  29.923  28.947  1.00  0.00     0.039 A 
ATOM      8  C   UNL A   1      37.748  29.109  29.915  1.00  0.00     0.014 A 
ATOM      9  C   UNL A   1      37.738  29.997  27.670  1.00  0.00     0.014 A 
ATOM     10  C   UNL A   1      38.956  28.462  29.643  1.00  0.00     0.010 A 
ATOM     11  C   UNL A   1      38.926  29.328  27.380  1.00  0.00     0.010 A 
ATOM     12  C   UNL A   1      39.539  28.561  28.373  1.00  0.00    -0.014 A 
BRANCH  12  13
ATOM     13  C   UNL A   1      40.637  27.624  28.029  1.00  0.00     0.031 A 
ATOM     14  C   UNL A   1      41.993  28.363  27.949  1.00  0.00     0.074 A 
ATOM     15  C   UNL A   1      40.309  26.312  27.804  1.00  0.00     0.049 A 
ATOM     16  N   UNL A   1      43.094  28.024  27.351  1.00  0.00    -0.248 NA
ATOM     17  C   UNL A   1      42.139  29.698  28.602  1.00  0.00     0.031 C 
ATOM     18  C   UNL A   1      38.956  25.736  27.983  1.00  0.00     0.029 A 
ATOM     19  N   UNL A   1      41.018  25.201  27.384  1.00  0.00    -0.354 N 
ATOM     20  C   UNL A   1      44.082  28.982  27.684  1.00  0.00     0.074 A 
ATOM     21  C   UNL A   1      43.414  30.029  28.392  1.00  0.00     0.031 C 
ATOM     22  C   UNL A   1      38.924  24.437  27.602  1.00  0.00     0.029 A 
ATOM     23  C   UNL A   1      40.242  24.030  27.151  1.00  0.00     0.049 A 
ATOM     24  H   UNL A   1      41.994  25.218  27.255  1.00  0.00     0.167 HD
ATOM     25  C   UNL A   1      45.416  28.793  27.460  1.00  0.00     0.031 A 
ATOM     26  C   UNL A   1      40.619  22.834  26.598  1.00  0.00     0.031 A 
ATOM     27  C   UNL A   1      45.619  27.612  26.696  1.00  0.00     0.049 A 
ATOM     28  C   UNL A   1      42.077  22.908  26.450  1.00  0.00     0.074 A 
ATOM     29  C   UNL A   1      45.362  27.295  25.388  1.00  0.00     0.029 A 
ATOM     30  N   UNL A   1      45.833  26.462  27.409  1.00  0.00    -0.354 N 
ATOM     31  N   UNL A   1      42.924  22.800  27.427  1.00  0.00    -0.248 NA
ATOM     32  C   UNL A   1      42.647  23.147  25.118  1.00  0.00     0.031 C 
ATOM     33  C   UNL A   1      44.924  25.957  25.467  1.00  0.00     0.029 A 
ATOM     34  C   UNL A   1      45.143  25.472  26.762  1.00  0.00     0.049 A 
ATOM     35  H   UNL A   1      46.377  26.366  28.224  1.00  0.00     0.167 HD
ATOM     36  C   UNL A   1      44.050  23.363  26.886  1.00  0.00     0.074 A 
ATOM     37  C   UNL A   1      43.933  23.227  25.451  1.00  0.00     0.031 C 
ATOM     38  C   UNL A   1      44.671  24.366  27.555  1.00  0.00     0.031 A 
BRANCH  25  39
ATOM     39  C   UNL A   1      46.636  29.425  28.077  1.00  0.00    -0.014 A 
ATOM     40  C   UNL A   1      47.777  29.572  27.246  1.00  0.00     0.009 A 
ATOM     41  C   UNL A   1      46.835  29.539  29.455  1.00  0.00     0.009 A 
ATOM     42  C   UNL A   1      49.067  29.671  27.770  1.00  0.00     0.001 A 
ATOM     43  C   UNL A   1      48.128  29.685  29.981  1.00  0.00     0.001 A 
ATOM     44  C   UNL A   1      49.243  29.705  29.144  1.00  0.00     0.000 A 
ENDBRANCH  25  39
BRANCH  26  45
ATOM     45  C   UNL A   1      40.004  21.554  26.073  1.00  0.00    -0.014 A 
ATOM     46  C   UNL A   1      40.566  20.279  26.125  1.00  0.00     0.009 A 
ATOM     47  C   UNL A   1      38.681  21.609  25.538  1.00  0.00     0.009 A 
ATOM     48  C   UNL A   1      39.813  19.135  25.761  1.00  0.00     0.001 A 
ATOM     49  C   UNL A   1      37.915  20.483  25.226  1.00  0.00     0.001 A 
ATOM     50  C   UNL A   1      38.482  19.234  25.353  1.00  0.00     0.000 A 
ENDBRANCH  26  45
BRANCH  38  51
ATOM     51  C   UNL A   1      44.402  24.412  29.052  1.00  0.00    -0.014 A 
ATOM     52  C   UNL A   1      44.326  25.650  29.711  1.00  0.00     0.009 A 
ATOM     53  C   UNL A   1      44.336  23.257  29.854  1.00  0.00     0.009 A 
ATOM     54  C   UNL A   1      44.209  25.730  31.105  1.00  0.00     0.001 A 
ATOM     55  C   UNL A   1      44.215  23.332  31.251  1.00  0.00     0.001 A 
ATOM     56  C   UNL A   1      44.156  24.571  31.877  1.00  0.00     0.000 A 
ENDBRANCH  38  51
ENDBRANCH  12  13
ENDBRANCH   5   7
ENDBRANCH   2   3
ENDBRANCH   1   2
BRANCH   1  57
ATOM     57  C   UNL A   1      32.157  28.698  27.122  1.00  0.00     0.118 C 
BRANCH  57  58
ATOM     58  N   UNL A   1      31.529  27.441  26.754  1.00  0.00    -0.351 N 
ATOM     59  C   UNL A   1      30.967  26.996  25.580  1.00  0.00     0.267 C 
ATOM     60  H   UNL A   1      31.500  26.782  27.485  1.00  0.00     0.163 HD
ATOM     61  O   UNL A   1      30.424  25.894  25.624  1.00  0.00    -0.268 OA
BRANCH  59  62
ATOM     62  C   UNL A   1      30.998  27.805  24.371  1.00  0.00     0.107 A 
ATOM     63  C   UNL A   1      30.024  28.663  23.876  1.00  0.00     0.033 A 
ATOM     64  N   UNL A   1      32.100  27.948  23.526  1.00  0.00    -0.334 N 
ATOM     65  C   UNL A   1      30.533  29.325  22.736  1.00  0.00     0.020 A 
ATOM     66  C   UNL A   1      31.825  28.891  22.561  1.00  0.00     0.087 A 
BRANCH  64  67
ATOM     67  C   UNL A   1      33.412  27.327  23.689  1.00  0.00     0.222 C 
BRANCH  67  68
ATOM     68  C   UNL A   1      33.652  25.909  23.175  1.00  0.00     0.242 C 
ATOM     69  O   UNL A   1      34.028  25.760  22.005  1.00  0.00    -0.273 OA
BRANCH  68  70
ATOM     70  N   UNL A   1      33.735  24.851  24.062  1.00  0.00    -0.341 N 
ATOM     71  C   UNL A   1      34.818  24.597  24.985  1.00  0.00     0.120 C 
ATOM     72  C   UNL A   1      32.755  23.769  24.004  1.00  0.00     0.123 C 
ATOM     73  C   UNL A   1      35.615  23.415  24.486  1.00  0.00     0.025 C 
ATOM     74  C   UNL A   1      33.459  22.495  23.479  1.00  0.00     0.012 C 
ATOM     75  C   UNL A   1      34.758  22.158  24.248  1.00  0.00    -0.005 C 
ATOM     76  C   UNL A   1      32.549  21.271  23.438  1.00  0.00     0.006 C 
ATOM     77  C   UNL A   1      34.580  21.398  25.570  1.00  0.00     0.004 C 
ATOM     78  C   UNL A   1      32.153  20.808  24.829  1.00  0.00     0.000 C 
ATOM     79  C   UNL A   1      33.336  20.533  25.746  1.00  0.00     0.000 C 
ENDBRANCH  68  70
ENDBRANCH  67  68
ENDBRANCH  64  67
ENDBRANCH  59  62
ENDBRANCH  57  58
ENDBRANCH   1  57
TORSDOF 13
ENDMDL
MODEL 2
REMARK VINA RESULT:     -12.4      1.781      6.618
REMARK SMILES O=C(NCCCNC(=O)c1cccn1CC(=O)N1CC[C@H]2CCCC[C@H]2C1)c1ccc(-c2c3nc(c(-c4ccccc4)c4ccc([nH]4)c(-c4ccccc4)c4nc(c(-c5ccccc5)c5ccc2[nH]5)C=C4)C=C3)cc1
REMARK SMILES IDX 5 1 4 2 3 3 1 4 2 5 28 7 29 8 75 9 30 10 74 11 31 12 32 13
REMARK SMILES IDX 33 14 68 15 34 16 73 17 67 18 69 19 35 20 72 21 66 22 65 23
REMARK SMILES IDX 36 25 58 26 43 27 57 28 44 29 47 30 56 31 70 32 45 33 46 34
REMARK SMILES IDX 55 36 71 37 48 38 37 39 38 40 42 41 39 42 41 43 40 44 59 45
REMARK SMILES IDX 60 46 64 47 61 48 63 49 62 50 49 51 50 52 54 53 51 54 53 55
REMARK SMILES IDX 52 56 6 57 7 58 8 59 9 61 10 62 11 63 14 64 12 65 13 66
REMARK SMILES IDX 15 67 16 68 17 69 18 70 19 71 27 72 20 73 26 74 21 75 25 76
REMARK SMILES IDX 22 77 24 78 23 79
REMARK H PARENT 3 6 69 24 47 35 7 60
REMARK Flexibility Score: inf
ROOT
ATOM      1  C   UNL A   1      33.104  28.692  26.787  1.00  0.00     0.042 C 
ENDROOT
BRANCH   1   2
ATOM      2  C   UNL A   1      34.557  29.054  27.061  1.00  0.00     0.118 C 
BRANCH   2   3
ATOM      3  N   UNL A   1      34.785  29.995  28.135  1.00  0.00    -0.352 N 
ATOM      4  O   UNL A   1      35.829  31.446  29.460  1.00  0.00    -0.269 OA
ATOM      5  C   UNL A   1      35.921  30.433  28.765  1.00  0.00     0.251 C 
ATOM      6  H   UNL A   1      33.959  30.403  28.484  1.00  0.00     0.163 HD
BRANCH   5   7
ATOM      7  C   UNL A   1      37.219  29.703  28.744  1.00  0.00     0.039 A 
ATOM      8  C   UNL A   1      38.156  29.750  27.708  1.00  0.00     0.014 A 
ATOM      9  C   UNL A   1      37.496  28.915  29.875  1.00  0.00     0.014 A 
ATOM     10  C   UNL A   1      39.299  28.949  27.758  1.00  0.00     0.010 A 
ATOM     11  C   UNL A   1      38.652  28.138  29.948  1.00  0.00     0.010 A 
ATOM     12  C   UNL A   1      39.554  28.153  28.883  1.00  0.00    -0.014 A 
BRANCH  12  13
ATOM     13  C   UNL A   1      40.909  27.567  29.037  1.00  0.00     0.031 A 
ATOM     14  C   UNL A   1      40.927  26.085  28.593  1.00  0.00     0.074 A 
ATOM     15  C   UNL A   1      41.894  28.365  29.557  1.00  0.00     0.049 A 
ATOM     16  N   UNL A   1      41.761  25.136  28.889  1.00  0.00    -0.248 NA
ATOM     17  C   UNL A   1      39.831  25.569  27.720  1.00  0.00     0.031 C 
ATOM     18  C   UNL A   1      41.736  29.803  29.879  1.00  0.00     0.029 A 
ATOM     19  N   UNL A   1      43.211  28.154  29.925  1.00  0.00    -0.354 N 
ATOM     20  C   UNL A   1      41.407  23.994  28.130  1.00  0.00     0.074 A 
ATOM     21  C   UNL A   1      40.166  24.298  27.489  1.00  0.00     0.031 C 
ATOM     22  C   UNL A   1      42.854  30.299  30.457  1.00  0.00     0.029 A 
ATOM     23  C   UNL A   1      43.854  29.253  30.562  1.00  0.00     0.049 A 
ATOM     24  H   UNL A   1      43.673  27.301  29.758  1.00  0.00     0.167 HD
ATOM     25  C   UNL A   1      42.224  22.910  27.981  1.00  0.00     0.031 A 
ATOM     26  C   UNL A   1      45.083  29.308  31.166  1.00  0.00     0.031 A 
ATOM     27  C   UNL A   1      43.354  23.031  28.833  1.00  0.00     0.049 A 
ATOM     28  C   UNL A   1      45.731  28.027  30.866  1.00  0.00     0.074 A 
ATOM     29  C   UNL A   1      43.509  22.950  30.191  1.00  0.00     0.029 A 
ATOM     30  N   UNL A   1      44.462  23.624  28.284  1.00  0.00    -0.354 N 
ATOM     31  N   UNL A   1      46.237  27.708  29.715  1.00  0.00    -0.248 NA
ATOM     32  C   UNL A   1      45.803  27.002  31.914  1.00  0.00     0.031 C 
ATOM     33  C   UNL A   1      44.462  23.953  30.462  1.00  0.00     0.029 A 
ATOM     34  C   UNL A   1      44.989  24.430  29.257  1.00  0.00     0.049 A 
ATOM     35  H   UNL A   1      44.809  23.494  27.372  1.00  0.00     0.167 HD
ATOM     36  C   UNL A   1      46.296  26.342  29.802  1.00  0.00     0.074 A 
ATOM     37  C   UNL A   1      46.361  26.020  31.211  1.00  0.00     0.031 C 
ATOM     38  C   UNL A   1      45.722  25.594  28.828  1.00  0.00     0.031 A 
BRANCH  25  39
ATOM     39  C   UNL A   1      42.267  21.823  26.939  1.00  0.00    -0.014 A 
ATOM     40  C   UNL A   1      41.419  20.702  27.140  1.00  0.00     0.009 A 
ATOM     41  C   UNL A   1      43.305  21.677  26.016  1.00  0.00     0.009 A 
ATOM     42  C   UNL A   1      41.690  19.458  26.569  1.00  0.00     0.001 A 
ATOM     43  C   UNL A   1      43.550  20.437  25.406  1.00  0.00     0.001 A 
ATOM     44  C   UNL A   1      42.773  19.321  25.716  1.00  0.00     0.000 A 
ENDBRANCH  25  39
BRANCH  26  45
ATOM     45  C   UNL A   1      45.900  30.228  32.048  1.00  0.00    -0.014 A 
ATOM     46  C   UNL A   1      45.530  30.729  33.296  1.00  0.00     0.009 A 
ATOM     47  C   UNL A   1      47.221  30.572  31.627  1.00  0.00     0.009 A 
ATOM     48  C   UNL A   1      46.457  31.436  34.101  1.00  0.00     0.001 A 
ATOM     49  C   UNL A   1      48.156  31.222  32.436  1.00  0.00     0.001 A 
ATOM     50  C   UNL A   1      47.775  31.645  33.690  1.00  0.00     0.000 A 
ENDBRANCH  26  45
BRANCH  38  51
ATOM     51  C   UNL A   1      45.548  26.296  27.488  1.00  0.00    -0.014 A 
ATOM     52  C   UNL A   1      44.263  26.647  27.045  1.00  0.00     0.009 A 
ATOM     53  C   UNL A   1      46.614  26.517  26.595  1.00  0.00     0.009 A 
ATOM     54  C   UNL A   1      44.049  27.175  25.765  1.00  0.00     0.001 A 
ATOM     55  C   UNL A   1      46.406  27.050  25.313  1.00  0.00     0.001 A 
ATOM     56  C   UNL A   1      45.120  27.376  24.897  1.00  0.00     0.000 A 
ENDBRANCH  38  51
ENDBRANCH  12  13
ENDBRANCH   5   7
ENDBRANCH   2   3
ENDBRANCH   1   2
BRANCH   1  57
ATOM     57  C   UNL A   1      32.265  29.668  25.964  1.00  0.00     0.118 C 
BRANCH  57  58
ATOM     58  N   UNL A   1      32.581  29.664  24.545  1.00  0.00    -0.351 N 
ATOM     59  C   UNL A   1      32.224  28.818  23.521  1.00  0.00     0.267 C 
ATOM     60  H   UNL A   1      33.160  30.409  24.265  1.00  0.00     0.163 HD
ATOM     61  O   UNL A   1      32.745  29.041  22.430  1.00  0.00    -0.268 OA
BRANCH  59  62
ATOM     62  C   UNL A   1      31.303  27.713  23.736  1.00  0.00     0.107 A 
ATOM     63  C   UNL A   1      29.921  27.693  23.590  1.00  0.00     0.033 A 
ATOM     64  N   UNL A   1      31.676  26.400  24.029  1.00  0.00    -0.334 N 
ATOM     65  C   UNL A   1      29.458  26.373  23.793  1.00  0.00     0.020 A 
ATOM     66  C   UNL A   1      30.562  25.591  24.030  1.00  0.00     0.087 A 
BRANCH  64  67
ATOM     67  C   UNL A   1      33.037  25.889  24.174  1.00  0.00     0.222 C 
BRANCH  67  68
ATOM     68  C   UNL A   1      33.694  25.138  23.017  1.00  0.00     0.242 C 
ATOM     69  O   UNL A   1      33.956  25.762  21.981  1.00  0.00    -0.273 OA
BRANCH  68  70
ATOM     70  N   UNL A   1      34.246  23.887  23.224  1.00  0.00    -0.341 N 
ATOM     71  C   UNL A   1      33.537  22.628  23.193  1.00  0.00     0.120 C 
ATOM     72  C   UNL A   1      35.630  23.764  23.676  1.00  0.00     0.123 C 
ATOM     73  C   UNL A   1      33.411  22.107  24.606  1.00  0.00     0.025 C 
ATOM     74  C   UNL A   1      35.628  23.252  25.136  1.00  0.00     0.012 C 
ATOM     75  C   UNL A   1      34.762  21.986  25.334  1.00  0.00    -0.005 C 
ATOM     76  C   UNL A   1      37.026  23.017  25.700  1.00  0.00     0.006 C 
ATOM     77  C   UNL A   1      35.427  20.651  24.970  1.00  0.00     0.004 C 
ATOM     78  C   UNL A   1      37.733  21.864  25.009  1.00  0.00     0.000 C 
ATOM     79  C   UNL A   1      36.948  20.559  25.031  1.00  0.00     0.000 C 
ENDBRANCH  68  70
ENDBRANCH  67  68
ENDBRANCH  64  67
ENDBRANCH  59  62
ENDBRANCH  57  58
ENDBRANCH   1  57
TORSDOF 13
ENDMDL
MODEL 3
REMARK VINA RESULT:     -12.3      1.311      1.935
REMARK SMILES O=C(NCCCNC(=O)c1cccn1CC(=O)N1CC[C@H]2CCCC[C@H]2C1)c1ccc(-c2c3nc(c(-c4ccccc4)c4ccc([nH]4)c(-c4ccccc4)c4nc(c(-c5ccccc5)c5ccc2[nH]5)C=C4)C=C3)cc1
REMARK SMILES IDX 5 1 4 2 3 3 1 4 2 5 28 7 29 8 75 9 30 10 74 11 31 12 32 13
REMARK SMILES IDX 33 14 68 15 34 16 73 17 67 18 69 19 35 20 72 21 66 22 65 23
REMARK SMILES IDX 36 25 58 26 43 27 57 28 44 29 47 30 56 31 70 32 45 33 46 34
REMARK SMILES IDX 55 36 71 37 48 38 37 39 38 40 42 41 39 42 41 43 40 44 59 45
REMARK SMILES IDX 60 46 64 47 61 48 63 49 62 50 49 51 50 52 54 53 51 54 53 55
REMARK SMILES IDX 52 56 6 57 7 58 8 59 9 61 10 62 11 63 14 64 12 65 13 66
REMARK SMILES IDX 15 67 16 68 17 69 18 70 19 71 27 72 20 73 26 74 21 75 25 76
REMARK SMILES IDX 22 77 24 78 23 79
REMARK H PARENT 3 6 69 24 47 35 7 60
REMARK Flexibility Score: inf
ROOT
ATOM      1  C   UNL A   1      33.483  28.030  27.067  1.00  0.00     0.042 C 
ENDROOT
BRANCH   1   2
ATOM      2  C   UNL A   1      34.332  29.278  26.871  1.00  0.00     0.118 C 
BRANCH   2   3
ATOM      3  N   UNL A   1      34.380  30.195  27.989  1.00  0.00    -0.352 N 
ATOM      4  O   UNL A   1      35.172  31.674  29.450  1.00  0.00    -0.269 OA
ATOM      5  C   UNL A   1      35.412  30.697  28.740  1.00  0.00     0.251 C 
ATOM      6  H   UNL A   1      33.494  30.524  28.266  1.00  0.00     0.163 HD
BRANCH   5   7
ATOM      7  C   UNL A   1      36.760  30.072  28.824  1.00  0.00     0.039 A 
ATOM      8  C   UNL A   1      37.305  29.475  29.964  1.00  0.00     0.014 A 
ATOM      9  C   UNL A   1      37.521  30.097  27.641  1.00  0.00     0.014 A 
ATOM     10  C   UNL A   1      38.618  29.000  29.950  1.00  0.00     0.010 A 
ATOM     11  C   UNL A   1      38.821  29.595  27.609  1.00  0.00     0.010 A 
ATOM     12  C   UNL A   1      39.373  29.049  28.770  1.00  0.00    -0.014 A 
BRANCH  12  13
ATOM     13  C   UNL A   1      40.631  28.265  28.708  1.00  0.00     0.031 A 
ATOM     14  C   UNL A   1      41.868  29.192  28.774  1.00  0.00     0.074 A 
ATOM     15  C   UNL A   1      40.529  26.905  28.570  1.00  0.00     0.049 A 
ATOM     16  N   UNL A   1      43.091  28.978  28.401  1.00  0.00    -0.248 NA
ATOM     17  C   UNL A   1      41.713  30.581  29.300  1.00  0.00     0.031 C 
ATOM     18  C   UNL A   1      39.257  26.146  28.585  1.00  0.00     0.029 A 
ATOM     19  N   UNL A   1      41.445  25.884  28.388  1.00  0.00    -0.354 N 
ATOM     20  C   UNL A   1      43.867  30.098  28.790  1.00  0.00     0.074 A 
ATOM     21  C   UNL A   1      42.949  31.084  29.268  1.00  0.00     0.031 C 
ATOM     22  C   UNL A   1      39.470  24.832  28.340  1.00  0.00     0.029 A 
ATOM     23  C   UNL A   1      40.888  24.595  28.154  1.00  0.00     0.049 A 
ATOM     24  H   UNL A   1      42.417  26.038  28.418  1.00  0.00     0.167 HD
ATOM     25  C   UNL A   1      45.232  30.095  28.806  1.00  0.00     0.031 A 
ATOM     26  C   UNL A   1      41.516  23.430  27.796  1.00  0.00     0.031 A 
ATOM     27  C   UNL A   1      45.724  28.903  28.211  1.00  0.00     0.049 A 
ATOM     28  C   UNL A   1      42.954  23.712  27.881  1.00  0.00     0.074 A 
ATOM     29  C   UNL A   1      45.748  28.449  26.919  1.00  0.00     0.029 A 
ATOM     30  N   UNL A   1      45.964  27.858  29.065  1.00  0.00    -0.354 N 
ATOM     31  N   UNL A   1      43.622  23.810  28.988  1.00  0.00    -0.248 NA
ATOM     32  C   UNL A   1      43.711  23.929  26.642  1.00  0.00     0.031 C 
ATOM     33  C   UNL A   1      45.488  27.070  27.064  1.00  0.00     0.029 A 
ATOM     34  C   UNL A   1      45.540  26.728  28.420  1.00  0.00     0.049 A 
ATOM     35  H   UNL A   1      46.364  27.910  29.964  1.00  0.00     0.167 HD
ATOM     36  C   UNL A   1      44.739  24.494  28.583  1.00  0.00     0.074 A 
ATOM     37  C   UNL A   1      44.896  24.229  27.169  1.00  0.00     0.031 C 
ATOM     38  C   UNL A   1      45.090  25.629  29.236  1.00  0.00     0.031 A 
BRANCH  25  39
ATOM     39  C   UNL A   1      46.227  30.952  29.545  1.00  0.00    -0.014 A 
ATOM     40  C   UNL A   1      47.344  31.426  28.808  1.00  0.00     0.009 A 
ATOM     41  C   UNL A   1      46.315  31.009  30.938  1.00  0.00     0.009 A 
ATOM     42  C   UNL A   1      48.540  31.789  29.428  1.00  0.00     0.001 A 
ATOM     43  C   UNL A   1      47.503  31.417  31.564  1.00  0.00     0.001 A 
ATOM     44  C   UNL A   1      48.626  31.763  30.811  1.00  0.00     0.000 A 
ENDBRANCH  25  39
BRANCH  26  45
ATOM     45  C   UNL A   1      41.183  22.034  27.314  1.00  0.00    -0.014 A 
ATOM     46  C   UNL A   1      40.073  21.659  26.557  1.00  0.00     0.009 A 
ATOM     47  C   UNL A   1      42.118  20.987  27.574  1.00  0.00     0.009 A 
ATOM     48  C   UNL A   1      39.966  20.354  26.017  1.00  0.00     0.001 A 
ATOM     49  C   UNL A   1      42.046  19.714  27.003  1.00  0.00     0.001 A 
ATOM     50  C   UNL A   1      40.968  19.399  26.205  1.00  0.00     0.000 A 
ENDBRANCH  26  45
BRANCH  38  51
ATOM     51  C   UNL A   1      44.558  25.751  30.657  1.00  0.00    -0.014 A 
ATOM     52  C   UNL A   1      43.722  26.826  31.000  1.00  0.00     0.009 A 
ATOM     53  C   UNL A   1      44.955  24.892  31.699  1.00  0.00     0.009 A 
ATOM     54  C   UNL A   1      43.319  27.044  32.324  1.00  0.00     0.001 A 
ATOM     55  C   UNL A   1      44.550  25.105  33.027  1.00  0.00     0.001 A 
ATOM     56  C   UNL A   1      43.733  26.185  33.339  1.00  0.00     0.000 A 
ENDBRANCH  38  51
ENDBRANCH  12  13
ENDBRANCH   5   7
ENDBRANCH   2   3
ENDBRANCH   1   2
BRANCH   1  57
ATOM     57  C   UNL A   1      31.967  28.202  27.160  1.00  0.00     0.118 C 
BRANCH  57  58
ATOM     58  N   UNL A   1      31.215  27.048  26.697  1.00  0.00    -0.351 N 
ATOM     59  C   UNL A   1      30.651  26.739  25.481  1.00  0.00     0.267 C 
ATOM     60  H   UNL A   1      31.085  26.357  27.385  1.00  0.00     0.163 HD
ATOM     61  O   UNL A   1      29.986  25.705  25.441  1.00  0.00    -0.268 OA
BRANCH  59  62
ATOM     62  C   UNL A   1      30.818  27.606  24.325  1.00  0.00     0.107 A 
ATOM     63  C   UNL A   1      29.946  28.565  23.826  1.00  0.00     0.033 A 
ATOM     64  N   UNL A   1      31.978  27.704  23.554  1.00  0.00    -0.334 N 
ATOM     65  C   UNL A   1      30.574  29.244  22.757  1.00  0.00     0.020 A 
ATOM     66  C   UNL A   1      31.836  28.717  22.631  1.00  0.00     0.087 A 
BRANCH  64  67
ATOM     67  C   UNL A   1      33.226  26.972  23.754  1.00  0.00     0.222 C 
BRANCH  67  68
ATOM     68  C   UNL A   1      33.509  25.712  22.937  1.00  0.00     0.242 C 
ATOM     69  O   UNL A   1      33.777  25.837  21.735  1.00  0.00    -0.273 OA
BRANCH  68  70
ATOM     70  N   UNL A   1      33.749  24.508  23.574  1.00  0.00    -0.341 N 
ATOM     71  C   UNL A   1      32.919  23.903  24.590  1.00  0.00     0.120 C 
ATOM     72  C   UNL A   1      35.016  23.812  23.367  1.00  0.00     0.123 C 
ATOM     73  C   UNL A   1      33.619  24.021  25.924  1.00  0.00     0.025 C 
ATOM     74  C   UNL A   1      35.839  23.886  24.675  1.00  0.00     0.012 C 
ATOM     75  C   UNL A   1      35.042  23.433  25.920  1.00  0.00    -0.005 C 
ATOM     76  C   UNL A   1      37.162  23.130  24.604  1.00  0.00     0.006 C 
ATOM     77  C   UNL A   1      34.975  21.919  26.163  1.00  0.00     0.004 C 
ATOM     78  C   UNL A   1      36.957  21.629  24.497  1.00  0.00     0.000 C 
ATOM     79  C   UNL A   1      36.096  21.046  25.609  1.00  0.00     0.000 C 
ENDBRANCH  68  70
ENDBRANCH  67  68
ENDBRANCH  64  67
ENDBRANCH  59  62
ENDBRANCH  57  58
ENDBRANCH   1  57
TORSDOF 13
ENDMDL
