MODEL 1
REMARK VINA RESULT:     -12.0      0.000      0.000
REMARK SMILES Cc1cccc(O[C@H](C)C(=O)N2CCC[C@@H](C(=O)NCCCNC(=O)c3ccc(-c4c5nc(c(-c6ccccc6)c6ccc([nH]6)c(-c6ccccc6)c6nc(c(-c7ccccc7)c7ccc4[nH]7)C=C6)C=C5)cc3)C2)c1
REMARK SMILES IDX 20 1 19 2 17 3 18 4 16 6 12 7 13 8 74 9 14 10 15 11 10 12
REMARK SMILES IDX 11 13 8 14 9 15 7 16 6 17 1 18 2 19 3 20 75 21 4 22 5 23
REMARK SMILES IDX 21 24 22 25 23 26 24 27 25 29 26 30 27 31 73 32 28 33 72 34
REMARK SMILES IDX 29 35 30 36 31 37 66 38 32 39 71 40 65 41 67 42 33 43 70 44
REMARK SMILES IDX 64 45 63 46 34 48 56 49 41 50 55 51 42 52 45 53 54 54 68 55
REMARK SMILES IDX 43 56 44 57 53 59 69 60 46 61 35 62 36 63 40 64 37 65 39 66
REMARK SMILES IDX 38 67 57 68 58 69 62 70 59 71 61 72 60 73 47 74 48 75 52 76
REMARK SMILES IDX 49 77 51 78 50 79
REMARK H PARENT 19 5 23 28 67 47 45 58
REMARK Flexibility Score: inf
ROOT
ATOM      1  C   UNL A   1      37.980  21.828  25.723  1.00  0.00     0.117 C 
ENDROOT
BRANCH   1   2
ATOM      2  N   UNL A   1      37.664  22.457  24.454  1.00  0.00    -0.356 N 
ATOM      3  C   UNL A   1      36.481  22.654  23.816  1.00  0.00     0.224 C 
ATOM      4  O   UNL A   1      36.539  23.182  22.701  1.00  0.00    -0.275 OA
ATOM      5  H   UNL A   1      38.447  22.804  23.969  1.00  0.00     0.163 HD
BRANCH   3   6
ATOM      6  C   UNL A   1      35.124  22.301  24.415  1.00  0.00     0.098 C 
ATOM      7  N   UNL A   1      32.665  22.307  24.222  1.00  0.00    -0.339 N 
ATOM      8  C   UNL A   1      32.579  20.946  24.758  1.00  0.00     0.119 C 
ATOM      9  C   UNL A   1      33.915  22.610  23.521  1.00  0.00     0.133 C 
ATOM     10  C   UNL A   1      33.749  20.616  25.676  1.00  0.00     0.022 C 
ATOM     11  C   UNL A   1      35.084  20.874  24.979  1.00  0.00     0.017 C 
BRANCH   7  12
ATOM     12  C   UNL A   1      31.575  23.141  24.417  1.00  0.00     0.263 C 
ATOM     13  O   UNL A   1      30.776  23.337  23.489  1.00  0.00    -0.271 OA
BRANCH  12  14
ATOM     14  C   UNL A   1      31.353  23.927  25.736  1.00  0.00     0.259 C 
ATOM     15  C   UNL A   1      30.408  23.328  26.769  1.00  0.00     0.064 C 
BRANCH  14  16
ATOM     16  O   UNL A   1      32.488  24.674  26.171  1.00  0.00    -0.481 OA
BRANCH  16  17
ATOM     17  C   UNL A   1      32.811  25.921  25.754  1.00  0.00     0.120 A 
ATOM     18  C   UNL A   1      32.258  29.400  27.251  1.00  0.00     0.044 C 
ATOM     19  C   UNL A   1      32.735  28.292  26.359  1.00  0.00    -0.047 A 
ATOM     20  C   UNL A   1      33.552  28.580  25.268  1.00  0.00     0.003 A 
ATOM     21  C   UNL A   1      32.360  26.959  26.584  1.00  0.00     0.049 A 
ATOM     22  C   UNL A   1      34.020  27.547  24.456  1.00  0.00     0.004 A 
ATOM     23  C   UNL A   1      33.658  26.225  24.702  1.00  0.00     0.046 A 
ENDBRANCH  16  17
ENDBRANCH  14  16
ENDBRANCH  12  14
ENDBRANCH   7  12
ENDBRANCH   3   6
ENDBRANCH   1   2
BRANCH   1  24
ATOM     24  C   UNL A   1      39.304  22.332  26.294  1.00  0.00     0.042 C 
BRANCH  24  25
ATOM     25  C   UNL A   1      40.181  21.231  26.893  1.00  0.00     0.118 C 
BRANCH  25  26
ATOM     26  N   UNL A   1      41.103  20.669  25.900  1.00  0.00    -0.352 N 
ATOM     27  C   UNL A   1      42.473  20.833  25.789  1.00  0.00     0.251 C 
ATOM     28  H   UNL A   1      40.688  20.095  25.217  1.00  0.00     0.163 HD
ATOM     29  O   UNL A   1      43.136  20.184  25.006  1.00  0.00    -0.269 OA
BRANCH  27  30
ATOM     30  C   UNL A   1      43.110  21.809  26.693  1.00  0.00     0.039 A 
ATOM     31  C   UNL A   1      42.912  21.674  28.063  1.00  0.00     0.014 A 
ATOM     32  C   UNL A   1      43.614  22.984  26.145  1.00  0.00     0.014 A 
ATOM     33  C   UNL A   1      42.984  22.813  28.856  1.00  0.00     0.010 A 
ATOM     34  C   UNL A   1      43.623  24.131  26.917  1.00  0.00     0.010 A 
ATOM     35  C   UNL A   1      43.220  24.054  28.253  1.00  0.00    -0.014 A 
BRANCH  35  36
ATOM     36  C   UNL A   1      42.863  25.301  28.918  1.00  0.00     0.031 A 
ATOM     37  C   UNL A   1      41.658  26.049  28.528  1.00  0.00     0.074 A 
ATOM     38  C   UNL A   1      43.692  25.825  29.848  1.00  0.00     0.049 A 
ATOM     39  N   UNL A   1      41.607  27.338  28.463  1.00  0.00    -0.248 NA
ATOM     40  C   UNL A   1      40.418  25.391  28.137  1.00  0.00     0.031 C 
ATOM     41  C   UNL A   1      43.465  27.004  30.679  1.00  0.00     0.029 A 
ATOM     42  N   UNL A   1      45.039  25.506  30.054  1.00  0.00    -0.354 N 
ATOM     43  C   UNL A   1      40.289  27.684  28.291  1.00  0.00     0.074 A 
ATOM     44  C   UNL A   1      39.600  26.442  28.011  1.00  0.00     0.031 C 
ATOM     45  C   UNL A   1      44.654  27.484  31.076  1.00  0.00     0.029 A 
ATOM     46  C   UNL A   1      45.689  26.698  30.421  1.00  0.00     0.049 A 
ATOM     47  H   UNL A   1      45.452  24.617  29.959  1.00  0.00     0.167 HD
ATOM     48  C   UNL A   1      39.876  28.957  28.548  1.00  0.00     0.031 A 
ATOM     49  C   UNL A   1      46.721  27.206  29.691  1.00  0.00     0.031 A 
ATOM     50  C   UNL A   1      40.967  29.811  29.008  1.00  0.00     0.049 A 
ATOM     51  C   UNL A   1      46.464  28.591  29.144  1.00  0.00     0.074 A 
ATOM     52  C   UNL A   1      41.365  30.210  30.273  1.00  0.00     0.029 A 
ATOM     53  N   UNL A   1      42.000  30.143  28.143  1.00  0.00    -0.354 N 
ATOM     54  N   UNL A   1      45.284  29.141  29.077  1.00  0.00    -0.248 NA
ATOM     55  C   UNL A   1      47.505  29.435  28.561  1.00  0.00     0.031 C 
ATOM     56  C   UNL A   1      42.674  30.743  30.174  1.00  0.00     0.029 A 
ATOM     57  C   UNL A   1      43.059  30.686  28.847  1.00  0.00     0.049 A 
ATOM     58  H   UNL A   1      41.983  30.011  27.168  1.00  0.00     0.167 HD
ATOM     59  C   UNL A   1      45.377  30.345  28.430  1.00  0.00     0.074 A 
ATOM     60  C   UNL A   1      46.792  30.498  28.148  1.00  0.00     0.031 C 
ATOM     61  C   UNL A   1      44.272  31.098  28.158  1.00  0.00     0.031 A 
BRANCH  48  62
ATOM     62  C   UNL A   1      38.423  29.331  28.682  1.00  0.00    -0.014 A 
ATOM     63  C   UNL A   1      37.802  29.280  29.943  1.00  0.00     0.009 A 
ATOM     64  C   UNL A   1      37.606  29.703  27.601  1.00  0.00     0.009 A 
ATOM     65  C   UNL A   1      36.425  29.474  30.101  1.00  0.00     0.001 A 
ATOM     66  C   UNL A   1      36.220  29.860  27.744  1.00  0.00     0.001 A 
ATOM     67  C   UNL A   1      35.627  29.731  28.994  1.00  0.00     0.000 A 
ENDBRANCH  48  62
BRANCH  49  68
ATOM     68  C   UNL A   1      47.547  26.184  28.996  1.00  0.00    -0.014 A 
ATOM     69  C   UNL A   1      47.281  25.896  27.643  1.00  0.00     0.009 A 
ATOM     70  C   UNL A   1      48.750  25.729  29.552  1.00  0.00     0.009 A 
ATOM     71  C   UNL A   1      48.235  25.259  26.843  1.00  0.00     0.001 A 
ATOM     72  C   UNL A   1      49.698  25.082  28.752  1.00  0.00     0.001 A 
ATOM     73  C   UNL A   1      49.456  24.878  27.393  1.00  0.00     0.000 A 
ENDBRANCH  49  68
BRANCH  61  74
ATOM     74  C   UNL A   1      44.218  32.326  27.283  1.00  0.00    -0.014 A 
ATOM     75  C   UNL A   1      44.292  32.309  25.885  1.00  0.00     0.009 A 
ATOM     76  C   UNL A   1      43.947  33.577  27.886  1.00  0.00     0.009 A 
ATOM     77  C   UNL A   1      44.148  33.485  25.133  1.00  0.00     0.001 A 
ATOM     78  C   UNL A   1      43.757  34.741  27.139  1.00  0.00     0.001 A 
ATOM     79  C   UNL A   1      43.871  34.697  25.758  1.00  0.00     0.000 A 
ENDBRANCH  61  74
ENDBRANCH  35  36
ENDBRANCH  27  30
ENDBRANCH  25  26
ENDBRANCH  24  25
ENDBRANCH   1  24
TORSDOF 14
ENDMDL
MODEL 2
REMARK VINA RESULT:     -11.7      3.205      8.543
REMARK SMILES Cc1cccc(O[C@H](C)C(=O)N2CCC[C@@H](C(=O)NCCCNC(=O)c3ccc(-c4c5nc(c(-c6ccccc6)c6ccc([nH]6)c(-c6ccccc6)c6nc(c(-c7ccccc7)c7ccc4[nH]7)C=C6)C=C5)cc3)C2)c1
REMARK SMILES IDX 20 1 19 2 17 3 18 4 16 6 12 7 13 8 74 9 14 10 15 11 10 12
REMARK SMILES IDX 11 13 8 14 9 15 7 16 6 17 1 18 2 19 3 20 75 21 4 22 5 23
REMARK SMILES IDX 21 24 22 25 23 26 24 27 25 29 26 30 27 31 73 32 28 33 72 34
REMARK SMILES IDX 29 35 30 36 31 37 66 38 32 39 71 40 65 41 67 42 33 43 70 44
REMARK SMILES IDX 64 45 63 46 34 48 56 49 41 50 55 51 42 52 45 53 54 54 68 55
REMARK SMILES IDX 43 56 44 57 53 59 69 60 46 61 35 62 36 63 40 64 37 65 39 66
REMARK SMILES IDX 38 67 57 68 58 69 62 70 59 71 61 72 60 73 47 74 48 75 52 76
REMARK SMILES IDX 49 77 51 78 50 79
REMARK H PARENT 19 5 23 28 67 47 45 58
REMARK Flexibility Score: inf
ROOT
ATOM      1  C   UNL A   1      32.217  29.369  27.176  1.00  0.00     0.117 C 
ENDROOT
BRANCH   1   2
ATOM      2  N   UNL A   1      31.613  28.059  27.337  1.00  0.00    -0.356 N 
ATOM      3  C   UNL A   1      31.283  27.102  26.430  1.00  0.00     0.224 C 
ATOM      4  O   UNL A   1      30.721  26.095  26.874  1.00  0.00    -0.275 OA
ATOM      5  H   UNL A   1      31.404  27.822  28.268  1.00  0.00     0.163 HD
BRANCH   3   6
ATOM      6  C   UNL A   1      31.604  27.194  24.942  1.00  0.00     0.098 C 
ATOM      7  N   UNL A   1      31.892  26.061  22.770  1.00  0.00    -0.339 N 
ATOM      8  C   UNL A   1      31.191  27.139  22.069  1.00  0.00     0.119 C 
ATOM      9  C   UNL A   1      31.487  25.875  24.166  1.00  0.00     0.133 C 
ATOM     10  C   UNL A   1      31.314  28.472  22.797  1.00  0.00     0.022 C 
ATOM     11  C   UNL A   1      30.863  28.347  24.252  1.00  0.00     0.017 C 
BRANCH   7  12
ATOM     12  C   UNL A   1      32.833  25.337  22.054  1.00  0.00     0.263 C 
ATOM     13  O   UNL A   1      33.300  25.806  21.005  1.00  0.00    -0.271 OA
BRANCH  12  14
ATOM     14  C   UNL A   1      33.269  23.906  22.460  1.00  0.00     0.259 C 
ATOM     15  C   UNL A   1      34.496  23.762  23.349  1.00  0.00     0.064 C 
BRANCH  14  16
ATOM     16  O   UNL A   1      32.191  22.981  22.595  1.00  0.00    -0.481 OA
BRANCH  16  17
ATOM     17  C   UNL A   1      32.228  21.835  23.316  1.00  0.00     0.120 A 
ATOM     18  C   UNL A   1      32.381  18.138  22.337  1.00  0.00     0.044 C 
ATOM     19  C   UNL A   1      32.388  19.398  23.152  1.00  0.00    -0.047 A 
ATOM     20  C   UNL A   1      32.549  19.331  24.533  1.00  0.00     0.003 A 
ATOM     21  C   UNL A   1      32.214  20.655  22.555  1.00  0.00     0.049 A 
ATOM     22  C   UNL A   1      32.586  20.504  25.288  1.00  0.00     0.004 A 
ATOM     23  C   UNL A   1      32.434  21.748  24.682  1.00  0.00     0.046 A 
ENDBRANCH  16  17
ENDBRANCH  14  16
ENDBRANCH  12  14
ENDBRANCH   7  12
ENDBRANCH   3   6
ENDBRANCH   1   2
BRANCH   1  24
ATOM     24  C   UNL A   1      33.696  29.363  27.555  1.00  0.00     0.042 C 
BRANCH  24  25
ATOM     25  C   UNL A   1      34.391  30.712  27.364  1.00  0.00     0.118 C 
BRANCH  25  26
ATOM     26  N   UNL A   1      34.778  31.311  28.645  1.00  0.00    -0.352 N 
ATOM     27  C   UNL A   1      35.900  31.072  29.420  1.00  0.00     0.251 C 
ATOM     28  H   UNL A   1      34.150  31.978  29.006  1.00  0.00     0.163 HD
ATOM     29  O   UNL A   1      36.172  31.754  30.386  1.00  0.00    -0.269 OA
BRANCH  27  30
ATOM     30  C   UNL A   1      36.784  29.969  28.998  1.00  0.00     0.039 A 
ATOM     31  C   UNL A   1      37.143  29.007  29.938  1.00  0.00     0.014 A 
ATOM     32  C   UNL A   1      37.466  30.095  27.792  1.00  0.00     0.014 A 
ATOM     33  C   UNL A   1      38.349  28.338  29.770  1.00  0.00     0.010 A 
ATOM     34  C   UNL A   1      38.697  29.481  27.654  1.00  0.00     0.010 A 
ATOM     35  C   UNL A   1      39.173  28.673  28.689  1.00  0.00    -0.014 A 
BRANCH  35  36
ATOM     36  C   UNL A   1      40.600  28.368  28.699  1.00  0.00     0.031 A 
ATOM     37  C   UNL A   1      41.114  27.129  28.096  1.00  0.00     0.074 A 
ATOM     38  C   UNL A   1      41.455  29.192  29.345  1.00  0.00     0.049 A 
ATOM     39  N   UNL A   1      42.071  26.430  28.607  1.00  0.00    -0.248 NA
ATOM     40  C   UNL A   1      40.554  26.559  26.878  1.00  0.00     0.031 C 
ATOM     41  C   UNL A   1      42.911  29.105  29.388  1.00  0.00     0.029 A 
ATOM     42  N   UNL A   1      41.133  30.159  30.304  1.00  0.00    -0.354 N 
ATOM     43  C   UNL A   1      42.430  25.488  27.674  1.00  0.00     0.074 A 
ATOM     44  C   UNL A   1      41.406  25.552  26.652  1.00  0.00     0.031 C 
ATOM     45  C   UNL A   1      43.347  29.742  30.487  1.00  0.00     0.029 A 
ATOM     46  C   UNL A   1      42.178  30.162  31.246  1.00  0.00     0.049 A 
ATOM     47  H   UNL A   1      40.329  30.727  30.318  1.00  0.00     0.167 HD
ATOM     48  C   UNL A   1      43.629  24.850  27.772  1.00  0.00     0.031 A 
ATOM     49  C   UNL A   1      41.957  29.896  32.563  1.00  0.00     0.031 A 
ATOM     50  C   UNL A   1      44.406  25.302  28.922  1.00  0.00     0.049 A 
ATOM     51  C   UNL A   1      42.719  28.700  33.085  1.00  0.00     0.074 A 
ATOM     52  C   UNL A   1      45.439  26.215  29.045  1.00  0.00     0.029 A 
ATOM     53  N   UNL A   1      43.965  25.024  30.209  1.00  0.00    -0.354 N 
ATOM     54  N   UNL A   1      43.278  27.803  32.322  1.00  0.00    -0.248 NA
ATOM     55  C   UNL A   1      42.845  28.380  34.506  1.00  0.00     0.031 C 
ATOM     56  C   UNL A   1      45.588  26.529  30.419  1.00  0.00     0.029 A 
ATOM     57  C   UNL A   1      44.659  25.788  31.128  1.00  0.00     0.049 A 
ATOM     58  H   UNL A   1      43.259  24.377  30.435  1.00  0.00     0.167 HD
ATOM     59  C   UNL A   1      43.786  26.795  33.100  1.00  0.00     0.074 A 
ATOM     60  C   UNL A   1      43.512  27.213  34.462  1.00  0.00     0.031 C 
ATOM     61  C   UNL A   1      44.362  25.687  32.549  1.00  0.00     0.031 A 
BRANCH  48  62
ATOM     62  C   UNL A   1      44.221  24.048  26.641  1.00  0.00    -0.014 A 
ATOM     63  C   UNL A   1      43.917  22.680  26.522  1.00  0.00     0.009 A 
ATOM     64  C   UNL A   1      45.111  24.573  25.689  1.00  0.00     0.009 A 
ATOM     65  C   UNL A   1      44.550  21.858  25.582  1.00  0.00     0.001 A 
ATOM     66  C   UNL A   1      45.780  23.750  24.772  1.00  0.00     0.001 A 
ATOM     67  C   UNL A   1      45.509  22.388  24.728  1.00  0.00     0.000 A 
ENDBRANCH  48  62
BRANCH  49  68
ATOM     68  C   UNL A   1      40.614  30.299  33.058  1.00  0.00    -0.014 A 
ATOM     69  C   UNL A   1      40.293  31.670  33.118  1.00  0.00     0.009 A 
ATOM     70  C   UNL A   1      39.578  29.364  33.177  1.00  0.00     0.009 A 
ATOM     71  C   UNL A   1      38.962  32.093  33.194  1.00  0.00     0.001 A 
ATOM     72  C   UNL A   1      38.248  29.791  33.264  1.00  0.00     0.001 A 
ATOM     73  C   UNL A   1      37.938  31.151  33.238  1.00  0.00     0.000 A 
ENDBRANCH  49  68
BRANCH  61  74
ATOM     74  C   UNL A   1      44.769  24.432  33.279  1.00  0.00    -0.014 A 
ATOM     75  C   UNL A   1      46.052  24.187  33.784  1.00  0.00     0.009 A 
ATOM     76  C   UNL A   1      43.773  23.479  33.597  1.00  0.00     0.009 A 
ATOM     77  C   UNL A   1      46.334  23.031  34.528  1.00  0.00     0.001 A 
ATOM     78  C   UNL A   1      44.039  22.351  34.376  1.00  0.00     0.001 A 
ATOM     79  C   UNL A   1      45.327  22.121  34.832  1.00  0.00     0.000 A 
ENDBRANCH  61  74
ENDBRANCH  35  36
ENDBRANCH  27  30
ENDBRANCH  25  26
ENDBRANCH  24  25
ENDBRANCH   1  24
TORSDOF 14
ENDMDL
MODEL 3
REMARK VINA RESULT:     -11.6      2.739      4.503
REMARK SMILES Cc1cccc(O[C@H](C)C(=O)N2CCC[C@@H](C(=O)NCCCNC(=O)c3ccc(-c4c5nc(c(-c6ccccc6)c6ccc([nH]6)c(-c6ccccc6)c6nc(c(-c7ccccc7)c7ccc4[nH]7)C=C6)C=C5)cc3)C2)c1
REMARK SMILES IDX 20 1 19 2 17 3 18 4 16 6 12 7 13 8 74 9 14 10 15 11 10 12
REMARK SMILES IDX 11 13 8 14 9 15 7 16 6 17 1 18 2 19 3 20 75 21 4 22 5 23
REMARK SMILES IDX 21 24 22 25 23 26 24 27 25 29 26 30 27 31 73 32 28 33 72 34
REMARK SMILES IDX 29 35 30 36 31 37 66 38 32 39 71 40 65 41 67 42 33 43 70 44
REMARK SMILES IDX 64 45 63 46 34 48 56 49 41 50 55 51 42 52 45 53 54 54 68 55
REMARK SMILES IDX 43 56 44 57 53 59 69 60 46 61 35 62 36 63 40 64 37 65 39 66
REMARK SMILES IDX 38 67 57 68 58 69 62 70 59 71 61 72 60 73 47 74 48 75 52 76
REMARK SMILES IDX 49 77 51 78 50 79
REMARK H PARENT 19 5 23 28 67 47 45 58
REMARK Flexibility Score: inf
ROOT
ATOM      1  C   UNL A   1      38.068  23.153  26.119  1.00  0.00     0.117 C 
ENDROOT
BRANCH   1   2
ATOM      2  N   UNL A   1      37.768  23.348  24.712  1.00  0.00    -0.356 N 
ATOM      3  C   UNL A   1      36.632  23.145  23.996  1.00  0.00     0.224 C 
ATOM      4  O   UNL A   1      36.702  23.355  22.781  1.00  0.00    -0.275 OA
ATOM      5  H   UNL A   1      38.524  23.690  24.182  1.00  0.00     0.163 HD
BRANCH   3   6
ATOM      6  C   UNL A   1      35.303  22.722  24.614  1.00  0.00     0.098 C 
ATOM      7  N   UNL A   1      33.842  20.919  25.450  1.00  0.00    -0.339 N 
ATOM      8  C   UNL A   1      33.424  21.733  26.593  1.00  0.00     0.119 C 
ATOM      9  C   UNL A   1      35.180  21.226  24.937  1.00  0.00     0.133 C 
ATOM     10  C   UNL A   1      33.504  23.225  26.296  1.00  0.00     0.022 C 
ATOM     11  C   UNL A   1      34.895  23.612  25.797  1.00  0.00     0.017 C 
BRANCH   7  12
ATOM     12  C   UNL A   1      32.956  19.956  24.991  1.00  0.00     0.263 C 
ATOM     13  O   UNL A   1      32.601  19.038  25.746  1.00  0.00    -0.271 OA
BRANCH  12  14
ATOM     14  C   UNL A   1      32.449  19.921  23.526  1.00  0.00     0.259 C 
ATOM     15  C   UNL A   1      32.330  18.563  22.848  1.00  0.00     0.064 C 
BRANCH  14  16
ATOM     16  O   UNL A   1      31.516  20.952  23.204  1.00  0.00    -0.481 OA
BRANCH  16  17
ATOM     17  C   UNL A   1      31.837  22.234  22.910  1.00  0.00     0.120 A 
ATOM     18  C   UNL A   1      30.504  25.606  24.137  1.00  0.00     0.044 C 
ATOM     19  C   UNL A   1      31.345  24.570  23.450  1.00  0.00    -0.047 A 
ATOM     20  C   UNL A   1      32.438  24.961  22.680  1.00  0.00     0.003 A 
ATOM     21  C   UNL A   1      31.046  23.204  23.546  1.00  0.00     0.049 A 
ATOM     22  C   UNL A   1      33.238  23.998  22.066  1.00  0.00     0.004 A 
ATOM     23  C   UNL A   1      32.944  22.642  22.186  1.00  0.00     0.046 A 
ENDBRANCH  16  17
ENDBRANCH  14  16
ENDBRANCH  12  14
ENDBRANCH   7  12
ENDBRANCH   3   6
ENDBRANCH   1   2
BRANCH   1  24
ATOM     24  C   UNL A   1      39.315  22.297  26.321  1.00  0.00     0.042 C 
BRANCH  24  25
ATOM     25  C   UNL A   1      40.196  22.749  27.487  1.00  0.00     0.118 C 
BRANCH  25  26
ATOM     26  N   UNL A   1      41.456  23.337  27.022  1.00  0.00    -0.352 N 
ATOM     27  C   UNL A   1      41.822  24.670  26.941  1.00  0.00     0.251 C 
ATOM     28  H   UNL A   1      42.138  22.692  26.725  1.00  0.00     0.163 HD
ATOM     29  O   UNL A   1      42.957  25.010  26.680  1.00  0.00    -0.269 OA
BRANCH  27  30
ATOM     30  C   UNL A   1      40.777  25.672  27.224  1.00  0.00     0.039 A 
ATOM     31  C   UNL A   1      40.804  26.876  26.528  1.00  0.00     0.014 A 
ATOM     32  C   UNL A   1      40.005  25.513  28.370  1.00  0.00     0.014 A 
ATOM     33  C   UNL A   1      40.249  27.999  27.129  1.00  0.00     0.010 A 
ATOM     34  C   UNL A   1      39.510  26.638  29.003  1.00  0.00     0.010 A 
ATOM     35  C   UNL A   1      39.714  27.891  28.419  1.00  0.00    -0.014 A 
BRANCH  35  36
ATOM     36  C   UNL A   1      39.545  29.063  29.270  1.00  0.00     0.031 A 
ATOM     37  C   UNL A   1      38.517  30.073  28.973  1.00  0.00     0.074 A 
ATOM     38  C   UNL A   1      40.396  29.272  30.299  1.00  0.00     0.049 A 
ATOM     39  N   UNL A   1      38.699  31.342  29.122  1.00  0.00    -0.248 NA
ATOM     40  C   UNL A   1      37.206  29.724  28.443  1.00  0.00     0.031 C 
ATOM     41  C   UNL A   1      40.333  30.326  31.306  1.00  0.00     0.029 A 
ATOM     42  N   UNL A   1      41.651  28.680  30.489  1.00  0.00    -0.354 N 
ATOM     43  C   UNL A   1      37.476  31.949  28.970  1.00  0.00     0.074 A 
ATOM     44  C   UNL A   1      36.596  30.915  28.467  1.00  0.00     0.031 C 
ATOM     45  C   UNL A   1      41.563  30.510  31.812  1.00  0.00     0.029 A 
ATOM     46  C   UNL A   1      42.479  29.660  31.068  1.00  0.00     0.049 A 
ATOM     47  H   UNL A   1      41.905  27.757  30.261  1.00  0.00     0.167 HD
ATOM     48  C   UNL A   1      37.282  33.220  29.421  1.00  0.00     0.031 A 
ATOM     49  C   UNL A   1      43.626  30.076  30.463  1.00  0.00     0.031 A 
ATOM     50  C   UNL A   1      38.477  33.774  30.048  1.00  0.00     0.049 A 
ATOM     51  C   UNL A   1      43.652  31.554  30.146  1.00  0.00     0.074 A 
ATOM     52  C   UNL A   1      38.863  33.889  31.374  1.00  0.00     0.029 A 
ATOM     53  N   UNL A   1      39.603  34.042  29.282  1.00  0.00    -0.354 N 
ATOM     54  N   UNL A   1      42.594  32.315  30.135  1.00  0.00    -0.248 NA
ATOM     55  C   UNL A   1      44.859  32.271  29.742  1.00  0.00     0.031 C 
ATOM     56  C   UNL A   1      40.250  34.179  31.404  1.00  0.00     0.029 A 
ATOM     57  C   UNL A   1      40.697  34.262  30.098  1.00  0.00     0.049 A 
ATOM     58  H   UNL A   1      39.620  34.070  28.298  1.00  0.00     0.167 HD
ATOM     59  C   UNL A   1      42.938  33.568  29.699  1.00  0.00     0.074 A 
ATOM     60  C   UNL A   1      44.372  33.499  29.489  1.00  0.00     0.031 C 
ATOM     61  C   UNL A   1      42.003  34.546  29.523  1.00  0.00     0.031 A 
BRANCH  48  62
ATOM     62  C   UNL A   1      35.912  33.830  29.571  1.00  0.00    -0.014 A 
ATOM     63  C   UNL A   1      35.246  34.336  28.440  1.00  0.00     0.009 A 
ATOM     64  C   UNL A   1      35.247  33.971  30.800  1.00  0.00     0.009 A 
ATOM     65  C   UNL A   1      34.041  35.042  28.542  1.00  0.00     0.001 A 
ATOM     66  C   UNL A   1      34.062  34.712  30.917  1.00  0.00     0.001 A 
ATOM     67  C   UNL A   1      33.466  35.260  29.788  1.00  0.00     0.000 A 
ENDBRANCH  48  62
BRANCH  49  68
ATOM     68  C   UNL A   1      44.298  29.041  29.634  1.00  0.00    -0.014 A 
ATOM     69  C   UNL A   1      43.920  28.897  28.284  1.00  0.00     0.009 A 
ATOM     70  C   UNL A   1      45.480  28.426  30.067  1.00  0.00     0.009 A 
ATOM     71  C   UNL A   1      44.752  28.240  27.372  1.00  0.00     0.001 A 
ATOM     72  C   UNL A   1      46.304  27.759  29.153  1.00  0.00     0.001 A 
ATOM     73  C   UNL A   1      45.959  27.697  27.803  1.00  0.00     0.000 A 
ENDBRANCH  49  68
BRANCH  61  74
ATOM     74  C   UNL A   1      42.220  35.884  28.862  1.00  0.00    -0.014 A 
ATOM     75  C   UNL A   1      42.946  36.940  29.427  1.00  0.00     0.009 A 
ATOM     76  C   UNL A   1      41.777  36.064  27.531  1.00  0.00     0.009 A 
ATOM     77  C   UNL A   1      43.179  38.127  28.717  1.00  0.00     0.001 A 
ATOM     78  C   UNL A   1      42.046  37.226  26.804  1.00  0.00     0.001 A 
ATOM     79  C   UNL A   1      42.739  38.266  27.404  1.00  0.00     0.000 A 
ENDBRANCH  61  74
ENDBRANCH  35  36
ENDBRANCH  27  30
ENDBRANCH  25  26
ENDBRANCH  24  25
ENDBRANCH   1  24
TORSDOF 14
ENDMDL
