MODEL 1
REMARK VINA RESULT:     -12.1      0.000      0.000
REMARK SMILES C[NH+]1CCC(NC(=O)N[C@@H]2C=C[C@H](C(=O)NCCCNC(=O)c3ccc(-c4c5nc(c(-c6ccccc6)c6ccc([nH]6)c(-c6ccccc6)c6nc(c(-c7ccccc7)c7ccc4[nH]7)C=C6)C=C5)cc3)C2)CC1
REMARK SMILES IDX 18 1 17 2 16 3 14 4 15 5 13 7 10 8 11 9 71 10 12 11 9 12
REMARK SMILES IDX 6 13 7 14 8 16 5 18 1 19 2 20 3 21 73 22 4 24 72 25 19 26
REMARK SMILES IDX 20 27 21 28 22 30 23 31 24 32 70 33 25 34 69 35 26 36 27 37
REMARK SMILES IDX 28 38 63 39 29 40 68 41 62 42 64 43 30 44 67 45 61 46 60 47
REMARK SMILES IDX 31 49 53 50 38 51 52 52 39 53 42 54 51 55 65 56 40 57 41 58
REMARK SMILES IDX 50 60 66 61 43 62 32 63 33 64 37 65 34 66 36 67 35 68 54 69
REMARK SMILES IDX 55 70 59 71 56 72 58 73 57 74 44 75 45 76 49 77 46 78 48 79
REMARK SMILES IDX 47 80
REMARK H PARENT 16 6 6 15 9 17 2 23 20 29 64 48 42 59
REMARK Flexibility Score: inf
ROOT
ATOM      1  C   UNL A   1      37.883  19.566  24.995  1.00  0.00     0.042 C 
ENDROOT
BRANCH   1   2
ATOM      2  C   UNL A   1      36.668  20.482  24.908  1.00  0.00     0.117 C 
BRANCH   2   3
ATOM      3  N   UNL A   1      35.430  19.734  25.012  1.00  0.00    -0.356 N 
ATOM      4  C   UNL A   1      34.147  20.197  24.949  1.00  0.00     0.227 C 
ATOM      5  O   UNL A   1      33.225  19.401  25.128  1.00  0.00    -0.274 OA
ATOM      6  H   UNL A   1      35.527  18.764  25.148  1.00  0.00     0.163 HD
BRANCH   4   7
ATOM      7  C   UNL A   1      33.927  21.663  24.602  1.00  0.00     0.103 C 
ATOM      8  C   UNL A   1      32.118  23.080  25.494  1.00  0.00     0.107 C 
ATOM      9  C   UNL A   1      31.774  22.489  24.167  1.00  0.00    -0.006 C 
ATOM     10  C   UNL A   1      33.495  22.493  25.820  1.00  0.00     0.047 C 
ATOM     11  C   UNL A   1      32.760  21.745  23.667  1.00  0.00    -0.016 C 
BRANCH   8  12
ATOM     12  N   UNL A   1      31.084  22.731  26.437  1.00  0.00    -0.332 N 
ATOM     13  N   UNL A   1      29.682  24.643  26.550  1.00  0.00    -0.335 N 
ATOM     14  C   UNL A   1      30.023  23.396  26.929  1.00  0.00     0.315 C 
ATOM     15  H   UNL A   1      28.880  24.993  27.002  1.00  0.00     0.165 HD
ATOM     16  O   UNL A   1      29.317  22.832  27.767  1.00  0.00    -0.249 OA
ATOM     17  H   UNL A   1      31.172  21.819  26.793  1.00  0.00     0.165 HD
BRANCH  13  18
ATOM     18  C   UNL A   1      30.275  25.565  25.604  1.00  0.00     0.095 C 
ATOM     19  C   UNL A   1      31.823  28.567  23.112  1.00  0.00     0.332 C 
ATOM     20  N   UNL A   1      30.979  27.955  24.143  1.00  0.00    -0.337 N 
ATOM     21  C   UNL A   1      31.826  27.466  25.243  1.00  0.00     0.264 C 
ATOM     22  C   UNL A   1      30.131  26.909  23.545  1.00  0.00     0.264 C 
ATOM     23  H   UNL A   1      30.342  28.644  24.542  1.00  0.00     0.347 HD
ATOM     24  C   UNL A   1      31.033  26.693  26.294  1.00  0.00     0.086 C 
ATOM     25  C   UNL A   1      29.299  26.160  24.597  1.00  0.00     0.086 C 
ENDBRANCH  13  18
ENDBRANCH   8  12
ENDBRANCH   4   7
ENDBRANCH   2   3
ENDBRANCH   1   2
BRANCH   1  26
ATOM     26  C   UNL A   1      39.026  20.151  25.820  1.00  0.00     0.118 C 
BRANCH  26  27
ATOM     27  N   UNL A   1      40.180  19.264  25.881  1.00  0.00    -0.352 N 
ATOM     28  C   UNL A   1      41.499  19.540  26.137  1.00  0.00     0.251 C 
ATOM     29  H   UNL A   1      39.981  18.315  25.713  1.00  0.00     0.163 HD
ATOM     30  O   UNL A   1      42.349  18.682  25.938  1.00  0.00    -0.269 OA
BRANCH  28  31
ATOM     31  C   UNL A   1      41.895  20.872  26.635  1.00  0.00     0.039 A 
ATOM     32  C   UNL A   1      42.319  21.836  25.716  1.00  0.00     0.014 A 
ATOM     33  C   UNL A   1      41.876  21.164  28.002  1.00  0.00     0.014 A 
ATOM     34  C   UNL A   1      42.664  23.112  26.163  1.00  0.00     0.010 A 
ATOM     35  C   UNL A   1      42.139  22.458  28.436  1.00  0.00     0.010 A 
ATOM     36  C   UNL A   1      42.543  23.443  27.523  1.00  0.00    -0.014 A 
BRANCH  36  37
ATOM     37  C   UNL A   1      42.833  24.815  28.008  1.00  0.00     0.031 A 
ATOM     38  C   UNL A   1      44.240  25.215  28.355  1.00  0.00     0.074 A 
ATOM     39  C   UNL A   1      41.819  25.681  28.195  1.00  0.00     0.049 A 
ATOM     40  N   UNL A   1      44.681  26.348  28.839  1.00  0.00    -0.248 NA
ATOM     41  C   UNL A   1      45.285  24.198  28.158  1.00  0.00     0.031 C 
ATOM     42  C   UNL A   1      40.406  25.403  27.927  1.00  0.00     0.029 A 
ATOM     43  N   UNL A   1      41.823  26.972  28.658  1.00  0.00    -0.354 N 
ATOM     44  C   UNL A   1      46.047  26.176  29.017  1.00  0.00     0.074 A 
ATOM     45  C   UNL A   1      46.353  24.811  28.645  1.00  0.00     0.031 C 
ATOM     46  C   UNL A   1      39.685  26.503  28.194  1.00  0.00     0.029 A 
ATOM     47  C   UNL A   1      40.575  27.545  28.697  1.00  0.00     0.049 A 
ATOM     48  H   UNL A   1      42.642  27.443  28.936  1.00  0.00     0.167 HD
ATOM     49  C   UNL A   1      46.970  27.076  29.432  1.00  0.00     0.031 A 
ATOM     50  C   UNL A   1      40.190  28.771  29.096  1.00  0.00     0.031 A 
ATOM     51  C   UNL A   1      46.663  28.432  29.806  1.00  0.00     0.049 A 
ATOM     52  C   UNL A   1      41.225  29.741  29.590  1.00  0.00     0.074 A 
ATOM     53  C   UNL A   1      47.531  29.437  30.194  1.00  0.00     0.029 A 
ATOM     54  N   UNL A   1      45.385  28.969  29.846  1.00  0.00    -0.354 N 
ATOM     55  N   UNL A   1      42.523  29.586  29.690  1.00  0.00    -0.248 NA
ATOM     56  C   UNL A   1      40.741  31.062  30.017  1.00  0.00     0.031 C 
ATOM     57  C   UNL A   1      46.772  30.563  30.529  1.00  0.00     0.029 A 
ATOM     58  C   UNL A   1      45.438  30.282  30.283  1.00  0.00     0.049 A 
ATOM     59  H   UNL A   1      44.562  28.487  29.601  1.00  0.00     0.167 HD
ATOM     60  C   UNL A   1      43.015  30.796  30.161  1.00  0.00     0.074 A 
ATOM     61  C   UNL A   1      41.876  31.679  30.313  1.00  0.00     0.031 C 
ATOM     62  C   UNL A   1      44.295  31.146  30.438  1.00  0.00     0.031 A 
BRANCH  49  63
ATOM     63  C   UNL A   1      48.397  26.607  29.519  1.00  0.00    -0.014 A 
ATOM     64  C   UNL A   1      48.898  25.997  30.680  1.00  0.00     0.009 A 
ATOM     65  C   UNL A   1      49.254  26.772  28.419  1.00  0.00     0.009 A 
ATOM     66  C   UNL A   1      50.237  25.608  30.758  1.00  0.00     0.001 A 
ATOM     67  C   UNL A   1      50.584  26.350  28.486  1.00  0.00     0.001 A 
ATOM     68  C   UNL A   1      51.078  25.782  29.659  1.00  0.00     0.000 A 
ENDBRANCH  49  63
BRANCH  50  69
ATOM     69  C   UNL A   1      38.756  29.158  29.022  1.00  0.00    -0.014 A 
ATOM     70  C   UNL A   1      37.918  28.988  30.135  1.00  0.00     0.009 A 
ATOM     71  C   UNL A   1      38.221  29.708  27.846  1.00  0.00     0.009 A 
ATOM     72  C   UNL A   1      36.569  29.340  30.064  1.00  0.00     0.001 A 
ATOM     73  C   UNL A   1      36.878  30.087  27.790  1.00  0.00     0.001 A 
ATOM     74  C   UNL A   1      36.051  29.895  28.895  1.00  0.00     0.000 A 
ENDBRANCH  50  69
BRANCH  62  75
ATOM     75  C   UNL A   1      44.537  32.557  30.901  1.00  0.00    -0.014 A 
ATOM     76  C   UNL A   1      44.554  32.889  32.264  1.00  0.00     0.009 A 
ATOM     77  C   UNL A   1      44.791  33.562  29.953  1.00  0.00     0.009 A 
ATOM     78  C   UNL A   1      44.785  34.206  32.666  1.00  0.00     0.001 A 
ATOM     79  C   UNL A   1      45.055  34.871  30.359  1.00  0.00     0.001 A 
ATOM     80  C   UNL A   1      45.041  35.194  31.715  1.00  0.00     0.000 A 
ENDBRANCH  62  75
ENDBRANCH  36  37
ENDBRANCH  28  31
ENDBRANCH  26  27
ENDBRANCH   1  26
TORSDOF 12
ENDMDL
MODEL 2
REMARK VINA RESULT:     -12.0      1.479      6.126
REMARK SMILES C[NH+]1CCC(NC(=O)N[C@@H]2C=C[C@H](C(=O)NCCCNC(=O)c3ccc(-c4c5nc(c(-c6ccccc6)c6ccc([nH]6)c(-c6ccccc6)c6nc(c(-c7ccccc7)c7ccc4[nH]7)C=C6)C=C5)cc3)C2)CC1
REMARK SMILES IDX 18 1 17 2 16 3 14 4 15 5 13 7 10 8 11 9 71 10 12 11 9 12
REMARK SMILES IDX 6 13 7 14 8 16 5 18 1 19 2 20 3 21 73 22 4 24 72 25 19 26
REMARK SMILES IDX 20 27 21 28 22 30 23 31 24 32 70 33 25 34 69 35 26 36 27 37
REMARK SMILES IDX 28 38 63 39 29 40 68 41 62 42 64 43 30 44 67 45 61 46 60 47
REMARK SMILES IDX 31 49 53 50 38 51 52 52 39 53 42 54 51 55 65 56 40 57 41 58
REMARK SMILES IDX 50 60 66 61 43 62 32 63 33 64 37 65 34 66 36 67 35 68 54 69
REMARK SMILES IDX 55 70 59 71 56 72 58 73 57 74 44 75 45 76 49 77 46 78 48 79
REMARK SMILES IDX 47 80
REMARK H PARENT 16 6 6 15 9 17 2 23 20 29 64 48 42 59
REMARK Flexibility Score: inf
ROOT
ATOM      1  C   UNL A   1      37.967  19.586  24.960  1.00  0.00     0.042 C 
ENDROOT
BRANCH   1   2
ATOM      2  C   UNL A   1      36.769  20.527  25.001  1.00  0.00     0.117 C 
BRANCH   2   3
ATOM      3  N   UNL A   1      35.517  19.794  25.001  1.00  0.00    -0.356 N 
ATOM      4  C   UNL A   1      34.247  20.278  24.876  1.00  0.00     0.227 C 
ATOM      5  O   UNL A   1      33.306  19.490  24.969  1.00  0.00    -0.274 OA
ATOM      6  H   UNL A   1      35.594  18.819  25.106  1.00  0.00     0.163 HD
BRANCH   4   7
ATOM      7  C   UNL A   1      34.067  21.759  24.571  1.00  0.00     0.103 C 
ATOM      8  C   UNL A   1      32.272  23.189  25.469  1.00  0.00     0.107 C 
ATOM      9  C   UNL A   1      31.943  22.648  24.117  1.00  0.00    -0.006 C 
ATOM     10  C   UNL A   1      33.628  22.561  25.805  1.00  0.00     0.047 C 
ATOM     11  C   UNL A   1      32.923  21.896  23.615  1.00  0.00    -0.016 C 
BRANCH   8  12
ATOM     12  N   UNL A   1      31.210  22.836  26.379  1.00  0.00    -0.332 N 
ATOM     13  N   UNL A   1      29.829  24.763  26.494  1.00  0.00    -0.335 N 
ATOM     14  C   UNL A   1      30.145  23.504  26.857  1.00  0.00     0.315 C 
ATOM     15  H   UNL A   1      29.020  25.114  26.932  1.00  0.00     0.165 HD
ATOM     16  O   UNL A   1      29.411  22.933  27.665  1.00  0.00    -0.249 OA
ATOM     17  H   UNL A   1      31.278  21.915  26.719  1.00  0.00     0.165 HD
BRANCH  13  18
ATOM     18  C   UNL A   1      30.457  25.695  25.581  1.00  0.00     0.095 C 
ATOM     19  C   UNL A   1      32.105  28.724  23.188  1.00  0.00     0.332 C 
ATOM     20  N   UNL A   1      31.228  28.103  24.187  1.00  0.00    -0.337 N 
ATOM     21  C   UNL A   1      32.041  27.581  25.295  1.00  0.00     0.264 C 
ATOM     22  C   UNL A   1      30.380  27.081  23.548  1.00  0.00     0.264 C 
ATOM     23  H   UNL A   1      30.591  28.793  24.584  1.00  0.00     0.347 HD
ATOM     24  C   UNL A   1      31.213  26.798  26.311  1.00  0.00     0.086 C 
ATOM     25  C   UNL A   1      29.514  26.324  24.564  1.00  0.00     0.086 C 
ENDBRANCH  13  18
ENDBRANCH   8  12
ENDBRANCH   4   7
ENDBRANCH   2   3
ENDBRANCH   1   2
BRANCH   1  26
ATOM     26  C   UNL A   1      39.165  20.094  25.759  1.00  0.00     0.118 C 
BRANCH  26  27
ATOM     27  N   UNL A   1      40.195  19.077  25.927  1.00  0.00    -0.352 N 
ATOM     28  C   UNL A   1      41.545  19.207  26.125  1.00  0.00     0.251 C 
ATOM     29  H   UNL A   1      39.868  18.149  25.894  1.00  0.00     0.163 HD
ATOM     30  O   UNL A   1      42.270  18.223  26.035  1.00  0.00    -0.269 OA
BRANCH  28  31
ATOM     31  C   UNL A   1      42.127  20.528  26.430  1.00  0.00     0.039 A 
ATOM     32  C   UNL A   1      42.586  21.322  25.375  1.00  0.00     0.014 A 
ATOM     33  C   UNL A   1      42.246  20.975  27.749  1.00  0.00     0.014 A 
ATOM     34  C   UNL A   1      43.107  22.589  25.640  1.00  0.00     0.010 A 
ATOM     35  C   UNL A   1      42.687  22.269  28.004  1.00  0.00     0.010 A 
ATOM     36  C   UNL A   1      43.128  23.086  26.953  1.00  0.00    -0.014 A 
BRANCH  36  37
ATOM     37  C   UNL A   1      43.609  24.459  27.247  1.00  0.00     0.031 A 
ATOM     38  C   UNL A   1      42.642  25.523  27.687  1.00  0.00     0.074 A 
ATOM     39  C   UNL A   1      44.907  24.762  27.057  1.00  0.00     0.049 A 
ATOM     40  N   UNL A   1      42.866  26.787  27.942  1.00  0.00    -0.248 NA
ATOM     41  C   UNL A   1      41.235  25.119  27.835  1.00  0.00     0.031 C 
ATOM     42  C   UNL A   1      45.938  23.827  26.601  1.00  0.00     0.029 A 
ATOM     43  N   UNL A   1      45.580  25.946  27.222  1.00  0.00    -0.354 N 
ATOM     44  C   UNL A   1      41.630  27.331  28.265  1.00  0.00     0.074 A 
ATOM     45  C   UNL A   1      40.652  26.274  28.116  1.00  0.00     0.031 C 
ATOM     46  C   UNL A   1      47.119  24.464  26.559  1.00  0.00     0.029 A 
ATOM     47  C   UNL A   1      46.921  25.860  26.938  1.00  0.00     0.049 A 
ATOM     48  H   UNL A   1      45.143  26.778  27.517  1.00  0.00     0.167 HD
ATOM     49  C   UNL A   1      41.335  28.589  28.668  1.00  0.00     0.031 A 
ATOM     50  C   UNL A   1      47.883  26.800  26.973  1.00  0.00     0.031 A 
ATOM     51  C   UNL A   1      42.308  29.640  28.810  1.00  0.00     0.049 A 
ATOM     52  C   UNL A   1      47.526  28.200  27.386  1.00  0.00     0.074 A 
ATOM     53  C   UNL A   1      42.120  30.936  29.257  1.00  0.00     0.029 A 
ATOM     54  N   UNL A   1      43.653  29.516  28.497  1.00  0.00    -0.354 N 
ATOM     55  N   UNL A   1      46.364  28.683  27.752  1.00  0.00    -0.248 NA
ATOM     56  C   UNL A   1      48.619  29.182  27.401  1.00  0.00     0.031 C 
ATOM     57  C   UNL A   1      43.338  31.614  29.156  1.00  0.00     0.029 A 
ATOM     58  C   UNL A   1      44.301  30.722  28.712  1.00  0.00     0.049 A 
ATOM     59  H   UNL A   1      44.084  28.693  28.170  1.00  0.00     0.167 HD
ATOM     60  C   UNL A   1      46.590  30.015  28.070  1.00  0.00     0.074 A 
ATOM     61  C   UNL A   1      48.004  30.260  27.866  1.00  0.00     0.031 C 
ATOM     62  C   UNL A   1      45.708  30.952  28.496  1.00  0.00     0.031 A 
BRANCH  49  63
ATOM     63  C   UNL A   1      39.891  28.896  28.964  1.00  0.00    -0.014 A 
ATOM     64  C   UNL A   1      39.355  28.720  30.250  1.00  0.00     0.009 A 
ATOM     65  C   UNL A   1      39.055  29.374  27.943  1.00  0.00     0.009 A 
ATOM     66  C   UNL A   1      38.002  28.968  30.495  1.00  0.00     0.001 A 
ATOM     67  C   UNL A   1      37.711  29.655  28.199  1.00  0.00     0.001 A 
ATOM     68  C   UNL A   1      37.183  29.438  29.470  1.00  0.00     0.000 A 
ENDBRANCH  49  63
BRANCH  50  69
ATOM     69  C   UNL A   1      49.284  26.440  26.630  1.00  0.00    -0.014 A 
ATOM     70  C   UNL A   1      49.771  26.649  25.330  1.00  0.00     0.009 A 
ATOM     71  C   UNL A   1      50.144  25.898  27.598  1.00  0.00     0.009 A 
ATOM     72  C   UNL A   1      51.082  26.301  25.002  1.00  0.00     0.001 A 
ATOM     73  C   UNL A   1      51.464  25.580  27.274  1.00  0.00     0.001 A 
ATOM     74  C   UNL A   1      51.930  25.773  25.974  1.00  0.00     0.000 A 
ENDBRANCH  50  69
BRANCH  62  75
ATOM     75  C   UNL A   1      46.252  32.320  28.806  1.00  0.00    -0.014 A 
ATOM     76  C   UNL A   1      46.796  32.625  30.063  1.00  0.00     0.009 A 
ATOM     77  C   UNL A   1      46.255  33.306  27.806  1.00  0.00     0.009 A 
ATOM     78  C   UNL A   1      47.298  33.901  30.323  1.00  0.00     0.001 A 
ATOM     79  C   UNL A   1      46.787  34.571  28.059  1.00  0.00     0.001 A 
ATOM     80  C   UNL A   1      47.299  34.871  29.321  1.00  0.00     0.000 A 
ENDBRANCH  62  75
ENDBRANCH  36  37
ENDBRANCH  28  31
ENDBRANCH  26  27
ENDBRANCH   1  26
TORSDOF 12
ENDMDL
MODEL 3
REMARK VINA RESULT:     -11.8      3.826      9.240
REMARK SMILES C[NH+]1CCC(NC(=O)N[C@@H]2C=C[C@H](C(=O)NCCCNC(=O)c3ccc(-c4c5nc(c(-c6ccccc6)c6ccc([nH]6)c(-c6ccccc6)c6nc(c(-c7ccccc7)c7ccc4[nH]7)C=C6)C=C5)cc3)C2)CC1
REMARK SMILES IDX 18 1 17 2 16 3 14 4 15 5 13 7 10 8 11 9 71 10 12 11 9 12
REMARK SMILES IDX 6 13 7 14 8 16 5 18 1 19 2 20 3 21 73 22 4 24 72 25 19 26
REMARK SMILES IDX 20 27 21 28 22 30 23 31 24 32 70 33 25 34 69 35 26 36 27 37
REMARK SMILES IDX 28 38 63 39 29 40 68 41 62 42 64 43 30 44 67 45 61 46 60 47
REMARK SMILES IDX 31 49 53 50 38 51 52 52 39 53 42 54 51 55 65 56 40 57 41 58
REMARK SMILES IDX 50 60 66 61 43 62 32 63 33 64 37 65 34 66 36 67 35 68 54 69
REMARK SMILES IDX 55 70 59 71 56 72 58 73 57 74 44 75 45 76 49 77 46 78 48 79
REMARK SMILES IDX 47 80
REMARK H PARENT 16 6 6 15 9 17 2 23 20 29 64 48 42 59
REMARK Flexibility Score: inf
ROOT
ATOM      1  C   UNL A   1      31.371  31.982  26.501  1.00  0.00     0.042 C 
ENDROOT
BRANCH   1   2
ATOM      2  C   UNL A   1      31.527  30.595  25.886  1.00  0.00     0.117 C 
BRANCH   2   3
ATOM      3  N   UNL A   1      30.787  30.477  24.645  1.00  0.00    -0.356 N 
ATOM      4  C   UNL A   1      30.589  29.369  23.872  1.00  0.00     0.227 C 
ATOM      5  O   UNL A   1      29.981  29.494  22.810  1.00  0.00    -0.274 OA
ATOM      6  H   UNL A   1      30.372  31.306  24.315  1.00  0.00     0.163 HD
BRANCH   4   7
ATOM      7  C   UNL A   1      31.085  28.028  24.397  1.00  0.00     0.103 C 
ATOM      8  C   UNL A   1      32.062  26.234  23.018  1.00  0.00     0.107 C 
ATOM      9  C   UNL A   1      30.602  26.034  23.258  1.00  0.00    -0.006 C 
ATOM     10  C   UNL A   1      32.375  27.569  23.702  1.00  0.00     0.047 C 
ATOM     11  C   UNL A   1      30.075  26.987  24.026  1.00  0.00    -0.016 C 
BRANCH   8  12
ATOM     12  N   UNL A   1      32.304  26.222  21.597  1.00  0.00    -0.332 N 
ATOM     13  N   UNL A   1      33.083  24.031  21.122  1.00  0.00    -0.335 N 
ATOM     14  C   UNL A   1      32.764  25.285  20.748  1.00  0.00     0.315 C 
ATOM     15  H   UNL A   1      33.406  23.464  20.384  1.00  0.00     0.165 HD
ATOM     16  O   UNL A   1      32.894  25.587  19.560  1.00  0.00    -0.249 OA
ATOM     17  H   UNL A   1      32.086  27.074  21.157  1.00  0.00     0.165 HD
BRANCH  13  18
ATOM     18  C   UNL A   1      33.040  23.361  22.405  1.00  0.00     0.095 C 
ATOM     19  C   UNL A   1      33.269  21.181  25.985  1.00  0.00     0.332 C 
ATOM     20  N   UNL A   1      33.505  21.515  24.576  1.00  0.00    -0.337 N 
ATOM     21  C   UNL A   1      34.250  22.781  24.491  1.00  0.00     0.264 C 
ATOM     22  C   UNL A   1      32.229  21.533  23.841  1.00  0.00     0.264 C 
ATOM     23  H   UNL A   1      34.080  20.801  24.130  1.00  0.00     0.347 HD
ATOM     24  C   UNL A   1      34.417  23.266  23.053  1.00  0.00     0.086 C 
ATOM     25  C   UNL A   1      32.402  21.979  22.382  1.00  0.00     0.086 C 
ENDBRANCH  13  18
ENDBRANCH   8  12
ENDBRANCH   4   7
ENDBRANCH   2   3
ENDBRANCH   1   2
BRANCH   1  26
ATOM     26  C   UNL A   1      32.646  32.499  27.161  1.00  0.00     0.118 C 
BRANCH  26  27
ATOM     27  N   UNL A   1      32.501  33.858  27.665  1.00  0.00    -0.352 N 
ATOM     28  C   UNL A   1      33.218  34.531  28.621  1.00  0.00     0.251 C 
ATOM     29  H   UNL A   1      31.771  34.375  27.253  1.00  0.00     0.163 HD
ATOM     30  O   UNL A   1      32.804  35.602  29.049  1.00  0.00    -0.269 OA
BRANCH  28  31
ATOM     31  C   UNL A   1      34.475  33.962  29.143  1.00  0.00     0.039 A 
ATOM     32  C   UNL A   1      34.419  33.102  30.244  1.00  0.00     0.014 A 
ATOM     33  C   UNL A   1      35.707  34.292  28.572  1.00  0.00     0.014 A 
ATOM     34  C   UNL A   1      35.593  32.526  30.731  1.00  0.00     0.010 A 
ATOM     35  C   UNL A   1      36.863  33.653  29.004  1.00  0.00     0.010 A 
ATOM     36  C   UNL A   1      36.820  32.769  30.092  1.00  0.00    -0.014 A 
BRANCH  36  37
ATOM     37  C   UNL A   1      38.067  32.108  30.547  1.00  0.00     0.031 A 
ATOM     38  C   UNL A   1      38.906  32.733  31.627  1.00  0.00     0.074 A 
ATOM     39  C   UNL A   1      38.477  30.976  29.944  1.00  0.00     0.049 A 
ATOM     40  N   UNL A   1      40.049  32.331  32.121  1.00  0.00    -0.248 NA
ATOM     41  C   UNL A   1      38.408  33.990  32.209  1.00  0.00     0.031 C 
ATOM     42  C   UNL A   1      37.769  30.289  28.861  1.00  0.00     0.029 A 
ATOM     43  N   UNL A   1      39.592  30.206  30.156  1.00  0.00    -0.354 N 
ATOM     44  C   UNL A   1      40.413  33.289  33.059  1.00  0.00     0.074 A 
ATOM     45  C   UNL A   1      39.400  34.321  33.021  1.00  0.00     0.031 C 
ATOM     46  C   UNL A   1      38.448  29.179  28.531  1.00  0.00     0.029 A 
ATOM     47  C   UNL A   1      39.659  29.102  29.341  1.00  0.00     0.049 A 
ATOM     48  H   UNL A   1      40.278  30.423  30.828  1.00  0.00     0.167 HD
ATOM     49  C   UNL A   1      41.481  33.301  33.890  1.00  0.00     0.031 A 
ATOM     50  C   UNL A   1      40.594  28.137  29.253  1.00  0.00     0.031 A 
ATOM     51  C   UNL A   1      42.491  32.276  33.922  1.00  0.00     0.049 A 
ATOM     52  C   UNL A   1      41.792  28.192  30.159  1.00  0.00     0.074 A 
ATOM     53  C   UNL A   1      43.587  32.170  34.760  1.00  0.00     0.029 A 
ATOM     54  N   UNL A   1      42.531  31.182  33.070  1.00  0.00    -0.354 N 
ATOM     55  N   UNL A   1      42.087  29.070  31.086  1.00  0.00    -0.248 NA
ATOM     56  C   UNL A   1      42.778  27.113  30.011  1.00  0.00     0.031 C 
ATOM     57  C   UNL A   1      44.324  31.046  34.374  1.00  0.00     0.029 A 
ATOM     58  C   UNL A   1      43.650  30.413  33.341  1.00  0.00     0.049 A 
ATOM     59  H   UNL A   1      41.862  30.983  32.375  1.00  0.00     0.167 HD
ATOM     60  C   UNL A   1      43.278  28.634  31.654  1.00  0.00     0.074 A 
ATOM     61  C   UNL A   1      43.641  27.406  30.975  1.00  0.00     0.031 C 
ATOM     62  C   UNL A   1      44.003  29.198  32.651  1.00  0.00     0.031 A 
BRANCH  49  63
ATOM     63  C   UNL A   1      41.615  34.477  34.820  1.00  0.00    -0.014 A 
ATOM     64  C   UNL A   1      41.076  34.450  36.116  1.00  0.00     0.009 A 
ATOM     65  C   UNL A   1      42.299  35.628  34.396  1.00  0.00     0.009 A 
ATOM     66  C   UNL A   1      41.172  35.568  36.949  1.00  0.00     0.001 A 
ATOM     67  C   UNL A   1      42.425  36.731  35.243  1.00  0.00     0.001 A 
ATOM     68  C   UNL A   1      41.849  36.706  36.513  1.00  0.00     0.000 A 
ENDBRANCH  49  63
BRANCH  50  69
ATOM     69  C   UNL A   1      40.420  27.024  28.284  1.00  0.00    -0.014 A 
ATOM     70  C   UNL A   1      39.722  25.864  28.656  1.00  0.00     0.009 A 
ATOM     71  C   UNL A   1      40.937  27.117  26.983  1.00  0.00     0.009 A 
ATOM     72  C   UNL A   1      39.566  24.812  27.751  1.00  0.00     0.001 A 
ATOM     73  C   UNL A   1      40.753  26.075  26.071  1.00  0.00     0.001 A 
ATOM     74  C   UNL A   1      40.075  24.920  26.458  1.00  0.00     0.000 A 
ENDBRANCH  50  69
BRANCH  62  75
ATOM     75  C   UNL A   1      45.245  28.472  33.093  1.00  0.00    -0.014 A 
ATOM     76  C   UNL A   1      46.499  28.758  32.533  1.00  0.00     0.009 A 
ATOM     77  C   UNL A   1      45.159  27.515  34.117  1.00  0.00     0.009 A 
ATOM     78  C   UNL A   1      47.636  28.072  32.965  1.00  0.00     0.001 A 
ATOM     79  C   UNL A   1      46.302  26.855  34.569  1.00  0.00     0.001 A 
ATOM     80  C   UNL A   1      47.538  27.127  33.985  1.00  0.00     0.000 A 
ENDBRANCH  62  75
ENDBRANCH  36  37
ENDBRANCH  28  31
ENDBRANCH  26  27
ENDBRANCH   1  26
TORSDOF 12
ENDMDL
