MODEL 1
REMARK VINA RESULT:     -12.6      0.000      0.000
REMARK SMILES COC(=O)c1ccc2c(c1)=N[C@H](c1cn(CCC(=O)NCCCNC(=O)c3ccc(-c4c5nc(c(-c6ccccc6)c6ccc([nH]6)c(-c6ccccc6)c6nc(c(-c7ccccc7)c7ccc4[nH]7)C=C6)C=C5)cc3)c3ccccc13)N=2
REMARK SMILES IDX 18 1 19 2 20 3 17 5 16 6 15 7 13 8 14 9 80 10 75 11 79 12
REMARK SMILES IDX 76 13 78 14 77 15 12 16 5 17 6 18 10 19 7 20 9 21 8 22 11 23
REMARK SMILES IDX 81 24 3 25 4 26 2 27 1 28 21 29 22 30 23 31 24 32 25 33
REMARK SMILES IDX 26 35 27 36 28 37 74 38 29 39 73 40 30 41 31 42 32 43 67 44
REMARK SMILES IDX 33 45 72 46 66 47 68 48 34 49 71 50 65 51 64 52 35 54 57 55
REMARK SMILES IDX 42 56 56 57 43 58 46 59 55 60 69 61 44 62 45 63 54 65 70 66
REMARK SMILES IDX 47 67 36 68 37 69 41 70 38 71 40 72 39 73 58 74 59 75 63 76
REMARK SMILES IDX 60 77 62 78 61 79 48 80 49 81 53 82 50 83 52 84 51 85
REMARK H PARENT 20 4 24 34 68 53 46 64
REMARK Flexibility Score: inf
ROOT
ATOM      1  C   UNL A   1      34.754  18.692  24.643  1.00  0.00     0.221 C 
ATOM      2  O   UNL A   1      34.782  17.557  24.155  1.00  0.00    -0.275 OA
ATOM      3  N   UNL A   1      35.962  19.281  24.896  1.00  0.00    -0.356 N 
ATOM      4  H   UNL A   1      36.722  18.673  24.750  1.00  0.00     0.163 HD
ENDROOT
BRANCH   1   5
ATOM      5  C   UNL A   1      33.418  19.377  24.870  1.00  0.00     0.122 C 
BRANCH   5   6
ATOM      6  C   UNL A   1      32.968  20.234  23.654  1.00  0.00     0.132 C 
BRANCH   6   7
ATOM      7  N   UNL A   1      32.572  21.614  23.986  1.00  0.00    -0.347 N 
ATOM      8  C   UNL A   1      33.002  23.452  22.852  1.00  0.00     0.024 A 
ATOM      9  C   UNL A   1      32.075  22.411  22.987  1.00  0.00     0.094 A 
ATOM     10  C   UNL A   1      34.117  23.049  23.696  1.00  0.00     0.007 A 
ATOM     11  C   UNL A   1      33.357  22.481  24.722  1.00  0.00     0.048 A 
ATOM     12  C   UNL A   1      35.339  23.556  24.164  1.00  0.00     0.011 A 
ATOM     13  C   UNL A   1      33.235  23.232  25.911  1.00  0.00     0.027 A 
ATOM     14  C   UNL A   1      35.416  24.140  25.420  1.00  0.00     0.001 A 
ATOM     15  C   UNL A   1      34.288  24.118  26.217  1.00  0.00     0.002 A 
BRANCH   8  16
ATOM     16  C   UNL A   1      32.595  24.692  22.120  1.00  0.00     0.255 C 
ATOM     17  C   UNL A   1      32.348  28.640  24.223  1.00  0.00     0.062 A 
ATOM     18  C   UNL A   1      33.148  29.012  23.066  1.00  0.00     0.018 A 
ATOM     19  C   UNL A   1      31.721  27.453  24.277  1.00  0.00     0.046 A 
ATOM     20  C   UNL A   1      33.561  28.137  22.143  1.00  0.00     0.031 A 
ATOM     21  C   UNL A   1      32.072  26.472  23.245  1.00  0.00     0.087 A 
ATOM     22  C   UNL A   1      33.194  26.740  22.331  1.00  0.00     0.086 A 
ATOM     23  N   UNL A   1      31.566  25.320  23.017  1.00  0.00    -0.252 NA
ATOM     24  N   UNL A   1      33.651  25.674  21.771  1.00  0.00    -0.252 NA
BRANCH  17  25
ATOM     25  C   UNL A   1      32.137  29.581  25.368  1.00  0.00     0.337 C 
ATOM     26  O   UNL A   1      31.320  30.479  25.374  1.00  0.00    -0.246 OA
BRANCH  25  27
ATOM     27  O   UNL A   1      32.955  29.239  26.401  1.00  0.00    -0.465 OA
ATOM     28  C   UNL A   1      33.466  30.327  27.177  1.00  0.00     0.282 C 
ENDBRANCH  25  27
ENDBRANCH  17  25
ENDBRANCH   8  16
ENDBRANCH   6   7
ENDBRANCH   5   6
ENDBRANCH   1   5
BRANCH   3  29
ATOM     29  C   UNL A   1      36.376  20.616  25.335  1.00  0.00     0.117 C 
BRANCH  29  30
ATOM     30  C   UNL A   1      37.835  21.058  25.030  1.00  0.00     0.042 C 
BRANCH  30  31
ATOM     31  C   UNL A   1      38.515  22.078  25.951  1.00  0.00     0.118 C 
BRANCH  31  32
ATOM     32  N   UNL A   1      39.940  22.278  25.815  1.00  0.00    -0.352 N 
ATOM     33  C   UNL A   1      40.816  23.085  26.499  1.00  0.00     0.251 C 
ATOM     34  H   UNL A   1      40.358  21.738  25.106  1.00  0.00     0.163 HD
ATOM     35  O   UNL A   1      42.011  22.783  26.481  1.00  0.00    -0.269 OA
BRANCH  33  36
ATOM     36  C   UNL A   1      40.441  24.384  27.106  1.00  0.00     0.039 A 
ATOM     37  C   UNL A   1      39.436  25.244  26.675  1.00  0.00     0.014 A 
ATOM     38  C   UNL A   1      41.177  24.728  28.251  1.00  0.00     0.014 A 
ATOM     39  C   UNL A   1      39.322  26.508  27.262  1.00  0.00     0.010 A 
ATOM     40  C   UNL A   1      41.058  25.982  28.834  1.00  0.00     0.010 A 
ATOM     41  C   UNL A   1      40.225  26.929  28.252  1.00  0.00    -0.014 A 
BRANCH  41  42
ATOM     42  C   UNL A   1      40.298  28.346  28.668  1.00  0.00     0.031 A 
ATOM     43  C   UNL A   1      41.507  29.102  28.231  1.00  0.00     0.074 A 
ATOM     44  C   UNL A   1      39.300  28.949  29.370  1.00  0.00     0.049 A 
ATOM     45  N   UNL A   1      42.208  29.926  28.942  1.00  0.00    -0.248 NA
ATOM     46  C   UNL A   1      42.051  28.870  26.883  1.00  0.00     0.031 C 
ATOM     47  C   UNL A   1      38.002  28.354  29.722  1.00  0.00     0.029 A 
ATOM     48  N   UNL A   1      39.155  30.239  29.829  1.00  0.00    -0.354 N 
ATOM     49  C   UNL A   1      43.199  30.425  28.101  1.00  0.00     0.074 A 
ATOM     50  C   UNL A   1      43.118  29.671  26.877  1.00  0.00     0.031 C 
ATOM     51  C   UNL A   1      37.123  29.328  30.041  1.00  0.00     0.029 A 
ATOM     52  C   UNL A   1      37.826  30.595  30.080  1.00  0.00     0.049 A 
ATOM     53  H   UNL A   1      39.914  30.852  29.965  1.00  0.00     0.167 HD
ATOM     54  C   UNL A   1      43.857  31.581  28.389  1.00  0.00     0.031 A 
ATOM     55  C   UNL A   1      37.306  31.836  30.261  1.00  0.00     0.031 A 
ATOM     56  C   UNL A   1      43.827  31.919  29.788  1.00  0.00     0.049 A 
ATOM     57  C   UNL A   1      38.380  32.731  30.714  1.00  0.00     0.074 A 
ATOM     58  C   UNL A   1      44.662  31.848  30.880  1.00  0.00     0.029 A 
ATOM     59  N   UNL A   1      42.595  32.262  30.260  1.00  0.00    -0.354 N 
ATOM     60  N   UNL A   1      38.947  32.634  31.881  1.00  0.00    -0.248 NA
ATOM     61  C   UNL A   1      39.055  33.580  29.739  1.00  0.00     0.031 C 
ATOM     62  C   UNL A   1      43.847  32.007  32.036  1.00  0.00     0.029 A 
ATOM     63  C   UNL A   1      42.567  32.338  31.625  1.00  0.00     0.049 A 
ATOM     64  H   UNL A   1      41.815  32.434  29.684  1.00  0.00     0.167 HD
ATOM     65  C   UNL A   1      40.236  33.046  31.647  1.00  0.00     0.074 A 
ATOM     66  C   UNL A   1      40.208  33.771  30.380  1.00  0.00     0.031 C 
ATOM     67  C   UNL A   1      41.293  32.474  32.285  1.00  0.00     0.031 A 
BRANCH  54  68
ATOM     68  C   UNL A   1      44.090  32.637  27.333  1.00  0.00    -0.014 A 
ATOM     69  C   UNL A   1      44.639  32.336  26.069  1.00  0.00     0.009 A 
ATOM     70  C   UNL A   1      43.482  33.897  27.467  1.00  0.00     0.009 A 
ATOM     71  C   UNL A   1      44.585  33.232  24.998  1.00  0.00     0.001 A 
ATOM     72  C   UNL A   1      43.399  34.787  26.386  1.00  0.00     0.001 A 
ATOM     73  C   UNL A   1      43.948  34.452  25.151  1.00  0.00     0.000 A 
ENDBRANCH  54  68
BRANCH  55  74
ATOM     74  C   UNL A   1      36.024  32.395  29.760  1.00  0.00    -0.014 A 
ATOM     75  C   UNL A   1      35.903  32.765  28.410  1.00  0.00     0.009 A 
ATOM     76  C   UNL A   1      35.054  32.880  30.657  1.00  0.00     0.009 A 
ATOM     77  C   UNL A   1      34.900  33.644  27.985  1.00  0.00     0.001 A 
ATOM     78  C   UNL A   1      34.052  33.764  30.232  1.00  0.00     0.001 A 
ATOM     79  C   UNL A   1      33.989  34.162  28.900  1.00  0.00     0.000 A 
ENDBRANCH  55  74
BRANCH  67  80
ATOM     80  C   UNL A   1      41.101  31.820  33.618  1.00  0.00    -0.014 A 
ATOM     81  C   UNL A   1      41.135  32.656  34.746  1.00  0.00     0.009 A 
ATOM     82  C   UNL A   1      41.008  30.435  33.816  1.00  0.00     0.009 A 
ATOM     83  C   UNL A   1      41.133  32.129  36.036  1.00  0.00     0.001 A 
ATOM     84  C   UNL A   1      40.973  29.907  35.114  1.00  0.00     0.001 A 
ATOM     85  C   UNL A   1      41.054  30.753  36.219  1.00  0.00     0.000 A 
ENDBRANCH  67  80
ENDBRANCH  41  42
ENDBRANCH  33  36
ENDBRANCH  31  32
ENDBRANCH  30  31
ENDBRANCH  29  30
ENDBRANCH   3  29
TORSDOF 15
ENDMDL
MODEL 2
REMARK VINA RESULT:     -12.6      2.986      8.753
REMARK SMILES COC(=O)c1ccc2c(c1)=N[C@H](c1cn(CCC(=O)NCCCNC(=O)c3ccc(-c4c5nc(c(-c6ccccc6)c6ccc([nH]6)c(-c6ccccc6)c6nc(c(-c7ccccc7)c7ccc4[nH]7)C=C6)C=C5)cc3)c3ccccc13)N=2
REMARK SMILES IDX 18 1 19 2 20 3 17 5 16 6 15 7 13 8 14 9 80 10 75 11 79 12
REMARK SMILES IDX 76 13 78 14 77 15 12 16 5 17 6 18 10 19 7 20 9 21 8 22 11 23
REMARK SMILES IDX 81 24 3 25 4 26 2 27 1 28 21 29 22 30 23 31 24 32 25 33
REMARK SMILES IDX 26 35 27 36 28 37 74 38 29 39 73 40 30 41 31 42 32 43 67 44
REMARK SMILES IDX 33 45 72 46 66 47 68 48 34 49 71 50 65 51 64 52 35 54 57 55
REMARK SMILES IDX 42 56 56 57 43 58 46 59 55 60 69 61 44 62 45 63 54 65 70 66
REMARK SMILES IDX 47 67 36 68 37 69 41 70 38 71 40 72 39 73 58 74 59 75 63 76
REMARK SMILES IDX 60 77 62 78 61 79 48 80 49 81 53 82 50 83 52 84 51 85
REMARK H PARENT 20 4 24 34 68 53 46 64
REMARK Flexibility Score: inf
ROOT
ATOM      1  C   UNL A   1      30.089  30.044  23.948  1.00  0.00     0.221 C 
ATOM      2  O   UNL A   1      29.316  30.866  23.442  1.00  0.00    -0.275 OA
ATOM      3  N   UNL A   1      31.003  30.531  24.840  1.00  0.00    -0.356 N 
ATOM      4  H   UNL A   1      31.001  31.514  24.892  1.00  0.00     0.163 HD
ENDROOT
BRANCH   1   5
ATOM      5  C   UNL A   1      29.943  28.571  23.610  1.00  0.00     0.122 C 
BRANCH   5   6
ATOM      6  C   UNL A   1      30.631  28.191  22.268  1.00  0.00     0.132 C 
BRANCH   6   7
ATOM      7  N   UNL A   1      31.792  27.295  22.405  1.00  0.00    -0.347 N 
ATOM      8  C   UNL A   1      31.788  25.134  22.826  1.00  0.00     0.024 A 
ATOM      9  C   UNL A   1      31.752  26.071  21.787  1.00  0.00     0.094 A 
ATOM     10  C   UNL A   1      31.646  25.933  24.034  1.00  0.00     0.007 A 
ATOM     11  C   UNL A   1      32.413  27.021  23.609  1.00  0.00     0.048 A 
ATOM     12  C   UNL A   1      31.680  25.776  25.428  1.00  0.00     0.011 A 
ATOM     13  C   UNL A   1      33.710  27.134  24.154  1.00  0.00     0.027 A 
ATOM     14  C   UNL A   1      32.842  26.057  26.132  1.00  0.00     0.001 A 
ATOM     15  C   UNL A   1      33.914  26.581  25.435  1.00  0.00     0.002 A 
BRANCH   8  16
ATOM     16  C   UNL A   1      32.132  23.713  22.506  1.00  0.00     0.255 C 
ATOM     17  C   UNL A   1      35.483  21.616  24.613  1.00  0.00     0.062 A 
ATOM     18  C   UNL A   1      34.423  20.632  24.769  1.00  0.00     0.018 A 
ATOM     19  C   UNL A   1      35.344  22.656  23.773  1.00  0.00     0.046 A 
ATOM     20  C   UNL A   1      33.168  20.828  24.353  1.00  0.00     0.031 A 
ATOM     21  C   UNL A   1      34.005  22.883  23.218  1.00  0.00     0.087 A 
ATOM     22  C   UNL A   1      32.861  22.108  23.725  1.00  0.00     0.086 A 
ATOM     23  N   UNL A   1      33.625  23.731  22.341  1.00  0.00    -0.252 NA
ATOM     24  N   UNL A   1      31.727  22.662  23.473  1.00  0.00    -0.252 NA
BRANCH  17  25
ATOM     25  C   UNL A   1      36.793  21.480  25.325  1.00  0.00     0.337 C 
ATOM     26  O   UNL A   1      37.427  22.412  25.777  1.00  0.00    -0.246 OA
BRANCH  25  27
ATOM     27  O   UNL A   1      37.123  20.164  25.431  1.00  0.00    -0.465 OA
ATOM     28  C   UNL A   1      38.376  19.788  24.851  1.00  0.00     0.282 C 
ENDBRANCH  25  27
ENDBRANCH  17  25
ENDBRANCH   8  16
ENDBRANCH   6   7
ENDBRANCH   5   6
ENDBRANCH   1   5
BRANCH   3  29
ATOM     29  C   UNL A   1      31.986  29.916  25.735  1.00  0.00     0.117 C 
BRANCH  29  30
ATOM     30  C   UNL A   1      32.471  30.745  26.957  1.00  0.00     0.042 C 
BRANCH  30  31
ATOM     31  C   UNL A   1      33.961  30.735  27.323  1.00  0.00     0.118 C 
BRANCH  31  32
ATOM     32  N   UNL A   1      34.371  31.409  28.534  1.00  0.00    -0.352 N 
ATOM     33  C   UNL A   1      35.612  31.615  29.087  1.00  0.00     0.251 C 
ATOM     34  H   UNL A   1      33.629  31.789  29.056  1.00  0.00     0.163 HD
ATOM     35  O   UNL A   1      35.740  32.547  29.882  1.00  0.00    -0.269 OA
BRANCH  33  36
ATOM     36  C   UNL A   1      36.754  30.685  28.921  1.00  0.00     0.039 A 
ATOM     37  C   UNL A   1      36.694  29.359  28.507  1.00  0.00     0.014 A 
ATOM     38  C   UNL A   1      38.012  31.251  29.188  1.00  0.00     0.014 A 
ATOM     39  C   UNL A   1      37.850  28.574  28.562  1.00  0.00     0.010 A 
ATOM     40  C   UNL A   1      39.158  30.469  29.238  1.00  0.00     0.010 A 
ATOM     41  C   UNL A   1      39.055  29.095  29.060  1.00  0.00    -0.014 A 
BRANCH  41  42
ATOM     42  C   UNL A   1      40.191  28.210  29.394  1.00  0.00     0.031 A 
ATOM     43  C   UNL A   1      40.622  28.197  30.822  1.00  0.00     0.074 A 
ATOM     44  C   UNL A   1      40.787  27.413  28.466  1.00  0.00     0.049 A 
ATOM     45  N   UNL A   1      41.837  28.215  31.268  1.00  0.00    -0.248 NA
ATOM     46  C   UNL A   1      39.600  28.244  31.880  1.00  0.00     0.031 C 
ATOM     47  C   UNL A   1      40.356  27.227  27.072  1.00  0.00     0.029 A 
ATOM     48  N   UNL A   1      41.824  26.512  28.565  1.00  0.00    -0.354 N 
ATOM     49  C   UNL A   1      41.747  28.137  32.655  1.00  0.00     0.074 A 
ATOM     50  C   UNL A   1      40.350  28.256  32.984  1.00  0.00     0.031 C 
ATOM     51  C   UNL A   1      40.896  26.095  26.573  1.00  0.00     0.029 A 
ATOM     52  C   UNL A   1      41.837  25.562  27.539  1.00  0.00     0.049 A 
ATOM     53  H   UNL A   1      42.491  26.533  29.289  1.00  0.00     0.167 HD
ATOM     54  C   UNL A   1      42.806  27.743  33.413  1.00  0.00     0.031 A 
ATOM     55  C   UNL A   1      42.522  24.391  27.482  1.00  0.00     0.031 A 
ATOM     56  C   UNL A   1      44.074  27.929  32.758  1.00  0.00     0.049 A 
ATOM     57  C   UNL A   1      43.683  24.487  28.378  1.00  0.00     0.074 A 
ATOM     58  C   UNL A   1      45.124  28.819  32.785  1.00  0.00     0.029 A 
ATOM     59  N   UNL A   1      44.279  27.116  31.682  1.00  0.00    -0.354 N 
ATOM     60  N   UNL A   1      44.699  25.266  28.150  1.00  0.00    -0.248 NA
ATOM     61  C   UNL A   1      43.593  23.920  29.719  1.00  0.00     0.031 C 
ATOM     62  C   UNL A   1      45.877  28.607  31.597  1.00  0.00     0.029 A 
ATOM     63  C   UNL A   1      45.375  27.488  30.955  1.00  0.00     0.049 A 
ATOM     64  H   UNL A   1      43.703  26.350  31.456  1.00  0.00     0.167 HD
ATOM     65  C   UNL A   1      45.118  25.623  29.409  1.00  0.00     0.074 A 
ATOM     66  C   UNL A   1      44.530  24.650  30.325  1.00  0.00     0.031 C 
ATOM     67  C   UNL A   1      45.598  26.868  29.673  1.00  0.00     0.031 A 
BRANCH  54  68
ATOM     68  C   UNL A   1      42.642  26.741  34.533  1.00  0.00    -0.014 A 
ATOM     69  C   UNL A   1      41.680  26.896  35.553  1.00  0.00     0.009 A 
ATOM     70  C   UNL A   1      43.235  25.471  34.419  1.00  0.00     0.009 A 
ATOM     71  C   UNL A   1      41.323  25.850  36.409  1.00  0.00     0.001 A 
ATOM     72  C   UNL A   1      42.858  24.412  35.257  1.00  0.00     0.001 A 
ATOM     73  C   UNL A   1      41.900  24.601  36.249  1.00  0.00     0.000 A 
ENDBRANCH  54  68
BRANCH  55  74
ATOM     74  C   UNL A   1      42.076  23.071  26.968  1.00  0.00    -0.014 A 
ATOM     75  C   UNL A   1      41.015  22.398  27.597  1.00  0.00     0.009 A 
ATOM     76  C   UNL A   1      42.897  22.326  26.101  1.00  0.00     0.009 A 
ATOM     77  C   UNL A   1      40.824  21.022  27.425  1.00  0.00     0.001 A 
ATOM     78  C   UNL A   1      42.708  20.946  25.932  1.00  0.00     0.001 A 
ATOM     79  C   UNL A   1      41.685  20.291  26.612  1.00  0.00     0.000 A 
ENDBRANCH  55  74
BRANCH  67  80
ATOM     80  C   UNL A   1      46.214  27.684  28.578  1.00  0.00    -0.014 A 
ATOM     81  C   UNL A   1      47.591  27.517  28.360  1.00  0.00     0.009 A 
ATOM     82  C   UNL A   1      45.538  28.671  27.847  1.00  0.00     0.009 A 
ATOM     83  C   UNL A   1      48.289  28.344  27.483  1.00  0.00     0.001 A 
ATOM     84  C   UNL A   1      46.234  29.481  26.940  1.00  0.00     0.001 A 
ATOM     85  C   UNL A   1      47.610  29.328  26.774  1.00  0.00     0.000 A 
ENDBRANCH  67  80
ENDBRANCH  41  42
ENDBRANCH  33  36
ENDBRANCH  31  32
ENDBRANCH  30  31
ENDBRANCH  29  30
ENDBRANCH   3  29
TORSDOF 15
ENDMDL
MODEL 3
REMARK VINA RESULT:     -12.3      1.931      2.903
REMARK SMILES COC(=O)c1ccc2c(c1)=N[C@H](c1cn(CCC(=O)NCCCNC(=O)c3ccc(-c4c5nc(c(-c6ccccc6)c6ccc([nH]6)c(-c6ccccc6)c6nc(c(-c7ccccc7)c7ccc4[nH]7)C=C6)C=C5)cc3)c3ccccc13)N=2
REMARK SMILES IDX 18 1 19 2 20 3 17 5 16 6 15 7 13 8 14 9 80 10 75 11 79 12
REMARK SMILES IDX 76 13 78 14 77 15 12 16 5 17 6 18 10 19 7 20 9 21 8 22 11 23
REMARK SMILES IDX 81 24 3 25 4 26 2 27 1 28 21 29 22 30 23 31 24 32 25 33
REMARK SMILES IDX 26 35 27 36 28 37 74 38 29 39 73 40 30 41 31 42 32 43 67 44
REMARK SMILES IDX 33 45 72 46 66 47 68 48 34 49 71 50 65 51 64 52 35 54 57 55
REMARK SMILES IDX 42 56 56 57 43 58 46 59 55 60 69 61 44 62 45 63 54 65 70 66
REMARK SMILES IDX 47 67 36 68 37 69 41 70 38 71 40 72 39 73 58 74 59 75 63 76
REMARK SMILES IDX 60 77 62 78 61 79 48 80 49 81 53 82 50 83 52 84 51 85
REMARK H PARENT 20 4 24 34 68 53 46 64
REMARK Flexibility Score: inf
ROOT
ATOM      1  C   UNL A   1      37.517  21.299  25.130  1.00  0.00     0.221 C 
ATOM      2  O   UNL A   1      37.308  20.119  24.829  1.00  0.00    -0.275 OA
ATOM      3  N   UNL A   1      38.552  21.538  25.992  1.00  0.00    -0.356 N 
ATOM      4  H   UNL A   1      38.946  20.712  26.354  1.00  0.00     0.163 HD
ENDROOT
BRANCH   1   5
ATOM      5  C   UNL A   1      36.679  22.395  24.496  1.00  0.00     0.122 C 
BRANCH   5   6
ATOM      6  C   UNL A   1      35.214  21.951  24.224  1.00  0.00     0.132 C 
BRANCH   6   7
ATOM      7  N   UNL A   1      34.271  23.057  23.987  1.00  0.00    -0.347 N 
ATOM      8  C   UNL A   1      34.138  24.974  25.064  1.00  0.00     0.024 A 
ATOM      9  C   UNL A   1      34.754  24.341  23.978  1.00  0.00     0.094 A 
ATOM     10  C   UNL A   1      33.456  23.896  25.766  1.00  0.00     0.007 A 
ATOM     11  C   UNL A   1      33.055  23.182  24.634  1.00  0.00     0.048 A 
ATOM     12  C   UNL A   1      32.577  23.712  26.844  1.00  0.00     0.011 A 
ATOM     13  C   UNL A   1      31.695  23.281  24.271  1.00  0.00     0.027 A 
ATOM     14  C   UNL A   1      31.214  23.580  26.617  1.00  0.00     0.001 A 
ATOM     15  C   UNL A   1      30.775  23.540  25.307  1.00  0.00     0.002 A 
BRANCH   8  16
ATOM     16  C   UNL A   1      34.147  26.468  25.131  1.00  0.00     0.255 C 
ATOM     17  C   UNL A   1      30.809  28.882  23.371  1.00  0.00     0.062 A 
ATOM     18  C   UNL A   1      30.891  29.480  24.695  1.00  0.00     0.018 A 
ATOM     19  C   UNL A   1      31.769  28.055  22.925  1.00  0.00     0.046 A 
ATOM     20  C   UNL A   1      31.720  29.046  25.650  1.00  0.00     0.031 A 
ATOM     21  C   UNL A   1      32.759  27.600  23.907  1.00  0.00     0.087 A 
ATOM     22  C   UNL A   1      32.567  27.902  25.335  1.00  0.00     0.086 A 
ATOM     23  N   UNL A   1      33.811  26.895  23.730  1.00  0.00    -0.252 NA
ATOM     24  N   UNL A   1      33.247  27.129  26.108  1.00  0.00    -0.252 NA
BRANCH  17  25
ATOM     25  C   UNL A   1      29.692  29.209  22.429  1.00  0.00     0.337 C 
ATOM     26  O   UNL A   1      29.821  29.869  21.419  1.00  0.00    -0.246 OA
BRANCH  25  27
ATOM     27  O   UNL A   1      28.544  28.611  22.852  1.00  0.00    -0.465 OA
ATOM     28  C   UNL A   1      27.372  29.432  22.834  1.00  0.00     0.282 C 
ENDBRANCH  25  27
ENDBRANCH  17  25
ENDBRANCH   8  16
ENDBRANCH   6   7
ENDBRANCH   5   6
ENDBRANCH   1   5
BRANCH   3  29
ATOM     29  C   UNL A   1      39.206  22.748  26.495  1.00  0.00     0.117 C 
BRANCH  29  30
ATOM     30  C   UNL A   1      40.523  22.578  27.302  1.00  0.00     0.042 C 
BRANCH  30  31
ATOM     31  C   UNL A   1      41.644  21.703  26.728  1.00  0.00     0.118 C 
BRANCH  31  32
ATOM     32  N   UNL A   1      42.237  22.091  25.468  1.00  0.00    -0.352 N 
ATOM     33  C   UNL A   1      43.087  23.119  25.139  1.00  0.00     0.251 C 
ATOM     34  H   UNL A   1      41.987  21.515  24.710  1.00  0.00     0.163 HD
ATOM     35  O   UNL A   1      43.763  23.000  24.116  1.00  0.00    -0.269 OA
BRANCH  33  36
ATOM     36  C   UNL A   1      43.112  24.426  25.837  1.00  0.00     0.039 A 
ATOM     37  C   UNL A   1      43.812  24.736  26.998  1.00  0.00     0.014 A 
ATOM     38  C   UNL A   1      42.365  25.437  25.210  1.00  0.00     0.014 A 
ATOM     39  C   UNL A   1      43.596  25.971  27.616  1.00  0.00     0.010 A 
ATOM     40  C   UNL A   1      42.156  26.664  25.825  1.00  0.00     0.010 A 
ATOM     41  C   UNL A   1      42.660  26.883  27.101  1.00  0.00    -0.014 A 
BRANCH  41  42
ATOM     42  C   UNL A   1      42.212  28.049  27.892  1.00  0.00     0.031 A 
ATOM     43  C   UNL A   1      43.111  29.238  27.886  1.00  0.00     0.074 A 
ATOM     44  C   UNL A   1      41.023  28.062  28.555  1.00  0.00     0.049 A 
ATOM     45  N   UNL A   1      43.436  29.973  28.901  1.00  0.00    -0.248 NA
ATOM     46  C   UNL A   1      43.789  29.619  26.636  1.00  0.00     0.031 C 
ATOM     47  C   UNL A   1      39.991  27.016  28.511  1.00  0.00     0.029 A 
ATOM     48  N   UNL A   1      40.412  29.033  29.317  1.00  0.00    -0.354 N 
ATOM     49  C   UNL A   1      44.246  30.991  28.405  1.00  0.00     0.074 A 
ATOM     50  C   UNL A   1      44.511  30.671  27.026  1.00  0.00     0.031 C 
ATOM     51  C   UNL A   1      38.811  27.519  28.932  1.00  0.00     0.029 A 
ATOM     52  C   UNL A   1      39.029  28.862  29.431  1.00  0.00     0.049 A 
ATOM     53  H   UNL A   1      40.901  29.775  29.740  1.00  0.00     0.167 HD
ATOM     54  C   UNL A   1      44.444  32.143  29.101  1.00  0.00     0.031 A 
ATOM     55  C   UNL A   1      38.101  29.759  29.854  1.00  0.00     0.031 A 
ATOM     56  C   UNL A   1      44.209  32.001  30.514  1.00  0.00     0.049 A 
ATOM     57  C   UNL A   1      38.768  30.754  30.705  1.00  0.00     0.074 A 
ATOM     58  C   UNL A   1      44.943  31.854  31.669  1.00  0.00     0.029 A 
ATOM     59  N   UNL A   1      42.905  31.779  30.850  1.00  0.00    -0.354 N 
ATOM     60  N   UNL A   1      39.255  30.478  31.879  1.00  0.00    -0.248 NA
ATOM     61  C   UNL A   1      39.170  32.030  30.125  1.00  0.00     0.031 C 
ATOM     62  C   UNL A   1      44.049  31.384  32.672  1.00  0.00     0.029 A 
ATOM     63  C   UNL A   1      42.763  31.413  32.159  1.00  0.00     0.049 A 
ATOM     64  H   UNL A   1      42.154  31.873  30.221  1.00  0.00     0.167 HD
ATOM     65  C   UNL A   1      40.336  31.320  31.984  1.00  0.00     0.074 A 
ATOM     66  C   UNL A   1      40.142  32.358  30.977  1.00  0.00     0.031 C 
ATOM     67  C   UNL A   1      41.481  30.935  32.610  1.00  0.00     0.031 A 
BRANCH  54  68
ATOM     68  C   UNL A   1      44.367  33.493  28.427  1.00  0.00    -0.014 A 
ATOM     69  C   UNL A   1      45.364  33.956  27.543  1.00  0.00     0.009 A 
ATOM     70  C   UNL A   1      43.150  34.196  28.421  1.00  0.00     0.009 A 
ATOM     71  C   UNL A   1      45.165  35.052  26.699  1.00  0.00     0.001 A 
ATOM     72  C   UNL A   1      42.936  35.278  27.554  1.00  0.00     0.001 A 
ATOM     73  C   UNL A   1      43.942  35.703  26.691  1.00  0.00     0.000 A 
ENDBRANCH  54  68
BRANCH  55  74
ATOM     74  C   UNL A   1      36.741  30.021  29.317  1.00  0.00    -0.014 A 
ATOM     75  C   UNL A   1      36.342  29.431  28.106  1.00  0.00     0.009 A 
ATOM     76  C   UNL A   1      35.976  31.100  29.798  1.00  0.00     0.009 A 
ATOM     77  C   UNL A   1      35.269  29.943  27.367  1.00  0.00     0.001 A 
ATOM     78  C   UNL A   1      34.904  31.616  29.056  1.00  0.00     0.001 A 
ATOM     79  C   UNL A   1      34.565  31.050  27.830  1.00  0.00     0.000 A 
ENDBRANCH  55  74
BRANCH  67  80
ATOM     80  C   UNL A   1      41.440  29.871  33.663  1.00  0.00    -0.014 A 
ATOM     81  C   UNL A   1      41.240  30.296  34.987  1.00  0.00     0.009 A 
ATOM     82  C   UNL A   1      41.701  28.513  33.430  1.00  0.00     0.009 A 
ATOM     83  C   UNL A   1      41.351  29.409  36.055  1.00  0.00     0.001 A 
ATOM     84  C   UNL A   1      41.780  27.614  34.502  1.00  0.00     0.001 A 
ATOM     85  C   UNL A   1      41.623  28.067  35.812  1.00  0.00     0.000 A 
ENDBRANCH  67  80
ENDBRANCH  41  42
ENDBRANCH  33  36
ENDBRANCH  31  32
ENDBRANCH  30  31
ENDBRANCH  29  30
ENDBRANCH   3  29
TORSDOF 15
ENDMDL
