MODEL 1
REMARK VINA RESULT:     -11.3      0.000      0.000
REMARK SMILES O=C(NCCCNC(=O)C1CN(S(=O)(=O)c2ccc(F)cc2)C1)c1ccc(-c2c3nc(c(-c4ccccc4)c4ccc([nH]4)c(-c4ccccc4)c4nc(c(-c5ccccc5)c5ccc2[nH]5)C=C4)C=C3)cc1
REMARK SMILES IDX 5 1 4 2 3 3 1 4 2 5 24 7 25 8 71 9 26 10 70 11 27 12 28 13
REMARK SMILES IDX 29 14 64 15 30 16 69 17 63 18 65 19 31 20 68 21 62 22 61 23
REMARK SMILES IDX 32 25 54 26 39 27 53 28 40 29 43 30 52 31 66 32 41 33 42 34
REMARK SMILES IDX 51 36 67 37 44 38 33 39 34 40 38 41 35 42 37 43 36 44 55 45
REMARK SMILES IDX 56 46 60 47 57 48 59 49 58 50 45 51 46 52 50 53 47 54 49 55
REMARK SMILES IDX 48 56 6 57 7 58 8 59 9 61 10 62 11 63 23 64 12 65 13 66
REMARK SMILES IDX 14 67 15 68 16 69 17 70 22 71 18 72 21 73 19 74 20 75
REMARK H PARENT 3 6 65 24 43 35 7 60
REMARK Flexibility Score: inf
ROOT
ATOM      1  C   UNL A   1      37.378  19.540  24.920  1.00  0.00     0.042 C 
ENDROOT
BRANCH   1   2
ATOM      2  C   UNL A   1      38.616  20.235  25.472  1.00  0.00     0.118 C 
BRANCH   2   3
ATOM      3  N   UNL A   1      39.746  19.331  25.630  1.00  0.00    -0.352 N 
ATOM      4  O   UNL A   1      41.882  18.694  25.925  1.00  0.00    -0.269 OA
ATOM      5  C   UNL A   1      41.036  19.577  26.033  1.00  0.00     0.251 C 
ATOM      6  H   UNL A   1      39.555  18.390  25.410  1.00  0.00     0.163 HD
BRANCH   5   7
ATOM      7  C   UNL A   1      41.417  20.895  26.584  1.00  0.00     0.039 A 
ATOM      8  C   UNL A   1      41.807  21.942  25.746  1.00  0.00     0.014 A 
ATOM      9  C   UNL A   1      41.330  21.103  27.965  1.00  0.00     0.014 A 
ATOM     10  C   UNL A   1      42.239  23.144  26.295  1.00  0.00     0.010 A 
ATOM     11  C   UNL A   1      41.682  22.341  28.509  1.00  0.00     0.010 A 
ATOM     12  C   UNL A   1      42.166  23.364  27.680  1.00  0.00    -0.014 A 
BRANCH  12  13
ATOM     13  C   UNL A   1      42.532  24.695  28.223  1.00  0.00     0.031 A 
ATOM     14  C   UNL A   1      43.957  25.040  28.547  1.00  0.00     0.074 A 
ATOM     15  C   UNL A   1      41.559  25.611  28.392  1.00  0.00     0.049 A 
ATOM     16  N   UNL A   1      44.448  26.174  28.984  1.00  0.00    -0.248 NA
ATOM     17  C   UNL A   1      44.962  23.981  28.366  1.00  0.00     0.031 C 
ATOM     18  C   UNL A   1      40.136  25.391  28.121  1.00  0.00     0.029 A 
ATOM     19  N   UNL A   1      41.620  26.917  28.805  1.00  0.00    -0.354 N 
ATOM     20  C   UNL A   1      45.810  25.961  29.146  1.00  0.00     0.074 A 
ATOM     21  C   UNL A   1      46.069  24.585  28.782  1.00  0.00     0.031 C 
ATOM     22  C   UNL A   1      39.467  26.535  28.324  1.00  0.00     0.029 A 
ATOM     23  C   UNL A   1      40.402  27.551  28.793  1.00  0.00     0.049 A 
ATOM     24  H   UNL A   1      42.455  27.357  29.084  1.00  0.00     0.167 HD
ATOM     25  C   UNL A   1      46.760  26.835  29.558  1.00  0.00     0.031 A 
ATOM     26  C   UNL A   1      40.067  28.809  29.130  1.00  0.00     0.031 A 
ATOM     27  C   UNL A   1      46.503  28.206  29.919  1.00  0.00     0.049 A 
ATOM     28  C   UNL A   1      41.136  29.748  29.603  1.00  0.00     0.074 A 
ATOM     29  C   UNL A   1      47.407  29.176  30.317  1.00  0.00     0.029 A 
ATOM     30  N   UNL A   1      45.250  28.798  29.932  1.00  0.00    -0.354 N 
ATOM     31  N   UNL A   1      42.424  29.539  29.716  1.00  0.00    -0.248 NA
ATOM     32  C   UNL A   1      40.702  31.095  29.997  1.00  0.00     0.031 C 
ATOM     33  C   UNL A   1      46.695  30.344  30.612  1.00  0.00     0.029 A 
ATOM     34  C   UNL A   1      45.354  30.113  30.354  1.00  0.00     0.049 A 
ATOM     35  H   UNL A   1      44.411  28.350  29.679  1.00  0.00     0.167 HD
ATOM     36  C   UNL A   1      42.959  30.730  30.184  1.00  0.00     0.074 A 
ATOM     37  C   UNL A   1      41.858  31.664  30.313  1.00  0.00     0.031 C 
ATOM     38  C   UNL A   1      44.247  31.024  30.486  1.00  0.00     0.031 A 
BRANCH  25  39
ATOM     39  C   UNL A   1      48.171  26.329  29.664  1.00  0.00    -0.014 A 
ATOM     40  C   UNL A   1      49.056  26.405  28.577  1.00  0.00     0.009 A 
ATOM     41  C   UNL A   1      48.636  25.813  30.884  1.00  0.00     0.009 A 
ATOM     42  C   UNL A   1      50.370  25.950  28.703  1.00  0.00     0.001 A 
ATOM     43  C   UNL A   1      49.957  25.380  31.014  1.00  0.00     0.001 A 
ATOM     44  C   UNL A   1      50.821  25.442  29.921  1.00  0.00     0.000 A 
ENDBRANCH  25  39
BRANCH  26  45
ATOM     45  C   UNL A   1      38.651  29.244  29.037  1.00  0.00    -0.014 A 
ATOM     46  C   UNL A   1      38.153  29.804  27.852  1.00  0.00     0.009 A 
ATOM     47  C   UNL A   1      37.785  29.080  30.130  1.00  0.00     0.009 A 
ATOM     48  C   UNL A   1      36.817  30.207  27.769  1.00  0.00     0.001 A 
ATOM     49  C   UNL A   1      36.445  29.457  30.035  1.00  0.00     0.001 A 
ATOM     50  C   UNL A   1      35.965  30.027  28.856  1.00  0.00     0.000 A 
ENDBRANCH  26  45
BRANCH  38  51
ATOM     51  C   UNL A   1      44.530  32.417  30.967  1.00  0.00    -0.014 A 
ATOM     52  C   UNL A   1      44.826  33.448  30.061  1.00  0.00     0.009 A 
ATOM     53  C   UNL A   1      44.479  32.704  32.338  1.00  0.00     0.009 A 
ATOM     54  C   UNL A   1      45.099  34.736  30.527  1.00  0.00     0.001 A 
ATOM     55  C   UNL A   1      44.730  33.998  32.799  1.00  0.00     0.001 A 
ATOM     56  C   UNL A   1      45.047  35.009  31.894  1.00  0.00     0.000 A 
ENDBRANCH  38  51
ENDBRANCH  12  13
ENDBRANCH   5   7
ENDBRANCH   2   3
ENDBRANCH   1   2
BRANCH   1  57
ATOM     57  C   UNL A   1      36.124  20.404  24.946  1.00  0.00     0.117 C 
BRANCH  57  58
ATOM     58  N   UNL A   1      34.907  19.606  24.998  1.00  0.00    -0.356 N 
ATOM     59  C   UNL A   1      33.623  19.968  24.658  1.00  0.00     0.225 C 
ATOM     60  H   UNL A   1      35.017  18.682  25.319  1.00  0.00     0.163 HD
ATOM     61  O   UNL A   1      32.732  19.126  24.810  1.00  0.00    -0.275 OA
BRANCH  59  62
ATOM     62  C   UNL A   1      33.386  21.378  24.120  1.00  0.00     0.109 C 
ATOM     63  C   UNL A   1      32.384  21.620  22.974  1.00  0.00     0.117 C 
ATOM     64  C   UNL A   1      32.431  22.287  24.922  1.00  0.00     0.117 C 
ATOM     65  N   UNL A   1      32.021  22.947  23.625  1.00  0.00    -0.196 NA
BRANCH  65  66
ATOM     66  S   UNL A   1      32.783  24.404  23.103  1.00  0.00     0.243 S 
ATOM     67  O   UNL A   1      33.722  24.809  24.127  1.00  0.00    -0.207 OA
ATOM     68  O   UNL A   1      33.202  24.207  21.732  1.00  0.00    -0.207 OA
BRANCH  66  69
ATOM     69  C   UNL A   1      31.451  25.578  23.117  1.00  0.00     0.082 A 
ATOM     70  C   UNL A   1      30.325  25.339  23.915  1.00  0.00     0.025 A 
ATOM     71  C   UNL A   1      31.569  26.765  22.385  1.00  0.00     0.025 A 
ATOM     72  C   UNL A   1      29.303  26.290  23.962  1.00  0.00     0.040 A 
ATOM     73  C   UNL A   1      30.549  27.715  22.447  1.00  0.00     0.040 A 
ATOM     74  C   UNL A   1      29.427  27.467  23.232  1.00  0.00     0.123 A 
ATOM     75  F   UNL A   1      28.452  28.384  23.292  1.00  0.00    -0.207 F 
ENDBRANCH  66  69
ENDBRANCH  65  66
ENDBRANCH  59  62
ENDBRANCH  57  58
ENDBRANCH   1  57
TORSDOF 12
ENDMDL
MODEL 2
REMARK VINA RESULT:     -11.2      0.226      6.066
REMARK SMILES O=C(NCCCNC(=O)C1CN(S(=O)(=O)c2ccc(F)cc2)C1)c1ccc(-c2c3nc(c(-c4ccccc4)c4ccc([nH]4)c(-c4ccccc4)c4nc(c(-c5ccccc5)c5ccc2[nH]5)C=C4)C=C3)cc1
REMARK SMILES IDX 5 1 4 2 3 3 1 4 2 5 24 7 25 8 71 9 26 10 70 11 27 12 28 13
REMARK SMILES IDX 29 14 64 15 30 16 69 17 63 18 65 19 31 20 68 21 62 22 61 23
REMARK SMILES IDX 32 25 54 26 39 27 53 28 40 29 43 30 52 31 66 32 41 33 42 34
REMARK SMILES IDX 51 36 67 37 44 38 33 39 34 40 38 41 35 42 37 43 36 44 55 45
REMARK SMILES IDX 56 46 60 47 57 48 59 49 58 50 45 51 46 52 50 53 47 54 49 55
REMARK SMILES IDX 48 56 6 57 7 58 8 59 9 61 10 62 11 63 23 64 12 65 13 66
REMARK SMILES IDX 14 67 15 68 16 69 17 70 22 71 18 72 21 73 19 74 20 75
REMARK H PARENT 3 6 65 24 43 35 7 60
REMARK Flexibility Score: inf
ROOT
ATOM      1  C   UNL A   1      37.330  19.558  24.970  1.00  0.00     0.042 C 
ENDROOT
BRANCH   1   2
ATOM      2  C   UNL A   1      38.601  20.267  25.423  1.00  0.00     0.118 C 
BRANCH   2   3
ATOM      3  N   UNL A   1      39.709  19.349  25.644  1.00  0.00    -0.352 N 
ATOM      4  O   UNL A   1      41.825  18.686  26.015  1.00  0.00    -0.269 OA
ATOM      5  C   UNL A   1      40.993  19.588  26.067  1.00  0.00     0.251 C 
ATOM      6  H   UNL A   1      39.505  18.404  25.459  1.00  0.00     0.163 HD
BRANCH   5   7
ATOM      7  C   UNL A   1      41.388  20.920  26.571  1.00  0.00     0.039 A 
ATOM      8  C   UNL A   1      41.849  21.913  25.704  1.00  0.00     0.014 A 
ATOM      9  C   UNL A   1      41.242  21.199  27.935  1.00  0.00     0.014 A 
ATOM     10  C   UNL A   1      42.290  23.129  26.215  1.00  0.00     0.010 A 
ATOM     11  C   UNL A   1      41.606  22.452  28.435  1.00  0.00     0.010 A 
ATOM     12  C   UNL A   1      42.159  23.419  27.582  1.00  0.00    -0.014 A 
BRANCH  12  13
ATOM     13  C   UNL A   1      42.538  24.764  28.077  1.00  0.00     0.031 A 
ATOM     14  C   UNL A   1      41.509  25.837  28.290  1.00  0.00     0.074 A 
ATOM     15  C   UNL A   1      43.832  25.002  28.368  1.00  0.00     0.049 A 
ATOM     16  N   UNL A   1      41.671  27.049  28.761  1.00  0.00    -0.248 NA
ATOM     17  C   UNL A   1      40.121  25.516  27.923  1.00  0.00     0.031 C 
ATOM     18  C   UNL A   1      44.926  24.043  28.195  1.00  0.00     0.029 A 
ATOM     19  N   UNL A   1      44.443  26.111  28.894  1.00  0.00    -0.354 N 
ATOM     20  C   UNL A   1      40.415  27.640  28.731  1.00  0.00     0.074 A 
ATOM     21  C   UNL A   1      39.502  26.663  28.176  1.00  0.00     0.031 C 
ATOM     22  C   UNL A   1      46.063  24.584  28.656  1.00  0.00     0.029 A 
ATOM     23  C   UNL A   1      45.791  25.946  29.102  1.00  0.00     0.049 A 
ATOM     24  H   UNL A   1      43.963  26.945  29.103  1.00  0.00     0.167 HD
ATOM     25  C   UNL A   1      40.054  28.882  29.134  1.00  0.00     0.031 A 
ATOM     26  C   UNL A   1      46.712  26.796  29.590  1.00  0.00     0.031 A 
ATOM     27  C   UNL A   1      40.962  29.854  29.687  1.00  0.00     0.049 A 
ATOM     28  C   UNL A   1      46.288  28.172  30.007  1.00  0.00     0.074 A 
ATOM     29  C   UNL A   1      40.683  31.127  30.154  1.00  0.00     0.029 A 
ATOM     30  N   UNL A   1      42.326  29.662  29.843  1.00  0.00    -0.354 N 
ATOM     31  N   UNL A   1      45.088  28.700  30.004  1.00  0.00    -0.248 NA
ATOM     32  C   UNL A   1      47.346  29.068  30.491  1.00  0.00     0.031 C 
ATOM     33  C   UNL A   1      41.886  31.721  30.553  1.00  0.00     0.029 A 
ATOM     34  C   UNL A   1      42.905  30.801  30.377  1.00  0.00     0.049 A 
ATOM     35  H   UNL A   1      42.811  28.837  29.610  1.00  0.00     0.167 HD
ATOM     36  C   UNL A   1      45.244  29.988  30.496  1.00  0.00     0.074 A 
ATOM     37  C   UNL A   1      46.650  30.153  30.807  1.00  0.00     0.031 C 
ATOM     38  C   UNL A   1      44.307  30.951  30.670  1.00  0.00     0.031 A 
BRANCH  25  39
ATOM     39  C   UNL A   1      38.614  29.275  28.969  1.00  0.00    -0.014 A 
ATOM     40  C   UNL A   1      38.130  29.776  27.751  1.00  0.00     0.009 A 
ATOM     41  C   UNL A   1      37.717  29.096  30.034  1.00  0.00     0.009 A 
ATOM     42  C   UNL A   1      36.782  30.114  27.610  1.00  0.00     0.001 A 
ATOM     43  C   UNL A   1      36.365  29.413  29.884  1.00  0.00     0.001 A 
ATOM     44  C   UNL A   1      35.900  29.928  28.675  1.00  0.00     0.000 A 
ENDBRANCH  25  39
BRANCH  26  45
ATOM     45  C   UNL A   1      48.127  26.363  29.699  1.00  0.00    -0.014 A 
ATOM     46  C   UNL A   1      48.597  25.745  30.867  1.00  0.00     0.009 A 
ATOM     47  C   UNL A   1      49.011  26.550  28.624  1.00  0.00     0.009 A 
ATOM     48  C   UNL A   1      49.929  25.335  30.961  1.00  0.00     0.001 A 
ATOM     49  C   UNL A   1      50.334  26.115  28.712  1.00  0.00     0.001 A 
ATOM     50  C   UNL A   1      50.793  25.515  29.883  1.00  0.00     0.000 A 
ENDBRANCH  26  45
BRANCH  38  51
ATOM     51  C   UNL A   1      44.775  32.258  31.237  1.00  0.00    -0.014 A 
ATOM     52  C   UNL A   1      45.225  33.291  30.399  1.00  0.00     0.009 A 
ATOM     53  C   UNL A   1      44.748  32.466  32.624  1.00  0.00     0.009 A 
ATOM     54  C   UNL A   1      45.669  34.497  30.944  1.00  0.00     0.001 A 
ATOM     55  C   UNL A   1      45.171  33.681  33.165  1.00  0.00     0.001 A 
ATOM     56  C   UNL A   1      45.639  34.691  32.326  1.00  0.00     0.000 A 
ENDBRANCH  38  51
ENDBRANCH  12  13
ENDBRANCH   5   7
ENDBRANCH   2   3
ENDBRANCH   1   2
BRANCH   1  57
ATOM     57  C   UNL A   1      36.092  20.445  24.985  1.00  0.00     0.117 C 
BRANCH  57  58
ATOM     58  N   UNL A   1      34.863  19.673  25.099  1.00  0.00    -0.356 N 
ATOM     59  C   UNL A   1      33.577  20.045  24.776  1.00  0.00     0.225 C 
ATOM     60  H   UNL A   1      34.965  18.760  25.453  1.00  0.00     0.163 HD
ATOM     61  O   UNL A   1      32.676  19.226  24.983  1.00  0.00    -0.275 OA
BRANCH  59  62
ATOM     62  C   UNL A   1      33.352  21.436  24.188  1.00  0.00     0.109 C 
ATOM     63  C   UNL A   1      32.417  21.633  22.977  1.00  0.00     0.117 C 
ATOM     64  C   UNL A   1      32.337  22.350  24.907  1.00  0.00     0.117 C 
ATOM     65  N   UNL A   1      31.995  22.970  23.571  1.00  0.00    -0.196 NA
BRANCH  65  66
ATOM     66  S   UNL A   1      32.765  24.425  23.057  1.00  0.00     0.243 S 
ATOM     67  O   UNL A   1      33.714  24.813  24.078  1.00  0.00    -0.207 OA
ATOM     68  O   UNL A   1      33.173  24.237  21.680  1.00  0.00    -0.207 OA
BRANCH  66  69
ATOM     69  C   UNL A   1      31.443  25.609  23.090  1.00  0.00     0.082 A 
ATOM     70  C   UNL A   1      30.319  25.371  23.892  1.00  0.00     0.025 A 
ATOM     71  C   UNL A   1      31.566  26.803  22.370  1.00  0.00     0.025 A 
ATOM     72  C   UNL A   1      29.305  26.329  23.955  1.00  0.00     0.040 A 
ATOM     73  C   UNL A   1      30.554  27.760  22.448  1.00  0.00     0.040 A 
ATOM     74  C   UNL A   1      29.434  27.513  23.237  1.00  0.00     0.123 A 
ATOM     75  F   UNL A   1      28.467  28.437  23.313  1.00  0.00    -0.207 F 
ENDBRANCH  66  69
ENDBRANCH  65  66
ENDBRANCH  59  62
ENDBRANCH  57  58
ENDBRANCH   1  57
TORSDOF 12
ENDMDL
MODEL 3
REMARK VINA RESULT:     -11.2      2.812      7.892
REMARK SMILES O=C(NCCCNC(=O)C1CN(S(=O)(=O)c2ccc(F)cc2)C1)c1ccc(-c2c3nc(c(-c4ccccc4)c4ccc([nH]4)c(-c4ccccc4)c4nc(c(-c5ccccc5)c5ccc2[nH]5)C=C4)C=C3)cc1
REMARK SMILES IDX 5 1 4 2 3 3 1 4 2 5 24 7 25 8 71 9 26 10 70 11 27 12 28 13
REMARK SMILES IDX 29 14 64 15 30 16 69 17 63 18 65 19 31 20 68 21 62 22 61 23
REMARK SMILES IDX 32 25 54 26 39 27 53 28 40 29 43 30 52 31 66 32 41 33 42 34
REMARK SMILES IDX 51 36 67 37 44 38 33 39 34 40 38 41 35 42 37 43 36 44 55 45
REMARK SMILES IDX 56 46 60 47 57 48 59 49 58 50 45 51 46 52 50 53 47 54 49 55
REMARK SMILES IDX 48 56 6 57 7 58 8 59 9 61 10 62 11 63 23 64 12 65 13 66
REMARK SMILES IDX 14 67 15 68 16 69 17 70 22 71 18 72 21 73 19 74 20 75
REMARK H PARENT 3 6 65 24 43 35 7 60
REMARK Flexibility Score: inf
ROOT
ATOM      1  C   UNL A   1      33.597  28.429  25.269  1.00  0.00     0.042 C 
ENDROOT
BRANCH   1   2
ATOM      2  C   UNL A   1      33.711  28.635  26.775  1.00  0.00     0.118 C 
BRANCH   2   3
ATOM      3  N   UNL A   1      33.602  30.034  27.161  1.00  0.00    -0.352 N 
ATOM      4  O   UNL A   1      34.081  31.938  28.256  1.00  0.00    -0.269 OA
ATOM      5  C   UNL A   1      34.452  30.825  27.893  1.00  0.00     0.251 C 
ATOM      6  H   UNL A   1      32.785  30.486  26.848  1.00  0.00     0.163 HD
BRANCH   5   7
ATOM      7  C   UNL A   1      35.803  30.348  28.259  1.00  0.00     0.039 A 
ATOM      8  C   UNL A   1      36.889  30.529  27.401  1.00  0.00     0.014 A 
ATOM      9  C   UNL A   1      35.996  29.755  29.512  1.00  0.00     0.014 A 
ATOM     10  C   UNL A   1      38.131  29.999  27.732  1.00  0.00     0.010 A 
ATOM     11  C   UNL A   1      37.264  29.299  29.881  1.00  0.00     0.010 A 
ATOM     12  C   UNL A   1      38.337  29.392  28.982  1.00  0.00    -0.014 A 
BRANCH  12  13
ATOM     13  C   UNL A   1      39.699  28.934  29.349  1.00  0.00     0.031 A 
ATOM     14  C   UNL A   1      40.583  29.754  30.244  1.00  0.00     0.074 A 
ATOM     15  C   UNL A   1      40.123  27.741  28.889  1.00  0.00     0.049 A 
ATOM     16  N   UNL A   1      41.780  29.472  30.696  1.00  0.00    -0.248 NA
ATOM     17  C   UNL A   1      40.067  31.059  30.685  1.00  0.00     0.031 C 
ATOM     18  C   UNL A   1      39.358  26.857  28.005  1.00  0.00     0.029 A 
ATOM     19  N   UNL A   1      41.286  27.053  29.120  1.00  0.00    -0.354 N 
ATOM     20  C   UNL A   1      42.167  30.566  31.458  1.00  0.00     0.074 A 
ATOM     21  C   UNL A   1      41.087  31.529  31.391  1.00  0.00     0.031 C 
ATOM     22  C   UNL A   1      40.048  25.724  27.811  1.00  0.00     0.029 A 
ATOM     23  C   UNL A   1      41.325  25.824  28.508  1.00  0.00     0.049 A 
ATOM     24  H   UNL A   1      42.022  27.406  29.670  1.00  0.00     0.167 HD
ATOM     25  C   UNL A   1      43.315  30.751  32.154  1.00  0.00     0.031 A 
ATOM     26  C   UNL A   1      42.284  24.881  28.498  1.00  0.00     0.031 A 
ATOM     27  C   UNL A   1      44.388  29.794  32.221  1.00  0.00     0.049 A 
ATOM     28  C   UNL A   1      43.553  25.122  29.259  1.00  0.00     0.074 A 
ATOM     29  C   UNL A   1      45.576  29.879  32.927  1.00  0.00     0.029 A 
ATOM     30  N   UNL A   1      44.406  28.579  31.554  1.00  0.00    -0.354 N 
ATOM     31  N   UNL A   1      43.885  26.149  30.002  1.00  0.00    -0.248 NA
ATOM     32  C   UNL A   1      44.580  24.075  29.176  1.00  0.00     0.031 C 
ATOM     33  C   UNL A   1      46.332  28.733  32.652  1.00  0.00     0.029 A 
ATOM     34  C   UNL A   1      45.594  27.915  31.813  1.00  0.00     0.049 A 
ATOM     35  H   UNL A   1      43.681  28.237  30.982  1.00  0.00     0.167 HD
ATOM     36  C   UNL A   1      45.155  25.868  30.485  1.00  0.00     0.074 A 
ATOM     37  C   UNL A   1      45.523  24.566  29.968  1.00  0.00     0.031 C 
ATOM     38  C   UNL A   1      45.948  26.625  31.282  1.00  0.00     0.031 A 
BRANCH  25  39
ATOM     39  C   UNL A   1      43.483  32.054  32.882  1.00  0.00    -0.014 A 
ATOM     40  C   UNL A   1      44.001  33.188  32.238  1.00  0.00     0.009 A 
ATOM     41  C   UNL A   1      43.072  32.161  34.220  1.00  0.00     0.009 A 
ATOM     42  C   UNL A   1      44.129  34.396  32.927  1.00  0.00     0.001 A 
ATOM     43  C   UNL A   1      43.179  33.376  34.900  1.00  0.00     0.001 A 
ATOM     44  C   UNL A   1      43.714  34.491  34.255  1.00  0.00     0.000 A 
ENDBRANCH  25  39
BRANCH  26  45
ATOM     45  C   UNL A   1      42.075  23.627  27.733  1.00  0.00    -0.014 A 
ATOM     46  C   UNL A   1      42.491  23.527  26.398  1.00  0.00     0.009 A 
ATOM     47  C   UNL A   1      41.476  22.514  28.345  1.00  0.00     0.009 A 
ATOM     48  C   UNL A   1      42.296  22.342  25.685  1.00  0.00     0.001 A 
ATOM     49  C   UNL A   1      41.308  21.323  27.639  1.00  0.00     0.001 A 
ATOM     50  C   UNL A   1      41.712  21.240  26.308  1.00  0.00     0.000 A 
ENDBRANCH  26  45
BRANCH  38  51
ATOM     51  C   UNL A   1      47.283  26.049  31.653  1.00  0.00    -0.014 A 
ATOM     52  C   UNL A   1      48.390  26.183  30.801  1.00  0.00     0.009 A 
ATOM     53  C   UNL A   1      47.438  25.381  32.877  1.00  0.00     0.009 A 
ATOM     54  C   UNL A   1      49.622  25.631  31.157  1.00  0.00     0.001 A 
ATOM     55  C   UNL A   1      48.677  24.850  33.239  1.00  0.00     0.001 A 
ATOM     56  C   UNL A   1      49.764  24.967  32.376  1.00  0.00     0.000 A 
ENDBRANCH  38  51
ENDBRANCH  12  13
ENDBRANCH   5   7
ENDBRANCH   2   3
ENDBRANCH   1   2
BRANCH   1  57
ATOM     57  C   UNL A   1      33.637  26.967  24.842  1.00  0.00     0.117 C 
BRANCH  57  58
ATOM     58  N   UNL A   1      33.652  26.816  23.394  1.00  0.00    -0.356 N 
ATOM     59  C   UNL A   1      33.467  25.677  22.644  1.00  0.00     0.225 C 
ATOM     60  H   UNL A   1      33.813  27.641  22.882  1.00  0.00     0.163 HD
ATOM     61  O   UNL A   1      33.548  25.782  21.416  1.00  0.00    -0.275 OA
BRANCH  59  62
ATOM     62  C   UNL A   1      33.176  24.368  23.375  1.00  0.00     0.109 C 
ATOM     63  C   UNL A   1      31.778  23.722  23.297  1.00  0.00     0.117 C 
ATOM     64  C   UNL A   1      33.633  23.062  22.690  1.00  0.00     0.117 C 
ATOM     65  N   UNL A   1      32.452  22.357  23.317  1.00  0.00    -0.196 NA
BRANCH  65  66
ATOM     66  S   UNL A   1      32.630  21.502  24.805  1.00  0.00     0.243 S 
ATOM     67  O   UNL A   1      33.778  22.045  25.498  1.00  0.00    -0.207 OA
ATOM     68  O   UNL A   1      31.326  21.450  25.433  1.00  0.00    -0.207 OA
BRANCH  66  69
ATOM     69  C   UNL A   1      33.061  19.864  24.275  1.00  0.00     0.082 A 
ATOM     70  C   UNL A   1      32.297  19.231  23.285  1.00  0.00     0.025 A 
ATOM     71  C   UNL A   1      34.202  19.246  24.800  1.00  0.00     0.025 A 
ATOM     72  C   UNL A   1      32.671  17.964  22.835  1.00  0.00     0.040 A 
ATOM     73  C   UNL A   1      34.575  17.984  24.336  1.00  0.00     0.040 A 
ATOM     74  C   UNL A   1      33.805  17.356  23.361  1.00  0.00     0.123 A 
ATOM     75  F   UNL A   1      34.170  16.146  22.915  1.00  0.00    -0.207 F 
ENDBRANCH  66  69
ENDBRANCH  65  66
ENDBRANCH  59  62
ENDBRANCH  57  58
ENDBRANCH   1  57
TORSDOF 12
ENDMDL
